data_PCOD9213116
_publ_section_title
;
Structure prediction by ZEFSAII (Michael W. Deem and Ramdas Pophale) SiO2 
 PCOD9213116
Probable space group: C 2/M
;
_chemical_formula_sum "Si O2"
_cell_formula_units_Z 48
_cell_length_a 15.740149
_cell_length_b 25.662958
_cell_length_c 12.693729
_cell_angle_alpha 90.000000
_cell_angle_beta 149.683792
_cell_angle_gamma 90.000000
_cell_volume 2588.212297
_symmetry_space_group_name_H-M "C 2/M"
_symmetry_group_IT_number 12
_symmetry_cell_setting 'monoclinic'
loop_
_space_group_symop_operation_xyz
x,y,z
-x,y,-z
-x,-y,-z
x,-y,z
1/2+x,1/2+y,z
1/2-x,1/2+y,-z
1/2-x,1/2-y,-z
1/2+x,1/2-y,z
loop_
_atom_site_type_symbol
_atom_site_label
_atom_site_fract_x
_atom_site_fract_y
_atom_site_fract_z
Si Si1 0.969070 0.615415 0.092056
Si Si2 0.817507 0.120315 0.525254
Si Si3 0.385462 0.775126 0.065354
Si Si4 0.325644 0.282858 0.371790
Si Si5 0.628723 0.692686 0.235385
Si Si6 0.394411 0.438590 0.279016
O O1 0.951857 0.666269 0.150329
O O2 0.144648 0.589418 0.317366
O O3 0.792131 0.585431 0.911852
O O4 0.000000 0.625385 0.000000
O O5 0.805555 0.171089 0.434449
O O6 0.830072 0.141429 0.656518
O O7 0.987745 0.090265 0.679030
O O8 0.530807 0.732910 0.207417
O O9 0.250000 0.750000 0.000000
O O10 0.307000 0.783342 0.865200
O O11 0.500000 0.289748 0.500000
O O12 0.295547 0.225195 0.384748
O O13 0.500000 0.684134 0.000000
O O14 0.500000 0.430829 0.500000
O O15 0.382144 0.500000 0.245898
#
# Coordination Sequence:
#
# PCOD9213116 Si02
#       6
#     8   8   8   8   8   8
#     4  12  21  36  57  84 115 154 195 231 281 346
#     4  12  22  38  61  81 116 159 192 235 290 339
#     4  11  20  32  50  78 118 157 191 227 271 331
#     4  11  20  31  51  80 116 153 191 227 272 333
#     4  10  22  37  52  83 118 151 196 233 277 339
#     4  11  24  40  59  87 117 147 187 240 296 349
#
# _framework density 18.54562
#
# number of rings (size 3 to 8) (size 9 to 14) (size 15 to 20)
#    0.000    0.833    5.000    4.500    2.333    1.000 
#    0.000    0.000    0.000    0.500    0.000    1.167 
#    0.000    0.000    0.000    0.000    0.000    0.000 
#
# Total GULP energy -133875.991000 kJ/mol
# GULP energy per Si atom -5578.166292 kJ/mol
# Density = 1.850341 g / cm^3
# Si number density = 18.545620 Si / 1000 Ang^3
#
#
#
# Elastic Constant Matrix: (Units=GPa)
#
#
# Indices 1 2 3 4 5 6 
#
# 1 69.8343 34.6925 29.7064 0.0000 15.1103 0.0000
# 2 34.6925 61.5369 32.7720 0.0000 7.6939 0.0000
# 3 29.7064 32.7720 99.5536 0.0000 15.3796 0.0000
# 4 0.0000 0.0000 0.0000 17.8201 0.0000 0.7646
# 5 15.1103 7.6939 15.3796 0.0000 34.7020 0.0000
# 6 0.0000 0.0000 0.0000 0.7646 0.0000 22.5058
#
#
#
# Elastic Compliance Matrix: (Units=1/GPa)
#
#
# Indices 1 2 3 4 5 6 
#
# 1 0.021695 -0.010328 -0.002113 0.000000 -0.006220 0.000000
# 2 -0.010328 0.024705 -0.005260 0.000000 0.001351 0.000000
# 3 -0.002113 -0.005260 0.012973 0.000000 -0.003663 0.000000
# 4 0.000000 0.000000 0.000000 0.056198 0.000000 -0.001909
# 5 -0.006220 0.001351 -0.003663 0.000000 0.032849 0.000000
# 6 0.000000 0.000000 0.000000 -0.001909 0.000000 0.044498
#
#
# Mechanical properties :
#
#
# Convention : Reuss Voigt Hill
#
# Bulk Modulus (GPa) = 41.71526 47.25183 44.48355
# Shear Modulus (GPa) = 21.15864 23.92249 22.54057
#
# Velocity S-wave (km/s) = 3.38138 3.59545 3.49006
# Velocity P-wave (km/s) = 6.14712 6.53991 6.34655
#
# Compressibility (1/GPa) = 0.02397204
#
# Stress axis : x y z
#
# Youngs Moduli (GPa) = 46.09330 40.47737 77.08549
#
# Poissons Ratio (x) = 0.41805 0.16287
# Poissons Ratio (y) = 0.47605 0.40543
# Poissons Ratio (z) = 0.09739 0.21289
#
# Static dielectric constant tensor:
#      x y z
#    x 1.657050 0.000000 -0.005830 
#    y 0.000000 1.672010 0.000000 
#    z -0.005830 0.000000 1.561090 
# 
# From -- ./inp_files/106811.got.cif
#   From: 2010.05.17/outbox.cif.g08.bks.cpg/sg12_54_cif.got.tgz:106811.got - 2010.06.03 13:09:07.
