data_PCOD9213119
_publ_section_title
;
Structure prediction by ZEFSAII (Michael W. Deem and Ramdas Pophale) SiO2 
 PCOD9213119
Probable space group: C 2/M
;
_chemical_formula_sum "Si O2"
_cell_formula_units_Z 32
_cell_length_a 13.746784
_cell_length_b 33.007885
_cell_length_c 5.271168
_cell_angle_alpha 90.000000
_cell_angle_beta 38.080749
_cell_angle_gamma 90.000000
_cell_volume 1475.196646
_symmetry_space_group_name_H-M "C 2/M"
_symmetry_group_IT_number 12
_symmetry_cell_setting 'monoclinic'
loop_
_space_group_symop_operation_xyz
x,y,z
-x,y,-z
-x,-y,-z
x,-y,z
1/2+x,1/2+y,z
1/2-x,1/2+y,-z
1/2-x,1/2-y,-z
1/2+x,1/2-y,z
loop_
_atom_site_type_symbol
_atom_site_label
_atom_site_fract_x
_atom_site_fract_y
_atom_site_fract_z
Si Si1 0.807542 0.453596 0.908788
Si Si2 0.306911 0.907317 0.412110
Si Si3 0.392502 0.735927 0.475649
Si Si4 0.685490 0.816683 0.583802
O O1 0.759730 0.500000 0.050560
O O2 0.755716 0.436573 0.743986
O O3 0.000000 0.453148 0.500000
O O4 0.756106 0.424546 0.244087
O O5 0.251575 0.861674 0.590366
O O6 0.500000 0.907702 0.000000
O O7 0.500000 0.731462 0.500000
O O8 0.309242 0.780119 0.631530
O O9 0.265707 0.701528 0.670741
O O10 0.500000 0.734625 0.000000
O O11 0.500000 0.822396 0.000000
#
# Coordination Sequence:
#
# PCOD9213119 Si02
#       4
#     8   8   8   8
#     4   9  16  26  40  62  95 129 156 192 248 303
#     4   9  17  27  43  66  93 126 163 200 241 295
#     4  10  22  37  53  74 105 140 173 212 257 303
#     4   9  20  35  54  77 104 137 175 213 254 301
#
# _framework density 21.692024
#
# number of rings (size 3 to 8) (size 9 to 14) (size 15 to 20)
#    0.000    2.750    0.000    0.750    0.000   21.000 
#    0.000    0.000    0.000    0.000    0.000    0.000 
#    0.000   20.000    0.000    0.000    0.000    0.000 
#
# Total GULP energy -89222.606613 kJ/mol
# GULP energy per Si atom -5576.412913 kJ/mol
# Density = 2.164265 g / cm^3
# Si number density = 21.692024 Si / 1000 Ang^3
#
#
#
# Elastic Constant Matrix: (Units=GPa)
#
#
# Indices 1 2 3 4 5 6 
#
# 1 151.1142 38.0913 33.3766 0.0000 26.1050 0.0000
# 2 38.0913 123.6052 4.8464 0.0000 -3.8156 0.0000
# 3 33.3766 4.8464 43.0038 0.0000 9.6027 0.0000
# 4 0.0000 0.0000 0.0000 4.2409 0.0000 3.0033
# 5 26.1050 -3.8156 9.6027 0.0000 18.4834 0.0000
# 6 0.0000 0.0000 0.0000 3.0033 0.0000 14.1860
#
#
#
# Elastic Compliance Matrix: (Units=1/GPa)
#
#
# Indices 1 2 3 4 5 6 
#
# 1 0.011012 -0.003615 -0.005090 0.000000 -0.013655 0.000000
# 2 -0.003615 0.009411 0.000194 0.000000 0.006948 0.000000
# 3 -0.005090 0.000194 0.028924 0.000000 -0.007798 0.000000
# 4 0.000000 0.000000 0.000000 0.277390 0.000000 -0.058726
# 5 -0.013655 0.006948 -0.007798 0.000000 0.078873 0.000000
# 6 0.000000 0.000000 0.000000 -0.058726 0.000000 0.082925
#
#
# Mechanical properties :
#
#
# Convention : Reuss Voigt Hill
#
# Bulk Modulus (GPa) = 30.93726 52.26130 41.59928
# Shear Modulus (GPa) = 9.68367 23.47598 16.57982
#
# Velocity S-wave (km/s) = 2.11515 3.29331 2.76765
# Velocity P-wave (km/s) = 4.50090 6.21336 5.42513
#
# Compressibility (1/GPa) = 0.03232348
#
# Stress axis : x y z
#
# Youngs Moduli (GPa) = 90.81026 106.25474 34.57357
#
# Poissons Ratio (x) = 0.38416 0.17599
# Poissons Ratio (y) = 0.32832 -0.00670
# Poissons Ratio (z) = 0.46225 -0.02060
#
# Static dielectric constant tensor:
#      x y z
#    x 1.768610 0.000000 -0.010720 
#    y 0.000000 1.786250 0.000000 
#    z -0.010720 0.000000 1.888830 
# 
# From -- ./inp_files/3746.got.cif
#   From: 2010.05.17/outbox.cif.g08.bks.cpg/sg12_2_cif.got.tgz:3746.got - 2010.06.03 13:09:07.
