data_PCOD9213760
_publ_section_title
;
Structure prediction by ZEFSAII (Michael W. Deem and Ramdas Pophale) SiO2 
 PCOD9213760
Probable space group: C 2/M
;
_chemical_formula_sum "Si O2"
_cell_formula_units_Z 20
_cell_length_a 14.645805
_cell_length_b 10.760519
_cell_length_c 5.745492
_cell_angle_alpha 90.000000
_cell_angle_beta 92.644424
_cell_angle_gamma 90.000000
_cell_volume 904.504981
_symmetry_space_group_name_H-M "C 2/M"
_symmetry_group_IT_number 12
_symmetry_cell_setting 'monoclinic'
loop_
_space_group_symop_operation_xyz
x,y,z
-x,y,-z
-x,-y,-z
x,-y,z
1/2+x,1/2+y,z
1/2-x,1/2+y,-z
1/2-x,1/2-y,-z
1/2+x,1/2-y,z
loop_
_atom_site_type_symbol
_atom_site_label
_atom_site_fract_x
_atom_site_fract_y
_atom_site_fract_z
Si Si1 0.948456 0.500000 0.739450
Si Si2 0.765302 0.358076 0.316931
Si Si3 0.104372 0.258632 0.049459
O O1 0.897237 0.369085 0.759309
O O2 0.000000 0.500000 0.500000
O O3 0.000000 0.500000 0.000000
O O4 0.770760 0.500000 0.400366
O O5 0.750000 0.250000 0.500000
O O6 0.676708 0.344370 0.136801
O O7 0.854055 0.322136 0.176227
O O8 0.000000 0.216198 0.000000
#
# Coordination Sequence:
#
# PCOD9213760 Si02
#       3
#     4   8   8
#     4  10  22  38  74 106 133 178 245 298 352 424
#     4  11  26  43  67 102 139 182 232 293 358 426
#     4  10  24  43  69  98 135 181 239 291 353 418
#
# _framework density 22.111540000000002
#
# number of rings (size 3 to 8) (size 9 to 14) (size 15 to 20)
#    0.000    1.600    2.000    0.000   14.000    2.400 
#    0.000    2.000    0.000    0.000    0.000    0.000 
#    0.000    0.000    0.000    0.000    0.000    0.000 
#
# Total GULP energy -55843.174684 kJ/mol
# GULP energy per Si atom -5584.317468 kJ/mol
# Density = 2.206121 g / cm^3
# Si number density = 22.111540 Si / 1000 Ang^3
#
#
#
# Elastic Constant Matrix: (Units=GPa)
#
#
# Indices 1 2 3 4 5 6 
#
# 1 155.8981 25.4147 40.3195 0.0000 -7.4578 0.0000
# 2 25.4147 119.8948 62.9196 0.0000 -8.5093 0.0000
# 3 40.3195 62.9196 140.4372 0.0000 -40.1032 0.0000
# 4 0.0000 0.0000 0.0000 46.7296 0.0000 8.2178
# 5 -7.4578 -8.5093 -40.1032 0.0000 51.2519 0.0000
# 6 0.0000 0.0000 0.0000 8.2178 0.0000 30.8344
#
#
#
# Elastic Compliance Matrix: (Units=1/GPa)
#
#
# Indices 1 2 3 4 5 6 
#
# 1 0.006971 -0.000498 -0.001947 0.000000 -0.000592 0.000000
# 2 -0.000498 0.011214 -0.005628 0.000000 -0.002614 0.000000
# 3 -0.001947 -0.005628 0.012689 0.000000 0.008711 0.000000
# 4 0.000000 0.000000 0.000000 0.022452 0.000000 -0.005984
# 5 -0.000592 -0.002614 0.008711 0.000000 0.025807 0.000000
# 6 0.000000 0.000000 0.000000 -0.005984 0.000000 0.034026
#
#
# Mechanical properties :
#
#
# Convention : Reuss Voigt Hill
#
# Bulk Modulus (GPa) = 67.89956 74.83751 71.36853
# Shear Modulus (GPa) = 37.25401 44.93493 41.09447
#
# Velocity S-wave (km/s) = 4.10911 4.51288 4.31572
# Velocity P-wave (km/s) = 7.29983 7.81496 7.56178
#
# Compressibility (1/GPa) = 0.01472764
#
# Stress axis : x y z
#
# Youngs Moduli (GPa) = 143.45313 89.17415 78.81124
#
# Poissons Ratio (x) = 0.04438 0.15348
# Poissons Ratio (y) = 0.07139 0.44353
# Poissons Ratio (z) = 0.27937 0.50185
#
# Static dielectric constant tensor:
#      x y z
#    x 1.910960 0.000000 0.106790 
#    y 0.000000 1.823590 0.000000 
#    z 0.106790 0.000000 1.855000 
# 
# From -- ./inp_files/8846.got.cif
#   From: 2010.05.17/outbox.cif.g08.bks.cpg/sg12_5_cif.got.tgz:8846.got - 2010.06.03 13:09:07.
