data_PCOD9213099
_publ_section_title
;
Structure prediction by ZEFSAII (Michael W. Deem and Ramdas Pophale) SiO2 
 PCOD9213099
Probable space group: C 2/M
;
_chemical_formula_sum "Si O2"
_cell_formula_units_Z 24
_cell_length_a 7.594947
_cell_length_b 16.573502
_cell_length_c 10.116869
_cell_angle_alpha 90.000000
_cell_angle_beta 69.915130
_cell_angle_gamma 90.000000
_cell_volume 1196.014080
_symmetry_space_group_name_H-M "C 2/M"
_symmetry_group_IT_number 12
_symmetry_cell_setting 'monoclinic'
loop_
_space_group_symop_operation_xyz
x,y,z
-x,y,-z
-x,-y,-z
x,-y,z
1/2+x,1/2+y,z
1/2-x,1/2+y,-z
1/2-x,1/2-y,-z
1/2+x,1/2-y,z
loop_
_atom_site_type_symbol
_atom_site_label
_atom_site_fract_x
_atom_site_fract_y
_atom_site_fract_z
Si Si1 0.169617 0.836320 0.058017
Si Si2 0.973507 0.500000 0.350766
Si Si3 0.227752 0.000000 0.941530
Si Si4 0.630339 0.408200 0.343140
O O1 0.116732 0.847578 0.224885
O O2 0.250000 0.750000 0.000000
O O3 0.000000 0.842887 0.000000
O O4 0.288388 0.917450 0.997748
O O5 0.170801 0.500000 0.225483
O O6 0.000000 0.500000 0.500000
O O7 0.842757 0.424510 0.338611
O O8 0.000000 0.000000 0.000000
O O9 0.500000 0.385685 0.500000
O O10 0.569739 0.500000 0.315944
#
# Coordination Sequence:
#
# PCOD9213099 Si02
#       4
#     8   4   4   8
#     4  11  25  41  67  96 138 178 229 277 343 401
#     4  10  22  36  73 101 132 171 241 274 349 405
#     4  10  23  40  67  94 136 175 226 278 345 391
#     4   9  21  40  67  98 135 173 228 277 348 396
#
# _framework density 20.066652000000001
#
# number of rings (size 3 to 8) (size 9 to 14) (size 15 to 20)
#    1.000    1.000    1.667    0.000   14.000    1.333 
#    0.000    3.333    0.000    0.000    0.000    0.000 
#    0.000    0.000    0.000    0.000    0.000    0.000 
#
# Total GULP energy -66813.024870 kJ/mol
# GULP energy per Si atom -5567.752073 kJ/mol
# Density = 2.002098 g / cm^3
# Si number density = 20.066652 Si / 1000 Ang^3
#
#
#
# Elastic Constant Matrix: (Units=GPa)
#
#
# Indices 1 2 3 4 5 6 
#
# 1 106.1659 22.4334 64.3596 0.0000 3.4542 0.0000
# 2 22.4334 160.6654 74.0292 0.0000 1.1253 0.0000
# 3 64.3596 74.0292 219.6731 0.0000 -7.9216 0.0000
# 4 0.0000 0.0000 0.0000 -24.2827 0.0000 -59.3015
# 5 3.4542 1.1253 -7.9216 0.0000 38.0094 0.0000
# 6 0.0000 0.0000 0.0000 -59.3015 0.0000 -45.0696
#
#
#
# Elastic Compliance Matrix: (Units=1/GPa)
#
#
# Indices 1 2 3 4 5 6 
#
# 1 0.011571 -0.000014 -0.003449 0.000000 -0.001770 0.000000
# 2 -0.000014 0.007389 -0.002513 0.000000 -0.000741 0.000000
# 3 -0.003449 -0.002513 0.006472 0.000000 0.001737 0.000000
# 4 0.000000 0.000000 0.000000 0.018606 0.000000 -0.024482
# 5 -0.001770 -0.000741 0.001737 0.000000 0.026854 0.000000
# 6 0.000000 0.000000 0.000000 -0.024482 0.000000 0.010025
#
#
# Mechanical properties :
#
#
# Convention : Reuss Voigt Hill
#
# Bulk Modulus (GPa) = 74.18240 89.79431 81.98835
# Shear Modulus (GPa) = 51.35472 15.44357 33.39914
#
# Velocity S-wave (km/s) = 5.06435 2.77720 4.08414
# Velocity P-wave (km/s) = 8.44068 7.42489 7.94903
#
# Compressibility (1/GPa) = 0.01348029
#
# Stress axis : x y z
#
# Youngs Moduli (GPa) = 86.42555 135.33570 154.50866
#
# Poissons Ratio (x) = 0.00189 0.53291
# Poissons Ratio (y) = 0.00121 0.38824
# Poissons Ratio (z) = 0.29809 0.34006
#
# Static dielectric constant tensor:
#      x y z
#    x 1.749930 0.000000 -0.016100 
#    y 0.000000 1.854950 0.000000 
#    z -0.016100 0.000000 1.714000 
# 
# From -- ./inp_files/36364.got.cif
#   From: 2010.05.17/outbox.cif.g08.bks.cpg/sg12_19_cif.got.tgz:36364.got - 2010.06.03 13:09:07.
