data_PCOD9213823
_publ_section_title
;
Structure prediction by ZEFSAII (Michael W. Deem and Ramdas Pophale) SiO2 
 PCOD9213823
Probable space group: C 2/M
;
_chemical_formula_sum "Si O2"
_cell_formula_units_Z 56
_cell_length_a 24.086819
_cell_length_b 8.840388
_cell_length_c 15.159371
_cell_angle_alpha 90.000000
_cell_angle_beta 110.390220
_cell_angle_gamma 90.000000
_cell_volume 3025.727351
_symmetry_space_group_name_H-M "C 2/M"
_symmetry_group_IT_number 12
_symmetry_cell_setting 'monoclinic'
loop_
_space_group_symop_operation_xyz
x,y,z
-x,y,-z
-x,-y,-z
x,-y,z
1/2+x,1/2+y,z
1/2-x,1/2+y,-z
1/2-x,1/2-y,-z
1/2+x,1/2-y,z
loop_
_atom_site_type_symbol
_atom_site_label
_atom_site_fract_x
_atom_site_fract_y
_atom_site_fract_z
Si Si1 0.569788 0.318064 0.187743
Si Si2 0.060406 0.819517 0.824270
Si Si3 0.755231 0.680171 0.905491
Si Si4 0.108036 0.320781 0.031050
Si Si5 0.648021 0.818515 0.735904
Si Si6 0.176193 0.182175 0.372800
Si Si7 0.187344 0.317878 0.567371
O O1 0.572599 0.500000 0.177759
O O2 0.508967 0.282784 0.204471
O O3 0.571386 0.242641 0.092868
O O4 0.626533 0.267981 0.276077
O O5 0.092481 0.745733 0.758632
O O6 0.067220 0.000000 0.823710
O O7 0.091167 0.759328 0.930486
O O8 0.745097 0.500000 0.903896
O O9 0.822435 0.707149 0.911544
O O10 0.706676 0.756308 0.816606
O O11 0.750000 0.750000 0.000000
O O12 0.099226 0.500000 0.016190
O O13 0.652023 0.773802 0.635539
O O14 0.648288 0.000000 0.741452
O O15 0.165207 0.246124 0.464328
O O16 0.243254 0.226667 0.383796
O O17 0.174374 0.000000 0.375166
O O18 0.185595 0.500000 0.558599
#
# Coordination Sequence:
#
# PCOD9213823 Si02
#       7
#     8   8   8   8   8   8   8
#     4  10  22  39  58  81 109 147 191 231 278 330
#     4  11  23  38  56  78 110 151 192 232 274 330
#     4  11  22  35  54  81 113 147 182 225 275 328
#     4  11  23  37  56  83 112 146 187 231 280 330
#     4  11  22  37  57  82 114 150 187 229 280 333
#     4   9  18  36  60  84 110 139 177 228 277 330
#     4   9  19  35  58  86 112 140 175 224 283 336
#
# _framework density 18.507946
#
# number of rings (size 3 to 8) (size 9 to 14) (size 15 to 20)
#    0.000    1.714    1.429    3.000    0.000    7.429 
#    0.000    3.571    0.000    4.286    0.000    0.000 
#    0.000    0.000    0.000    0.000    0.000    0.000 
#
# Total GULP energy -156448.738815 kJ/mol
# GULP energy per Si atom -5587.454958 kJ/mol
# Density = 1.846582 g / cm^3
# Si number density = 18.507946 Si / 1000 Ang^3
#
#
#
# Elastic Constant Matrix: (Units=GPa)
#
#
# Indices 1 2 3 4 5 6 
#
# 1 96.3458 41.8564 45.8128 0.0000 -27.0445 0.0000
# 2 41.8564 35.1320 16.4887 0.0000 -9.8495 0.0000
# 3 45.8128 16.4887 66.7729 0.0000 -29.6916 0.0000
# 4 0.0000 0.0000 0.0000 27.5568 0.0000 -4.9476
# 5 -27.0445 -9.8495 -29.6916 0.0000 32.7739 0.0000
# 6 0.0000 0.0000 0.0000 -4.9476 0.0000 30.5990
#
#
#
# Elastic Compliance Matrix: (Units=1/GPa)
#
#
# Indices 1 2 3 4 5 6 
#
# 1 0.029439 -0.028432 -0.010340 0.000000 0.006380 0.000000
# 2 -0.028432 0.059994 0.003813 0.000000 -0.001977 0.000000
# 3 -0.010340 0.003813 0.029882 0.000000 0.019685 0.000000
# 4 0.000000 0.000000 0.000000 0.037374 0.000000 0.006043
# 5 0.006380 -0.001977 0.019685 0.000000 0.053017 0.000000
# 6 0.000000 0.000000 0.000000 0.006043 0.000000 0.033658
#
#
# Mechanical properties :
#
#
# Convention : Reuss Voigt Hill
#
# Bulk Modulus (GPa) = 20.24382 45.17407 32.70894
# Shear Modulus (GPa) = 15.16314 24.45880 19.81097
#
# Velocity S-wave (km/s) = 2.86541 3.63923 3.27525
# Velocity P-wave (km/s) = 4.68071 6.48996 5.65812
#
# Compressibility (1/GPa) = 0.04939779
#
# Stress axis : x y z
#
# Youngs Moduli (GPa) = 33.96859 16.66831 33.46480
#
# Poissons Ratio (x) = 0.47391 0.34603
# Poissons Ratio (y) = 0.96579 -0.12761
# Poissons Ratio (z) = 0.35124 -0.06356
#
# Static dielectric constant tensor:
#      x y z
#    x 1.649630 0.000000 0.005870 
#    y 0.000000 1.620350 0.000000 
#    z 0.005870 0.000000 1.604380 
# 
# From -- ./inp_files/237335.got.cif
#   From: 2010.05.17/outbox.cif.g08.bks.cpg/sg12_119_cif.got.tgz:237335.got - 2010.06.03 13:09:07.
