data_PCOD9213866
_publ_section_title
;
Structure prediction by ZEFSAII (Michael W. Deem and Ramdas Pophale) SiO2 
 PCOD9213866
Probable space group: C 2/M
;
_chemical_formula_sum "Si O2"
_cell_formula_units_Z 32
_cell_length_a 16.991421
_cell_length_b 14.973829
_cell_length_c 9.891764
_cell_angle_alpha 90.000000
_cell_angle_beta 145.988620
_cell_angle_gamma 90.000000
_cell_volume 1407.750934
_symmetry_space_group_name_H-M "C 2/M"
_symmetry_group_IT_number 12
_symmetry_cell_setting 'monoclinic'
loop_
_space_group_symop_operation_xyz
x,y,z
-x,y,-z
-x,-y,-z
x,-y,z
1/2+x,1/2+y,z
1/2-x,1/2+y,-z
1/2-x,1/2-y,-z
1/2+x,1/2-y,z
loop_
_atom_site_type_symbol
_atom_site_label
_atom_site_fract_x
_atom_site_fract_y
_atom_site_fract_z
Si Si1 0.863123 0.103961 0.016265
Si Si2 0.576770 0.902085 0.465159
Si Si3 0.330446 0.398321 0.267881
Si Si4 0.875654 0.222892 0.582187
O O1 0.793230 0.130124 0.061956
O O2 0.004962 0.157136 0.191203
O O3 0.900898 0.000000 0.087008
O O4 0.742859 0.108615 0.733299
O O5 0.500000 0.902277 0.500000
O O6 0.540225 0.813414 0.333973
O O7 0.551900 0.000000 0.367225
O O8 0.500000 0.403063 0.500000
O O9 0.278948 0.500000 0.222082
O O10 0.308659 0.326754 0.355058
O O11 0.750000 0.250000 0.500000
#
# Coordination Sequence:
#
# PCOD9213866 Si02
#       4
#     8   8   8   8
#     4   9  19  39  64  83 105 145 194 238 278 324
#     4  10  22  39  59  84 112 145 189 238 282 326
#     4   8  15  31  56  81 103 137 191 241 272 313
#     4  11  22  33  52  85 120 151 183 222 275 340
#
# _framework density 22.731293000000001
#
# number of rings (size 3 to 8) (size 9 to 14) (size 15 to 20)
#    0.000    2.500    0.000    4.500    0.000    7.000 
#    0.000    2.500    0.000    1.500    0.000   15.750 
#    0.000    0.000    0.000    0.000    0.000    0.000 
#
# Total GULP energy -89361.700921 kJ/mol
# GULP energy per Si atom -5585.106308 kJ/mol
# Density = 2.267956 g / cm^3
# Si number density = 22.731293 Si / 1000 Ang^3
#
#
#
# Elastic Constant Matrix: (Units=GPa)
#
#
# Indices 1 2 3 4 5 6 
#
# 1 85.3301 57.3834 8.0338 0.0000 22.8723 0.0000
# 2 57.3834 137.5065 18.1071 0.0000 16.2443 0.0000
# 3 8.0338 18.1071 69.8286 0.0000 11.5573 0.0000
# 4 0.0000 0.0000 0.0000 16.7154 0.0000 9.8442
# 5 22.8723 16.2443 11.5573 0.0000 24.9133 0.0000
# 6 0.0000 0.0000 0.0000 9.8442 0.0000 -18.2173
#
#
#
# Elastic Compliance Matrix: (Units=1/GPa)
#
#
# Indices 1 2 3 4 5 6 
#
# 1 0.020189 -0.006918 0.001941 0.000000 -0.014925 0.000000
# 2 -0.006918 0.010359 -0.001975 0.000000 0.000513 0.000000
# 3 0.001941 -0.001975 0.015913 0.000000 -0.007877 0.000000
# 4 0.000000 0.000000 0.000000 0.045382 0.000000 0.024524
# 5 -0.014925 0.000513 -0.007877 0.000000 0.057161 0.000000
# 6 0.000000 0.000000 0.000000 0.024524 0.000000 -0.041641
#
#
# Mechanical properties :
#
#
# Convention : Reuss Voigt Hill
#
# Bulk Modulus (GPa) = 30.71442 51.07933 40.89688
# Shear Modulus (GPa) = 37.84465 18.62501 28.23483
#
# Velocity S-wave (km/s) = 4.08471 2.86554 3.52819
# Velocity P-wave (km/s) = 5.98229 5.78517 5.88455
#
# Compressibility (1/GPa) = 0.03255799
#
# Stress axis : x y z
#
# Youngs Moduli (GPa) = 49.53188 96.53728 62.84083
#
# Poissons Ratio (x) = 0.66781 -0.12199
# Poissons Ratio (y) = 0.34264 0.12412
# Poissons Ratio (z) = -0.09615 0.19067
#
# Static dielectric constant tensor:
#      x y z
#    x 1.861730 0.000000 -0.065640 
#    y 0.000000 1.866120 0.000000 
#    z -0.065640 0.000000 1.936490 
# 
# From -- ./inp_files/45225.got.cif
#   From: 2010.05.17/outbox.cif.g08.bks.cpg/sg12_23_cif.got.tgz:45225.got - 2010.06.03 13:09:07.
