data_PCOD9213357
_publ_section_title
;
Structure prediction by ZEFSAII (Michael W. Deem and Ramdas Pophale) SiO2 
 PCOD9213357
Probable space group: C 2/M
;
_chemical_formula_sum "Si O2"
_cell_formula_units_Z 64
_cell_length_a 15.025370
_cell_length_b 8.613699
_cell_length_c 27.349920
_cell_angle_alpha 90.000000
_cell_angle_beta 105.904903
_cell_angle_gamma 90.000000
_cell_volume 3404.227766
_symmetry_space_group_name_H-M "C 2/M"
_symmetry_group_IT_number 12
_symmetry_cell_setting 'monoclinic'
loop_
_space_group_symop_operation_xyz
x,y,z
-x,y,-z
-x,-y,-z
x,-y,z
1/2+x,1/2+y,z
1/2-x,1/2+y,-z
1/2-x,1/2-y,-z
1/2+x,1/2-y,z
loop_
_atom_site_type_symbol
_atom_site_label
_atom_site_fract_x
_atom_site_fract_y
_atom_site_fract_z
Si Si1 0.648877 0.687543 0.498654
Si Si2 0.040364 0.812909 0.579718
Si Si3 0.819660 0.814919 0.862456
Si Si4 0.370547 0.815029 0.309167
Si Si5 0.684910 0.815479 0.246624
Si Si6 0.994275 0.189104 0.054767
Si Si7 0.358180 0.314425 0.116234
Si Si8 0.528063 0.187597 0.775685
O O1 0.653329 0.500000 0.498558
O O2 0.750000 0.750000 0.500000
O O3 0.564502 0.736006 0.449931
O O4 0.610551 0.734746 0.546566
O O5 0.075876 0.752167 0.636531
O O6 0.040279 0.000000 0.580081
O O7 0.802857 0.736919 0.807658
O O8 0.916147 0.763020 0.900653
O O9 0.737082 0.769624 0.886013
O O10 0.821706 0.000000 0.855544
O O11 0.264333 0.761734 0.290836
O O12 0.417676 0.765657 0.265063
O O13 0.374844 0.000000 0.311708
O O14 0.580136 0.773936 0.245231
O O15 0.694840 0.000000 0.251373
O O16 0.904164 0.234367 0.071976
O O17 0.995436 0.000000 0.053758
O O18 0.000000 0.244639 0.000000
O O19 0.345400 0.500000 0.114444
O O20 0.428245 0.268758 0.170477
O O21 0.536819 0.000000 0.783047
#
# Coordination Sequence:
#
# PCOD9213357 Si02
#       8
#     8   8   8   8   8   8   8   8
#     4   9  19  37  62  87 115 154 197 238 288 338
#     4   9  20  39  58  82 119 158 192 236 287 341
#     4  11  21  36  58  83 112 147 186 233 284 337
#     4  11  23  38  57  85 119 154 191 239 289 339
#     4  11  22  37  58  83 112 151 191 233 287 345
#     4   9  20  38  58  82 114 149 186 233 287 342
#     4  11  21  35  59  85 109 146 191 229 279 344
#     4  10  22  38  56  80 114 149 186 235 288 338
#
# _framework density 18.800153000000002
#
# number of rings (size 3 to 8) (size 9 to 14) (size 15 to 20)
#    0.000    1.875    2.500    2.250    0.000    3.500 
#    0.000    5.000    0.000    5.250    0.000    0.000 
#    0.000    0.000    0.000    0.000    0.000    0.000 
#
# Total GULP energy -178690.311896 kJ/mol
# GULP energy per Si atom -5584.072247 kJ/mol
# Density = 1.875736 g / cm^3
# Si number density = 18.800153 Si / 1000 Ang^3
#
#
#
# Elastic Constant Matrix: (Units=GPa)
#
#
# Indices 1 2 3 4 5 6 
#
# 1 84.5921 5.2715 -11.1335 0.0000 1.1025 0.0000
# 2 5.2715 8.7613 0.7711 0.0000 -2.6535 0.0000
# 3 -11.1335 0.7711 43.9327 0.0000 -2.3708 0.0000
# 4 0.0000 0.0000 0.0000 20.6725 0.0000 -0.4267
# 5 1.1025 -2.6535 -2.3708 0.0000 17.6861 0.0000
# 6 0.0000 0.0000 0.0000 -0.4267 0.0000 29.1166
#
#
#
# Elastic Compliance Matrix: (Units=1/GPa)
#
#
# Indices 1 2 3 4 5 6 
#
# 1 0.012807 -0.008490 0.003307 0.000000 -0.001629 0.000000
# 2 -0.008490 0.125257 -0.003332 0.000000 0.018875 0.000000
# 3 0.003307 -0.003332 0.023793 0.000000 0.002483 0.000000
# 4 0.000000 0.000000 0.000000 0.048388 0.000000 0.000709
# 5 -0.001629 0.018875 0.002483 0.000000 0.059808 0.000000
# 6 0.000000 0.000000 0.000000 0.000709 0.000000 0.034355
#
#
# Mechanical properties :
#
#
# Convention : Reuss Voigt Hill
#
# Bulk Modulus (GPa) = 6.90481 14.12270 10.51376
# Shear Modulus (GPa) = 13.52401 22.98683 18.25542
#
# Velocity S-wave (km/s) = 2.68499 3.50050 3.11951
# Velocity P-wave (km/s) = 3.64595 4.88531 4.31041
#
# Compressibility (1/GPa) = 0.14482653
#
# Stress axis : x y z
#
# Youngs Moduli (GPa) = 78.08269 7.98359 42.02998
#
# Poissons Ratio (x) = 0.06778 -0.13898
# Poissons Ratio (y) = 0.66292 0.14002
# Poissons Ratio (z) = -0.25819 0.02660
#
# Static dielectric constant tensor:
#      x y z
#    x 1.657000 0.000000 -0.002150 
#    y 0.000000 1.637250 0.000000 
#    z -0.002150 0.000000 1.628560 
# 
# From -- ./inp_files/359981.got.cif
#   From: 2010.05.17/outbox.cif.g08.bks.cpg/sg12_180_cif.got.tgz:359981.got - 2010.06.03 13:09:07.
