data_PCOD9213982
_publ_section_title
;
Structure prediction by ZEFSAII (Michael W. Deem and Ramdas Pophale) SiO2 
 PCOD9213982
Probable space group: C 2/M
;
_chemical_formula_sum "Si O2"
_cell_formula_units_Z 58
_cell_length_a 25.522583
_cell_length_b 7.851755
_cell_length_c 28.472361
_cell_angle_alpha 90.000000
_cell_angle_beta 28.605301
_cell_angle_gamma 90.000000
_cell_volume 2731.772794
_symmetry_space_group_name_H-M "C 2/M"
_symmetry_group_IT_number 12
_symmetry_cell_setting 'monoclinic'
loop_
_space_group_symop_operation_xyz
x,y,z
-x,y,-z
-x,-y,-z
x,-y,z
1/2+x,1/2+y,z
1/2-x,1/2+y,-z
1/2-x,1/2-y,-z
1/2+x,1/2-y,z
loop_
_atom_site_type_symbol
_atom_site_label
_atom_site_fract_x
_atom_site_fract_y
_atom_site_fract_z
Si Si1 0.790345 0.690763 0.519256
Si Si2 0.000000 0.500000 0.500000
Si Si3 0.222470 0.203145 0.233005
Si Si4 0.878565 0.806375 0.186821
Si Si5 0.140191 0.295627 0.060303
Si Si6 0.391452 0.794053 0.021175
Si Si7 0.092496 0.694555 0.733646
Si Si8 0.027634 0.197556 0.553865
O O1 0.832680 0.500000 0.481278
O O2 0.750000 0.750000 0.500000
O O3 0.682943 0.699369 0.636150
O O4 0.882854 0.791746 0.475156
O O5 0.956766 0.346037 0.497191
O O6 0.268181 0.283252 0.244768
O O7 0.093941 0.232775 0.329572
O O8 0.238858 0.000000 0.223768
O O9 0.301235 0.266161 0.129230
O O10 0.883578 0.694328 0.229404
O O11 0.982459 0.761176 0.072135
O O12 0.889908 0.000000 0.193376
O O13 0.130028 0.500000 0.066235
O O14 0.138841 0.234792 0.007571
O O15 0.030771 0.235594 0.172713
O O16 0.250000 0.250000 0.000000
O O17 0.390801 0.000000 0.022764
O O18 0.097837 0.500000 0.711865
O O19 0.028888 0.000000 0.534939
#
# Coordination Sequence:
#
# PCOD9213982 Si02
#       8
#     8   2   8   8   8   8   8   8
#     4  12  26  47  71  99 134 176 228 285 345 413
#     4  12  26  48  72 102 142 180 230 290 352 418
#     4  10  22  39  61  87 121 167 209 258 326 392
#     4  11  22  34  56  90 125 161 205 259 318 385
#     4   9  19  35  58  87 118 153 199 251 308 373
#     4   9  19  38  57  80 118 162 206 249 305 388
#     4  10  22  41  63  89 120 164 214 264 323 390
#     4  11  26  46  70 104 138 178 230 288 350 410
#
# _framework density 21.231635000000001
#
# number of rings (size 3 to 8) (size 9 to 14) (size 15 to 20)
#    0.000    1.655    0.690    4.345    2.897    6.069 
#    0.000    1.379    0.000    0.000    0.000    0.000 
#    0.000    0.000    0.000    0.000    0.000    0.000 
#
# Total GULP energy -161722.394237 kJ/mol
# GULP energy per Si atom -5576.634284 kJ/mol
# Density = 2.118331 g / cm^3
# Si number density = 21.231635 Si / 1000 Ang^3
#
#
#
# Elastic Constant Matrix: (Units=GPa)
#
#
# Indices 1 2 3 4 5 6 
#
# 1 112.9915 20.6458 54.9552 -0.0073 -22.6131 0.0040
# 2 20.6458 84.1046 18.6390 -0.0136 -0.5717 0.0147
# 3 54.9552 18.6390 98.2801 -0.0006 -14.6321 0.0027
# 4 -0.0073 -0.0136 -0.0006 16.5681 0.0007 -5.4445
# 5 -22.6131 -0.5717 -14.6321 0.0007 30.3996 -0.0028
# 6 0.0040 0.0147 0.0027 -5.4445 -0.0028 30.4828
#
#
#
# Elastic Compliance Matrix: (Units=1/GPa)
#
#
# Indices 1 2 3 4 5 6 
#
# 1 0.013646 -0.001926 -0.006204 0.000004 0.007129 0.000001
# 2 -0.001926 0.012710 -0.001628 0.000008 -0.001977 -0.000004
# 3 -0.006204 -0.001628 0.014285 -0.000004 0.002230 0.000000
# 4 0.000004 0.000008 -0.000004 0.064121 0.000001 0.011453
# 5 0.007129 -0.001977 0.002230 0.000001 0.039234 0.000004
# 6 0.000001 -0.000004 0.000000 0.011453 0.000004 0.034851
#
#
# Mechanical properties :
#
#
# Convention : Reuss Voigt Hill
#
# Bulk Modulus (GPa) = 47.33722 53.76181 50.54951
# Shear Modulus (GPa) = 24.34221 28.89917 26.62069
#
# Velocity S-wave (km/s) = 3.38968 3.69336 3.54478
# Velocity P-wave (km/s) = 6.13710 6.60034 6.37293
#
# Compressibility (1/GPa) = 0.02112503
#
# Stress axis : x y z
#
# Youngs Moduli (GPa) = 73.28026 78.67733 70.00474
#
# Poissons Ratio (x) = 0.15157 0.43430
# Poissons Ratio (y) = 0.14117 0.11394
# Poissons Ratio (z) = 0.45462 0.12806
#
# Static dielectric constant tensor:
#      x y z
#    x 1.754620 -0.000010 -0.000490 
#    y -0.000010 1.772840 0.000000 
#    z -0.000490 0.000000 1.785770 
# 
# From -- ./inp_files/367534.got.cif
#   From: 2010.05.17/outbox.cif.g08.bks.cpg/sg12_184_cif.got.tgz:367534.got - 2010.06.03 13:09:07.
