data_PCOD9213960
_publ_section_title
;
Structure prediction by ZEFSAII (Michael W. Deem and Ramdas Pophale) SiO2 
 PCOD9213960
Probable space group: C 2/M
;
_chemical_formula_sum "Si O2"
_cell_formula_units_Z 42
_cell_length_a 14.571314
_cell_length_b 17.333229
_cell_length_c 15.236334
_cell_angle_alpha 90.000000
_cell_angle_beta 144.089086
_cell_angle_gamma 90.000000
_cell_volume 2257.077253
_symmetry_space_group_name_H-M "C 2/M"
_symmetry_group_IT_number 12
_symmetry_cell_setting 'monoclinic'
loop_
_space_group_symop_operation_xyz
x,y,z
-x,y,-z
-x,-y,-z
x,-y,z
1/2+x,1/2+y,z
1/2-x,1/2+y,-z
1/2-x,1/2-y,-z
1/2+x,1/2-y,z
loop_
_atom_site_type_symbol
_atom_site_label
_atom_site_fract_x
_atom_site_fract_y
_atom_site_fract_z
Si Si1 0.000000 0.000000 0.500000
Si Si2 0.944408 0.291274 0.050507
Si Si3 0.189697 0.914246 0.420935
Si Si4 0.757759 0.622433 0.671166
Si Si5 0.897085 0.283297 0.497609
Si Si6 0.918583 0.806245 0.208811
O O1 0.133907 0.067900 0.623875
O O2 0.934142 0.361884 0.839544
O O3 0.762700 0.315167 0.907415
O O4 0.945581 0.232245 0.133911
O O5 0.000000 0.256888 0.000000
O O6 0.253993 0.911913 0.569940
O O7 0.278878 0.847131 0.439649
O O8 0.010549 0.886647 0.285333
O O9 0.207005 0.000000 0.398603
O O10 0.688626 0.708755 0.608963
O O11 0.000000 0.317582 0.500000
O O12 0.999245 0.250922 0.657470
#
# Coordination Sequence:
#
# PCOD9213960 Si02
#       6
#     2   8   8   8   8   8
#     4  12  24  36  70  92 120 164 198 264 332 360
#     4  11  22  37  63  91 123 165 209 252 307 382
#     4  11  22  39  62  87 126 160 204 263 313 359
#     4  11  21  40  59  93 123 153 203 253 313 368
#     4  11  20  38  67  86 118 161 210 256 310 366
#     4  10  22  39  60  92 122 164 211 254 312 366
#
# _framework density 18.608135999999998
#
# number of rings (size 3 to 8) (size 9 to 14) (size 15 to 20)
#    0.000    1.143    5.714    2.286    2.667    0.381 
#    1.714    0.476    0.000    0.571    0.000    0.000 
#    0.000    0.000    0.000    0.000    0.000    0.000 
#
# Total GULP energy -116909.649550 kJ/mol
# GULP energy per Si atom -5567.126169 kJ/mol
# Density = 1.856578 g / cm^3
# Si number density = 18.608136 Si / 1000 Ang^3
#
#
#
# Elastic Constant Matrix: (Units=GPa)
#
#
# Indices 1 2 3 4 5 6 
#
# 1 99.0287 24.2981 52.7707 -0.0003 11.2163 -0.0001
# 2 24.2981 101.8392 44.3413 -0.0003 20.9449 -0.0006
# 3 52.7707 44.3413 98.3750 0.0012 29.5395 0.0095
# 4 -0.0003 -0.0003 0.0012 25.9676 0.0003 109.4783
# 5 11.2163 20.9449 29.5395 0.0003 40.9221 0.0026
# 6 -0.0001 -0.0006 0.0095 109.4783 0.0026 484.3759
#
#
#
# Elastic Compliance Matrix: (Units=1/GPa)
#
#
# Indices 1 2 3 4 5 6 
#
# 1 0.014282 -0.000288 -0.008171 -0.000002 0.002131 0.000001
# 2 -0.000288 0.012500 -0.004574 -0.000002 -0.003017 0.000001
# 3 -0.008171 -0.004574 0.019450 0.000010 -0.009460 -0.000003
# 4 -0.000002 -0.000002 0.000010 0.817406 0.000000 -0.184750
# 5 0.002131 -0.003017 -0.009460 0.000000 0.032225 0.000000
# 6 0.000001 0.000001 -0.000003 -0.184750 0.000000 0.043821
#
#
# Mechanical properties :
#
#
# Convention : Reuss Voigt Hill
#
# Bulk Modulus (GPa) = 49.58758 60.22922 54.90840
# Shear Modulus (GPa) = 5.14153 122.10863 63.62508
#
# Velocity S-wave (km/s) = 1.66405 8.10947 5.85374
# Velocity P-wave (km/s) = 5.51346 10.96003 8.67526
#
# Compressibility (1/GPa) = 0.02016634
#
# Stress axis : x y z
#
# Youngs Moduli (GPa) = 70.02005 79.99918 51.41279
#
# Poissons Ratio (x) = 0.02305 0.42010
# Poissons Ratio (y) = 0.02017 0.23515
# Poissons Ratio (z) = 0.57214 0.36589
#
# Static dielectric constant tensor:
#      x y z
#    x 1.712710 0.000000 0.006300 
#    y 0.000000 1.621470 0.000000 
#    z 0.006300 0.000000 1.691860 
# 
# From -- ./inp_files/216066.got.cif
#   From: 2010.05.17/outbox.cif.g08.bks.cpg/sg12_109_cif.got.tgz:216066.got - 2010.06.03 13:09:07.
