data_PCOD9213972
_publ_section_title
;
Structure prediction by ZEFSAII (Michael W. Deem and Ramdas Pophale) SiO2 
 PCOD9213972
Probable space group: C 2/M
;
_chemical_formula_sum "Si O2"
_cell_formula_units_Z 64
_cell_length_a 20.985202
_cell_length_b 24.806901
_cell_length_c 17.665991
_cell_angle_alpha 90.000000
_cell_angle_beta 158.531882
_cell_angle_gamma 90.000000
_cell_volume 3365.775236
_symmetry_space_group_name_H-M "C 2/M"
_symmetry_group_IT_number 12
_symmetry_cell_setting 'monoclinic'
loop_
_space_group_symop_operation_xyz
x,y,z
-x,y,-z
-x,-y,-z
x,-y,z
1/2+x,1/2+y,z
1/2-x,1/2+y,-z
1/2-x,1/2-y,-z
1/2+x,1/2-y,z
loop_
_atom_site_type_symbol
_atom_site_label
_atom_site_fract_x
_atom_site_fract_y
_atom_site_fract_z
Si Si1 0.296250 0.107537 0.788519
Si Si2 0.360945 0.440743 0.531568
Si Si3 0.207340 0.165900 0.458357
Si Si4 0.741684 0.937282 0.084112
Si Si5 0.610533 0.171616 0.876607
Si Si6 0.183331 0.216876 0.593257
Si Si7 0.509770 0.300694 0.089538
Si Si8 0.819283 0.262613 0.193999
O O1 0.235329 0.068004 0.654604
O O2 0.259229 0.082914 0.829679
O O3 0.204575 0.164495 0.669275
O O4 0.500000 0.116909 0.000000
O O5 0.326431 0.500000 0.523301
O O6 0.300197 0.395442 0.522204
O O7 0.564123 0.435148 0.735384
O O8 0.406086 0.183322 0.662527
O O9 0.144098 0.197755 0.463235
O O10 0.092183 0.174246 0.256562
O O11 0.682650 0.000000 0.015461
O O12 0.637257 0.891426 0.923126
O O13 0.669955 0.192973 0.860782
O O14 0.728236 0.207642 0.062953
O O15 0.361666 0.250289 0.785122
O O16 0.016677 0.250561 0.433512
O O17 0.500000 0.333263 0.000000
O O18 0.314201 0.283400 0.891811
#
# Coordination Sequence:
#
# PCOD9213972 Si02
#       8
#     8   8   8   8   8   8   8   8
#     4  11  23  37  54  84 127 165 206 255 300 357
#     4  10  22  39  61  86 115 163 211 250 302 363
#     4  11  21  41  61  84 121 151 202 255 301 367
#     4  11  23  39  59  88 126 164 210 258 301 365
#     4  11  21  38  62  88 115 162 206 252 306 361
#     4  11  22  41  58  86 118 165 206 248 295 369
#     4  12  25  40  58  87 120 156 199 251 310 367
#     4  11  23  39  62  85 120 160 207 257 308 358
#
# _framework density 19.014935999999999
#
# number of rings (size 3 to 8) (size 9 to 14) (size 15 to 20)
#    0.000    1.000    2.500    6.750    1.750    4.000 
#    2.250    0.000    0.000    0.375    0.000    0.000 
#    0.000    4.000    0.000    0.000    0.000    0.000 
#
# Total GULP energy -178925.036944 kJ/mol
# GULP energy per Si atom -5591.407404 kJ/mol
# Density = 1.897166 g / cm^3
# Si number density = 19.014936 Si / 1000 Ang^3
#
#
#
# Elastic Constant Matrix: (Units=GPa)
#
#
# Indices 1 2 3 4 5 6 
#
# 1 100.3080 44.0493 28.4258 -0.0004 8.8554 -0.0001
# 2 44.0493 108.0735 18.9458 -0.0001 -2.6323 0.0000
# 3 28.4258 18.9458 85.7025 -0.0003 14.9209 -0.0002
# 4 -0.0004 -0.0001 -0.0003 71.1006 -0.0001 19.6419
# 5 8.8554 -2.6323 14.9209 -0.0001 29.7585 0.0000
# 6 -0.0001 0.0000 -0.0002 19.6419 0.0000 26.4402
#
#
#
# Elastic Compliance Matrix: (Units=1/GPa)
#
#
# Indices 1 2 3 4 5 6 
#
# 1 0.013196 -0.004967 -0.002759 0.000000 -0.002983 0.000000
# 2 -0.004967 0.011617 -0.001487 0.000000 0.003251 0.000000
# 3 -0.002759 -0.001487 0.014016 0.000000 -0.006338 0.000000
# 4 0.000000 0.000000 0.000000 0.017696 0.000000 -0.013146
# 5 -0.002983 0.003251 -0.006338 0.000000 0.037957 0.000000
# 6 0.000000 0.000000 0.000000 -0.013146 0.000000 0.047587
#
#
# Mechanical properties :
#
#
# Convention : Reuss Voigt Hill
#
# Bulk Modulus (GPa) = 49.01488 52.99174 51.00331
# Shear Modulus (GPa) = 29.88699 38.97074 34.42886
#
# Velocity S-wave (km/s) = 3.96885 4.53203 4.25976
# Velocity P-wave (km/s) = 6.84364 7.43739 7.14668
#
# Compressibility (1/GPa) = 0.02040197
#
# Stress axis : x y z
#
# Youngs Moduli (GPa) = 75.78071 86.07772 71.34925
#
# Poissons Ratio (x) = 0.42758 0.19688
# Poissons Ratio (y) = 0.37643 0.10607
# Poissons Ratio (z) = 0.20911 0.12797
#
# Static dielectric constant tensor:
#      x y z
#    x 1.682300 0.000000 0.001410 
#    y 0.000000 1.658190 0.000000 
#    z 0.001410 0.000000 1.715560 
# 
# From -- ./inp_files/286481.got.cif
#   From: 2010.05.17/outbox.cif.g08.bks.cpg/sg12_144_cif.got.tgz:286481.got - 2010.06.03 13:09:07.
