data_PCOD9213286
_publ_section_title
;
Structure prediction by ZEFSAII (Michael W. Deem and Ramdas Pophale) SiO2 
 PCOD9213286
Probable space group: C 2/M
;
_chemical_formula_sum "Si O2"
_cell_formula_units_Z 56
_cell_length_a 10.823986
_cell_length_b 18.727760
_cell_length_c 15.566667
_cell_angle_alpha 90.000000
_cell_angle_beta 60.787066
_cell_angle_gamma 90.000000
_cell_volume 2754.161249
_symmetry_space_group_name_H-M "C 2/M"
_symmetry_group_IT_number 12
_symmetry_cell_setting 'monoclinic'
loop_
_space_group_symop_operation_xyz
x,y,z
-x,y,-z
-x,-y,-z
x,-y,z
1/2+x,1/2+y,z
1/2-x,1/2+y,-z
1/2-x,1/2-y,-z
1/2+x,1/2-y,z
loop_
_atom_site_type_symbol
_atom_site_label
_atom_site_fract_x
_atom_site_fract_y
_atom_site_fract_z
Si Si1 0.336821 0.198028 0.219902
Si Si2 0.693324 0.840871 0.237854
Si Si3 0.554944 0.583911 0.745418
Si Si4 0.405796 0.343920 0.450113
Si Si5 0.732066 0.082741 0.884798
Si Si6 0.644932 0.813792 0.061527
Si Si7 0.103255 0.318118 0.601193
O O1 0.220213 0.255615 0.234135
O O2 0.301319 0.120867 0.194151
O O3 0.488031 0.217900 0.127370
O O4 0.352043 0.199240 0.316273
O O5 0.824225 0.879158 0.238625
O O6 0.680449 0.852014 0.140235
O O7 0.547619 0.856502 0.337581
O O8 0.585392 0.500000 0.724437
O O9 0.546762 0.621259 0.655135
O O10 0.400814 0.590264 0.840896
O O11 0.500000 0.366624 0.500000
O O12 0.237825 0.359013 0.517281
O O13 0.415679 0.257657 0.439609
O O14 0.694064 0.000000 0.897637
O O15 0.654320 0.127615 0.984268
O O16 0.750000 0.750000 0.000000
#
# Coordination Sequence:
#
# PCOD9213286 Si02
#       7
#     8   8   8   8   8   8   8
#     4  11  21  39  62  90 126 160 203 261 304 364
#     4  11  22  39  62  88 127 161 209 253 305 368
#     4  11  25  43  62  87 126 169 204 253 315 371
#     4  11  22  38  64  94 123 154 206 258 311 365
#     4  11  24  41  62  91 126 165 209 258 312 366
#     4  11  23  36  61  95 122 163 210 254 309 362
#     4  10  22  37  62  96 120 156 203 259 308 364
#
# _framework density 20.33287
#
# number of rings (size 3 to 8) (size 9 to 14) (size 15 to 20)
#    0.000    1.143    2.857    3.857    2.000    3.714 
#    0.000    5.714    0.000    0.000    0.000    0.000 
#    0.000    0.000    0.000    0.000    0.000    0.000 
#
# Total GULP energy -156519.558517 kJ/mol
# GULP energy per Si atom -5589.984233 kJ/mol
# Density = 2.028659 g / cm^3
# Si number density = 20.332870 Si / 1000 Ang^3
#
#
#
# Elastic Constant Matrix: (Units=GPa)
#
#
# Indices 1 2 3 4 5 6 
#
# 1 82.4870 13.1029 27.1201 0.0000 4.6995 0.0000
# 2 13.1029 57.9198 3.7435 0.0000 3.9983 0.0000
# 3 27.1201 3.7435 74.2262 0.0000 -8.5025 0.0000
# 4 0.0000 0.0000 0.0000 17.8073 0.0000 0.5000
# 5 4.6995 3.9983 -8.5025 0.0000 37.4664 0.0000
# 6 0.0000 0.0000 0.0000 0.5000 0.0000 22.8392
#
#
#
# Elastic Compliance Matrix: (Units=1/GPa)
#
#
# Indices 1 2 3 4 5 6 
#
# 1 0.014519 -0.002739 -0.005485 0.000000 -0.002774 0.000000
# 2 -0.002739 0.018001 -0.000090 0.000000 -0.001598 0.000000
# 3 -0.005485 -0.000090 0.015976 0.000000 0.004323 0.000000
# 4 0.000000 0.000000 0.000000 0.056191 0.000000 -0.001230
# 5 -0.002774 -0.001598 0.004323 0.000000 0.028190 0.000000
# 6 0.000000 0.000000 0.000000 -0.001230 0.000000 0.043811
#
#
# Mechanical properties :
#
#
# Convention : Reuss Voigt Hill
#
# Bulk Modulus (GPa) = 31.37816 33.61846 32.49831
# Shear Modulus (GPa) = 24.51711 27.00034 25.75873
#
# Velocity S-wave (km/s) = 3.47621 3.64801 3.56315
# Velocity P-wave (km/s) = 5.61941 5.85781 5.73985
#
# Compressibility (1/GPa) = 0.03186930
#
# Stress axis : x y z
#
# Youngs Moduli (GPa) = 68.87339 55.55254 62.59395
#
# Poissons Ratio (x) = 0.15214 0.34330
# Poissons Ratio (y) = 0.18862 0.00565
# Poissons Ratio (z) = 0.37774 0.00501
#
# Static dielectric constant tensor:
#      x y z
#    x 1.754250 0.000000 -0.029940 
#    y 0.000000 1.681140 0.000000 
#    z -0.029940 0.000000 1.727860 
# 
# From -- ./inp_files/206585.got.cif
#   From: 2010.05.17/outbox.cif.g08.bks.cpg/sg12_104_cif.got.tgz:206585.got - 2010.06.03 13:09:07.
