data_PCOD9213058
_publ_section_title
;
Structure prediction by ZEFSAII (Michael W. Deem and Ramdas Pophale) SiO2 
 PCOD9213058
Probable space group: C 2/M
;
_chemical_formula_sum "Si O2"
_cell_formula_units_Z 58
_cell_length_a 12.263829
_cell_length_b 18.102664
_cell_length_c 21.441236
_cell_angle_alpha 90.000000
_cell_angle_beta 143.797053
_cell_angle_gamma 90.000000
_cell_volume 2811.554610
_symmetry_space_group_name_H-M "C 2/M"
_symmetry_group_IT_number 12
_symmetry_cell_setting 'monoclinic'
loop_
_space_group_symop_operation_xyz
x,y,z
-x,y,-z
-x,-y,-z
x,-y,z
1/2+x,1/2+y,z
1/2-x,1/2+y,-z
1/2-x,1/2-y,-z
1/2+x,1/2-y,z
loop_
_atom_site_type_symbol
_atom_site_label
_atom_site_fract_x
_atom_site_fract_y
_atom_site_fract_z
Si Si1 0.657585 0.582645 0.020644
Si Si2 0.134056 0.417729 0.501914
Si Si3 0.002015 0.179450 0.162961
Si Si4 0.944441 0.084583 0.257328
Si Si5 0.377079 0.632574 0.356853
Si Si6 0.515768 0.826731 0.779334
Si Si7 0.933040 0.707232 0.339057
Si Si8 0.500000 0.500000 0.500000
O O1 0.676585 0.500000 0.002663
O O2 0.842855 0.608299 0.140541
O O3 0.500000 0.580942 0.000000
O O4 0.591934 0.641268 0.939149
O O5 0.107756 0.500000 0.462390
O O6 0.343534 0.410535 0.620955
O O7 0.000000 0.412252 0.500000
O O8 0.076033 0.353328 0.429144
O O9 0.935404 0.134602 0.192615
O O10 0.956480 0.264464 0.155141
O O11 0.225537 0.179271 0.259547
O O12 0.826805 0.109491 0.262746
O O13 0.904525 0.000000 0.223091
O O14 0.465110 0.714033 0.387763
O O15 0.487457 0.566158 0.440031
O O16 0.192364 0.644461 0.311585
O O17 0.550373 0.790082 0.727960
#
# Coordination Sequence:
#
# PCOD9213058 Si02
#       8
#     8   8   8   8   8   8   8   2
#     4  11  24  42  69 103 131 165 218 279 344 405
#     4  10  22  36  59  97 134 171 216 277 333 396
#     4  11  22  43  67  97 129 174 214 281 338 392
#     4  11  22  41  64  92 135 174 227 273 330 404
#     4  11  27  43  65  96 132 186 225 271 333 393
#     4  11  25  44  68  94 135 174 223 278 333 407
#     4  11  23  41  66  98 132 172 230 273 336 398
#     4  12  28  48  64  96 140 188 234 268 320 406
#
# _framework density 20.629155999999998
#
# number of rings (size 3 to 8) (size 9 to 14) (size 15 to 20)
#    0.000    1.103    4.828    0.828    3.862    1.655 
#    0.000    0.690    0.000    1.655    0.000    0.000 
#    0.000    0.000    0.000    0.000    0.000    0.000 
#
# Total GULP energy -161813.346278 kJ/mol
# GULP energy per Si atom -5579.770561 kJ/mol
# Density = 2.058220 g / cm^3
# Si number density = 20.629156 Si / 1000 Ang^3
#
#
#
# Elastic Constant Matrix: (Units=GPa)
#
#
# Indices 1 2 3 4 5 6 
#
# 1 78.2561 8.6938 6.0073 0.0000 -11.8625 0.0000
# 2 8.6938 115.5224 39.7125 -0.0001 -4.0809 0.0000
# 3 6.0073 39.7125 39.1686 -0.0004 -12.8378 -0.0001
# 4 0.0000 -0.0001 -0.0004 8.2848 -0.0001 -24.1503
# 5 -11.8625 -4.0809 -12.8378 -0.0001 24.1665 0.0000
# 6 0.0000 0.0000 -0.0001 -24.1503 0.0000 17.9447
#
#
#
# Elastic Compliance Matrix: (Units=1/GPa)
#
#
# Indices 1 2 3 4 5 6 
#
# 1 0.013940 -0.001376 0.001723 0.000000 0.007526 0.000000
# 2 -0.001376 0.014169 -0.016457 0.000000 -0.007025 0.000000
# 3 0.001723 -0.016457 0.050029 -0.000001 0.024644 -0.000001
# 4 0.000000 0.000000 -0.000001 -0.041293 -0.000001 -0.055573
# 5 0.007526 -0.007025 0.024644 -0.000001 0.056979 -0.000001
# 6 0.000000 0.000000 -0.000001 -0.055573 -0.000001 -0.019065
#
#
# Mechanical properties :
#
#
# Convention : Reuss Voigt Hill
#
# Bulk Modulus (GPa) = 21.77741 37.97493 29.87617
# Shear Modulus (GPa) = 40.88808 21.98144 31.43476
#
# Velocity S-wave (km/s) = 4.45686 3.26782 3.90783
# Velocity P-wave (km/s) = 6.08804 5.71721 5.90554
#
# Compressibility (1/GPa) = 0.04591914
#
# Stress axis : x y z
#
# Youngs Moduli (GPa) = 71.73650 70.57565 19.98824
#
# Poissons Ratio (x) = 0.09709 -0.03445
# Poissons Ratio (y) = 0.09869 0.32896
# Poissons Ratio (z) = -0.12364 1.16150
#
# Static dielectric constant tensor:
#      x y z
#    x 1.752430 0.000000 0.004740 
#    y 0.000000 1.728620 0.000000 
#    z 0.004740 0.000000 1.705510 
# 
# From -- ./inp_files/306399.got.cif
#   From: 2010.05.17/outbox.cif.g08.bks.cpg/sg12_154_cif.got.tgz:306399.got - 2010.06.03 13:09:07.
