data_PCOD9213965
_publ_section_title
;
Structure prediction by ZEFSAII (Michael W. Deem and Ramdas Pophale) SiO2 
 PCOD9213965
Probable space group: C 2/M
;
_chemical_formula_sum "Si O2"
_cell_formula_units_Z 28
_cell_length_a 10.037078
_cell_length_b 25.147127
_cell_length_c 5.145223
_cell_angle_alpha 90.000000
_cell_angle_beta 89.494325
_cell_angle_gamma 90.000000
_cell_volume 1298.622616
_symmetry_space_group_name_H-M "C 2/M"
_symmetry_group_IT_number 12
_symmetry_cell_setting 'monoclinic'
loop_
_space_group_symop_operation_xyz
x,y,z
-x,y,-z
-x,-y,-z
x,-y,z
1/2+x,1/2+y,z
1/2-x,1/2+y,-z
1/2-x,1/2-y,-z
1/2+x,1/2-y,z
loop_
_atom_site_type_symbol
_atom_site_label
_atom_site_fract_x
_atom_site_fract_y
_atom_site_fract_z
Si Si1 0.662072 0.763094 0.248314
Si Si2 0.147490 0.437829 0.873422
Si Si3 0.727391 0.123241 0.352824
Si Si4 0.500000 0.680816 0.500000
O O1 0.750000 0.750000 0.500000
O O2 0.637438 0.825927 0.268847
O O3 0.540952 0.722408 0.274274
O O4 0.750000 0.750000 0.000000
O O5 0.173475 0.500000 0.824474
O O6 0.166777 0.406169 0.604631
O O7 0.238537 0.414043 0.100965
O O8 0.000000 0.433255 0.000000
O O9 0.872750 0.145729 0.427711
#
# Coordination Sequence:
#
# PCOD9213965 Si02
#       4
#     8   8   8   4
#     4  10  22  39  60  94 133 176 210 251 321 404
#     4  11  25  45  69  95 128 173 234 284 326 388
#     4  11  23  43  68  98 132 179 213 277 341 387
#     4  10  24  42  65 102 141 168 216 276 326 416
#
# _framework density 21.561305000000001
#
# number of rings (size 3 to 8) (size 9 to 14) (size 15 to 20)
#    0.000    1.429    0.000    5.143    4.000   12.571 
#    0.000    4.286    0.000    0.000    0.000    0.000 
#    0.000    0.000    0.000    0.000    0.000    0.000 
#
# Total GULP energy -78291.077497 kJ/mol
# GULP energy per Si atom -5592.219821 kJ/mol
# Density = 2.151223 g / cm^3
# Si number density = 21.561305 Si / 1000 Ang^3
#
#
#
# Elastic Constant Matrix: (Units=GPa)
#
#
# Indices 1 2 3 4 5 6 
#
# 1 73.1011 48.4724 25.0232 0.0000 -4.8652 0.0000
# 2 48.4724 186.2213 86.8516 0.0000 -15.3143 0.0000
# 3 25.0232 86.8516 200.6674 0.0000 -19.6893 0.0000
# 4 0.0000 0.0000 0.0000 9.0299 0.0000 -4.2458
# 5 -4.8652 -15.3143 -19.6893 0.0000 32.6020 0.0000
# 6 0.0000 0.0000 0.0000 -4.2458 0.0000 20.5274
#
#
#
# Elastic Compliance Matrix: (Units=1/GPa)
#
#
# Indices 1 2 3 4 5 6 
#
# 1 0.016548 -0.004174 -0.000220 0.000000 0.000376 0.000000
# 2 -0.004174 0.007850 -0.002739 0.000000 0.001411 0.000000
# 3 -0.000220 -0.002739 0.006449 0.000000 0.002575 0.000000
# 4 0.000000 0.000000 0.000000 0.122674 0.000000 0.025374
# 5 0.000376 0.001411 0.002575 0.000000 0.032947 0.000000
# 6 0.000000 0.000000 0.000000 0.025374 0.000000 0.053964
#
#
# Mechanical properties :
#
#
# Convention : Reuss Voigt Hill
#
# Bulk Modulus (GPa) = 60.30939 86.74270 73.52605
# Shear Modulus (GPa) = 19.21433 32.40802 25.81117
#
# Velocity S-wave (km/s) = 2.98845 3.88114 3.46368
# Velocity P-wave (km/s) = 6.31978 7.77190 7.08315
#
# Compressibility (1/GPa) = 0.01658116
#
# Stress axis : x y z
#
# Youngs Moduli (GPa) = 60.43191 127.39581 155.06759
#
# Poissons Ratio (x) = 0.53170 0.03414
# Poissons Ratio (y) = 0.25222 0.42466
# Poissons Ratio (z) = 0.01331 0.34888
#
# Static dielectric constant tensor:
#      x y z
#    x 1.843420 0.000000 0.011440 
#    y 0.000000 1.803690 0.000000 
#    z 0.011440 0.000000 1.763000 
# 
# From -- ./inp_files/6348.got.cif
#   From: 2010.05.17/outbox.cif.g08.bks.cpg/sg12_4_cif.got.tgz:6348.got - 2010.06.03 13:09:07.
