data_PCOD9213200
_publ_section_title
;
Structure prediction by ZEFSAII (Michael W. Deem and Ramdas Pophale) SiO2 
 PCOD9213200
Probable space group: C 2/M
;
_chemical_formula_sum "Si O2"
_cell_formula_units_Z 64
_cell_length_a 31.933039
_cell_length_b 14.645775
_cell_length_c 12.589453
_cell_angle_alpha 90.000000
_cell_angle_beta 37.748101
_cell_angle_gamma 90.000000
_cell_volume 3604.511892
_symmetry_space_group_name_H-M "C 2/M"
_symmetry_group_IT_number 12
_symmetry_cell_setting 'monoclinic'
loop_
_space_group_symop_operation_xyz
x,y,z
-x,y,-z
-x,-y,-z
x,-y,z
1/2+x,1/2+y,z
1/2-x,1/2+y,-z
1/2-x,1/2-y,-z
1/2+x,1/2-y,z
loop_
_atom_site_type_symbol
_atom_site_label
_atom_site_fract_x
_atom_site_fract_y
_atom_site_fract_z
Si Si1 0.081589 0.609069 0.312485
Si Si2 0.776229 0.389988 0.430321
Si Si3 0.891061 0.098470 0.668395
Si Si4 0.192892 0.726879 0.206424
Si Si5 0.434437 0.108522 0.069428
Si Si6 0.536209 0.599453 0.259732
Si Si7 0.761910 0.768000 0.296493
Si Si8 0.588234 0.778489 0.083982
O O1 0.091236 0.500000 0.278619
O O2 0.138111 0.648713 0.281672
O O3 0.095224 0.670431 0.181546
O O4 0.000000 0.623314 0.500000
O O5 0.765651 0.500000 0.440281
O O6 0.858518 0.371668 0.266297
O O7 0.747253 0.327434 0.390828
O O8 0.747574 0.347657 0.597189
O O9 0.849058 0.179851 0.706506
O O10 0.906756 0.109923 0.762009
O O11 0.964328 0.097259 0.464506
O O12 0.857434 0.000000 0.720325
O O13 0.221905 0.712877 0.266902
O O14 0.250000 0.750000 0.000000
O O15 0.439523 0.000000 0.056514
O O16 0.500000 0.145692 0.000000
O O17 0.438314 0.147393 0.944366
O O18 0.546046 0.500000 0.188227
O O19 0.540268 0.690198 0.184222
O O20 0.839561 0.757486 0.102567
#
# Coordination Sequence:
#
# PCOD9213200 Si02
#       8
#     8   8   8   8   8   8   8   8
#     4  11  24  39  57  87 127 169 204 244 306 371
#     4   9  20  40  61  82 114 153 196 254 304 351
#     4   9  18  32  50  73 105 146 189 233 278 334
#     4  12  22  37  56  89 125 157 199 249 296 365
#     4   9  19  35  58  86 109 143 197 247 301 363
#     4   9  17  31  52  76 102 141 192 233 278 342
#     4  10  22  37  58  86 115 154 204 242 299 367
#     4  11  19  36  58  79 117 156 194 244 305 364
#
# _framework density 17.755526
#
# number of rings (size 3 to 8) (size 9 to 14) (size 15 to 20)
#    0.000    2.000    2.500    1.875    0.000    4.500 
#    0.000    2.500    0.000    0.375    0.000    0.000 
#    0.000    0.000    0.000    0.000    0.000    0.000 
#
# Total GULP energy -178158.582776 kJ/mol
# GULP energy per Si atom -5567.455712 kJ/mol
# Density = 1.771511 g / cm^3
# Si number density = 17.755526 Si / 1000 Ang^3
#
#
#
# Elastic Constant Matrix: (Units=GPa)
#
#
# Indices 1 2 3 4 5 6 
#
# 1 86.9449 15.5299 30.6689 0.0000 3.2849 0.0000
# 2 15.5299 75.1361 42.2752 0.0000 -0.6869 0.0000
# 3 30.6689 42.2752 67.2428 0.0000 13.2878 0.0000
# 4 0.0000 0.0000 0.0000 60.4987 0.0000 -14.8650
# 5 3.2849 -0.6869 13.2878 0.0000 18.9248 0.0000
# 6 0.0000 0.0000 0.0000 -14.8650 0.0000 27.0708
#
#
#
# Elastic Compliance Matrix: (Units=1/GPa)
#
#
# Indices 1 2 3 4 5 6 
#
# 1 0.013920 0.001691 -0.008066 0.000000 0.003309 0.000000
# 2 0.001691 0.023171 -0.017936 0.000000 0.013141 0.000000
# 3 -0.008066 -0.017936 0.034460 0.000000 -0.023446 0.000000
# 4 0.000000 0.000000 0.000000 0.019107 0.000000 0.010492
# 5 0.003309 0.013141 -0.023446 0.000000 0.069206 0.000000
# 6 0.000000 0.000000 0.000000 0.010492 0.000000 0.042702
#
#
# Mechanical properties :
#
#
# Convention : Reuss Voigt Hill
#
# Bulk Modulus (GPa) = 43.61101 45.14132 44.37617
# Shear Modulus (GPa) = 19.31778 30.68882 25.00330
#
# Velocity S-wave (km/s) = 3.30204 4.16192 3.75667
# Velocity P-wave (km/s) = 6.25726 6.96954 6.62298
#
# Compressibility (1/GPa) = 0.02292999
#
# Stress axis : x y z
#
# Youngs Moduli (GPa) = 71.84141 43.15696 29.01951
#
# Poissons Ratio (x) = -0.07300 0.23407
# Poissons Ratio (y) = -0.12151 0.52049
# Poissons Ratio (z) = 0.57946 0.77405
#
# Static dielectric constant tensor:
#      x y z
#    x 1.639230 0.000000 -0.012550 
#    y 0.000000 1.618480 0.000000 
#    z -0.012550 0.000000 1.623790 
# 
# From -- ./inp_files/189443.got.cif
#   From: 2010.05.17/outbox.cif.g08.bks.cpg/sg12_95_cif.got.tgz:189443.got - 2010.06.03 13:09:07.
