data_PCOD9213770
_publ_section_title
;
Structure prediction by ZEFSAII (Michael W. Deem and Ramdas Pophale) SiO2 
 PCOD9213770
Probable space group: C 2/M
;
_chemical_formula_sum "Si O2"
_cell_formula_units_Z 48
_cell_length_a 26.058784
_cell_length_b 18.493606
_cell_length_c 5.338423
_cell_angle_alpha 90.000000
_cell_angle_beta 66.162417
_cell_angle_gamma 90.000000
_cell_volume 2353.232969
_symmetry_space_group_name_H-M "C 2/M"
_symmetry_group_IT_number 12
_symmetry_cell_setting 'monoclinic'
loop_
_space_group_symop_operation_xyz
x,y,z
-x,y,-z
-x,-y,-z
x,-y,z
1/2+x,1/2+y,z
1/2-x,1/2+y,-z
1/2-x,1/2-y,-z
1/2+x,1/2-y,z
loop_
_atom_site_type_symbol
_atom_site_label
_atom_site_fract_x
_atom_site_fract_y
_atom_site_fract_z
Si Si1 0.243155 0.628544 0.943025
Si Si2 0.164482 0.784449 0.486511
Si Si3 0.296137 0.578698 0.346910
Si Si4 0.639586 0.161443 0.873173
Si Si5 0.938165 0.273524 0.609866
Si Si6 0.443359 0.919676 0.277952
O O1 0.285664 0.695130 0.802694
O O2 0.257163 0.579980 0.671003
O O3 0.177925 0.645427 0.037128
O O4 0.260707 0.593428 0.167555
O O5 0.164118 0.852543 0.677142
O O6 0.176185 0.710863 0.614536
O O7 0.106516 0.772701 0.457293
O O8 0.323624 0.500000 0.272896
O O9 0.610593 0.094831 0.792594
O O10 0.588276 0.211330 0.066899
O O11 0.943483 0.352813 0.469042
O O12 0.000000 0.241720 0.500000
O O13 0.440598 0.000000 0.398010
O O14 0.500000 0.916154 0.000000
#
# Coordination Sequence:
#
# PCOD9213770 Si02
#       6
#     8   8   8   8   8   8
#     4  10  23  39  63  92 124 163 204 248 308 368
#     4   9  23  38  63  89 119 164 200 256 309 365
#     4  10  22  41  61  91 129 162 199 248 312 376
#     4  11  22  39  59  88 122 162 209 258 302 359
#     4  11  22  38  61  87 118 158 213 260 305 360
#     4  10  22  39  55  81 122 168 213 256 302 352
#
# _framework density 20.397469000000001
#
# number of rings (size 3 to 8) (size 9 to 14) (size 15 to 20)
#    1.000    0.833    1.667    2.000    4.667    3.667 
#    0.000    0.000    0.000    0.500    0.000    2.333 
#    0.000    0.000    0.000    0.000    0.000    0.000 
#
# Total GULP energy -133927.046869 kJ/mol
# GULP energy per Si atom -5580.293620 kJ/mol
# Density = 2.035104 g / cm^3
# Si number density = 20.397469 Si / 1000 Ang^3
#
#
#
# Elastic Constant Matrix: (Units=GPa)
#
#
# Indices 1 2 3 4 5 6 
#
# 1 119.6580 37.7822 13.1350 0.0000 3.9762 0.0000
# 2 37.7822 95.1036 17.4767 0.0000 -0.8434 0.0000
# 3 13.1350 17.4767 64.6486 0.0000 11.0726 0.0000
# 4 0.0000 0.0000 0.0000 -4.0986 0.0000 -6.5104
# 5 3.9762 -0.8434 11.0726 0.0000 32.4469 0.0000
# 6 0.0000 0.0000 0.0000 -6.5104 0.0000 6.5937
#
#
#
# Elastic Compliance Matrix: (Units=1/GPa)
#
#
# Indices 1 2 3 4 5 6 
#
# 1 0.009644 -0.003696 -0.000788 0.000000 -0.001009 0.000000
# 2 -0.003696 0.012540 -0.002945 0.000000 0.001784 0.000000
# 3 -0.000788 -0.002945 0.017440 0.000000 -0.005932 0.000000
# 4 0.000000 0.000000 0.000000 -0.094997 0.000000 -0.093796
# 5 -0.001009 0.001784 -0.005932 0.000000 0.033014 0.000000
# 6 0.000000 0.000000 0.000000 -0.093796 0.000000 0.059049
#
#
# Mechanical properties :
#
#
# Convention : Reuss Voigt Hill
#
# Bulk Modulus (GPa) = 40.37354 46.24422 43.30888
# Shear Modulus (GPa) = 83.60967 21.05616 52.33292
#
# Velocity S-wave (km/s) = 6.40931 3.21642 5.07073
# Velocity P-wave (km/s) = 8.63763 6.04273 7.45397
#
# Compressibility (1/GPa) = 0.02476870
#
# Stress axis : x y z
#
# Youngs Moduli (GPa) = 103.69134 79.74530 57.33881
#
# Poissons Ratio (x) = 0.29470 0.04516
# Poissons Ratio (y) = 0.38319 0.16884
# Poissons Ratio (z) = 0.08166 0.23482
#
# Static dielectric constant tensor:
#      x y z
#    x 1.724520 0.000000 0.008650 
#    y 0.000000 1.743530 0.000000 
#    z 0.008650 0.000000 1.789740 
# 
# From -- ./inp_files/25322.got.cif
#   From: 2010.05.17/outbox.cif.g08.bks.cpg/sg12_13_cif.got.tgz:25322.got - 2010.06.03 13:09:07.
