data_PCOD9213608
_publ_section_title
;
Structure prediction by ZEFSAII (Michael W. Deem and Ramdas Pophale) SiO2 
 PCOD9213608
Probable space group: C 2/M
;
_chemical_formula_sum "Si O2"
_cell_formula_units_Z 36
_cell_length_a 10.245957
_cell_length_b 26.171960
_cell_length_c 5.139951
_cell_angle_alpha 90.000000
_cell_angle_beta 87.848650
_cell_angle_gamma 90.000000
_cell_volume 1377.341191
_symmetry_space_group_name_H-M "C 2/M"
_symmetry_group_IT_number 12
_symmetry_cell_setting 'monoclinic'
loop_
_space_group_symop_operation_xyz
x,y,z
-x,y,-z
-x,-y,-z
x,-y,z
1/2+x,1/2+y,z
1/2-x,1/2+y,-z
1/2-x,1/2-y,-z
1/2+x,1/2-y,z
loop_
_atom_site_type_symbol
_atom_site_label
_atom_site_fract_x
_atom_site_fract_y
_atom_site_fract_z
Si Si1 0.093490 0.057646 0.739885
Si Si2 0.335443 0.265946 0.740745
Si Si3 0.266614 0.369254 0.921210
Si Si4 0.916987 0.440984 0.273106
Si Si5 0.500000 0.806075 0.000000
O O1 0.000000 0.065036 0.500000
O O2 0.154320 0.000000 0.721188
O O3 0.185707 0.105359 0.814412
O O4 0.000000 0.056616 0.000000
O O5 0.250000 0.250000 0.500000
O O6 0.356957 0.326484 0.781178
O O7 0.250000 0.250000 0.000000
O O8 0.464567 0.232413 0.769388
O O9 0.224866 0.416647 0.747004
O O10 0.126028 0.341187 0.954105
O O11 0.897946 0.500000 0.335337
O O12 0.000000 0.416459 0.500000
O O13 0.000000 0.439074 0.000000
#
# Coordination Sequence:
#
# PCOD9213608 Si02
#       5
#     8   8   8   8   4
#     4  10  24  46  71 105 145 186 237 287 344 433
#     4  10  25  43  64  95 133 176 225 286 344 413
#     4  11  23  43  76  97 139 187 234 285 367 423
#     4  10  22  38  62 101 139 170 216 277 346 423
#     4  10  24  46  65 106 131 176 230 306 348 412
#
# _framework density 26.137312999999999
#
# number of rings (size 3 to 8) (size 9 to 14) (size 15 to 20)
#    0.000    1.778    1.111    0.667    4.667    8.000 
#    0.000    6.667    0.000    0.000    0.000    0.000 
#    0.000    0.000    0.000    0.000    0.000    0.000 
#
# Total GULP energy -100694.525754 kJ/mol
# GULP energy per Si atom -5594.140320 kJ/mol
# Density = 2.607782 g / cm^3
# Si number density = 26.137313 Si / 1000 Ang^3
#
#
#
# Elastic Constant Matrix: (Units=GPa)
#
#
# Indices 1 2 3 4 5 6 
#
# 1 98.8512 40.9122 45.4965 0.0000 16.9962 0.0000
# 2 40.9122 171.1393 50.6224 0.0000 42.4922 0.0000
# 3 45.4965 50.6224 232.2798 0.0000 34.3965 0.0000
# 4 0.0000 0.0000 0.0000 2.9121 0.0000 24.7711
# 5 16.9962 42.4922 34.3965 0.0000 49.9466 0.0000
# 6 0.0000 0.0000 0.0000 24.7711 0.0000 41.1153
#
#
#
# Elastic Compliance Matrix: (Units=1/GPa)
#
#
# Indices 1 2 3 4 5 6 
#
# 1 0.011960 -0.002071 -0.001725 0.000000 -0.001120 0.000000
# 2 -0.002071 0.007889 -0.000472 0.000000 -0.005681 0.000000
# 3 -0.001725 -0.000472 0.005122 0.000000 -0.002538 0.000000
# 4 0.000000 0.000000 0.000000 -0.083251 0.000000 0.050157
# 5 -0.001120 -0.005681 -0.002538 0.000000 0.026984 0.000000
# 6 0.000000 0.000000 0.000000 0.050157 0.000000 -0.005897
#
#
# Mechanical properties :
#
#
# Convention : Reuss Voigt Hill
#
# Bulk Modulus (GPa) = 60.85141 86.25915 73.55528
# Shear Modulus (GPa) = -215.71899 43.14408 -86.28746
#
# Velocity S-wave (km/s) = -9.09462 4.06725 -5.75194
# Velocity P-wave (km/s) = 9.32475 7.42500 3.98875
#
# Compressibility (1/GPa) = 0.01643347
#
# Stress axis : x y z
#
# Youngs Moduli (GPa) = 83.61260 126.76653 195.23874
#
# Poissons Ratio (x) = 0.26249 0.33688
# Poissons Ratio (y) = 0.17313 0.09222
# Poissons Ratio (z) = 0.14427 0.05988
#
# Static dielectric constant tensor:
#      x y z
#    x 2.177610 0.000000 0.024050 
#    y 0.000000 2.235940 0.000000 
#    z 0.024050 0.000000 1.944940 
# 
# From -- ./inp_files/7784.got.cif
#   From: 2010.05.17/outbox.cif.g08.bks.cpg/sg12_4_cif.got.tgz:7784.got - 2010.06.03 13:09:07.
