data_PCOD9213824
_publ_section_title
;
Structure prediction by ZEFSAII (Michael W. Deem and Ramdas Pophale) SiO2 
 PCOD9213824
Probable space group: C 2/M
;
_chemical_formula_sum "Si O2"
_cell_formula_units_Z 32
_cell_length_a 14.834358
_cell_length_b 17.217062
_cell_length_c 12.606592
_cell_angle_alpha 90.000000
_cell_angle_beta 30.277069
_cell_angle_gamma 90.000000
_cell_volume 1623.352606
_symmetry_space_group_name_H-M "C 2/M"
_symmetry_group_IT_number 12
_symmetry_cell_setting 'monoclinic'
loop_
_space_group_symop_operation_xyz
x,y,z
-x,y,-z
-x,-y,-z
x,-y,z
1/2+x,1/2+y,z
1/2-x,1/2+y,-z
1/2-x,1/2-y,-z
1/2+x,1/2-y,z
loop_
_atom_site_type_symbol
_atom_site_label
_atom_site_fract_x
_atom_site_fract_y
_atom_site_fract_z
Si Si1 0.270818 0.839880 0.953060
Si Si2 0.217461 0.411048 0.279547
Si Si3 0.330859 0.905695 0.438340
Si Si4 0.974981 0.093166 0.406490
O O1 0.223942 0.859332 0.878443
O O2 0.474346 0.868001 0.763355
O O3 0.250000 0.750000 0.000000
O O4 0.140775 0.885560 0.164015
O O5 0.276854 0.500000 0.200931
O O6 0.262040 0.386743 0.354065
O O7 0.000000 0.411828 0.500000
O O8 0.204638 0.880163 0.470509
O O9 0.351232 0.000000 0.416742
O O10 0.000000 0.124421 0.500000
O O11 0.962520 0.000000 0.425456
#
# Coordination Sequence:
#
# PCOD9213824 Si02
#       4
#     8   8   8   8
#     4  11  22  35  55  84 117 149 178 226 289 343
#     4   8  15  32  58  82 104 136 183 232 274 322
#     4   9  19  38  62  83 107 144 190 240 282 319
#     4  10  22  39  58  81 110 149 196 234 269 329
#
# _framework density 19.712291
#
# number of rings (size 3 to 8) (size 9 to 14) (size 15 to 20)
#    0.000    2.500    0.000    3.750    0.000    6.000 
#    0.000   10.000    0.000    0.000    0.000    0.000 
#    0.000    0.000    0.000    0.000    0.000    0.000 
#
# Total GULP energy -89318.341040 kJ/mol
# GULP energy per Si atom -5582.396315 kJ/mol
# Density = 1.966742 g / cm^3
# Si number density = 19.712291 Si / 1000 Ang^3
#
#
#
# Elastic Constant Matrix: (Units=GPa)
#
#
# Indices 1 2 3 4 5 6 
#
# 1 157.7074 36.9881 65.4311 -0.0168 3.8040 -0.0016
# 2 36.9881 27.1812 27.5244 0.0237 4.1269 0.0017
# 3 65.4311 27.5244 105.2032 0.0026 6.1730 0.0000
# 4 -0.0168 0.0237 0.0026 -105.6950 -0.0305 -34.0639
# 5 3.8040 4.1269 6.1730 -0.0305 24.0538 -0.0027
# 6 -0.0016 0.0017 0.0000 -34.0639 -0.0027 -7.4423
#
#
#
# Elastic Compliance Matrix: (Units=1/GPa)
#
#
# Indices 1 2 3 4 5 6 
#
# 1 0.010312 -0.010395 -0.003759 0.000006 0.001117 -0.000031
# 2 -0.010395 0.061205 -0.009166 -0.000023 -0.006505 0.000124
# 3 -0.003759 -0.009166 0.014330 0.000001 -0.001510 -0.000005
# 4 0.000006 -0.000023 0.000001 0.019913 0.000018 -0.091145
# 5 0.001117 -0.006505 -0.001510 0.000018 0.042900 -0.000099
# 6 -0.000031 0.000124 -0.000005 -0.091145 -0.000099 0.282809
#
#
# Mechanical properties :
#
#
# Convention : Reuss Voigt Hill
#
# Bulk Modulus (GPa) = 25.50622 61.10876 43.30749
# Shear Modulus (GPa) = 10.17956 -7.14016 1.51970
#
# Velocity S-wave (km/s) = 2.27492 -1.90527 0.87898
# Velocity P-wave (km/s) = 4.45732 5.12129 4.80080
#
# Compressibility (1/GPa) = 0.03920612
#
# Stress axis : x y z
#
# Youngs Moduli (GPa) = 96.97868 16.33843 69.78222
#
# Poissons Ratio (x) = 0.16984 0.26232
# Poissons Ratio (y) = 1.00809 0.63965
# Poissons Ratio (z) = 0.36456 0.14976
#
# Static dielectric constant tensor:
#      x y z
#    x 1.742360 0.000000 0.000760 
#    y 0.000000 1.671520 0.000000 
#    z 0.000760 0.000000 1.673120 
# 
# From -- ./inp_files/130738.got.cif
#   From: 2010.05.17/outbox.cif.g08.bks.cpg/sg12_66_cif.got.tgz:130738.got - 2010.06.03 13:09:07.
