data_PCOD9213999
_publ_section_title
;
Structure prediction by ZEFSAII (Michael W. Deem and Ramdas Pophale) SiO2 
 PCOD9213999
Probable space group: C 2/M
;
_chemical_formula_sum "Si O2"
_cell_formula_units_Z 36
_cell_length_a 10.119731
_cell_length_b 13.719063
_cell_length_c 19.111833
_cell_angle_alpha 90.000000
_cell_angle_beta 31.338431
_cell_angle_gamma 90.000000
_cell_volume 1379.990305
_symmetry_space_group_name_H-M "C 2/M"
_symmetry_group_IT_number 12
_symmetry_cell_setting 'monoclinic'
loop_
_space_group_symop_operation_xyz
x,y,z
-x,y,-z
-x,-y,-z
x,-y,z
1/2+x,1/2+y,z
1/2-x,1/2+y,-z
1/2-x,1/2-y,-z
1/2+x,1/2-y,z
loop_
_atom_site_type_symbol
_atom_site_label
_atom_site_fract_x
_atom_site_fract_y
_atom_site_fract_z
Si Si1 0.806946 0.887591 0.853884
Si Si2 0.250000 0.250000 0.000000
Si Si3 0.119274 0.393406 0.169035
Si Si4 0.416928 0.323324 0.648004
Si Si5 0.479288 0.892684 0.390566
O O1 0.889185 0.835276 0.887451
O O2 0.877087 0.832082 0.750346
O O3 0.891396 0.000000 0.809739
O O4 0.500000 0.888638 0.000000
O O5 0.280188 0.314971 0.055783
O O6 0.192578 0.500000 0.110537
O O7 0.831729 0.371365 0.272176
O O8 0.109623 0.392145 0.256037
O O9 0.445542 0.211218 0.609764
O O10 0.676424 0.379513 0.515014
O O11 0.523365 0.000000 0.403204
#
# Coordination Sequence:
#
# PCOD9213999 Si02
#       5
#     8   4   8   8   8
#     4  11  22  38  61  85 114 155 199 242 288 345
#     4  12  22  36  56  90 118 148 188 252 286 338
#     4  11  22  39  62  87 117 155 197 239 286 347
#     4  11  21  38  65  87 116 153 199 241 286 345
#     4  10  22  39  61  89 119 152 193 242 294 342
#
# _framework density 26.087140999999999
#
# number of rings (size 3 to 8) (size 9 to 14) (size 15 to 20)
#    0.000    1.111    4.444    3.333    0.000    1.778 
#    0.000    2.222    0.000    8.667    0.000    0.000 
#    0.000    0.000    0.000    0.000    0.000    0.000 
#
# Total GULP energy -100301.840796 kJ/mol
# GULP energy per Si atom -5572.324489 kJ/mol
# Density = 2.602777 g / cm^3
# Si number density = 26.087141 Si / 1000 Ang^3
#
#
#
# Elastic Constant Matrix: (Units=GPa)
#
#
# Indices 1 2 3 4 5 6 
#
# 1 78.3101 5.2382 48.1971 0.0030 -7.2900 -0.0030
# 2 5.2382 216.4294 26.6452 -0.0051 13.3477 -0.0014
# 3 48.1971 26.6452 97.7310 -0.0133 18.9144 -0.0062
# 4 0.0030 -0.0051 -0.0133 41.3299 -0.0019 -2.6087
# 5 -7.2900 13.3477 18.9144 -0.0019 46.9976 0.0050
# 6 -0.0030 -0.0014 -0.0062 -2.6087 0.0050 23.1596
#
#
#
# Elastic Compliance Matrix: (Units=1/GPa)
#
#
# Indices 1 2 3 4 5 6 
#
# 1 0.020807 0.000477 -0.011918 -0.000005 0.007889 -0.000003
# 2 0.000477 0.004828 -0.001410 0.000000 -0.000729 0.000000
# 3 -0.011918 -0.001410 0.018191 0.000007 -0.008769 0.000006
# 4 -0.000005 0.000000 0.000007 0.024369 -0.000003 0.002745
# 5 0.007889 -0.000729 -0.008769 -0.000003 0.026238 -0.000007
# 6 -0.000003 0.000000 0.000006 0.002745 -0.000007 0.043488
#
#
# Mechanical properties :
#
#
# Convention : Reuss Voigt Hill
#
# Bulk Modulus (GPa) = 55.17641 61.40350 58.28995
# Shear Modulus (GPa) = 29.46990 43.12343 36.29667
#
# Velocity S-wave (km/s) = 3.36470 4.07019 3.73414
# Velocity P-wave (km/s) = 6.02426 6.75851 6.40192
#
# Compressibility (1/GPa) = 0.01812369
#
# Stress axis : x y z
#
# Youngs Moduli (GPa) = 48.05977 207.14615 54.97085
#
# Poissons Ratio (x) = -0.09885 0.65515
# Poissons Ratio (y) = -0.02293 0.07753
# Poissons Ratio (z) = 0.57279 0.29214
#
# Static dielectric constant tensor:
#      x y z
#    x 2.043070 0.000000 -0.104120 
#    y 0.000000 2.078710 0.000000 
#    z -0.104120 0.000000 2.052270 
# 
# From -- ./inp_files/305585.got.cif
#   From: 2010.05.17/outbox.cif.g08.bks.cpg/sg12_153_cif.got.tgz:305585.got - 2010.06.03 13:09:07.
