data_PCOD9213855
_publ_section_title
;
Structure prediction by ZEFSAII (Michael W. Deem and Ramdas Pophale) SiO2 
 PCOD9213855
Probable space group: C 2/M
;
_chemical_formula_sum "Si O2"
_cell_formula_units_Z 56
_cell_length_a 30.882113
_cell_length_b 8.781491
_cell_length_c 12.189751
_cell_angle_alpha 90.000000
_cell_angle_beta 63.787491
_cell_angle_gamma 90.000000
_cell_volume 2965.793797
_symmetry_space_group_name_H-M "C 2/M"
_symmetry_group_IT_number 12
_symmetry_cell_setting 'monoclinic'
loop_
_space_group_symop_operation_xyz
x,y,z
-x,y,-z
-x,-y,-z
x,-y,z
1/2+x,1/2+y,z
1/2-x,1/2+y,-z
1/2-x,1/2-y,-z
1/2+x,1/2-y,z
loop_
_atom_site_type_symbol
_atom_site_label
_atom_site_fract_x
_atom_site_fract_y
_atom_site_fract_z
Si Si1 0.365045 0.818159 0.549305
Si Si2 0.710270 0.816663 0.191101
Si Si3 0.979709 0.319164 0.797733
Si Si4 0.415141 0.681500 0.293512
Si Si5 0.817376 0.183408 0.005311
Si Si6 0.553296 0.678885 0.387762
Si Si7 0.909996 0.817055 0.044005
O O1 0.316327 0.771607 0.667409
O O2 0.374806 0.739767 0.422358
O O3 0.408574 0.767955 0.580852
O O4 0.365605 0.000000 0.535519
O O5 0.766093 0.769718 0.116171
O O6 0.708440 0.000000 0.186451
O O7 0.682328 0.750567 0.117135
O O8 0.978519 0.500000 0.789088
O O9 0.950297 0.243633 0.730699
O O10 0.034344 0.259614 0.731497
O O11 0.955358 0.264371 0.937662
O O12 0.420765 0.500000 0.299040
O O13 0.404735 0.716929 0.178248
O O14 0.862537 0.229049 0.028918
O O15 0.817717 0.000000 0.997164
O O16 0.500000 0.694213 0.500000
O O17 0.565795 0.500000 0.371776
O O18 0.916371 0.000000 0.026070
#
# Coordination Sequence:
#
# PCOD9213855 Si02
#       7
#     8   8   8   8   8   8   8
#     4  11  22  36  56  83 115 148 182 226 280 329
#     4   9  19  35  57  86 115 141 173 221 279 331
#     4  12  24  37  57  83 112 145 183 230 282 330
#     4  11  23  39  56  77 109 149 192 231 268 324
#     4   9  18  36  60  84 110 141 180 224 271 325
#     4  11  22  36  56  80 110 146 182 223 269 323
#     4  10  22  39  59  80 107 147 191 231 271 322
#
# _framework density 18.881961
#
# number of rings (size 3 to 8) (size 9 to 14) (size 15 to 20)
#    0.000    1.571    1.429    3.857    0.000    7.429 
#    0.000    0.714    0.000    0.000    0.000    0.000 
#    0.000    0.000    0.000    0.000    0.000    0.000 
#
# Total GULP energy -156512.889432 kJ/mol
# GULP energy per Si atom -5589.746051 kJ/mol
# Density = 1.883898 g / cm^3
# Si number density = 18.881961 Si / 1000 Ang^3
#
#
#
# Elastic Constant Matrix: (Units=GPa)
#
#
# Indices 1 2 3 4 5 6 
#
# 1 26.5438 2.0166 13.3056 0.0000 -0.2836 0.0000
# 2 2.0166 26.5431 31.1007 0.0000 1.3115 0.0000
# 3 13.3056 31.1007 144.3072 0.0000 -0.6025 0.0000
# 4 0.0000 0.0000 0.0000 31.3442 0.0000 -0.7126
# 5 -0.2836 1.3115 -0.6025 0.0000 22.6818 0.0000
# 6 0.0000 0.0000 0.0000 -0.7126 0.0000 13.6826
#
#
#
# Elastic Compliance Matrix: (Units=1/GPa)
#
#
# Indices 1 2 3 4 5 6 
#
# 1 0.039558 0.001676 -0.004007 0.000000 0.000291 0.000000
# 2 0.001676 0.050707 -0.011096 0.000000 -0.003206 0.000000
# 3 -0.004007 -0.011096 0.009694 0.000000 0.000849 0.000000
# 4 0.000000 0.000000 0.000000 0.031942 0.000000 0.001663
# 5 0.000291 -0.003206 0.000849 0.000000 0.044300 0.000000
# 6 0.000000 0.000000 0.000000 0.001663 0.000000 0.073172
#
#
# Mechanical properties :
#
#
# Convention : Reuss Voigt Hill
#
# Bulk Modulus (GPa) = 13.67923 32.24889 22.96406
# Shear Modulus (GPa) = 16.63360 23.60646 20.12003
#
# Velocity S-wave (km/s) = 2.97126 3.53967 3.26785
# Velocity P-wave (km/s) = 4.36251 5.81567 5.14069
#
# Compressibility (1/GPa) = 0.07310354
#
# Stress axis : x y z
#
# Youngs Moduli (GPa) = 25.27921 19.72115 103.15560
#
# Poissons Ratio (x) = -0.03304 0.41337
# Poissons Ratio (y) = -0.04236 1.14463
# Poissons Ratio (z) = 0.10130 0.21883
#
# Static dielectric constant tensor:
#      x y z
#    x 1.634200 0.000000 -0.015930 
#    y 0.000000 1.630500 0.000000 
#    z -0.015930 0.000000 1.671540 
# 
# From -- ./inp_files/187262.got.cif
#   From: 2010.05.17/outbox.cif.g08.bks.cpg/sg12_94_cif.got.tgz:187262.got - 2010.06.03 13:09:07.
