data_PCOD9213792
_publ_section_title
;
Structure prediction by ZEFSAII (Michael W. Deem and Ramdas Pophale) SiO2 
 PCOD9213792
Probable space group: C 2/M
;
_chemical_formula_sum "Si O2"
_cell_formula_units_Z 64
_cell_length_a 8.539617
_cell_length_b 20.127806
_cell_length_c 17.831210
_cell_angle_alpha 90.000000
_cell_angle_beta 88.909663
_cell_angle_gamma 90.000000
_cell_volume 3064.340375
_symmetry_space_group_name_H-M "C 2/M"
_symmetry_group_IT_number 12
_symmetry_cell_setting 'monoclinic'
loop_
_space_group_symop_operation_xyz
x,y,z
-x,y,-z
-x,-y,-z
x,-y,z
1/2+x,1/2+y,z
1/2-x,1/2+y,-z
1/2-x,1/2-y,-z
1/2+x,1/2-y,z
loop_
_atom_site_type_symbol
_atom_site_label
_atom_site_fract_x
_atom_site_fract_y
_atom_site_fract_z
Si Si1 0.069680 0.925652 0.728282
Si Si2 0.945001 0.573324 0.750310
Si Si3 0.126355 0.786652 0.054435
Si Si4 0.369957 0.226337 0.625421
Si Si5 0.088663 0.878546 0.422143
Si Si6 0.450953 0.098530 0.420737
Si Si7 0.602153 0.812636 0.851057
Si Si8 0.590565 0.714590 0.731619
O O1 0.256501 0.920956 0.741856
O O2 0.018756 0.854189 0.761790
O O3 0.008272 0.913906 0.643673
O O4 0.019767 0.000000 0.752015
O O5 0.979519 0.500000 0.780504
O O6 0.002503 0.575307 0.663203
O O7 0.024265 0.627752 0.803956
O O8 0.244581 0.831865 0.102108
O O9 0.028674 0.729692 0.101086
O O10 0.250000 0.750000 0.000000
O O11 0.000000 0.820483 0.000000
O O12 0.380940 0.298979 0.589110
O O13 0.460376 0.170325 0.579546
O O14 0.459473 0.236308 0.702455
O O15 0.198780 0.205683 0.656052
O O16 0.264607 0.904254 0.422161
O O17 0.000000 0.889244 0.500000
O O18 0.500000 0.068350 0.500000
O O19 0.671301 0.756176 0.794910
#
# Coordination Sequence:
#
# PCOD9213792 Si02
#       8
#     8   8   8   8   8   8   8   8
#     4  10  22  39  57  78 113 150 195 260 311 369
#     4  11  23  41  62  90 122 164 222 268 314 375
#     4   9  20  36  62 102 137 164 196 246 304 367
#     4  11  20  34  55  83 115 143 202 260 321 376
#     4  11  24  37  54  78 105 150 199 259 331 398
#     4  12  24  38  58  81 119 162 211 273 333 379
#     4  11  19  37  67  95 131 169 208 257 304 366
#     4  11  19  34  60  90 115 152 202 253 312 362
#
# _framework density 20.885408000000002
#
# number of rings (size 3 to 8) (size 9 to 14) (size 15 to 20)
#    0.000    1.250    3.750    2.625    1.750    3.000 
#    0.000    0.000    0.000    3.750    0.000    3.500 
#    0.000    0.000    0.000    0.000    0.000    0.000 
#
# Total GULP energy -178146.831038 kJ/mol
# GULP energy per Si atom -5567.088470 kJ/mol
# Density = 2.083787 g / cm^3
# Si number density = 20.885408 Si / 1000 Ang^3
#
#
#
# Elastic Constant Matrix: (Units=GPa)
#
#
# Indices 1 2 3 4 5 6 
#
# 1 105.9001 15.4775 47.7726 0.0000 15.3312 0.0000
# 2 15.4775 116.7445 32.8805 0.0000 17.9744 0.0000
# 3 47.7726 32.8805 73.8509 0.0000 11.7344 0.0000
# 4 0.0000 0.0000 0.0000 -35.7229 0.0000 -1.3061
# 5 15.3312 17.9744 11.7344 0.0000 47.1632 0.0000
# 6 0.0000 0.0000 0.0000 -1.3061 0.0000 -10.3972
#
#
#
# Elastic Compliance Matrix: (Units=1/GPa)
#
#
# Indices 1 2 3 4 5 6 
#
# 1 0.013693 0.001108 -0.008930 0.000000 -0.002652 0.000000
# 2 0.001108 0.010240 -0.004788 0.000000 -0.003072 0.000000
# 3 -0.008930 -0.004788 0.021550 0.000000 -0.000634 0.000000
# 4 0.000000 0.000000 0.000000 -0.028122 0.000000 0.003533
# 5 -0.002652 -0.003072 -0.000634 0.000000 0.023393 0.000000
# 6 0.000000 0.000000 0.000000 0.003533 0.000000 -0.096624
#
#
# Mechanical properties :
#
#
# Convention : Reuss Voigt Hill
#
# Bulk Modulus (GPa) = 49.34942 54.30629 51.82785
# Shear Modulus (GPa) = -209.24127 13.56629 -97.83749
#
# Velocity S-wave (km/s) = -10.02012 2.55141 -6.85176
# Velocity P-wave (km/s) = 10.49717 5.89390 6.14217
#
# Compressibility (1/GPa) = 0.02026366
#
# Stress axis : x y z
#
# Youngs Moduli (GPa) = 73.02945 97.65415 46.40440
#
# Poissons Ratio (x) = -0.10819 0.41438
# Poissons Ratio (y) = -0.08091 0.22218
# Poissons Ratio (z) = 0.65213 0.46755
#
# Static dielectric constant tensor:
#      x y z
#    x 1.833240 0.000000 0.030320 
#    y 0.000000 1.797170 0.000000 
#    z 0.030320 0.000000 1.808020 
# 
# From -- ./inp_files/258099.got.cif
#   From: 2010.05.17/outbox.cif.g08.bks.cpg/sg12_130_cif.got.tgz:258099.got - 2010.06.03 13:09:07.
