data_PCOD9213010
_publ_section_title
;
Structure prediction by ZEFSAII (Michael W. Deem and Ramdas Pophale) SiO2 
 PCOD9213010
Probable space group: C 2/M
;
_chemical_formula_sum "Si O2"
_cell_formula_units_Z 56
_cell_length_a 24.678806
_cell_length_b 28.113085
_cell_length_c 14.912911
_cell_angle_alpha 90.000000
_cell_angle_beta 161.776871
_cell_angle_gamma 90.000000
_cell_volume 3235.552690
_symmetry_space_group_name_H-M "C 2/M"
_symmetry_group_IT_number 12
_symmetry_cell_setting 'monoclinic'
loop_
_space_group_symop_operation_xyz
x,y,z
-x,y,-z
-x,-y,-z
x,-y,z
1/2+x,1/2+y,z
1/2-x,1/2+y,-z
1/2-x,1/2-y,-z
1/2+x,1/2-y,z
loop_
_atom_site_type_symbol
_atom_site_label
_atom_site_fract_x
_atom_site_fract_y
_atom_site_fract_z
Si Si1 0.750218 0.687445 0.330693
Si Si2 0.771367 0.945972 0.476026
Si Si3 0.123485 0.207556 0.774314
Si Si4 0.203151 0.799622 0.622280
Si Si5 0.395086 0.054340 0.978303
Si Si6 0.100104 0.152730 0.284289
Si Si7 0.376138 0.148472 0.057829
O O1 0.768699 0.743973 0.350396
O O2 0.685384 0.672797 0.327814
O O3 0.935420 0.662609 0.609446
O O4 0.597293 0.670554 0.024767
O O5 0.727842 0.939298 0.302059
O O6 0.892523 0.904170 0.701068
O O7 0.833890 0.000000 0.587030
O O8 0.589259 0.941211 0.243037
O O9 0.000000 0.225459 0.500000
O O10 0.990722 0.193679 0.643351
O O11 0.250000 0.250000 0.000000
O O12 0.233638 0.164132 0.906647
O O13 0.210341 0.827709 0.540833
O O14 0.333678 0.819596 0.902544
O O15 0.373820 0.000000 0.977050
O O16 0.366502 0.094629 0.007380
#
# Coordination Sequence:
#
# PCOD9213010 Si02
#       7
#     8   8   8   8   8   8   8
#     4  11  23  34  50  82 115 146 178 221 273 331
#     4   9  17  33  56  80 107 143 184 224 272 333
#     4  10  22  36  56  79 106 143 189 227 263 319
#     4  11  22  37  55  75 109 152 187 220 266 325
#     4   9  17  32  57  84 105 139 186 229 274 325
#     4  11  22  36  51  81 114 145 182 221 275 329
#     4  11  20  36  58  79 110 144 185 229 271 314
#
# _framework density 17.307708000000002
#
# number of rings (size 3 to 8) (size 9 to 14) (size 15 to 20)
#    0.000    1.714    4.286    2.143    2.000    1.714 
#    0.000    2.143    0.000    4.714    0.000    0.000 
#    0.000    2.857    0.000    0.000    0.000    0.000 
#
# Total GULP energy -156248.859946 kJ/mol
# GULP energy per Si atom -5580.316427 kJ/mol
# Density = 1.726831 g / cm^3
# Si number density = 17.307708 Si / 1000 Ang^3
#
#
#
# Elastic Constant Matrix: (Units=GPa)
#
#
# Indices 1 2 3 4 5 6 
#
# 1 28.3071 30.9403 3.9231 0.0000 -3.2709 0.0000
# 2 30.9403 151.6832 27.3350 0.0000 3.4222 0.0000
# 3 3.9231 27.3350 63.8592 0.0000 8.0055 0.0000
# 4 0.0000 0.0000 0.0000 3.8879 0.0000 -16.0547
# 5 -3.2709 3.4222 8.0055 0.0000 10.5278 0.0000
# 6 0.0000 0.0000 0.0000 -16.0547 0.0000 3.5863
#
#
#
# Elastic Compliance Matrix: (Units=1/GPa)
#
#
# Indices 1 2 3 4 5 6 
#
# 1 0.048867 -0.010214 -0.001049 0.000000 0.019301 0.000000
# 2 -0.010214 0.009279 -0.002839 0.000000 -0.004031 0.000000
# 3 -0.001049 -0.002839 0.018641 0.000000 -0.013578 0.000000
# 4 0.000000 0.000000 0.000000 -0.014709 0.000000 -0.065849
# 5 0.019301 -0.004031 -0.013578 0.000000 0.112619 0.000000
# 6 0.000000 0.000000 0.000000 -0.065849 0.000000 -0.015946
#
#
# Mechanical properties :
#
#
# Convention : Reuss Voigt Hill
#
# Bulk Modulus (GPa) = 20.58390 40.91626 30.75008
# Shear Modulus (GPa) = 24.61250 15.71046 20.16148
#
# Velocity S-wave (km/s) = 3.77510 3.01610 3.41674
# Velocity P-wave (km/s) = 5.56063 5.98506 5.77674
#
# Compressibility (1/GPa) = 0.04858165
#
# Stress axis : x y z
#
# Youngs Moduli (GPa) = 20.46382 107.77348 53.64411
#
# Poissons Ratio (x) = 1.10081 0.05630
# Poissons Ratio (y) = 0.20902 0.15229
# Poissons Ratio (z) = 0.02148 0.30596
#
# Static dielectric constant tensor:
#      x y z
#    x 1.571480 0.000000 0.001230 
#    y 0.000000 1.574210 0.000000 
#    z 0.001230 0.000000 1.595110 
# 
# From -- ./inp_files/242169.got.cif
#   From: 2010.05.17/outbox.cif.g08.bks.cpg/sg12_122_cif.got.tgz:242169.got - 2010.06.03 13:09:07.
