data_PCOD9213834
_publ_section_title
;
Structure prediction by ZEFSAII (Michael W. Deem and Ramdas Pophale) SiO2 
 PCOD9213834
Probable space group: C 2/M
;
_chemical_formula_sum "Si O2"
_cell_formula_units_Z 40
_cell_length_a 11.849870
_cell_length_b 14.418110
_cell_length_c 11.306390
_cell_angle_alpha 90.000000
_cell_angle_beta 76.267808
_cell_angle_gamma 90.000000
_cell_volume 1876.510889
_symmetry_space_group_name_H-M "C 2/M"
_symmetry_group_IT_number 12
_symmetry_cell_setting 'monoclinic'
loop_
_space_group_symop_operation_xyz
x,y,z
-x,y,-z
-x,-y,-z
x,-y,z
1/2+x,1/2+y,z
1/2-x,1/2+y,-z
1/2-x,1/2-y,-z
1/2+x,1/2-y,z
loop_
_atom_site_type_symbol
_atom_site_label
_atom_site_fract_x
_atom_site_fract_y
_atom_site_fract_z
Si Si1 0.803163 0.212100 0.228977
Si Si2 0.476801 0.391355 0.719274
Si Si3 0.239880 0.107657 0.355751
Si Si4 0.630869 0.890535 0.430568
Si Si5 0.366224 0.396416 0.991191
O O1 0.806421 0.320365 0.255959
O O2 0.685618 0.170203 0.313610
O O3 0.811160 0.178699 0.091764
O O4 0.910702 0.166720 0.274880
O O5 0.511147 0.500000 0.713007
O O6 0.398232 0.374796 0.623787
O O7 0.383029 0.376441 0.849022
O O8 0.286784 0.121778 0.475827
O O9 0.259207 0.000000 0.319452
O O10 0.500000 0.865858 0.500000
O O11 0.631858 0.000000 0.398377
O O12 0.314924 0.500000 0.020345
O O13 0.500000 0.402005 0.000000
#
# Coordination Sequence:
#
# PCOD9213834 Si02
#       5
#     8   8   8   8   8
#     4  11  20  34  63  85 110 149 198 224 279 343
#     4   9  19  37  61  89 115 140 185 244 286 323
#     4  10  23  39  55  82 120 151 184 238 286 323
#     4  10  22  39  58  83 117 151 187 233 283 338
#     4   8  15  31  57  89 115 138 181 240 284 324
#
# _framework density 21.316157
#
# number of rings (size 3 to 8) (size 9 to 14) (size 15 to 20)
#    0.000    2.400    0.000    3.600    2.800    1.600 
#    0.000    3.000    0.000    5.400    0.000    0.000 
#    0.000    0.000    0.000    0.000    0.000    0.000 
#
# Total GULP energy -111659.242495 kJ/mol
# GULP energy per Si atom -5582.962125 kJ/mol
# Density = 2.126764 g / cm^3
# Si number density = 21.316157 Si / 1000 Ang^3
#
#
#
# Elastic Constant Matrix: (Units=GPa)
#
#
# Indices 1 2 3 4 5 6 
#
# 1 87.3314 14.1783 23.4755 0.0000 9.6170 0.0000
# 2 14.1783 89.2219 31.3062 0.0000 -19.9940 0.0000
# 3 23.4755 31.3062 53.1291 0.0000 -16.9572 0.0000
# 4 0.0000 0.0000 0.0000 9.5685 0.0000 -16.8528
# 5 9.6170 -19.9940 -16.9572 0.0000 25.4210 0.0000
# 6 0.0000 0.0000 0.0000 -16.8528 0.0000 21.3648
#
#
#
# Elastic Compliance Matrix: (Units=1/GPa)
#
#
# Indices 1 2 3 4 5 6 
#
# 1 0.016360 -0.002213 -0.010743 0.000000 -0.015096 0.000000
# 2 -0.002213 0.015503 -0.005080 0.000000 0.009642 0.000000
# 3 -0.010743 -0.005080 0.033775 0.000000 0.022599 0.000000
# 4 0.000000 0.000000 0.000000 -0.268450 0.000000 -0.211756
# 5 -0.015096 0.009642 0.022599 0.000000 0.067707 0.000000
# 6 0.000000 0.000000 0.000000 -0.211756 0.000000 -0.120230
#
#
# Mechanical properties :
#
#
# Convention : Reuss Voigt Hill
#
# Bulk Modulus (GPa) = 33.82226 40.84472 37.33349
# Shear Modulus (GPa) = -23.87681 21.98569 -0.94556
#
# Velocity S-wave (km/s) = -3.35046 3.21504 -0.66675
# Velocity P-wave (km/s) = 0.96641 5.74325 4.11819
#
# Compressibility (1/GPa) = 0.02956633
#
# Stress axis : x y z
#
# Youngs Moduli (GPa) = 61.12403 64.50461 29.60780
#
# Poissons Ratio (x) = 0.14277 0.31808
# Poissons Ratio (y) = 0.13528 0.15039
# Poissons Ratio (z) = 0.65665 0.32765
#
# Static dielectric constant tensor:
#      x y z
#    x 1.785900 0.000000 0.045140 
#    y 0.000000 1.795870 0.000000 
#    z 0.045140 0.000000 1.824040 
# 
# From -- ./inp_files/129566.got.cif
#   From: 2010.05.17/outbox.cif.g08.bks.cpg/sg12_65_cif.got.tgz:129566.got - 2010.06.03 13:09:07.
