data_PCOD9213968
_publ_section_title
;
Structure prediction by ZEFSAII (Michael W. Deem and Ramdas Pophale) SiO2 
 PCOD9213968
Probable space group: C 2/M
;
_chemical_formula_sum "Si O2"
_cell_formula_units_Z 48
_cell_length_a 10.264602
_cell_length_b 23.199647
_cell_length_c 11.564699
_cell_angle_alpha 90.000000
_cell_angle_beta 112.048351
_cell_angle_gamma 90.000000
_cell_volume 2552.556903
_symmetry_space_group_name_H-M "C 2/M"
_symmetry_group_IT_number 12
_symmetry_cell_setting 'monoclinic'
loop_
_space_group_symop_operation_xyz
x,y,z
-x,y,-z
-x,-y,-z
x,-y,z
1/2+x,1/2+y,z
1/2-x,1/2+y,-z
1/2-x,1/2-y,-z
1/2+x,1/2-y,z
loop_
_atom_site_type_symbol
_atom_site_label
_atom_site_fract_x
_atom_site_fract_y
_atom_site_fract_z
Si Si1 0.466090 0.148022 0.660497
Si Si2 0.195641 0.000000 0.693242
Si Si3 0.746802 0.282645 0.877588
Si Si4 0.612858 0.098289 0.127896
Si Si5 0.264206 0.880080 0.400201
Si Si6 0.419448 0.272435 0.720849
Si Si7 0.638996 0.500000 0.398730
O O1 0.469970 0.125838 0.791620
O O2 0.612734 0.135218 0.648503
O O3 0.342908 0.117199 0.549080
O O4 0.424965 0.215216 0.644304
O O5 0.276075 0.945907 0.778971
O O6 0.192706 0.000000 0.551227
O O7 0.029596 0.000000 0.663881
O O8 0.811043 0.346653 0.904562
O O9 0.582543 0.286789 0.793397
O O10 0.835385 0.247446 0.809260
O O11 0.750000 0.250000 0.000000
O O12 0.500000 0.073147 0.000000
O O13 0.155775 0.827503 0.358842
O O14 0.195176 0.941915 0.358186
#
# Coordination Sequence:
#
# PCOD9213968 Si02
#       7
#     8   4   8   8   8   8   4
#     4  10  22  39  61 100 125 171 216 271 340 383
#     4  11  23  45  63  98 124 175 228 263 343 382
#     4  11  22  39  63  93 129 172 215 269 337 391
#     4  11  23  41  67  93 131 166 225 269 327 400
#     4  11  22  40  64  92 136 165 222 272 328 402
#     4  11  21  39  61  94 129 170 217 272 329 390
#     4  11  24  42  68  93 135 178 216 279 331 402
#
# _framework density 18.804673999999999
#
# number of rings (size 3 to 8) (size 9 to 14) (size 15 to 20)
#    0.000    1.167    3.333    4.250    0.000    2.000 
#    0.000    0.000    0.000    1.000    0.000    0.000 
#    0.000    0.000    0.000    0.000    0.000    0.000 
#
# Total GULP energy -133961.908946 kJ/mol
# GULP energy per Si atom -5581.746206 kJ/mol
# Density = 1.876187 g / cm^3
# Si number density = 18.804674 Si / 1000 Ang^3
#
#
#
# Elastic Constant Matrix: (Units=GPa)
#
#
# Indices 1 2 3 4 5 6 
#
# 1 115.3535 57.4462 46.4459 0.0000 8.5585 0.0000
# 2 57.4462 135.8592 27.0560 0.0000 -0.3966 0.0000
# 3 46.4459 27.0560 68.0852 0.0000 8.7035 0.0000
# 4 0.0000 0.0000 0.0000 37.8334 0.0000 3.4886
# 5 8.5585 -0.3966 8.7035 0.0000 30.0831 0.0000
# 6 0.0000 0.0000 0.0000 3.4886 0.0000 29.3009
#
#
#
# Elastic Compliance Matrix: (Units=1/GPa)
#
#
# Indices 1 2 3 4 5 6 
#
# 1 0.014082 -0.004446 -0.007601 0.000000 -0.001866 0.000000
# 2 -0.004446 0.009430 -0.000926 0.000000 0.001657 0.000000
# 3 -0.007601 -0.000926 0.020733 0.000000 -0.003848 0.000000
# 4 0.000000 0.000000 0.000000 0.026725 0.000000 -0.003182
# 5 -0.001866 0.001657 -0.003848 0.000000 0.034907 0.000000
# 6 0.000000 0.000000 0.000000 -0.003182 0.000000 0.034508
#
#
# Mechanical properties :
#
#
# Convention : Reuss Voigt Hill
#
# Bulk Modulus (GPa) = 54.65088 64.57712 59.61400
# Shear Modulus (GPa) = 28.99723 32.00014 30.49868
#
# Velocity S-wave (km/s) = 3.93112 4.12966 4.03161
# Velocity P-wave (km/s) = 7.05198 7.56005 7.31043
#
# Compressibility (1/GPa) = 0.01829797
#
# Stress axis : x y z
#
# Youngs Moduli (GPa) = 71.01202 106.04672 48.23311
#
# Poissons Ratio (x) = 0.47150 0.36662
# Poissons Ratio (y) = 0.31573 0.04467
# Poissons Ratio (z) = 0.53977 0.09821
#
# Static dielectric constant tensor:
#      x y z
#    x 1.636450 0.000000 0.013670 
#    y 0.000000 1.665320 0.000000 
#    z 0.013670 0.000000 1.680990 
# 
# From -- ./inp_files/122602.got.cif
#   From: 2010.05.17/outbox.cif.g08.bks.cpg/sg12_62_cif.got.tgz:122602.got - 2010.06.03 13:09:07.
