data_PCOD9213524
_publ_section_title
;
Structure prediction by ZEFSAII (Michael W. Deem and Ramdas Pophale) SiO2 
 PCOD9213524
Probable space group: C 2/M
;
_chemical_formula_sum "Si O2"
_cell_formula_units_Z 48
_cell_length_a 25.289825
_cell_length_b 8.812855
_cell_length_c 13.995335
_cell_angle_alpha 90.000000
_cell_angle_beta 48.944218
_cell_angle_gamma 90.000000
_cell_volume 2352.110369
_symmetry_space_group_name_H-M "C 2/M"
_symmetry_group_IT_number 12
_symmetry_cell_setting 'monoclinic'
loop_
_space_group_symop_operation_xyz
x,y,z
-x,y,-z
-x,-y,-z
x,-y,z
1/2+x,1/2+y,z
1/2-x,1/2+y,-z
1/2-x,1/2-y,-z
1/2+x,1/2-y,z
loop_
_atom_site_type_symbol
_atom_site_label
_atom_site_fract_x
_atom_site_fract_y
_atom_site_fract_z
Si Si1 0.050206 0.820663 0.154429
Si Si2 0.526340 0.819929 0.574814
Si Si3 0.922661 0.318801 0.203362
Si Si4 0.831442 0.677199 0.502987
Si Si5 0.793719 0.318163 0.244982
Si Si6 0.295414 0.181871 0.031714
O O1 0.013484 0.777286 0.298636
O O2 0.995657 0.762090 0.138677
O O3 0.060283 0.000000 0.134432
O O4 0.124223 0.735731 0.066941
O O5 0.500000 0.789854 0.500000
O O6 0.609168 0.792260 0.487768
O O7 0.515370 0.000000 0.609872
O O8 0.935815 0.500000 0.179715
O O9 0.872690 0.294099 0.355543
O O10 0.872511 0.265142 0.177163
O O11 0.812874 0.500000 0.526103
O O12 0.762359 0.768989 0.609599
O O13 0.797317 0.500000 0.241413
O O14 0.770166 0.268717 0.167558
O O15 0.292309 0.000000 0.029559
O O16 0.250000 0.250000 0.000000
#
# Coordination Sequence:
#
# PCOD9213524 Si02
#       6
#     8   8   8   8   8   8
#     4  11  23  39  60  88 118 152 195 247 294 343
#     4   9  19  36  58  85 116 156 197 237 294 352
#     4   9  19  39  62  87 119 156 193 236 295 358
#     4   9  18  32  55  88 122 153 187 232 293 354
#     4  10  22  38  60  87 117 155 199 243 292 347
#     4  11  25  44  62  84 116 158 201 247 296 349
#
# _framework density 20.407205000000001
#
# number of rings (size 3 to 8) (size 9 to 14) (size 15 to 20)
#    0.000    2.167    0.000    3.500    2.333    5.667 
#    0.000    3.333    0.000    0.000    0.000    0.000 
#    0.000    0.000    0.000    0.000    0.000    0.000 
#
# Total GULP energy -134034.225500 kJ/mol
# GULP energy per Si atom -5584.759396 kJ/mol
# Density = 2.036076 g / cm^3
# Si number density = 20.407205 Si / 1000 Ang^3
#
#
#
# Elastic Constant Matrix: (Units=GPa)
#
#
# Indices 1 2 3 4 5 6 
#
# 1 133.5794 33.2564 16.7894 0.0000 -3.8323 0.0000
# 2 33.2564 36.7280 15.4982 0.0000 -0.5265 0.0000
# 3 16.7894 15.4982 47.0618 0.0000 -15.1636 0.0000
# 4 0.0000 0.0000 0.0000 23.4856 0.0000 -7.3954
# 5 -3.8323 -0.5265 -15.1636 0.0000 24.2876 0.0000
# 6 0.0000 0.0000 0.0000 -7.3954 0.0000 29.8416
#
#
#
# Elastic Compliance Matrix: (Units=1/GPa)
#
#
# Indices 1 2 3 4 5 6 
#
# 1 0.009710 -0.008684 -0.000214 0.000000 0.001210 0.000000
# 2 -0.008684 0.040451 -0.012997 0.000000 -0.008608 0.000000
# 3 -0.000214 -0.012997 0.031926 0.000000 0.019617 0.000000
# 4 0.000000 0.000000 0.000000 0.046183 0.000000 0.011445
# 5 0.001210 -0.008608 0.019617 0.000000 0.053425 0.000000
# 6 0.000000 0.000000 0.000000 0.011445 0.000000 0.036347
#
#
# Mechanical properties :
#
#
# Convention : Reuss Voigt Hill
#
# Bulk Modulus (GPa) = 26.11185 38.71745 32.41465
# Shear Modulus (GPa) = 18.20844 25.64465 21.92654
#
# Velocity S-wave (km/s) = 2.99031 3.54877 3.28144
# Velocity P-wave (km/s) = 4.97451 5.98375 5.50232
#
# Compressibility (1/GPa) = 0.03829679
#
# Stress axis : x y z
#
# Youngs Moduli (GPa) = 102.98750 24.72099 31.32270
#
# Poissons Ratio (x) = 0.21469 0.00671
# Poissons Ratio (y) = 0.89438 0.40709
# Poissons Ratio (z) = 0.02206 0.32129
#
# Static dielectric constant tensor:
#      x y z
#    x 1.750360 0.000000 0.033710 
#    y 0.000000 1.687810 0.000000 
#    z 0.033710 0.000000 1.732840 
# 
# From -- ./inp_files/244675.got.cif
#   From: 2010.05.17/outbox.cif.g08.bks.cpg/sg12_123_cif.got.tgz:244675.got - 2010.06.03 13:09:07.
