data_PCOD9213092
_publ_section_title
;
Structure prediction by ZEFSAII (Michael W. Deem and Ramdas Pophale) SiO2 
 PCOD9213092
Probable space group: C 2/M
;
_chemical_formula_sum "Si O2"
_cell_formula_units_Z 48
_cell_length_a 7.532143
_cell_length_b 22.423611
_cell_length_c 14.746507
_cell_angle_alpha 90.000000
_cell_angle_beta 104.634970
_cell_angle_gamma 90.000000
_cell_volume 2409.844357
_symmetry_space_group_name_H-M "C 2/M"
_symmetry_group_IT_number 12
_symmetry_cell_setting 'monoclinic'
loop_
_space_group_symop_operation_xyz
x,y,z
-x,y,-z
-x,-y,-z
x,-y,z
1/2+x,1/2+y,z
1/2-x,1/2+y,-z
1/2-x,1/2-y,-z
1/2+x,1/2-y,z
loop_
_atom_site_type_symbol
_atom_site_label
_atom_site_fract_x
_atom_site_fract_y
_atom_site_fract_z
Si Si1 0.720833 0.870165 0.373093
Si Si2 0.428981 0.374963 0.715707
Si Si3 0.500000 0.699664 0.500000
Si Si4 0.605148 0.217696 0.683043
Si Si5 0.874545 0.000000 0.631768
Si Si6 0.000000 0.287438 0.000000
Si Si7 0.223439 0.500000 0.416493
Si Si8 0.854929 0.800936 0.135690
O O1 0.565826 0.825572 0.318865
O O2 0.642653 0.936141 0.378442
O O3 0.893425 0.872653 0.327289
O O4 0.820973 0.843514 0.476255
O O5 0.275591 0.324525 0.679784
O O6 0.353775 0.440789 0.688920
O O7 0.512100 0.355501 0.823148
O O8 0.458532 0.742559 0.410210
O O9 0.655125 0.259562 0.774913
O O10 0.744354 0.000000 0.527524
O O11 0.076343 0.000000 0.608422
O O12 0.837935 0.322754 0.929650
O O13 0.070320 0.243505 0.930584
#
# Coordination Sequence:
#
# PCOD9213092 Si02
#       8
#     8   8   4   8   4   4   4   8
#     4  11  23  38  56  79 124 166 204 243 276 342
#     4  11  22  40  60  84 121 156 200 243 291 350
#     4  12  24  35  56  87 126 164 188 238 306 348
#     4  12  25  36  58  93 124 156 197 243 300 359
#     4   9  20  37  59  81 116 169 207 245 282 335
#     4  10  22  36  66  88 116 152 186 248 324 360
#     4   9  20  37  55  81 114 171 222 237 272 331
#     4  11  20  40  59  93 120 148 194 250 306 370
#
# _framework density 19.918296999999999
#
# number of rings (size 3 to 8) (size 9 to 14) (size 15 to 20)
#    0.000    1.167    3.333    4.500    4.667    0.667 
#    0.000    0.833    0.000    1.000    0.000    0.000 
#    0.000    0.000    0.000    0.000    0.000    0.000 
#
# Total GULP energy -133968.072203 kJ/mol
# GULP energy per Si atom -5582.003008 kJ/mol
# Density = 1.987296 g / cm^3
# Si number density = 19.918297 Si / 1000 Ang^3
#
#
#
# Elastic Constant Matrix: (Units=GPa)
#
#
# Indices 1 2 3 4 5 6 
#
# 1 63.7884 20.1753 23.3726 0.0000 13.9376 0.0000
# 2 20.1753 138.1150 43.1951 0.0000 1.5602 0.0000
# 3 23.3726 43.1951 110.9883 0.0000 6.3312 0.0000
# 4 0.0000 0.0000 0.0000 14.7526 0.0000 -1.2256
# 5 13.9376 1.5602 6.3312 0.0000 29.0700 0.0000
# 6 0.0000 0.0000 0.0000 -1.2256 0.0000 -33.2928
#
#
#
# Elastic Compliance Matrix: (Units=1/GPa)
#
#
# Indices 1 2 3 4 5 6 
#
# 1 0.019140 -0.001811 -0.002843 0.000000 -0.008460 0.000000
# 2 -0.001811 0.008417 -0.002955 0.000000 0.001060 0.000000
# 3 -0.002843 -0.002955 0.010806 0.000000 -0.000832 0.000000
# 4 0.000000 0.000000 0.000000 0.067578 0.000000 -0.002488
# 5 -0.008460 0.001060 -0.000832 0.000000 0.038580 0.000000
# 6 0.000000 0.000000 0.000000 -0.002488 0.000000 -0.029945
#
#
# Mechanical properties :
#
#
# Convention : Reuss Voigt Hill
#
# Bulk Modulus (GPa) = 43.20617 54.04197 48.62407
# Shear Modulus (GPa) = 36.36106 17.18254 26.77180
#
# Velocity S-wave (km/s) = 4.27723 2.94028 3.67015
# Velocity P-wave (km/s) = 6.79204 6.22236 6.51343
#
# Compressibility (1/GPa) = 0.02314485
#
# Stress axis : x y z
#
# Youngs Moduli (GPa) = 52.24669 118.80633 92.54011
#
# Poissons Ratio (x) = 0.21518 0.26310
# Poissons Ratio (y) = 0.09463 0.27344
# Poissons Ratio (z) = 0.14854 0.35106
#
# Static dielectric constant tensor:
#      x y z
#    x 1.816530 0.000000 0.004020 
#    y 0.000000 1.722840 0.000000 
#    z 0.004020 0.000000 1.723320 
# 
# From -- ./inp_files/197242.got.cif
#   From: 2010.05.17/outbox.cif.g08.bks.cpg/sg12_99_cif.got.tgz:197242.got - 2010.06.03 13:09:07.
