data_PCOD9213242
_publ_section_title
;
Structure prediction by ZEFSAII (Michael W. Deem and Ramdas Pophale) SiO2 
 PCOD9213242
Probable space group: C 2/M
;
_chemical_formula_sum "Si O2"
_cell_formula_units_Z 40
_cell_length_a 11.167417
_cell_length_b 16.720196
_cell_length_c 13.618909
_cell_angle_alpha 90.000000
_cell_angle_beta 46.461056
_cell_angle_gamma 90.000000
_cell_volume 1843.394581
_symmetry_space_group_name_H-M "C 2/M"
_symmetry_group_IT_number 12
_symmetry_cell_setting 'monoclinic'
loop_
_space_group_symop_operation_xyz
x,y,z
-x,y,-z
-x,-y,-z
x,-y,z
1/2+x,1/2+y,z
1/2-x,1/2+y,-z
1/2-x,1/2-y,-z
1/2+x,1/2-y,z
loop_
_atom_site_type_symbol
_atom_site_label
_atom_site_fract_x
_atom_site_fract_y
_atom_site_fract_z
Si Si1 0.081146 0.909033 0.052387
Si Si2 0.111314 0.678075 0.019283
Si Si3 0.915962 0.744518 0.765146
Si Si4 0.461022 0.912798 0.407237
Si Si5 0.425278 0.410241 0.347238
O O1 0.249143 0.874274 0.004891
O O2 0.947709 0.909287 0.216297
O O3 0.123124 0.000000 0.004114
O O4 0.000000 0.874567 0.000000
O O5 0.224243 0.737705 0.891692
O O6 0.020708 0.725282 0.158702
O O7 0.000000 0.635948 0.000000
O O8 0.953960 0.664337 0.686061
O O9 0.987722 0.825686 0.676046
O O10 0.500000 0.914011 0.500000
O O11 0.262783 0.905833 0.511567
O O12 0.511022 0.000000 0.337299
O O13 0.489691 0.500000 0.341026
#
# Coordination Sequence:
#
# PCOD9213242 Si02
#       5
#     8   8   8   8   8
#     4   9  19  36  63  92 124 168 214 268 325 376
#     4  10  23  38  58  92 130 168 218 263 315 391
#     4  10  22  38  62  86 126 171 211 259 324 383
#     4  10  22  37  60  93 124 159 211 271 316 374
#     4   9  19  37  59  86 120 157 211 265 315 377
#
# _framework density 21.699096000000001
#
# number of rings (size 3 to 8) (size 9 to 14) (size 15 to 20)
#    0.000    2.400    0.000    0.600    5.600    6.800 
#    0.000    3.000    0.000    1.200    0.000    0.000 
#    0.000    0.000    0.000    0.000    0.000    0.000 
#
# Total GULP energy -111382.431510 kJ/mol
# GULP energy per Si atom -5569.121575 kJ/mol
# Density = 2.164971 g / cm^3
# Si number density = 21.699096 Si / 1000 Ang^3
#
#
#
# Elastic Constant Matrix: (Units=GPa)
#
#
# Indices 1 2 3 4 5 6 
#
# 1 98.5074 45.0491 5.6827 -0.0001 8.0180 0.0000
# 2 45.0491 204.5064 53.6184 0.0000 -5.7150 0.0000
# 3 5.6827 53.6184 53.9165 -0.0002 -0.8483 0.0001
# 4 -0.0001 0.0000 -0.0002 23.2154 0.0001 15.8386
# 5 8.0180 -5.7150 -0.8483 0.0001 9.0010 0.0000
# 6 0.0000 0.0000 0.0001 15.8386 0.0000 16.6187
#
#
#
# Elastic Compliance Matrix: (Units=1/GPa)
#
#
# Indices 1 2 3 4 5 6 
#
# 1 0.012873 -0.003795 0.002202 0.000001 -0.013669 -0.000001
# 2 -0.003795 0.007851 -0.007287 0.000000 0.007678 0.000000
# 3 0.002202 -0.007287 0.025496 0.000001 -0.004185 -0.000001
# 4 0.000001 0.000000 0.000001 0.123148 -0.000003 -0.117367
# 5 -0.013669 0.007678 -0.004185 -0.000003 0.127755 0.000003
# 6 -0.000001 0.000000 -0.000001 -0.117367 0.000003 0.172031
#
#
# Mechanical properties :
#
#
# Convention : Reuss Voigt Hill
#
# Bulk Modulus (GPa) = 35.13689 62.84787 48.99238
# Shear Modulus (GPa) = 10.07255 26.60569 18.33912
#
# Velocity S-wave (km/s) = 2.15685 3.50540 2.91031
# Velocity P-wave (km/s) = 4.73610 6.73869 5.82411
#
# Compressibility (1/GPa) = 0.02846012
#
# Stress axis : x y z
#
# Youngs Moduli (GPa) = 77.68485 127.37578 39.22253
#
# Poissons Ratio (x) = 0.48338 -0.08637
# Poissons Ratio (y) = 0.29481 0.28580
# Poissons Ratio (z) = -0.17107 0.92814
#
# Static dielectric constant tensor:
#      x y z
#    x 1.805240 0.000000 0.000800 
#    y 0.000000 1.908880 0.000000 
#    z 0.000800 0.000000 1.815120 
# 
# From -- ./inp_files/204174.got.cif
#   From: 2010.05.17/outbox.cif.g08.bks.cpg/sg12_103_cif.got.tgz:204174.got - 2010.06.03 13:09:07.
