data_PCOD9213917
_publ_section_title
;
Structure prediction by ZEFSAII (Michael W. Deem and Ramdas Pophale) SiO2 
 PCOD9213917
Probable space group: C 2/M
;
_chemical_formula_sum "Si O2"
_cell_formula_units_Z 56
_cell_length_a 29.188889
_cell_length_b 9.192704
_cell_length_c 21.444801
_cell_angle_alpha 90.000000
_cell_angle_beta 150.535938
_cell_angle_gamma 90.000000
_cell_volume 2830.348140
_symmetry_space_group_name_H-M "C 2/M"
_symmetry_group_IT_number 12
_symmetry_cell_setting 'monoclinic'
loop_
_space_group_symop_operation_xyz
x,y,z
-x,y,-z
-x,-y,-z
x,-y,z
1/2+x,1/2+y,z
1/2-x,1/2+y,-z
1/2-x,1/2-y,-z
1/2+x,1/2-y,z
loop_
_atom_site_type_symbol
_atom_site_label
_atom_site_fract_x
_atom_site_fract_y
_atom_site_fract_z
Si Si1 0.664673 0.668958 0.586834
Si Si2 0.653198 0.332472 0.895423
Si Si3 0.447109 0.335969 0.355849
Si Si4 0.038657 0.327795 0.112245
Si Si5 0.376787 0.170361 0.022238
Si Si6 0.226882 0.325484 0.406745
Si Si7 0.205897 0.328367 0.754998
O O1 0.690754 0.500000 0.630065
O O2 0.555785 0.685819 0.472380
O O3 0.691509 0.698767 0.547364
O O4 0.716612 0.771542 0.697231
O O5 0.669609 0.500000 0.932888
O O6 0.600097 0.329510 0.767503
O O7 0.750000 0.250000 0.000000
O O8 0.597386 0.249690 0.883145
O O9 0.431972 0.500000 0.363293
O O10 0.394001 0.223790 0.336994
O O11 0.057390 0.500000 0.123018
O O12 0.132823 0.274061 0.258494
O O13 0.955780 0.314651 0.063848
O O14 0.000000 0.267942 0.000000
O O15 0.283182 0.246698 0.887365
O O16 0.359190 0.000000 0.012448
O O17 0.217897 0.500000 0.406717
O O18 0.250000 0.250000 0.500000
O O19 0.215675 0.500000 0.770955
#
# Coordination Sequence:
#
# PCOD9213917 Si02
#       7
#     8   8   8   8   8   8   8
#     4  10  22  41  64  86 116 162 204 240 293 361
#     4  11  22  37  58  86 120 157 199 245 296 356
#     4  10  22  39  60  85 118 161 202 238 291 361
#     4   9  19  38  64  92 119 157 209 256 301 359
#     4  11  22  37  61  88 119 160 201 246 299 357
#     4  10  22  41  65  93 124 161 204 254 308 364
#     4  12  24  38  59  90 123 155 195 250 304 355
#
# _framework density 19.785551999999999
#
# number of rings (size 3 to 8) (size 9 to 14) (size 15 to 20)
#    0.000    1.571    1.429    3.429    2.000    5.714 
#    0.000    0.714    0.000    3.000    0.000    0.000 
#    0.000    0.000    0.000    0.000    0.000    0.000 
#
# Total GULP energy -156399.018916 kJ/mol
# GULP energy per Si atom -5585.679247 kJ/mol
# Density = 1.974052 g / cm^3
# Si number density = 19.785552 Si / 1000 Ang^3
#
#
#
# Elastic Constant Matrix: (Units=GPa)
#
#
# Indices 1 2 3 4 5 6 
#
# 1 93.3292 60.5262 39.6118 0.0000 -25.0451 0.0000
# 2 60.5262 104.5964 38.0442 0.0000 -11.2499 0.0000
# 3 39.6118 38.0442 91.8174 0.0000 -17.2953 0.0000
# 4 0.0000 0.0000 0.0000 12.2760 0.0000 -11.5425
# 5 -25.0451 -11.2499 -17.2953 0.0000 37.1338 0.0000
# 6 0.0000 0.0000 0.0000 -11.5425 0.0000 29.9904
#
#
#
# Elastic Compliance Matrix: (Units=1/GPa)
#
#
# Indices 1 2 3 4 5 6 
#
# 1 0.021208 -0.010082 -0.003128 0.000000 0.009793 0.000000
# 2 -0.010082 0.016112 -0.002946 0.000000 -0.003291 0.000000
# 3 -0.003128 -0.002946 0.014136 0.000000 0.003582 0.000000
# 4 0.000000 0.000000 0.000000 0.127656 0.000000 0.049132
# 5 0.009793 -0.003291 0.003582 0.000000 0.034206 0.000000
# 6 0.000000 0.000000 0.000000 0.049132 0.000000 0.052254
#
#
# Mechanical properties :
#
#
# Convention : Reuss Voigt Hill
#
# Bulk Modulus (GPa) = 52.23282 62.90081 57.56681
# Shear Modulus (GPa) = 16.43300 25.98410 21.20855
#
# Velocity S-wave (km/s) = 2.88506 3.62786 3.27757
# Velocity P-wave (km/s) = 6.12821 7.02914 6.59408
#
# Compressibility (1/GPa) = 0.01914505
#
# Stress axis : x y z
#
# Youngs Moduli (GPa) = 47.15098 62.06470 70.74083
#
# Poissons Ratio (x) = 0.62571 0.22126
# Poissons Ratio (y) = 0.47536 0.20844
# Poissons Ratio (z) = 0.14748 0.18287
#
# Static dielectric constant tensor:
#      x y z
#    x 1.699290 0.000000 -0.004960 
#    y 0.000000 1.677990 0.000000 
#    z -0.004960 0.000000 1.717920 
# 
# From -- ./inp_files/329656.got.cif
#   From: 2010.05.17/outbox.cif.g08.bks.cpg/sg12_165_cif.got.tgz:329656.got - 2010.06.03 13:09:07.
