data_PCOD9213555
_publ_section_title
;
Structure prediction by ZEFSAII (Michael W. Deem and Ramdas Pophale) SiO2 
 PCOD9213555
Probable space group: C 2/M
;
_chemical_formula_sum "Si O2"
_cell_formula_units_Z 40
_cell_length_a 9.247603
_cell_length_b 28.595553
_cell_length_c 11.223119
_cell_angle_alpha 90.000000
_cell_angle_beta 39.662643
_cell_angle_gamma 90.000000
_cell_volume 1894.274776
_symmetry_space_group_name_H-M "C 2/M"
_symmetry_group_IT_number 12
_symmetry_cell_setting 'monoclinic'
loop_
_space_group_symop_operation_xyz
x,y,z
-x,y,-z
-x,-y,-z
x,-y,z
1/2+x,1/2+y,z
1/2-x,1/2+y,-z
1/2-x,1/2-y,-z
1/2+x,1/2-y,z
loop_
_atom_site_type_symbol
_atom_site_label
_atom_site_fract_x
_atom_site_fract_y
_atom_site_fract_z
Si Si1 0.042399 0.898369 0.602348
Si Si2 0.401277 0.223451 0.806449
Si Si3 0.131215 0.053009 0.790664
Si Si4 0.737010 0.805990 0.773674
Si Si5 0.540914 0.864151 0.348225
O O1 0.875497 0.853522 0.703165
O O2 0.000000 0.922636 0.500000
O O3 0.010669 0.927320 0.746075
O O4 0.303032 0.880653 0.443706
O O5 0.642035 0.209152 0.706000
O O6 0.391127 0.262628 0.713960
O O7 0.314415 0.172380 0.821397
O O8 0.250000 0.250000 0.000000
O O9 0.324406 0.089902 0.700263
O O10 0.206334 0.000000 0.716719
O O11 0.000000 0.051274 0.000000
O O12 0.500000 0.809891 0.000000
O O13 0.500000 0.838283 0.500000
#
# Coordination Sequence:
#
# PCOD9213555 Si02
#       5
#     8   8   8   8   8
#     4  11  23  41  67  99 136 175 214 287 340 386
#     4  10  22  38  60  92 128 184 223 270 325 392
#     4  10  25  46  73 100 128 173 227 276 337 414
#     4  10  23  38  60  92 135 177 228 268 325 398
#     4  10  23  41  66  95 134 176 223 276 336 399
#
# _framework density 21.116261000000002
#
# number of rings (size 3 to 8) (size 9 to 14) (size 15 to 20)
#    0.000    1.800    2.000    0.000   11.200    6.400 
#    0.000    0.000    0.000    3.000    0.000    0.000 
#    0.000    0.000    0.000    0.000    0.000    0.000 
#
# Total GULP energy -111338.739025 kJ/mol
# GULP energy per Si atom -5566.936951 kJ/mol
# Density = 2.106820 g / cm^3
# Si number density = 21.116261 Si / 1000 Ang^3
#
#
#
# Elastic Constant Matrix: (Units=GPa)
#
#
# Indices 1 2 3 4 5 6 
#
# 1 155.9060 68.7213 30.3610 0.0000 10.8912 0.0000
# 2 68.7213 162.2755 42.0406 0.0000 5.2229 0.0000
# 3 30.3610 42.0406 64.6894 0.0000 0.0126 0.0000
# 4 0.0000 0.0000 0.0000 19.4155 0.0000 -1.7254
# 5 10.8912 5.2229 0.0126 0.0000 22.9823 0.0000
# 6 0.0000 0.0000 0.0000 -1.7254 0.0000 27.2728
#
#
#
# Elastic Compliance Matrix: (Units=1/GPa)
#
#
# Indices 1 2 3 4 5 6 
#
# 1 0.008311 -0.002890 -0.002022 0.000000 -0.003281 0.000000
# 2 -0.002890 0.008481 -0.004155 0.000000 -0.000555 0.000000
# 3 -0.002022 -0.004155 0.019107 0.000000 0.001892 0.000000
# 4 0.000000 0.000000 0.000000 0.051796 0.000000 0.003277
# 5 -0.003281 -0.000555 0.001892 0.000000 0.045192 0.000000
# 6 0.000000 0.000000 0.000000 0.003277 0.000000 0.036874
#
#
# Mechanical properties :
#
#
# Convention : Reuss Voigt Hill
#
# Bulk Modulus (GPa) = 56.28971 73.90185 65.09578
# Shear Modulus (GPa) = 25.79769 30.05064 27.92417
#
# Velocity S-wave (km/s) = 3.49907 3.77650 3.64043
# Velocity P-wave (km/s) = 6.56046 7.35456 6.96883
#
# Compressibility (1/GPa) = 0.01776523
#
# Stress axis : x y z
#
# Youngs Moduli (GPa) = 120.32289 117.91635 52.33652
#
# Poissons Ratio (x) = 0.34081 0.10581
# Poissons Ratio (y) = 0.34776 0.21745
# Poissons Ratio (z) = 0.24325 0.48992
#
# Static dielectric constant tensor:
#      x y z
#    x 1.798290 0.000000 0.061600 
#    y 0.000000 1.756860 0.000000 
#    z 0.061600 0.000000 1.842150 
# 
# From -- ./inp_files/125000.got.cif
#   From: 2010.05.17/outbox.cif.g08.bks.cpg/sg12_63_cif.got.tgz:125000.got - 2010.06.03 13:09:07.
