data_PCOD9213112
_publ_section_title
;
Structure prediction by ZEFSAII (Michael W. Deem and Ramdas Pophale) SiO2 
 PCOD9213112
Probable space group: C 2/M
;
_chemical_formula_sum "Si O2"
_cell_formula_units_Z 56
_cell_length_a 19.728234
_cell_length_b 7.967586
_cell_length_c 25.804456
_cell_angle_alpha 90.000000
_cell_angle_beta 134.833061
_cell_angle_gamma 90.000000
_cell_volume 2876.447000
_symmetry_space_group_name_H-M "C 2/M"
_symmetry_group_IT_number 12
_symmetry_cell_setting 'monoclinic'
loop_
_space_group_symop_operation_xyz
x,y,z
-x,y,-z
-x,-y,-z
x,-y,z
1/2+x,1/2+y,z
1/2-x,1/2+y,-z
1/2-x,1/2-y,-z
1/2+x,1/2-y,z
loop_
_atom_site_type_symbol
_atom_site_label
_atom_site_fract_x
_atom_site_fract_y
_atom_site_fract_z
Si Si1 0.509569 0.807997 0.449256
Si Si2 0.701327 0.692616 0.822446
Si Si3 0.813981 0.807939 0.309936
Si Si4 0.006717 0.801811 0.261827
Si Si5 0.641012 0.200309 0.429355
Si Si6 0.591405 0.205971 0.082658
Si Si7 0.396660 0.796965 0.791445
O O1 0.500000 0.724401 0.500000
O O2 0.402925 0.805992 0.370341
O O3 0.577174 0.729098 0.442404
O O4 0.543706 0.000000 0.475753
O O5 0.704054 0.500000 0.844080
O O6 0.696504 0.685508 0.757534
O O7 0.600403 0.770555 0.785960
O O8 0.807744 0.766218 0.887724
O O9 0.713516 0.748246 0.278541
O O10 0.832206 0.000000 0.337218
O O11 0.087826 0.746283 0.346881
O O12 0.038773 0.766031 0.220508
O O13 0.998187 0.000000 0.265566
O O14 0.750000 0.250000 0.500000
O O15 0.636935 0.000000 0.428722
O O16 0.581239 0.257637 0.137592
O O17 0.596085 0.000000 0.085566
O O18 0.500000 0.255993 0.000000
O O19 0.399404 0.000000 0.792869
#
# Coordination Sequence:
#
# PCOD9213112 Si02
#       7
#     8   8   8   8   8   8   8
#     4  10  22  37  52  74 103 131 167 218 268 315
#     4   8  15  29  50  75 101 133 177 216 256 312
#     4   9  17  33  53  72  96 132 175 218 257 307
#     4  11  21  35  55  76 107 146 181 222 270 322
#     4  11  24  40  56  77 108 143 180 223 271 322
#     4   8  14  29  55  82 108 140 179 222 263 312
#     4   9  19  33  52  81 110 136 178 225 265 314
#
# _framework density 19.468463
#
# number of rings (size 3 to 8) (size 9 to 14) (size 15 to 20)
#    0.000    2.571    1.429    2.571    2.000    1.429 
#    0.000    0.714    0.000    0.429    0.000    0.000 
#    0.000    0.000    0.000    0.000    0.000    0.000 
#
# Total GULP energy -155926.325128 kJ/mol
# GULP energy per Si atom -5568.797326 kJ/mol
# Density = 1.942415 g / cm^3
# Si number density = 19.468463 Si / 1000 Ang^3
#
#
#
# Elastic Constant Matrix: (Units=GPa)
#
#
# Indices 1 2 3 4 5 6 
#
# 1 149.1696 10.1937 75.9660 0.0000 19.4878 0.0000
# 2 10.1937 22.8522 12.0490 0.0000 2.6396 0.0000
# 3 75.9660 12.0490 124.8448 0.0000 24.0870 0.0000
# 4 0.0000 0.0000 0.0000 -9.2643 0.0000 28.8900
# 5 19.4878 2.6396 24.0870 0.0000 28.3735 0.0000
# 6 0.0000 0.0000 0.0000 28.8900 0.0000 -33.2485
#
#
#
# Elastic Compliance Matrix: (Units=1/GPa)
#
#
# Indices 1 2 3 4 5 6 
#
# 1 0.009842 -0.001270 -0.005483 0.000000 -0.001987 0.000000
# 2 -0.001270 0.046278 -0.003625 0.000000 -0.000356 0.000000
# 3 -0.005483 -0.003625 0.013040 0.000000 -0.006967 0.000000
# 4 0.000000 0.000000 0.000000 0.063137 0.000000 0.054860
# 5 -0.001987 -0.000356 -0.006967 0.000000 0.042557 0.000000
# 6 0.000000 0.000000 0.000000 0.054860 0.000000 0.017592
#
#
# Mechanical properties :
#
#
# Convention : Reuss Voigt Hill
#
# Bulk Modulus (GPa) = 20.65898 54.80935 37.73417
# Shear Modulus (GPa) = 21.80188 10.41601 16.10894
#
# Velocity S-wave (km/s) = 3.35006 2.31556 2.87964
# Velocity P-wave (km/s) = 5.05948 5.94669 5.52094
#
# Compressibility (1/GPa) = 0.04840510
#
# Stress axis : x y z
#
# Youngs Moduli (GPa) = 101.60073 21.60840 76.68531
#
# Poissons Ratio (x) = 0.02744 0.42046
# Poissons Ratio (y) = 0.12903 0.27799
# Poissons Ratio (z) = 0.55707 0.07833
#
# Static dielectric constant tensor:
#      x y z
#    x 1.719970 0.000000 0.028270 
#    y 0.000000 1.720750 0.000000 
#    z 0.028270 0.000000 1.703780 
# 
# From -- ./inp_files/362523.got.cif
#   From: 2010.05.17/outbox.cif.g08.bks.cpg/sg12_182_cif.got.tgz:362523.got - 2010.06.03 13:09:07.
