data_PCOD9213474
_publ_section_title
;
Structure prediction by ZEFSAII (Michael W. Deem and Ramdas Pophale) SiO2 
 PCOD9213474
Probable space group: C 2/M
;
_chemical_formula_sum "Si O2"
_cell_formula_units_Z 44
_cell_length_a 13.864840
_cell_length_b 19.183453
_cell_length_c 7.823249
_cell_angle_alpha 90.000000
_cell_angle_beta 88.433128
_cell_angle_gamma 90.000000
_cell_volume 2080.014590
_symmetry_space_group_name_H-M "C 2/M"
_symmetry_group_IT_number 12
_symmetry_cell_setting 'monoclinic'
loop_
_space_group_symop_operation_xyz
x,y,z
-x,y,-z
-x,-y,-z
x,-y,z
1/2+x,1/2+y,z
1/2-x,1/2+y,-z
1/2-x,1/2-y,-z
1/2+x,1/2-y,z
loop_
_atom_site_type_symbol
_atom_site_label
_atom_site_fract_x
_atom_site_fract_y
_atom_site_fract_z
Si Si1 0.695965 0.000000 0.774944
Si Si2 0.975925 0.256594 0.801690
Si Si3 0.590561 0.377170 0.744569
Si Si4 0.332886 0.500000 0.087146
Si Si5 0.159990 0.000000 0.547433
Si Si6 0.782423 0.695979 0.642758
Si Si7 0.084823 0.383077 0.609296
O O1 0.755720 0.000000 0.944588
O O2 0.776373 0.000000 0.621456
O O3 0.628839 0.067148 0.749761
O O4 0.005010 0.177919 0.749374
O O5 0.040178 0.312292 0.691718
O O6 0.865242 0.272620 0.759774
O O7 0.000000 0.264996 0.000000
O O8 0.598443 0.429616 0.581979
O O9 0.688229 0.331314 0.742271
O O10 0.601103 0.431113 0.901910
O O11 0.280042 0.500000 0.276043
O O12 0.750000 0.750000 0.500000
O O13 0.832085 0.635204 0.529947
O O14 0.000000 0.416113 0.500000
#
# Coordination Sequence:
#
# PCOD9213474 Si02
#       7
#     4   8   8   4   4   8   8
#     4  12  19  38  69  94 123 184 221 259 354 386
#     4  11  25  39  62  99 135 174 213 266 343 392
#     4   9  20  44  61  93 141 161 218 287 309 395
#     4   8  22  37  65  97 127 170 220 269 324 391
#     4   8  20  39  65  94 127 169 219 277 320 379
#     4  11  21  39  68  93 127 171 219 277 329 384
#     4  10  22  38  58  96 130 161 221 272 327 405
#
# _framework density 21.153697999999999
#
# number of rings (size 3 to 8) (size 9 to 14) (size 15 to 20)
#    1.091    0.727    3.636    0.273    2.545    2.182 
#    0.000    2.273    0.000   10.909    0.000    0.000 
#    0.000    0.000    0.000    0.000    0.000    0.000 
#
# Total GULP energy -122695.664238 kJ/mol
# GULP energy per Si atom -5577.075647 kJ/mol
# Density = 2.110555 g / cm^3
# Si number density = 21.153698 Si / 1000 Ang^3
#
#
#
# Elastic Constant Matrix: (Units=GPa)
#
#
# Indices 1 2 3 4 5 6 
#
# 1 79.1773 36.1694 26.1081 0.0000 17.1360 0.0000
# 2 36.1694 123.6851 27.1738 0.0000 19.7300 0.0000
# 3 26.1081 27.1738 94.2850 0.0000 12.4789 0.0000
# 4 0.0000 0.0000 0.0000 18.0949 0.0000 6.6362
# 5 17.1360 19.7300 12.4789 0.0000 22.0814 0.0000
# 6 0.0000 0.0000 0.0000 6.6362 0.0000 13.1580
#
#
#
# Elastic Compliance Matrix: (Units=1/GPa)
#
#
# Indices 1 2 3 4 5 6 
#
# 1 0.016750 -0.002898 -0.002621 0.000000 -0.008928 0.000000
# 2 -0.002898 0.010200 -0.001328 0.000000 -0.006114 0.000000
# 3 -0.002621 -0.001328 0.012201 0.000000 -0.003674 0.000000
# 4 0.000000 0.000000 0.000000 0.067806 0.000000 -0.034198
# 5 -0.008928 -0.006114 -0.003674 0.000000 0.059755 0.000000
# 6 0.000000 0.000000 0.000000 -0.034198 0.000000 0.093247
#
#
# Mechanical properties :
#
#
# Convention : Reuss Voigt Hill
#
# Bulk Modulus (GPa) = 39.28338 52.89445 46.08891
# Shear Modulus (GPa) = 17.72173 24.51326 21.11749
#
# Velocity S-wave (km/s) = 2.89755 3.40783 3.16300
# Velocity P-wave (km/s) = 5.45941 6.36738 5.93080
#
# Compressibility (1/GPa) = 0.02545606
#
# Stress axis : x y z
#
# Youngs Moduli (GPa) = 59.69983 98.04303 81.96021
#
# Poissons Ratio (x) = 0.28416 0.21485
# Poissons Ratio (y) = 0.17303 0.10883
# Poissons Ratio (z) = 0.15650 0.13019
#
# Static dielectric constant tensor:
#      x y z
#    x 1.763860 0.000000 -0.010630 
#    y 0.000000 1.820210 0.000000 
#    z -0.010630 0.000000 1.754770 
# 
# From -- ./inp_files/49438.got.cif
#   From: 2010.05.17/outbox.cif.g08.bks.cpg/sg12_25_cif.got.tgz:49438.got - 2010.06.03 13:09:07.
