data_PCOD9213281
_publ_section_title
;
Structure prediction by ZEFSAII (Michael W. Deem and Ramdas Pophale) SiO2 
 PCOD9213281
Probable space group: C 2/M
;
_chemical_formula_sum "Si O2"
_cell_formula_units_Z 44
_cell_length_a 19.192748
_cell_length_b 13.851476
_cell_length_c 10.653471
_cell_angle_alpha 90.000000
_cell_angle_beta 52.868013
_cell_angle_gamma 90.000000
_cell_volume 2257.965292
_symmetry_space_group_name_H-M "C 2/M"
_symmetry_group_IT_number 12
_symmetry_cell_setting 'monoclinic'
loop_
_space_group_symop_operation_xyz
x,y,z
-x,y,-z
-x,-y,-z
x,-y,z
1/2+x,1/2+y,z
1/2-x,1/2+y,-z
1/2-x,1/2-y,-z
1/2+x,1/2-y,z
loop_
_atom_site_type_symbol
_atom_site_label
_atom_site_fract_x
_atom_site_fract_y
_atom_site_fract_z
Si Si1 0.161620 0.207538 0.654388
Si Si2 0.177684 0.500000 0.022839
Si Si3 0.024254 0.199434 0.252463
Si Si4 0.623035 0.000000 0.368902
Si Si5 0.410145 0.167199 0.040823
Si Si6 0.000000 0.667650 0.500000
Si Si7 0.118881 0.000000 0.114722
Si Si8 0.822073 0.000000 0.232497
O O1 0.250000 0.250000 0.500000
O O2 0.138240 0.280405 0.792780
O O3 0.164462 0.098817 0.706132
O O4 0.080573 0.202932 0.646249
O O5 0.125937 0.500000 0.212815
O O6 0.147966 0.591635 0.972760
O O7 0.281094 0.500000 0.942951
O O8 0.045295 0.265950 0.347913
O O9 0.066638 0.094589 0.214896
O O10 0.060916 0.249992 0.087886
O O11 0.572425 0.093821 0.473292
O O12 0.721325 0.000000 0.303916
O O13 0.500000 0.123341 0.000000
O O14 0.123768 0.000000 0.956803
#
# Coordination Sequence:
#
# PCOD9213281 Si02
#       8
#     8   4   8   4   8   4   4   4
#     4  11  24  41  66  94 125 167 213 261 316 367
#     4  11  22  40  63  96 129 159 214 259 318 378
#     4  11  23  42  64  93 126 168 212 256 313 378
#     4  10  22  37  62  95 122 167 209 254 315 371
#     4  10  22  41  65  93 127 166 210 263 316 372
#     4  11  22  41  64  88 130 161 206 263 312 368
#     4  11  25  39  65  95 124 175 207 252 315 385
#     4  11  22  41  64  90 128 163 213 258 300 381
#
# _framework density 19.48657
#
# number of rings (size 3 to 8) (size 9 to 14) (size 15 to 20)
#    0.000    1.273    3.636    1.909    0.000    5.455 
#    0.000    0.000    0.000    0.000    0.000    0.000 
#    0.000    0.000    0.000    0.000    0.000    0.000 
#
# Total GULP energy -122868.274063 kJ/mol
# GULP energy per Si atom -5584.921548 kJ/mol
# Density = 1.944222 g / cm^3
# Si number density = 19.486570 Si / 1000 Ang^3
#
#
#
# Elastic Constant Matrix: (Units=GPa)
#
#
# Indices 1 2 3 4 5 6 
#
# 1 67.9574 42.5822 13.1952 0.0000 -10.2212 0.0000
# 2 42.5822 141.3055 34.5377 0.0000 -10.2615 0.0000
# 3 13.1952 34.5377 87.8303 0.0000 -17.5369 0.0000
# 4 0.0000 0.0000 0.0000 30.6727 0.0000 1.1602
# 5 -10.2212 -10.2615 -17.5369 0.0000 26.8564 0.0000
# 6 0.0000 0.0000 0.0000 1.1602 0.0000 35.1349
#
#
#
# Elastic Compliance Matrix: (Units=1/GPa)
#
#
# Indices 1 2 3 4 5 6 
#
# 1 0.018813 -0.005367 0.000350 0.000000 0.005338 0.000000
# 2 -0.005367 0.009390 -0.002964 0.000000 -0.000390 0.000000
# 3 0.000350 -0.002964 0.014143 0.000000 0.008236 0.000000
# 4 0.000000 0.000000 0.000000 0.032643 0.000000 -0.001078
# 5 0.005338 -0.000390 0.008236 0.000000 0.044495 0.000000
# 6 0.000000 0.000000 0.000000 -0.001078 0.000000 0.028497
#
#
# Mechanical properties :
#
#
# Convention : Reuss Voigt Hill
#
# Bulk Modulus (GPa) = 37.90222 53.08037 45.49129
# Shear Modulus (GPa) = 28.94530 32.31803 30.63166
#
# Velocity S-wave (km/s) = 3.85827 4.07686 3.96907
# Velocity P-wave (km/s) = 6.27224 7.03275 6.66335
#
# Compressibility (1/GPa) = 0.02638368
#
# Stress axis : x y z
#
# Youngs Moduli (GPa) = 53.15451 106.49141 70.70604
#
# Poissons Ratio (x) = 0.57156 -0.02474
# Poissons Ratio (y) = 0.28529 0.20959
# Poissons Ratio (z) = -0.01860 0.31566
#
# Static dielectric constant tensor:
#      x y z
#    x 1.685210 0.000000 0.003550 
#    y 0.000000 1.654390 0.000000 
#    z 0.003550 0.000000 1.670910 
# 
# From -- ./inp_files/154150.got.cif
#   From: 2010.05.17/outbox.cif.g08.bks.cpg/sg12_78_cif.got.tgz:154150.got - 2010.06.03 13:09:07.
