data_PCOD9213677
_publ_section_title
;
Structure prediction by ZEFSAII (Michael W. Deem and Ramdas Pophale) SiO2 
 PCOD9213677
Probable space group: C 2/M
;
_chemical_formula_sum "Si O2"
_cell_formula_units_Z 36
_cell_length_a 13.832388
_cell_length_b 24.116406
_cell_length_c 5.172855
_cell_angle_alpha 90.000000
_cell_angle_beta 79.326283
_cell_angle_gamma 90.000000
_cell_volume 1695.743127
_symmetry_space_group_name_H-M "C 2/M"
_symmetry_group_IT_number 12
_symmetry_cell_setting 'monoclinic'
loop_
_space_group_symop_operation_xyz
x,y,z
-x,y,-z
-x,-y,-z
x,-y,z
1/2+x,1/2+y,z
1/2-x,1/2+y,-z
1/2-x,1/2-y,-z
1/2+x,1/2-y,z
loop_
_atom_site_type_symbol
_atom_site_label
_atom_site_fract_x
_atom_site_fract_y
_atom_site_fract_z
Si Si1 0.884434 0.611837 0.596103
Si Si2 0.069509 0.500000 0.212186
Si Si3 0.114269 0.110206 0.880669
Si Si4 0.743745 0.711762 0.755154
Si Si5 0.224005 0.065259 0.331032
O O1 0.872481 0.557433 0.784220
O O2 0.831837 0.666924 0.719047
O O3 0.825079 0.595109 0.366762
O O4 0.000000 0.620561 0.500000
O O5 0.000000 0.500000 0.500000
O O6 0.000000 0.500000 0.000000
O O7 0.173470 0.090616 0.104568
O O8 0.146369 0.173487 0.806231
O O9 0.151456 0.076031 0.612606
O O10 0.000000 0.104227 0.000000
O O11 0.750000 0.750000 0.500000
O O12 0.750000 0.750000 0.000000
O O13 0.241550 0.000000 0.292533
#
# Coordination Sequence:
#
# PCOD9213677 Si02
#       5
#     8   4   8   8   8
#     4  10  23  44  68 104 140 180 223 279 351 423
#     4  10  22  38  64 100 137 174 213 264 338 422
#     4  11  25  44  67  95 133 177 234 288 339 398
#     4  11  25  45  68  96 133 180 236 288 343 408
#     4  11  23  41  67 101 140 179 220 277 342 417
#
# _framework density 21.229628999999999
#
# number of rings (size 3 to 8) (size 9 to 14) (size 15 to 20)
#    0.000    1.333    1.111    4.000    0.000   15.111 
#    0.000    0.000    0.000    0.000    0.000    0.000 
#    0.000    0.000    0.000    0.000    0.000    0.000 
#
# Total GULP energy -100748.521758 kJ/mol
# GULP energy per Si atom -5597.140098 kJ/mol
# Density = 2.118131 g / cm^3
# Si number density = 21.229629 Si / 1000 Ang^3
#
#
#
# Elastic Constant Matrix: (Units=GPa)
#
#
# Indices 1 2 3 4 5 6 
#
# 1 172.7759 51.7933 51.8451 0.0000 0.5959 0.0000
# 2 51.7933 176.4617 72.7691 0.0000 6.4211 0.0000
# 3 51.8451 72.7691 177.9060 0.0000 12.1640 0.0000
# 4 0.0000 0.0000 0.0000 44.3642 0.0000 -9.6363
# 5 0.5959 6.4211 12.1640 0.0000 30.6313 0.0000
# 6 0.0000 0.0000 0.0000 -9.6363 0.0000 28.3868
#
#
#
# Elastic Compliance Matrix: (Units=1/GPa)
#
#
# Indices 1 2 3 4 5 6 
#
# 1 0.006625 -0.001389 -0.001412 0.000000 0.000723 0.000000
# 2 -0.001389 0.007111 -0.002471 0.000000 -0.000482 0.000000
# 3 -0.001412 -0.002471 0.007201 0.000000 -0.002314 0.000000
# 4 0.000000 0.000000 0.000000 0.024335 0.000000 0.008261
# 5 0.000723 -0.000482 -0.002314 0.000000 0.033652 0.000000
# 6 0.000000 0.000000 0.000000 0.008261 0.000000 0.038032
#
#
# Mechanical properties :
#
#
# Convention : Reuss Voigt Hill
#
# Bulk Modulus (GPa) = 96.20660 97.77317 96.98989
# Shear Modulus (GPa) = 38.17797 44.05887 41.11842
#
# Velocity S-wave (km/s) = 4.24528 4.56054 4.40573
# Velocity P-wave (km/s) = 8.33339 8.59572 8.46557
#
# Compressibility (1/GPa) = 0.01039430
#
# Stress axis : x y z
#
# Youngs Moduli (GPa) = 150.93508 140.62623 138.86094
#
# Poissons Ratio (x) = 0.19527 0.19610
# Poissons Ratio (y) = 0.20958 0.34313
# Poissons Ratio (z) = 0.21315 0.34749
#
# Static dielectric constant tensor:
#      x y z
#    x 1.964570 0.000000 -0.246250 
#    y 0.000000 1.759560 0.000000 
#    z -0.246250 0.000000 1.993770 
# 
# From -- ./inp_files/7054.got.cif
#   From: 2010.05.17/outbox.cif.g08.bks.cpg/sg12_4_cif.got.tgz:7054.got - 2010.06.03 13:09:07.
