data_PCOD9213232
_publ_section_title
;
Structure prediction by ZEFSAII (Michael W. Deem and Ramdas Pophale) SiO2 
 PCOD9213232
Probable space group: C 2/M
;
_chemical_formula_sum "Si O2"
_cell_formula_units_Z 48
_cell_length_a 24.297212
_cell_length_b 17.636114
_cell_length_c 4.981914
_cell_angle_alpha 90.000000
_cell_angle_beta 63.836932
_cell_angle_gamma 90.000000
_cell_volume 1916.067128
_symmetry_space_group_name_H-M "C 2/M"
_symmetry_group_IT_number 12
_symmetry_cell_setting 'monoclinic'
loop_
_space_group_symop_operation_xyz
x,y,z
-x,y,-z
-x,-y,-z
x,-y,z
1/2+x,1/2+y,z
1/2-x,1/2+y,-z
1/2-x,1/2-y,-z
1/2+x,1/2-y,z
loop_
_atom_site_type_symbol
_atom_site_label
_atom_site_fract_x
_atom_site_fract_y
_atom_site_fract_z
Si Si1 0.847568 0.083446 0.703656
Si Si2 0.264202 0.083288 0.451679
Si Si3 0.960633 0.828215 0.349326
Si Si4 0.907249 0.318784 0.759661
Si Si5 0.204989 0.216120 0.871586
Si Si6 0.594754 0.914746 0.770663
O O1 0.782477 0.079732 0.694188
O O2 0.900264 0.122999 0.415461
O O3 0.834905 0.141552 0.966382
O O4 0.867034 0.000000 0.741907
O O5 0.336521 0.079115 0.252258
O O6 0.251549 0.000000 0.626253
O O7 0.250962 0.170340 0.577115
O O8 0.939640 0.749961 0.532887
O O9 0.000000 0.868118 0.500000
O O10 0.000000 0.816089 0.000000
O O11 0.849021 0.277651 0.025487
O O12 0.895696 0.377745 0.542366
O O13 0.939926 0.362894 0.934513
O O14 0.250000 0.250000 0.000000
O O15 0.570553 0.000000 0.798437
#
# Coordination Sequence:
#
# PCOD9213232 Si02
#       6
#     8   8   8   8   8   8
#     4  10  24  41  63  93 133 179 223 270 324 387
#     4  10  22  37  59  94 141 182 213 255 314 390
#     4  11  26  47  70  96 125 166 224 288 341 383
#     4  11  24  40  68  94 128 175 215 276 326 388
#     4  11  21  35  60  93 136 179 222 259 314 387
#     4  11  23  41  65 100 139 175 211 254 322 401
#
# _framework density 25.051314999999999
#
# number of rings (size 3 to 8) (size 9 to 14) (size 15 to 20)
#    0.000    1.333    1.667    3.000    9.333    2.000 
#    0.000    0.000    0.000   10.000    0.000    0.000 
#    0.000    0.000    0.000    0.000    0.000    0.000 
#
# Total GULP energy -133885.683935 kJ/mol
# GULP energy per Si atom -5578.570164 kJ/mol
# Density = 2.499430 g / cm^3
# Si number density = 25.051315 Si / 1000 Ang^3
#
#
#
# Elastic Constant Matrix: (Units=GPa)
#
#
# Indices 1 2 3 4 5 6 
#
# 1 65.7655 23.1071 18.0542 0.0000 3.2946 0.0000
# 2 23.1071 160.8048 18.7280 0.0000 9.4568 0.0000
# 3 18.0542 18.7280 125.1567 0.0000 -6.1830 0.0000
# 4 0.0000 0.0000 0.0000 14.0096 0.0000 20.6197
# 5 3.2946 9.4568 -6.1830 0.0000 38.1679 0.0000
# 6 0.0000 0.0000 0.0000 20.6197 0.0000 -9.1470
#
#
#
# Elastic Compliance Matrix: (Units=1/GPa)
#
#
# Indices 1 2 3 4 5 6 
#
# 1 0.016582 -0.002058 -0.002147 0.000000 -0.001269 0.000000
# 2 -0.002058 0.006701 -0.000785 0.000000 -0.001610 0.000000
# 3 -0.002147 -0.000785 0.008504 0.000000 0.001757 0.000000
# 4 0.000000 0.000000 0.000000 0.016531 0.000000 0.037266
# 5 -0.001269 -0.001610 0.001757 0.000000 0.026993 0.000000
# 6 0.000000 0.000000 0.000000 0.037266 0.000000 -0.025319
#
#
# Mechanical properties :
#
#
# Convention : Reuss Voigt Hill
#
# Bulk Modulus (GPa) = 45.85882 52.38949 49.12416
# Shear Modulus (GPa) = 74.36060 28.06195 51.21127
#
# Velocity S-wave (km/s) = 5.45415 3.35054 4.52625
# Velocity P-wave (km/s) = 7.61639 5.99386 6.85331
#
# Compressibility (1/GPa) = 0.02180606
#
# Stress axis : x y z
#
# Youngs Moduli (GPa) = 60.30798 149.24073 117.59209
#
# Poissons Ratio (x) = 0.30715 0.25243
# Poissons Ratio (y) = 0.12412 0.09234
# Poissons Ratio (z) = 0.12946 0.11720
#
# Static dielectric constant tensor:
#      x y z
#    x 2.024820 0.000000 -0.084050 
#    y 0.000000 2.083600 0.000000 
#    z -0.084050 0.000000 2.074000 
# 
# From -- ./inp_files/28442.got.cif
#   From: 2010.05.17/outbox.cif.g08.bks.cpg/sg12_15_cif.got.tgz:28442.got - 2010.06.03 13:09:07.
