data_PCOD9213948
_publ_section_title
;
Structure prediction by ZEFSAII (Michael W. Deem and Ramdas Pophale) SiO2 
 PCOD9213948
Probable space group: C 2/M
;
_chemical_formula_sum "Si O2"
_cell_formula_units_Z 60
_cell_length_a 25.357407
_cell_length_b 19.951411
_cell_length_c 18.747932
_cell_angle_alpha 90.000000
_cell_angle_beta 18.999251
_cell_angle_gamma 90.000000
_cell_volume 3087.857538
_symmetry_space_group_name_H-M "C 2/M"
_symmetry_group_IT_number 12
_symmetry_cell_setting 'monoclinic'
loop_
_space_group_symop_operation_xyz
x,y,z
-x,y,-z
-x,-y,-z
x,-y,z
1/2+x,1/2+y,z
1/2-x,1/2+y,-z
1/2-x,1/2-y,-z
1/2+x,1/2-y,z
loop_
_atom_site_type_symbol
_atom_site_label
_atom_site_fract_x
_atom_site_fract_y
_atom_site_fract_z
Si Si1 0.703451 0.738352 0.375457
Si Si2 0.500000 0.342896 0.000000
Si Si3 0.701058 0.803239 0.892548
Si Si4 0.344681 0.792816 0.820222
Si Si5 0.648103 0.576769 0.083545
Si Si6 0.379179 0.575295 0.722003
Si Si7 0.896138 0.079550 0.276355
Si Si8 0.182426 0.684582 0.624685
O O1 0.713907 0.693008 0.292312
O O2 0.531983 0.776056 0.593801
O O3 0.739657 0.691637 0.396828
O O4 0.845673 0.793848 0.187989
O O5 0.537562 0.387147 0.881508
O O6 0.775086 0.737513 0.835492
O O7 0.749967 0.866690 0.876626
O O8 0.509622 0.805340 0.126920
O O9 0.291689 0.869501 0.894970
O O10 0.250000 0.750000 0.000000
O O11 0.705718 0.500000 0.005235
O O12 0.561259 0.583760 0.272301
O O13 0.527290 0.588312 0.172171
O O14 0.500000 0.580320 0.500000
O O15 0.310570 0.500000 0.806079
O O16 0.741284 0.120631 0.504252
O O17 0.866862 0.000000 0.304488
O O18 0.250000 0.750000 0.500000
#
# Coordination Sequence:
#
# PCOD9213948 Si02
#       8
#     8   4   8   8   8   8   8   8
#     4  12  24  42  65  99 133 171 224 278 340 396
#     4  12  23  46  70  94 137 178 226 276 339 404
#     4  12  24  40  63  99 130 170 224 275 330 393
#     4  12  23  38  66  97 128 172 221 273 327 392
#     4  10  22  42  64  95 132 170 219 273 335 398
#     4  10  22  39  60  89 129 172 213 267 333 393
#     4  11  25  43  69  98 134 182 227 277 338 404
#     4  12  23  42  66  92 133 172 219 278 335 394
#
# _framework density 19.430948000000001
#
# number of rings (size 3 to 8) (size 9 to 14) (size 15 to 20)
#    0.000    0.667    4.000    4.600    1.867    0.533 
#    0.000    2.667    0.000    4.800    0.000    0.000 
#    0.000    0.000    0.000    0.000    0.000    0.000 
#
# Total GULP energy -167548.109839 kJ/mol
# GULP energy per Si atom -5584.936995 kJ/mol
# Density = 1.938672 g / cm^3
# Si number density = 19.430948 Si / 1000 Ang^3
#
#
#
# Elastic Constant Matrix: (Units=GPa)
#
#
# Indices 1 2 3 4 5 6 
#
# 1 123.8563 30.7842 18.7568 -0.0035 17.9520 0.0034
# 2 30.7842 89.6851 29.2886 -0.0120 -9.0346 0.0071
# 3 18.7568 29.2886 91.2382 -0.0130 -13.8368 0.0020
# 4 -0.0035 -0.0120 -0.0130 32.5410 -0.0030 4.6539
# 5 17.9520 -9.0346 -13.8368 -0.0030 33.6503 0.0078
# 6 0.0034 0.0071 0.0020 4.6539 0.0078 30.7808
#
#
#
# Elastic Compliance Matrix: (Units=1/GPa)
#
#
# Indices 1 2 3 4 5 6 
#
# 1 0.010353 -0.003614 -0.002083 -0.000002 -0.007350 0.000002
# 2 -0.003614 0.013822 -0.003028 0.000005 0.004394 -0.000004
# 3 -0.002083 -0.003028 0.013231 0.000005 0.005739 -0.000002
# 4 -0.000002 0.000005 0.000005 0.031410 0.000008 -0.004749
# 5 -0.007350 0.004394 0.005739 0.000008 0.037178 -0.000011
# 6 0.000002 -0.000004 -0.000002 -0.004749 -0.000011 0.033206
#
#
# Mechanical properties :
#
#
# Convention : Reuss Voigt Hill
#
# Bulk Modulus (GPa) = 50.10847 51.38210 50.74529
# Shear Modulus (GPa) = 30.61851 34.45776 32.53814
#
# Velocity S-wave (km/s) = 3.97389 4.21568 4.09657
# Velocity P-wave (km/s) = 6.84834 7.08497 6.96766
#
# Compressibility (1/GPa) = 0.01995671
#
# Stress axis : x y z
#
# Youngs Moduli (GPa) = 96.59227 72.34877 75.58133
#
# Poissons Ratio (x) = 0.26145 0.15743
# Poissons Ratio (y) = 0.34906 0.22884
# Poissons Ratio (z) = 0.20119 0.21905
#
# Static dielectric constant tensor:
#      x y z
#    x 1.604350 0.000040 -0.000490 
#    y 0.000040 1.670190 0.000020 
#    z -0.000490 0.000020 1.633090 
# 
# From -- ./inp_files/290906.got.cif
#   From: 2010.05.17/outbox.cif.g08.bks.cpg/sg12_146_cif.got.tgz:290906.got - 2010.06.03 13:09:07.
