data_PCOD9213862
_publ_section_title
;
Structure prediction by ZEFSAII (Michael W. Deem and Ramdas Pophale) SiO2 
 PCOD9213862
Probable space group: C 2/M
;
_chemical_formula_sum "Si O2"
_cell_formula_units_Z 56
_cell_length_a 25.825546
_cell_length_b 15.004424
_cell_length_c 16.693345
_cell_angle_alpha 90.000000
_cell_angle_beta 28.398214
_cell_angle_gamma 90.000000
_cell_volume 3076.458938
_symmetry_space_group_name_H-M "C 2/M"
_symmetry_group_IT_number 12
_symmetry_cell_setting 'monoclinic'
loop_
_space_group_symop_operation_xyz
x,y,z
-x,y,-z
-x,-y,-z
x,-y,z
1/2+x,1/2+y,z
1/2-x,1/2+y,-z
1/2-x,1/2-y,-z
1/2+x,1/2-y,z
loop_
_atom_site_type_symbol
_atom_site_label
_atom_site_fract_x
_atom_site_fract_y
_atom_site_fract_z
Si Si1 0.840848 0.603298 0.504634
Si Si2 0.377509 0.894086 0.643910
Si Si3 0.460787 0.399551 0.420741
Si Si4 0.172060 0.099175 0.234092
Si Si5 0.914099 0.104021 0.188710
Si Si6 0.788542 0.765869 0.038491
Si Si7 0.954746 0.776171 0.288104
O O1 0.871143 0.500000 0.444878
O O2 0.864358 0.618868 0.566755
O O3 0.710876 0.611311 0.669821
O O4 0.905340 0.677290 0.365391
O O5 0.500000 0.864786 0.500000
O O6 0.287751 0.839662 0.815730
O O7 0.367476 0.000000 0.674544
O O8 0.466182 0.500000 0.380120
O O9 0.389091 0.401334 0.598163
O O10 0.581125 0.377279 0.290904
O O11 0.413164 0.333196 0.420686
O O12 0.263894 0.171677 0.113087
O O13 0.211769 0.000000 0.161817
O O14 0.928496 0.172773 0.241864
O O15 0.932121 0.000000 0.189084
O O16 0.000000 0.121738 0.000000
O O17 0.750000 0.750000 0.000000
O O18 0.915421 0.782053 0.876582
#
# Coordination Sequence:
#
# PCOD9213862 Si02
#       7
#     8   8   8   8   8   8   8
#     4  10  22  41  61  83 115 154 191 238 296 347
#     4  10  22  39  59  82 115 158 198 238 290 352
#     4   9  18  33  54  77 104 144 189 235 280 330
#     4   9  19  35  51  72 110 153 187 228 284 332
#     4  10  22  41  63  87 115 147 191 247 297 341
#     4  12  23  32  51  83 116 151 188 234 285 340
#     4  12  22  35  59  88 115 148 194 237 290 349
#
# _framework density 18.202746000000001
#
# number of rings (size 3 to 8) (size 9 to 14) (size 15 to 20)
#    0.000    1.714    1.429    4.286    2.000    3.429 
#    0.000    0.000    0.000    0.429    0.000    0.000 
#    0.000    0.000    0.000    0.000    0.000    0.000 
#
# Total GULP energy -156226.913540 kJ/mol
# GULP energy per Si atom -5579.532626 kJ/mol
# Density = 1.816132 g / cm^3
# Si number density = 18.202746 Si / 1000 Ang^3
#
#
#
# Elastic Constant Matrix: (Units=GPa)
#
#
# Indices 1 2 3 4 5 6 
#
# 1 109.6545 61.4611 43.4590 0.0000 -1.1745 0.0000
# 2 61.4611 106.8528 59.7804 0.0000 13.0289 0.0000
# 3 43.4590 59.7804 84.6952 0.0000 -4.5704 0.0000
# 4 0.0000 0.0000 0.0000 79.5911 0.0000 -0.7827
# 5 -1.1745 13.0289 -4.5704 0.0000 22.9466 0.0000
# 6 0.0000 0.0000 0.0000 -0.7827 0.0000 27.4521
#
#
#
# Elastic Compliance Matrix: (Units=1/GPa)
#
#
# Indices 1 2 3 4 5 6 
#
# 1 0.014209 -0.008026 -0.001355 0.000000 0.005015 0.000000
# 2 -0.008026 0.023395 -0.013276 0.000000 -0.016339 0.000000
# 3 -0.001355 -0.013276 0.022518 0.000000 0.011954 0.000000
# 4 0.000000 0.000000 0.000000 0.012568 0.000000 0.000358
# 5 0.005015 -0.016339 0.011954 0.000000 0.055494 0.000000
# 6 0.000000 0.000000 0.000000 0.000358 0.000000 0.036437
#
#
# Mechanical properties :
#
#
# Convention : Reuss Voigt Hill
#
# Bulk Modulus (GPa) = 67.53526 70.06708 68.80117
# Shear Modulus (GPa) = 23.26967 35.09810 29.18388
#
# Velocity S-wave (km/s) = 3.57930 4.39586 4.00843
# Velocity P-wave (km/s) = 7.36641 8.02128 7.70081
#
# Compressibility (1/GPa) = 0.01480708
#
# Stress axis : x y z
#
# Youngs Moduli (GPa) = 70.37773 42.74416 44.40850
#
# Poissons Ratio (x) = 0.34307 0.06019
# Poissons Ratio (y) = 0.56486 0.58957
# Poissons Ratio (z) = 0.09538 0.56748
#
# Static dielectric constant tensor:
#      x y z
#    x 1.608810 0.000000 0.007760 
#    y 0.000000 1.660870 0.000000 
#    z 0.007760 0.000000 1.562810 
# 
# From -- ./inp_files/240865.got.cif
#   From: 2010.05.17/outbox.cif.g08.bks.cpg/sg12_121_cif.got.tgz:240865.got - 2010.06.03 13:09:07.
