data_PCOD9213432
_publ_section_title
;
Structure prediction by ZEFSAII (Michael W. Deem and Ramdas Pophale) SiO2 
 PCOD9213432
Probable space group: C 2/M
;
_chemical_formula_sum "Si O2"
_cell_formula_units_Z 36
_cell_length_a 13.595965
_cell_length_b 9.839900
_cell_length_c 13.849657
_cell_angle_alpha 90.000000
_cell_angle_beta 55.350983
_cell_angle_gamma 90.000000
_cell_volume 1524.245728
_symmetry_space_group_name_H-M "C 2/M"
_symmetry_group_IT_number 12
_symmetry_cell_setting 'monoclinic'
loop_
_space_group_symop_operation_xyz
x,y,z
-x,y,-z
-x,-y,-z
x,-y,z
1/2+x,1/2+y,z
1/2-x,1/2+y,-z
1/2-x,1/2-y,-z
1/2+x,1/2-y,z
loop_
_atom_site_type_symbol
_atom_site_label
_atom_site_fract_x
_atom_site_fract_y
_atom_site_fract_z
Si Si1 0.684468 0.150066 0.755188
Si Si2 0.000000 0.765148 0.000000
Si Si3 0.185422 0.340227 0.453361
Si Si4 0.522756 0.850882 0.294153
Si Si5 0.351813 0.347952 0.905310
O O1 0.611140 0.180667 0.893754
O O2 0.773524 0.267785 0.668178
O O3 0.579523 0.143467 0.732295
O O4 0.740642 0.000000 0.725208
O O5 0.950965 0.846399 0.935246
O O6 0.221033 0.500000 0.434067
O O7 0.250000 0.250000 0.500000
O O8 0.049154 0.336798 0.566595
O O9 0.598457 0.722647 0.218604
O O10 0.584402 0.000000 0.258292
O O11 0.310922 0.500000 0.912590
O O12 0.250000 0.250000 0.000000
#
# Coordination Sequence:
#
# PCOD9213432 Si02
#       5
#     8   4   8   8   8
#     4   9  17  29  49  76 107 145 186 229 279 333
#     4  10  22  38  58  84 116 152 190 232 278 336
#     4   9  16  26  44  72 106 142 183 230 278 330
#     4   8  16  31  49  73 107 145 184 227 276 330
#     4  11  23  38  59  86 115 149 189 233 281 334
#
# _framework density 23.618237000000001
#
# number of rings (size 3 to 8) (size 9 to 14) (size 15 to 20)
#    0.000    2.667    0.000    3.333    0.000   12.444 
#    0.000    0.000    0.000    1.333    0.000    7.778 
#    0.000    0.000    0.000    0.000    0.000    0.000 
#
# Total GULP energy -100528.114348 kJ/mol
# GULP energy per Si atom -5584.895242 kJ/mol
# Density = 2.356448 g / cm^3
# Si number density = 23.618237 Si / 1000 Ang^3
#
#
#
# Elastic Constant Matrix: (Units=GPa)
#
#
# Indices 1 2 3 4 5 6 
#
# 1 63.6084 28.0334 19.3664 0.0000 28.1272 0.0000
# 2 28.0334 256.4528 105.4366 0.0000 -21.7956 0.0000
# 3 19.3664 105.4366 164.3017 0.0000 2.8277 0.0000
# 4 0.0000 0.0000 0.0000 29.1602 0.0000 -12.7806
# 5 28.1272 -21.7956 2.8277 0.0000 44.3974 0.0000
# 6 0.0000 0.0000 0.0000 -12.7806 0.0000 16.0300
#
#
#
# Elastic Compliance Matrix: (Units=1/GPa)
#
#
# Indices 1 2 3 4 5 6 
#
# 1 0.025865 -0.004462 0.000135 0.000000 -0.018586 0.000000
# 2 -0.004462 0.006445 -0.003717 0.000000 0.006228 0.000000
# 3 0.000135 -0.003717 0.008498 0.000000 -0.002451 0.000000
# 4 0.000000 0.000000 0.000000 0.052714 0.000000 0.042028
# 5 -0.018586 0.006228 -0.002451 0.000000 0.037512 0.000000
# 6 0.000000 0.000000 0.000000 0.042028 0.000000 0.095892
#
#
# Mechanical properties :
#
#
# Convention : Reuss Voigt Hill
#
# Bulk Modulus (GPa) = 40.45511 87.78175 64.11843
# Shear Modulus (GPa) = 19.90023 40.01929 29.95976
#
# Velocity S-wave (km/s) = 2.90587 4.12080 3.56547
# Velocity P-wave (km/s) = 5.33148 7.73880 6.64506
#
# Compressibility (1/GPa) = 0.02471876
#
# Stress axis : x y z
#
# Youngs Moduli (GPa) = 38.66184 155.17052 117.67681
#
# Poissons Ratio (x) = 0.69243 -0.01585
# Poissons Ratio (y) = 0.17252 0.43738
# Poissons Ratio (z) = -0.00521 0.57674
#
# Static dielectric constant tensor:
#      x y z
#    x 2.021550 0.000000 0.028790 
#    y 0.000000 1.932590 0.000000 
#    z 0.028790 0.000000 1.891220 
# 
# From -- ./inp_files/220478.got.cif
#   From: 2010.05.17/outbox.cif.g08.bks.cpg/sg12_111_cif.got.tgz:220478.got - 2010.06.03 13:09:07.
