data_PCOD9213495
_publ_section_title
;
Structure prediction by ZEFSAII (Michael W. Deem and Ramdas Pophale) SiO2 
 PCOD9213495
Probable space group: C 2/M
;
_chemical_formula_sum "Si O2"
_cell_formula_units_Z 44
_cell_length_a 21.825190
_cell_length_b 12.957287
_cell_length_c 9.203378
_cell_angle_alpha 90.000000
_cell_angle_beta 137.953241
_cell_angle_gamma 90.000000
_cell_volume 1743.105105
_symmetry_space_group_name_H-M "C 2/M"
_symmetry_group_IT_number 12
_symmetry_cell_setting 'monoclinic'
loop_
_space_group_symop_operation_xyz
x,y,z
-x,y,-z
-x,-y,-z
x,-y,z
1/2+x,1/2+y,z
1/2-x,1/2+y,-z
1/2-x,1/2-y,-z
1/2+x,1/2-y,z
loop_
_atom_site_type_symbol
_atom_site_label
_atom_site_fract_x
_atom_site_fract_y
_atom_site_fract_z
Si Si1 0.316189 0.887967 0.318835
Si Si2 0.309654 0.500000 0.432573
Si Si3 0.602690 0.888582 0.240794
Si Si4 0.352311 0.672832 0.290309
Si Si5 0.851542 0.837569 0.765400
Si Si6 0.028271 0.882358 0.761792
O O1 0.395923 0.888798 0.582283
O O2 0.319421 0.789981 0.221955
O O3 0.230117 0.872479 0.273379
O O4 0.314345 0.000000 0.244592
O O5 0.293298 0.592363 0.278597
O O6 0.341830 0.409018 0.608446
O O7 0.650712 0.784110 0.274013
O O8 0.648582 0.000000 0.272354
O O9 0.500000 0.888417 0.000000
O O10 0.386369 0.628215 0.197187
O O11 0.446761 0.682099 0.550436
O O12 0.940351 0.855621 0.022608
O O13 0.992873 0.000000 0.691919
#
# Coordination Sequence:
#
# PCOD9213495 Si02
#       6
#     8   4   8   8   8   8
#     4  11  23  42  60  87 129 164 200 255 306 360
#     4  12  22  36  66  99 117 164 201 255 310 363
#     4  10  22  38  59  88 124 162 201 252 305 361
#     4  11  23  39  65  89 125 163 204 250 309 365
#     4  12  24  38  63  95 127 156 208 254 305 363
#     4  11  22  42  61  95 126 156 204 261 305 359
#
# _framework density 25.24231
#
# number of rings (size 3 to 8) (size 9 to 14) (size 15 to 20)
#    0.000    0.909    5.455    2.182    0.000    1.455 
#    0.000    2.727    0.000    0.000    0.000    0.000 
#    0.000    0.000    0.000    0.000    0.000    0.000 
#
# Total GULP energy -122751.282772 kJ/mol
# GULP energy per Si atom -5579.603762 kJ/mol
# Density = 2.518486 g / cm^3
# Si number density = 25.242310 Si / 1000 Ang^3
#
#
#
# Elastic Constant Matrix: (Units=GPa)
#
#
# Indices 1 2 3 4 5 6 
#
# 1 26.5248 30.3811 6.3002 0.0000 -15.8912 0.0000
# 2 30.3811 264.3123 30.5481 0.0000 -9.2451 0.0000
# 3 6.3002 30.5481 116.6797 0.0000 -4.1028 0.0000
# 4 0.0000 0.0000 0.0000 18.7639 0.0000 3.8735
# 5 -15.8912 -9.2451 -4.1028 0.0000 33.2019 0.0000
# 6 0.0000 0.0000 0.0000 3.8735 0.0000 39.5829
#
#
#
# Elastic Compliance Matrix: (Units=1/GPa)
#
#
# Indices 1 2 3 4 5 6 
#
# 1 0.061248 -0.005987 -0.000771 0.000000 0.027553 0.000000
# 2 -0.005987 0.004518 -0.000920 0.000000 -0.001721 0.000000
# 3 -0.000771 -0.000920 0.008870 0.000000 0.000471 0.000000
# 4 0.000000 0.000000 0.000000 0.054392 0.000000 -0.005323
# 5 0.027553 -0.001721 0.000471 0.000000 0.042885 0.000000
# 6 0.000000 0.000000 0.000000 -0.005323 0.000000 0.025784
#
#
# Mechanical properties :
#
#
# Convention : Reuss Voigt Hill
#
# Bulk Modulus (GPa) = 16.86924 60.21950 38.54437
# Shear Modulus (GPa) = 21.47642 40.99558 31.23600
#
# Velocity S-wave (km/s) = 2.92003 4.03436 3.52155
# Velocity P-wave (km/s) = 4.25043 6.75350 5.64252
#
# Compressibility (1/GPa) = 0.05927949
#
# Stress axis : x y z
#
# Youngs Moduli (GPa) = 16.32693 221.34978 112.74558
#
# Poissons Ratio (x) = 1.32530 0.08690
# Poissons Ratio (y) = 0.09775 0.10373
# Poissons Ratio (z) = 0.01258 0.20365
#
# Static dielectric constant tensor:
#      x y z
#    x 1.704330 0.000000 -0.051450 
#    y 0.000000 1.962700 0.000000 
#    z -0.051450 0.000000 1.988840 
# 
# From -- ./inp_files/95082.got.cif
#   From: 2010.05.17/outbox.cif.g08.bks.cpg/sg12_48_cif.got.tgz:95082.got - 2010.06.03 13:09:07.
