data_PCOD9213663
_publ_section_title
;
Structure prediction by ZEFSAII (Michael W. Deem and Ramdas Pophale) SiO2 
 PCOD9213663
Probable space group: C 2/M
;
_chemical_formula_sum "Si O2"
_cell_formula_units_Z 40
_cell_length_a 5.626443
_cell_length_b 22.567656
_cell_length_c 14.226654
_cell_angle_alpha 90.000000
_cell_angle_beta 122.091017
_cell_angle_gamma 90.000000
_cell_volume 1530.424014
_symmetry_space_group_name_H-M "C 2/M"
_symmetry_group_IT_number 12
_symmetry_cell_setting 'monoclinic'
loop_
_space_group_symop_operation_xyz
x,y,z
-x,y,-z
-x,-y,-z
x,-y,z
1/2+x,1/2+y,z
1/2-x,1/2+y,-z
1/2-x,1/2-y,-z
1/2+x,1/2-y,z
loop_
_atom_site_type_symbol
_atom_site_label
_atom_site_fract_x
_atom_site_fract_y
_atom_site_fract_z
Si Si1 0.844354 0.317249 0.880379
Si Si2 0.078215 0.263426 0.659798
Si Si3 0.189474 0.881318 0.252956
Si Si4 0.819689 0.563658 0.103608
Si Si5 0.163437 0.070655 0.441076
O O1 0.027344 0.375706 0.893544
O O2 0.760502 0.274421 0.776102
O O3 0.550454 0.345228 0.851669
O O4 0.000000 0.286308 0.000000
O O5 0.266056 0.259433 0.606413
O O6 0.073728 0.332789 0.680808
O O7 0.302617 0.933311 0.213185
O O8 0.051543 0.901119 0.321498
O O9 0.950111 0.500000 0.102234
O O10 0.500000 0.563608 0.000000
O O11 0.500000 0.081060 0.500000
O O12 0.000000 0.092041 0.500000
O O13 0.124943 0.000000 0.429980
#
# Coordination Sequence:
#
# PCOD9213663 Si02
#       5
#     8   8   8   8   8
#     4  11  23  39  61  94 137 182 223 270 320 400
#     4  10  22  38  63  93 129 172 222 270 315 385
#     4  11  23  41  66  94 132 173 223 276 339 387
#     4  11  23  38  58  93 136 176 222 270 331 402
#     4  10  24  45  70  99 129 170 226 283 339 400
#
# _framework density 26.136545999999999
#
# number of rings (size 3 to 8) (size 9 to 14) (size 15 to 20)
#    0.000    1.400    4.000    0.600    2.800    6.000 
#    0.000    0.000    0.000   14.400    0.000    0.000 
#    0.000    0.000    0.000    0.000    0.000    0.000 
#
# Total GULP energy -111830.821603 kJ/mol
# GULP energy per Si atom -5591.541080 kJ/mol
# Density = 2.607706 g / cm^3
# Si number density = 26.136546 Si / 1000 Ang^3
#
#
#
# Elastic Constant Matrix: (Units=GPa)
#
#
# Indices 1 2 3 4 5 6 
#
# 1 128.1267 38.5381 36.7620 0.0000 -13.5332 0.0000
# 2 38.5381 129.3799 32.0566 0.0000 -6.3392 0.0000
# 3 36.7620 32.0566 97.4114 0.0000 -15.9164 0.0000
# 4 0.0000 0.0000 0.0000 27.4886 0.0000 -7.4286
# 5 -13.5332 -6.3392 -15.9164 0.0000 49.4340 0.0000
# 6 0.0000 0.0000 0.0000 -7.4286 0.0000 39.0240
#
#
#
# Elastic Compliance Matrix: (Units=1/GPa)
#
#
# Indices 1 2 3 4 5 6 
#
# 1 0.009325 -0.002061 -0.002604 0.000000 0.001450 0.000000
# 2 -0.002061 0.008873 -0.002162 0.000000 -0.000123 0.000000
# 3 -0.002604 -0.002162 0.012453 0.000000 0.003020 0.000000
# 4 0.000000 0.000000 0.000000 0.038352 0.000000 0.007301
# 5 0.001450 -0.000123 0.003020 0.000000 0.021582 0.000000
# 6 0.000000 0.000000 0.000000 0.007301 0.000000 0.027015
#
#
# Mechanical properties :
#
#
# Convention : Reuss Voigt Hill
#
# Bulk Modulus (GPa) = 58.83515 63.29237 61.06376
# Shear Modulus (GPa) = 36.51757 39.69343 38.10550
#
# Velocity S-wave (km/s) = 3.74195 3.90127 3.82244
# Velocity P-wave (km/s) = 6.42099 6.67546 6.54946
#
# Compressibility (1/GPa) = 0.01699664
#
# Stress axis : x y z
#
# Youngs Moduli (GPa) = 107.23771 112.70295 80.30025
#
# Poissons Ratio (x) = 0.23233 0.20909
# Poissons Ratio (y) = 0.22106 0.17361
# Poissons Ratio (z) = 0.27923 0.24366
#
# Static dielectric constant tensor:
#      x y z
#    x 2.062830 0.000000 -0.005750 
#    y 0.000000 1.991480 0.000000 
#    z -0.005750 0.000000 2.174590 
# 
# From -- ./inp_files/115435.got.cif
#   From: 2010.05.17/outbox.cif.g08.bks.cpg/sg12_58_cif.got.tgz:115435.got - 2010.06.03 13:09:07.
