data_PCOD9213343
_publ_section_title
;
Structure prediction by ZEFSAII (Michael W. Deem and Ramdas Pophale) SiO2 
 PCOD9213343
Probable space group: C 2/M
;
_chemical_formula_sum "Si O2"
_cell_formula_units_Z 56
_cell_length_a 17.316150
_cell_length_b 8.023006
_cell_length_c 21.234354
_cell_angle_alpha 90.000000
_cell_angle_beta 129.661488
_cell_angle_gamma 90.000000
_cell_volume 2271.023498
_symmetry_space_group_name_H-M "C 2/M"
_symmetry_group_IT_number 12
_symmetry_cell_setting 'monoclinic'
loop_
_space_group_symop_operation_xyz
x,y,z
-x,y,-z
-x,-y,-z
x,-y,z
1/2+x,1/2+y,z
1/2-x,1/2+y,-z
1/2-x,1/2-y,-z
1/2+x,1/2-y,z
loop_
_atom_site_type_symbol
_atom_site_label
_atom_site_fract_x
_atom_site_fract_y
_atom_site_fract_z
Si Si1 0.742716 0.796516 0.840813
Si Si2 0.241662 0.688631 0.372602
Si Si3 0.118068 0.307158 0.655069
Si Si4 0.046692 0.811690 0.278348
Si Si5 0.618574 0.184915 0.889330
Si Si6 0.100062 0.800090 0.449569
Si Si7 0.042575 0.812126 0.092599
O O1 0.654333 0.760245 0.744388
O O2 0.711095 0.738273 0.895664
O O3 0.846495 0.733516 0.862555
O O4 0.751114 0.000000 0.850654
O O5 0.207573 0.500000 0.368200
O O6 0.325576 0.689237 0.363302
O O7 0.150486 0.791570 0.295372
O O8 0.301656 0.763075 0.463656
O O9 0.146143 0.500000 0.659957
O O10 0.001172 0.285511 0.580735
O O11 0.089706 0.774098 0.369657
O O12 0.966617 0.687129 0.209363
O O13 0.007565 0.000000 0.255376
O O14 0.549568 0.251844 0.910809
O O15 0.650770 0.000000 0.923808
O O16 0.096503 0.000000 0.458570
O O17 0.061557 0.000000 0.125106
O O18 0.000000 0.815234 0.000000
#
# Coordination Sequence:
#
# PCOD9213343 Si02
#       7
#     8   8   8   8   8   8   8
#     4   9  20  39  62  89 124 163 203 250 307 367
#     4  11  23  37  54  80 116 157 200 254 317 368
#     4  11  21  36  58  82 113 156 206 253 304 368
#     4  11  22  38  59  84 114 152 203 254 304 368
#     4  11  22  40  65  92 124 165 206 254 311 369
#     4  10  22  38  55  79 115 154 198 256 312 367
#     4  10  22  42  67  96 130 166 203 248 304 370
#
# _framework density 24.658483
#
# number of rings (size 3 to 8) (size 9 to 14) (size 15 to 20)
#    0.000    1.571    1.429    3.429    0.000    5.429 
#    0.000    2.143    0.000    0.000    0.000    0.000 
#    0.000    0.000    0.000    0.000    0.000    0.000 
#
# Total GULP energy -156141.400936 kJ/mol
# GULP energy per Si atom -5576.478605 kJ/mol
# Density = 2.460236 g / cm^3
# Si number density = 24.658483 Si / 1000 Ang^3
#
#
#
# Elastic Constant Matrix: (Units=GPa)
#
#
# Indices 1 2 3 4 5 6 
#
# 1 137.5115 5.3807 20.3870 0.0000 -17.0174 0.0000
# 2 5.3807 45.8024 2.3053 0.0000 -3.9305 0.0000
# 3 20.3870 2.3053 55.4747 0.0000 -4.2547 0.0000
# 4 0.0000 0.0000 0.0000 0.0674 0.0000 10.9859
# 5 -17.0174 -3.9305 -4.2547 0.0000 45.3292 0.0000
# 6 0.0000 0.0000 0.0000 10.9859 0.0000 20.4662
#
#
#
# Elastic Compliance Matrix: (Units=1/GPa)
#
#
# Indices 1 2 3 4 5 6 
#
# 1 0.008033 -0.000574 -0.002721 0.000000 0.002711 0.000000
# 2 -0.000574 0.022071 -0.000580 0.000000 0.001644 0.000000
# 3 -0.002721 -0.000580 0.019105 0.000000 0.000722 0.000000
# 4 0.000000 0.000000 0.000000 -0.171536 0.000000 0.092078
# 5 0.002711 0.001644 0.000722 0.000000 0.023289 0.000000
# 6 0.000000 0.000000 0.000000 0.092078 0.000000 -0.000565
#
#
# Mechanical properties :
#
#
# Convention : Reuss Voigt Hill
#
# Bulk Modulus (GPa) = 24.11968 32.77050 28.44509
# Shear Modulus (GPa) = -64.07525 27.22026 -18.42749
#
# Velocity S-wave (km/s) = -5.10309 3.32609 -2.73666
# Velocity P-wave (km/s) = 4.99192 5.29803 1.25496
#
# Compressibility (1/GPa) = 0.04145992
#
# Stress axis : x y z
#
# Youngs Moduli (GPa) = 124.48058 45.30907 52.34105
#
# Poissons Ratio (x) = 0.02602 0.14239
# Poissons Ratio (y) = 0.07147 0.03036
# Poissons Ratio (z) = 0.33865 0.02628
#
# Static dielectric constant tensor:
#      x y z
#    x 2.134000 0.000000 -0.021130 
#    y 0.000000 1.962480 0.000000 
#    z -0.021130 0.000000 1.940450 
# 
# From -- ./inp_files/275620.got.cif
#   From: 2010.05.17/outbox.cif.g08.bks.cpg/sg12_138_cif.got.tgz:275620.got - 2010.06.03 13:09:07.
