data_PCOD9213925
_publ_section_title
;
Structure prediction by ZEFSAII (Michael W. Deem and Ramdas Pophale) SiO2 
 PCOD9213925
Probable space group: C 2/M
;
_chemical_formula_sum "Si O2"
_cell_formula_units_Z 36
_cell_length_a 20.507533
_cell_length_b 11.350024
_cell_length_c 8.487517
_cell_angle_alpha 90.000000
_cell_angle_beta 85.468312
_cell_angle_gamma 90.000000
_cell_volume 1969.386847
_symmetry_space_group_name_H-M "C 2/M"
_symmetry_group_IT_number 12
_symmetry_cell_setting 'monoclinic'
loop_
_space_group_symop_operation_xyz
x,y,z
-x,y,-z
-x,-y,-z
x,-y,z
1/2+x,1/2+y,z
1/2-x,1/2+y,-z
1/2-x,1/2-y,-z
1/2+x,1/2-y,z
loop_
_atom_site_type_symbol
_atom_site_label
_atom_site_fract_x
_atom_site_fract_y
_atom_site_fract_z
Si Si1 0.887253 0.634796 0.128012
Si Si2 0.797404 0.201438 0.358534
Si Si3 0.031519 0.000000 0.234939
Si Si4 0.224223 0.372487 0.073027
Si Si5 0.500000 0.698322 0.000000
Si Si6 0.105099 0.000000 0.547414
O O1 0.902474 0.500000 0.169294
O O2 0.836066 0.695024 0.258218
O O3 0.851396 0.630836 0.963620
O O4 0.949106 0.718886 0.100169
O O5 0.750000 0.250000 0.500000
O O6 0.750159 0.134073 0.244698
O O7 0.851143 0.113082 0.418771
O O8 0.035514 0.112793 0.119089
O O9 0.082028 0.000000 0.369949
O O10 0.959554 0.000000 0.330013
O O11 0.248284 0.500000 0.002133
O O12 0.250000 0.250000 0.000000
#
# Coordination Sequence:
#
# PCOD9213925 Si02
#       6
#     8   8   4   8   4   4
#     4  10  22  39  60  87 121 160 203 251 303 369
#     4  11  23  38  61  90 123 162 197 252 309 377
#     4  10  24  40  68  92 118 162 208 261 300 364
#     4   9  19  37  58  87 119 156 203 248 306 362
#     4  11  21  42  64  90 115 159 212 256 302 353
#     4  11  22  44  62  92 128 157 204 253 315 365
#
# _framework density 18.279800999999999
#
# number of rings (size 3 to 8) (size 9 to 14) (size 15 to 20)
#    0.000    1.778    3.333    0.333    4.667    0.000 
#    2.000    0.000    0.000    1.333    0.000    0.000 
#    0.000    0.000    0.000    0.000    0.000    0.000 
#
# Total GULP energy -100248.234469 kJ/mol
# GULP energy per Si atom -5569.346359 kJ/mol
# Density = 1.823820 g / cm^3
# Si number density = 18.279801 Si / 1000 Ang^3
#
#
#
# Elastic Constant Matrix: (Units=GPa)
#
#
# Indices 1 2 3 4 5 6 
#
# 1 60.0622 39.8415 36.0458 0.0000 0.8181 0.0000
# 2 39.8415 159.6951 47.1101 0.0000 0.3502 0.0000
# 3 36.0458 47.1101 89.8280 0.0000 9.7610 0.0000
# 4 0.0000 0.0000 0.0000 18.2547 0.0000 1.9159
# 5 0.8181 0.3502 9.7610 0.0000 39.2543 0.0000
# 6 0.0000 0.0000 0.0000 1.9159 0.0000 28.8938
#
#
#
# Elastic Compliance Matrix: (Units=1/GPa)
#
#
# Indices 1 2 3 4 5 6 
#
# 1 0.023694 -0.003623 -0.007768 0.000000 0.001470 0.000000
# 2 -0.003623 0.007995 -0.002816 0.000000 0.000704 0.000000
# 3 -0.007768 -0.002816 0.016142 0.000000 -0.003827 0.000000
# 4 0.000000 0.000000 0.000000 0.055164 0.000000 -0.003658
# 5 0.001470 0.000704 -0.003827 0.000000 0.026390 0.000000
# 6 0.000000 0.000000 0.000000 -0.003658 0.000000 0.034852
#
#
# Mechanical properties :
#
#
# Convention : Reuss Voigt Hill
#
# Bulk Modulus (GPa) = 51.49728 61.73111 56.61420
# Shear Modulus (GPa) = 25.11016 29.71976 27.41496
#
# Velocity S-wave (km/s) = 3.71031 4.03653 3.87685
# Velocity P-wave (km/s) = 6.82554 7.45441 7.14689
#
# Compressibility (1/GPa) = 0.01941850
#
# Stress axis : x y z
#
# Youngs Moduli (GPa) = 42.20403 125.07973 61.95106
#
# Poissons Ratio (x) = 0.45319 0.48121
# Poissons Ratio (y) = 0.15291 0.17443
# Poissons Ratio (z) = 0.32782 0.35217
#
# Static dielectric constant tensor:
#      x y z
#    x 1.626020 0.000000 0.025410 
#    y 0.000000 1.648770 0.000000 
#    z 0.025410 0.000000 1.633420 
# 
# From -- ./inp_files/82085.got.cif
#   From: 2010.05.17/outbox.cif.g08.bks.cpg/sg12_42_cif.got.tgz:82085.got - 2010.06.03 13:09:07.
