data_PCOD9213958
_publ_section_title
;
Structure prediction by ZEFSAII (Michael W. Deem and Ramdas Pophale) SiO2 
 PCOD9213958
Probable space group: C 2/M
;
_chemical_formula_sum "Si O2"
_cell_formula_units_Z 36
_cell_length_a 18.240515
_cell_length_b 17.594408
_cell_length_c 5.159951
_cell_angle_alpha 90.000000
_cell_angle_beta 78.439164
_cell_angle_gamma 90.000000
_cell_volume 1622.392635
_symmetry_space_group_name_H-M "C 2/M"
_symmetry_group_IT_number 12
_symmetry_cell_setting 'monoclinic'
loop_
_space_group_symop_operation_xyz
x,y,z
-x,y,-z
-x,-y,-z
x,-y,z
1/2+x,1/2+y,z
1/2-x,1/2+y,-z
1/2-x,1/2-y,-z
1/2+x,1/2-y,z
loop_
_atom_site_type_symbol
_atom_site_label
_atom_site_fract_x
_atom_site_fract_y
_atom_site_fract_z
Si Si1 0.914197 0.846516 0.646417
Si Si2 0.789592 0.368537 0.003082
Si Si3 0.682183 0.500000 0.273793
Si Si4 0.164675 0.211520 0.795763
Si Si5 0.542449 0.908566 0.222376
O O1 0.867922 0.799600 0.464160
O O2 0.000000 0.845407 0.500000
O O3 0.881459 0.932011 0.664504
O O4 0.896680 0.810793 0.940698
O O5 0.747406 0.434180 0.187051
O O6 0.804578 0.294920 0.167978
O O7 0.733058 0.345442 0.812558
O O8 0.870094 0.392464 0.841893
O O9 0.500000 0.876563 0.500000
O O10 0.533974 0.000000 0.229024
O O11 0.500000 0.878633 0.000000
#
# Coordination Sequence:
#
# PCOD9213958 Si02
#       5
#     8   8   4   8   8
#     4  11  24  46  69 103 134 175 226 279 336 402
#     4  10  22  45  66  99 135 175 226 271 329 409
#     4  10  23  42  72  98 134 178 218 282 336 386
#     4  10  25  42  69  98 133 178 222 271 334 395
#     4  10  22  39  60  91 126 166 212 265 321 377
#
# _framework density 22.189450999999998
#
# number of rings (size 3 to 8) (size 9 to 14) (size 15 to 20)
#    0.000    1.778    1.111    1.000    0.000   19.556 
#    4.000    5.556    0.000    0.000    0.000    0.000 
#    0.000    0.000    0.000    0.000    0.000    0.000 
#
# Total GULP energy -100212.536310 kJ/mol
# GULP energy per Si atom -5567.363128 kJ/mol
# Density = 2.213895 g / cm^3
# Si number density = 22.189451 Si / 1000 Ang^3
#
#
#
# Elastic Constant Matrix: (Units=GPa)
#
#
# Indices 1 2 3 4 5 6 
#
# 1 121.0693 13.3282 33.2096 0.0000 -44.9749 0.0000
# 2 13.3282 89.2438 14.0279 0.0000 -4.1448 0.0000
# 3 33.2096 14.0279 89.5840 0.0000 -15.6225 0.0000
# 4 0.0000 0.0000 0.0000 -14.7038 0.0000 -2.9571
# 5 -44.9749 -4.1448 -15.6225 0.0000 38.2212 0.0000
# 6 0.0000 0.0000 0.0000 -2.9571 0.0000 12.3181
#
#
#
# Elastic Compliance Matrix: (Units=1/GPa)
#
#
# Indices 1 2 3 4 5 6 
#
# 1 0.015372 -0.001105 -0.002575 0.000000 0.016915 0.000000
# 2 -0.001105 0.011578 -0.001519 0.000000 -0.000666 0.000000
# 3 -0.002575 -0.001519 0.012704 0.000000 0.001997 0.000000
# 4 0.000000 0.000000 0.000000 -0.064877 0.000000 -0.015575
# 5 0.016915 -0.000666 0.001997 0.000000 0.046812 0.000000
# 6 0.000000 0.000000 0.000000 -0.015575 0.000000 0.077442
#
#
# Mechanical properties :
#
#
# Convention : Reuss Voigt Hill
#
# Bulk Modulus (GPa) = 34.18446 46.78093 40.48270
# Shear Modulus (GPa) = 41.95288 23.12252 32.53770
#
# Velocity S-wave (km/s) = 4.35290 3.23158 3.83346
# Velocity P-wave (km/s) = 6.37987 5.92051 6.15448
#
# Compressibility (1/GPa) = 0.02925306
#
# Stress axis : x y z
#
# Youngs Moduli (GPa) = 65.05542 86.36898 78.71737
#
# Poissons Ratio (x) = 0.09546 0.20274
# Poissons Ratio (y) = 0.07190 0.11961
# Poissons Ratio (z) = 0.16755 0.13123
#
# Static dielectric constant tensor:
#      x y z
#    x 1.778810 0.000000 -0.003830 
#    y 0.000000 1.799240 0.000000 
#    z -0.003830 0.000000 1.835010 
# 
# From -- ./inp_files/14956.got.cif
#   From: 2010.05.17/outbox.cif.g08.bks.cpg/sg12_8_cif.got.tgz:14956.got - 2010.06.03 13:09:07.
