data_PCOD9213043
_publ_section_title
;
Structure prediction by ZEFSAII (Michael W. Deem and Ramdas Pophale) SiO2 
 PCOD9213043
Probable space group: C 2/M
;
_chemical_formula_sum "Si O2"
_cell_formula_units_Z 60
_cell_length_a 9.253053
_cell_length_b 21.413904
_cell_length_c 24.113085
_cell_angle_alpha 90.000000
_cell_angle_beta 40.525952
_cell_angle_gamma 90.000000
_cell_volume 3104.618990
_symmetry_space_group_name_H-M "C 2/M"
_symmetry_group_IT_number 12
_symmetry_cell_setting 'monoclinic'
loop_
_space_group_symop_operation_xyz
x,y,z
-x,y,-z
-x,-y,-z
x,-y,z
1/2+x,1/2+y,z
1/2-x,1/2+y,-z
1/2-x,1/2-y,-z
1/2+x,1/2-y,z
loop_
_atom_site_type_symbol
_atom_site_label
_atom_site_fract_x
_atom_site_fract_y
_atom_site_fract_z
Si Si1 0.221310 0.639581 0.342676
Si Si2 0.879103 0.931036 0.737529
Si Si3 0.059211 0.614563 0.923595
Si Si4 0.942859 0.202735 0.841049
Si Si5 0.403663 0.799705 0.366503
Si Si6 0.132832 0.815827 0.018645
Si Si7 0.000000 0.727733 0.500000
Si Si8 0.280349 0.193756 0.274385
O O1 0.359621 0.581734 0.325674
O O2 0.412561 0.673880 0.250930
O O3 0.120232 0.683166 0.420452
O O4 0.016939 0.638813 0.359270
O O5 0.726780 0.924546 0.837087
O O6 0.793329 0.873307 0.725813
O O7 0.850317 0.000000 0.722235
O O8 0.195866 0.678467 0.899615
O O9 0.000000 0.584847 0.000000
O O10 0.828824 0.632864 0.961757
O O11 0.006821 0.175884 0.882973
O O12 0.004143 0.275696 0.818686
O O13 0.193185 0.775127 0.462123
O O14 0.329653 0.808468 0.325063
O O15 0.584125 0.743325 0.317566
O O16 0.250000 0.750000 0.000000
O O17 0.000000 0.814984 0.000000
#
# Coordination Sequence:
#
# PCOD9213043 Si02
#       8
#     8   8   8   8   8   8   4   8
#     4  10  22  36  58  88 120 154 189 240 297 358
#     4  11  23  41  59  80 116 163 210 244 282 343
#     4   9  19  36  57  84 112 145 195 244 301 351
#     4   9  18  35  54  82 120 146 180 237 301 351
#     4  11  20  33  60  90 123 144 181 242 306 359
#     4  11  21  31  50  81 118 154 181 226 289 361
#     4  12  18  36  61  96 129 144 184 234 316 366
#     4  11  20  36  55  88 120 155 191 236 296 355
#
# _framework density 19.326042000000001
#
# number of rings (size 3 to 8) (size 9 to 14) (size 15 to 20)
#    0.000    1.600    4.000    3.200    0.000    6.667 
#    0.000    1.000    0.000    0.400    0.000    1.867 
#    0.000    0.000    0.000    0.000    0.000    0.133 
#
# Total GULP energy -167154.382267 kJ/mol
# GULP energy per Si atom -5571.812742 kJ/mol
# Density = 1.928206 g / cm^3
# Si number density = 19.326042 Si / 1000 Ang^3
#
#
#
# Elastic Constant Matrix: (Units=GPa)
#
#
# Indices 1 2 3 4 5 6 
#
# 1 141.2677 29.8710 32.8170 0.0019 8.1154 -0.0029
# 2 29.8710 79.5077 6.4155 0.0017 -7.1020 -0.0020
# 3 32.8170 6.4155 94.7744 0.0016 1.4834 -0.0010
# 4 0.0019 0.0017 0.0016 9.5072 -0.0021 -3.0131
# 5 8.1154 -7.1020 1.4834 -0.0021 28.8121 0.0015
# 6 -0.0029 -0.0020 -0.0010 -3.0131 0.0015 14.8228
#
#
#
# Elastic Compliance Matrix: (Units=1/GPa)
#
#
# Indices 1 2 3 4 5 6 
#
# 1 0.008577 -0.003280 -0.002699 -0.000001 -0.003085 0.000001
# 2 -0.003280 0.014196 0.000106 -0.000001 0.004418 0.000001
# 3 -0.002699 0.000106 0.011476 -0.000001 0.000196 0.000000
# 4 -0.000001 -0.000001 -0.000001 0.112426 0.000007 0.022854
# 5 -0.003085 0.004418 0.000196 0.000007 0.036656 -0.000002
# 6 0.000001 0.000001 0.000000 0.022854 -0.000002 0.072109
#
#
# Mechanical properties :
#
#
# Convention : Reuss Voigt Hill
#
# Bulk Modulus (GPa) = 44.44311 50.41743 47.43027
# Shear Modulus (GPa) = 18.20253 27.05818 22.63035
#
# Velocity S-wave (km/s) = 3.07231 3.74584 3.42567
# Velocity P-wave (km/s) = 5.96924 6.69723 6.34369
#
# Compressibility (1/GPa) = 0.02250067
#
# Stress axis : x y z
#
# Youngs Moduli (GPa) = 116.59553 70.44345 87.13926
#
# Poissons Ratio (x) = 0.23106 0.23523
# Poissons Ratio (y) = 0.38244 -0.00921
# Poissons Ratio (z) = 0.31475 -0.00744
#
# Static dielectric constant tensor:
#      x y z
#    x 1.757490 0.000000 0.000840 
#    y 0.000000 1.686220 0.000000 
#    z 0.000840 0.000000 1.783220 
# 
# From -- ./inp_files/334062.got.cif
#   From: 2010.05.17/outbox.cif.g08.bks.cpg/sg12_168_cif.got.tgz:334062.got - 2010.06.03 13:09:07.
