data_PCOD9213013
_publ_section_title
;
Structure prediction by ZEFSAII (Michael W. Deem and Ramdas Pophale) SiO2 
 PCOD9213013
Probable space group: C 2/M
;
_chemical_formula_sum "Si O2"
_cell_formula_units_Z 50
_cell_length_a 10.391453
_cell_length_b 34.417734
_cell_length_c 8.992420
_cell_angle_alpha 90.000000
_cell_angle_beta 40.763189
_cell_angle_gamma 90.000000
_cell_volume 2099.928454
_symmetry_space_group_name_H-M "C 2/M"
_symmetry_group_IT_number 12
_symmetry_cell_setting 'monoclinic'
loop_
_space_group_symop_operation_xyz
x,y,z
-x,y,-z
-x,-y,-z
x,-y,z
1/2+x,1/2+y,z
1/2-x,1/2+y,-z
1/2-x,1/2-y,-z
1/2+x,1/2-y,z
loop_
_atom_site_type_symbol
_atom_site_label
_atom_site_fract_x
_atom_site_fract_y
_atom_site_fract_z
Si Si1 0.818083 0.630710 0.816320
Si Si2 0.500000 0.500000 0.500000
Si Si3 0.880026 0.056420 0.352228
Si Si4 0.507810 0.276947 0.666439
Si Si5 0.871588 0.857936 0.330966
Si Si6 0.056406 0.700972 0.118358
Si Si7 0.202922 0.456370 0.186901
O O1 0.768721 0.642042 0.690295
O O2 0.954023 0.662077 0.776565
O O3 0.888133 0.586076 0.767772
O O4 0.598818 0.635138 0.078307
O O5 0.387170 0.532759 0.496399
O O6 0.836924 0.100695 0.436429
O O7 0.742723 0.045177 0.330560
O O8 0.092656 0.047653 0.086109
O O9 0.500000 0.266461 0.500000
O O10 0.626543 0.316975 0.586865
O O11 0.556369 0.238819 0.720550
O O12 0.287181 0.287822 0.912235
O O13 0.000000 0.692934 0.000000
O O14 0.126237 0.500000 0.217872
#
# Coordination Sequence:
#
# PCOD9213013 Si02
#       7
#     8   2   8   8   8   8   8
#     4   8  16  30  52  71  96 137 176 214 261 310
#     4  12  16  18  32  64 108 130 154 200 262 318
#     4   9  16  22  37  63  99 134 163 202 258 311
#     4  10  22  36  56  81 106 141 179 218 269 319
#     4   8  16  30  48  70 102 137 173 214 257 317
#     4  10  22  38  56  77 109 140 176 224 270 318
#     4   9  13  27  42  61  89 131 177 204 243 313
#
# _framework density 23.810334999999998
#
# number of rings (size 3 to 8) (size 9 to 14) (size 15 to 20)
#    0.000    2.880    1.600    2.400    7.840    0.640 
#    0.000    0.000    0.000    0.480    0.000    0.000 
#    0.000    0.640    0.000    1.440    0.000    0.000 
#
# Total GULP energy -139312.323565 kJ/mol
# GULP energy per Si atom -5572.492943 kJ/mol
# Density = 2.375614 g / cm^3
# Si number density = 23.810335 Si / 1000 Ang^3
#
#
#
# Elastic Constant Matrix: (Units=GPa)
#
#
# Indices 1 2 3 4 5 6 
#
# 1 78.0497 88.7893 12.7373 0.0000 10.8606 0.0000
# 2 88.7893 236.7338 45.5658 0.0000 30.2830 0.0000
# 3 12.7373 45.5658 51.1383 0.0000 -5.6178 0.0000
# 4 0.0000 0.0000 0.0000 22.2872 0.0000 5.7243
# 5 10.8606 30.2830 -5.6178 0.0000 40.0685 0.0000
# 6 0.0000 0.0000 0.0000 5.7243 0.0000 30.6967
#
#
#
# Elastic Compliance Matrix: (Units=1/GPa)
#
#
# Indices 1 2 3 4 5 6 
#
# 1 0.022616 -0.009135 0.002632 0.000000 0.001143 0.000000
# 2 -0.009135 0.009766 -0.007075 0.000000 -0.005897 0.000000
# 3 0.002632 -0.007075 0.026114 0.000000 0.008295 0.000000
# 4 0.000000 0.000000 0.000000 0.047126 0.000000 -0.008788
# 5 0.001143 -0.005897 0.008295 0.000000 0.030267 0.000000
# 6 0.000000 0.000000 0.000000 -0.008788 0.000000 0.034216
#
#
# Mechanical properties :
#
#
# Convention : Reuss Voigt Hill
#
# Bulk Modulus (GPa) = 31.90678 73.34519 52.62598
# Shear Modulus (GPa) = 24.07228 33.19911 28.63570
#
# Velocity S-wave (km/s) = 3.18307 3.73810 3.47170
# Velocity P-wave (km/s) = 5.19026 7.03577 6.18226
#
# Compressibility (1/GPa) = 0.03134130
#
# Stress axis : x y z
#
# Youngs Moduli (GPa) = 44.21662 102.39084 38.29334
#
# Poissons Ratio (x) = 0.93536 -0.10080
# Poissons Ratio (y) = 0.40393 0.27091
# Poissons Ratio (z) = -0.11639 0.72439
#
# Static dielectric constant tensor:
#      x y z
#    x 1.917480 0.000000 -0.108620 
#    y 0.000000 1.885820 0.000000 
#    z -0.108620 0.000000 1.946400 
# 
# From -- ./inp_files/54092.got.cif
#   From: 2010.05.17/outbox.cif.g08.bks.cpg/sg12_28_cif.got.tgz:54092.got - 2010.06.03 13:09:07.
