data_PCOD9213594
_publ_section_title
;
Structure prediction by ZEFSAII (Michael W. Deem and Ramdas Pophale) SiO2 
 PCOD9213594
Probable space group: C 2/M
;
_chemical_formula_sum "Si O2"
_cell_formula_units_Z 36
_cell_length_a 16.090153
_cell_length_b 20.206153
_cell_length_c 9.078554
_cell_angle_alpha 90.000000
_cell_angle_beta 36.296054
_cell_angle_gamma 90.000000
_cell_volume 1747.234297
_symmetry_space_group_name_H-M "C 2/M"
_symmetry_group_IT_number 12
_symmetry_cell_setting 'monoclinic'
loop_
_space_group_symop_operation_xyz
x,y,z
-x,y,-z
-x,-y,-z
x,-y,z
1/2+x,1/2+y,z
1/2-x,1/2+y,-z
1/2-x,1/2-y,-z
1/2+x,1/2-y,z
loop_
_atom_site_type_symbol
_atom_site_label
_atom_site_fract_x
_atom_site_fract_y
_atom_site_fract_z
Si Si1 0.229705 0.924339 0.222799
Si Si2 0.829069 0.315937 0.511455
Si Si3 0.233169 0.822545 0.951500
Si Si4 0.411296 0.668183 0.354822
Si Si5 0.500000 0.877433 0.000000
O O1 0.115047 0.889828 0.491159
O O2 0.372533 0.918767 0.114409
O O3 0.198540 0.000000 0.231896
O O4 0.244862 0.878079 0.059090
O O5 0.838393 0.338201 0.666691
O O6 0.680988 0.342551 0.658944
O O7 0.839122 0.236504 0.513254
O O8 0.939481 0.335722 0.225830
O O9 0.250000 0.750000 0.000000
O O10 0.075904 0.821475 0.109941
#
# Coordination Sequence:
#
# PCOD9213594 Si02
#       5
#     8   8   8   8   4
#     4  11  24  42  65  92 129 172 209 260 325 384
#     4  10  22  39  65  95 124 165 213 264 317 368
#     4  12  23  38  62  98 128 162 212 266 317 373
#     4  10  22  38  61  92 126 167 207 257 315 379
#     4  10  23  44  66  92 123 170 216 264 313 384
#
# _framework density 20.603992000000002
#
# number of rings (size 3 to 8) (size 9 to 14) (size 15 to 20)
#    0.000    1.333    2.222    3.000    6.222    4.444 
#    0.000    6.667    0.000    6.667    0.000    0.000 
#    0.000    0.000    0.000    0.000    0.000    0.000 
#
# Total GULP energy -100462.137790 kJ/mol
# GULP energy per Si atom -5581.229877 kJ/mol
# Density = 2.055710 g / cm^3
# Si number density = 20.603992 Si / 1000 Ang^3
#
#
#
# Elastic Constant Matrix: (Units=GPa)
#
#
# Indices 1 2 3 4 5 6 
#
# 1 73.0189 31.0920 63.2949 0.0000 20.6706 0.0001
# 2 31.0920 142.8996 43.2346 -0.0001 34.9682 0.0001
# 3 63.2949 43.2346 112.9276 -0.0002 25.8990 0.0001
# 4 0.0000 -0.0001 -0.0002 15.7623 0.0001 3.5056
# 5 20.6706 34.9682 25.8990 0.0001 51.0419 -0.0001
# 6 0.0001 0.0001 0.0001 3.5056 -0.0001 21.0980
#
#
#
# Elastic Compliance Matrix: (Units=1/GPa)
#
#
# Indices 1 2 3 4 5 6 
#
# 1 0.027324 -0.000836 -0.014246 0.000000 -0.003264 0.000000
# 2 -0.000836 0.008920 -0.001836 0.000000 -0.004841 0.000000
# 3 -0.014246 -0.001836 0.018030 0.000000 -0.002121 0.000000
# 4 0.000000 0.000000 0.000000 0.065877 0.000000 -0.010946
# 5 -0.003264 -0.004841 -0.002121 0.000000 0.025306 0.000000
# 6 0.000000 0.000000 0.000000 -0.010946 0.000000 0.049217
#
#
# Mechanical properties :
#
#
# Convention : Reuss Voigt Hill
#
# Bulk Modulus (GPa) = 48.93224 67.12101 58.02663
# Shear Modulus (GPa) = 21.24741 30.32874 25.78808
#
# Velocity S-wave (km/s) = 3.21476 3.84081 3.54164
# Velocity P-wave (km/s) = 6.13025 7.23301 6.70435
#
# Compressibility (1/GPa) = 0.02043642
#
# Stress axis : x y z
#
# Youngs Moduli (GPa) = 36.59754 112.10859 55.46454
#
# Poissons Ratio (x) = 0.09375 0.79016
# Poissons Ratio (y) = 0.03060 0.10184
# Poissons Ratio (z) = 0.52138 0.20585
#
# Static dielectric constant tensor:
#      x y z
#    x 1.781350 0.000000 -0.008020 
#    y 0.000000 1.691040 0.000000 
#    z -0.008020 0.000000 1.805920 
# 
# From -- ./inp_files/48392.got.cif
#   From: 2010.05.17/outbox.cif.g08.bks.cpg/sg12_25_cif.got.tgz:48392.got - 2010.06.03 13:09:07.
