data_PCOD9213299
_publ_section_title
;
Structure prediction by ZEFSAII (Michael W. Deem and Ramdas Pophale) SiO2 
 PCOD9213299
Probable space group: C 2/M
;
_chemical_formula_sum "Si O2"
_cell_formula_units_Z 42
_cell_length_a 10.822673
_cell_length_b 20.855203
_cell_length_c 10.882553
_cell_angle_alpha 90.000000
_cell_angle_beta 70.201129
_cell_angle_gamma 90.000000
_cell_volume 2311.092999
_symmetry_space_group_name_H-M "C 2/M"
_symmetry_group_IT_number 12
_symmetry_cell_setting 'monoclinic'
loop_
_space_group_symop_operation_xyz
x,y,z
-x,y,-z
-x,-y,-z
x,-y,z
1/2+x,1/2+y,z
1/2-x,1/2+y,-z
1/2-x,1/2-y,-z
1/2+x,1/2-y,z
loop_
_atom_site_type_symbol
_atom_site_label
_atom_site_fract_x
_atom_site_fract_y
_atom_site_fract_z
Si Si1 0.346221 0.255999 0.083513
Si Si2 0.165027 0.104669 0.791577
Si Si3 0.000000 0.000000 0.000000
Si Si4 0.968282 0.572376 0.655327
Si Si5 0.601052 0.326208 0.572559
Si Si6 0.636613 0.191030 0.672043
O O1 0.329937 0.327635 0.139923
O O2 0.314425 0.208320 0.207661
O O3 0.500000 0.245652 0.000000
O O4 0.250000 0.250000 0.000000
O O5 0.313113 0.079813 0.726146
O O6 0.106055 0.121858 0.678215
O O7 0.077523 0.055474 0.894757
O O8 0.008980 0.500000 0.678213
O O9 0.000000 0.580048 0.500000
O O10 0.042189 0.629812 0.700004
O O11 0.500000 0.341228 0.500000
O O12 0.569805 0.256370 0.642811
O O13 0.743354 0.321886 0.460750
#
# Coordination Sequence:
#
# PCOD9213299 Si02
#       6
#     8   8   2   8   8   8
#     4  11  24  40  64  94 130 171 222 270 326 398
#     4  11  23  41  66  93 122 176 219 260 328 391
#     4  12  24  44  64  88 138 172 218 254 322 420
#     4  11  21  38  66  94 129 167 218 270 325 391
#     4  10  22  37  63  97 129 161 214 278 333 378
#     4  10  22  37  64  96 130 166 213 277 334 378
#
# _framework density 18.173219
#
# number of rings (size 3 to 8) (size 9 to 14) (size 15 to 20)
#    0.000    1.333    3.810    1.714   10.667    0.000 
#    0.000    0.476    6.286    1.714    0.000    0.000 
#    0.000    0.000    0.000    0.000    0.000    0.000 
#
# Total GULP energy -117027.092511 kJ/mol
# GULP energy per Si atom -5572.718691 kJ/mol
# Density = 1.813186 g / cm^3
# Si number density = 18.173219 Si / 1000 Ang^3
#
#
#
# Elastic Constant Matrix: (Units=GPa)
#
#
# Indices 1 2 3 4 5 6 
#
# 1 97.6866 58.8732 63.0357 0.0000 14.4127 0.0000
# 2 58.8732 136.7101 67.4623 0.0000 6.1746 0.0000
# 3 63.0357 67.4623 132.2666 0.0000 2.4345 0.0000
# 4 0.0000 0.0000 0.0000 -8.4303 0.0000 30.0123
# 5 14.4127 6.1746 2.4345 0.0000 39.8153 0.0000
# 6 0.0000 0.0000 0.0000 30.0123 0.0000 -35.2254
#
#
#
# Elastic Compliance Matrix: (Units=1/GPa)
#
#
# Indices 1 2 3 4 5 6 
#
# 1 0.017530 -0.004323 -0.006052 0.000000 -0.005305 0.000000
# 2 -0.004323 0.010900 -0.003501 0.000000 0.000089 0.000000
# 3 -0.006052 -0.003501 0.012194 0.000000 0.001988 0.000000
# 4 0.000000 0.000000 0.000000 0.058342 0.000000 0.049708
# 5 -0.005305 0.000089 0.001988 0.000000 0.026901 0.000000
# 6 0.000000 0.000000 0.000000 0.049708 0.000000 0.013963
#
#
# Mechanical properties :
#
#
# Convention : Reuss Voigt Hill
#
# Bulk Modulus (GPa) = 77.68713 82.82287 80.25500
# Shear Modulus (GPa) = 29.09141 11.05141 20.07141
#
# Velocity S-wave (km/s) = 4.00532 2.46867 3.32693
# Velocity P-wave (km/s) = 8.01443 7.33477 7.68212
#
# Compressibility (1/GPa) = 0.01287214
#
# Stress axis : x y z
#
# Youngs Moduli (GPa) = 57.04432 91.74257 82.00968
#
# Poissons Ratio (x) = 0.39662 0.49631
# Poissons Ratio (y) = 0.24662 0.28710
# Poissons Ratio (z) = 0.34522 0.32117
#
# Static dielectric constant tensor:
#      x y z
#    x 1.622030 0.000000 -0.008730 
#    y 0.000000 1.607380 0.000000 
#    z -0.008730 0.000000 1.632120 
# 
# From -- ./inp_files/49187.got.cif
#   From: 2010.05.17/outbox.cif.g08.bks.cpg/sg12_25_cif.got.tgz:49187.got - 2010.06.03 13:09:07.
