data_PCOD9213774
_publ_section_title
;
Structure prediction by ZEFSAII (Michael W. Deem and Ramdas Pophale) SiO2 
 PCOD9213774
Probable space group: C 2/M
;
_chemical_formula_sum "Si O2"
_cell_formula_units_Z 40
_cell_length_a 14.081901
_cell_length_b 7.532579
_cell_length_c 15.579990
_cell_angle_alpha 90.000000
_cell_angle_beta 87.917366
_cell_angle_gamma 90.000000
_cell_volume 1651.525145
_symmetry_space_group_name_H-M "C 2/M"
_symmetry_group_IT_number 12
_symmetry_cell_setting 'monoclinic'
loop_
_space_group_symop_operation_xyz
x,y,z
-x,y,-z
-x,-y,-z
x,-y,z
1/2+x,1/2+y,z
1/2-x,1/2+y,-z
1/2-x,1/2-y,-z
1/2+x,1/2-y,z
loop_
_atom_site_type_symbol
_atom_site_label
_atom_site_fract_x
_atom_site_fract_y
_atom_site_fract_z
Si Si1 0.193942 0.785822 0.789370
Si Si2 0.031874 0.710511 0.907219
Si Si3 0.862563 0.788302 0.571549
Si Si4 0.856296 0.796652 0.387577
Si Si5 0.409394 0.786395 0.753179
O O1 0.136734 0.714271 0.707384
O O2 0.302116 0.725193 0.778213
O O3 0.141257 0.735768 0.878090
O O4 0.194519 0.000000 0.783032
O O5 0.012463 0.500000 0.910109
O O6 0.975183 0.784724 0.826965
O O7 0.000000 0.783587 0.000000
O O8 0.893369 0.721084 0.476529
O O9 0.759271 0.704809 0.595126
O O10 0.927294 0.760348 0.652981
O O11 0.848633 0.000000 0.563550
O O12 0.889563 0.000000 0.381357
O O13 0.410690 0.000000 0.755938
#
# Coordination Sequence:
#
# PCOD9213774 Si02
#       5
#     8   8   8   8   8
#     4   9  18  34  55  77 103 136 170 206 254 308
#     4  10  22  39  56  75 101 133 171 217 266 312
#     4   9  15  25  47  77 104 135 175 209 240 293
#     4   8  15  28  46  72 108 142 167 201 252 300
#     4   9  19  36  54  74 106 141 168 206 262 310
#
# _framework density 24.220037000000001
#
# number of rings (size 3 to 8) (size 9 to 14) (size 15 to 20)
#    0.000    3.000    0.000    1.800    0.000    6.000 
#    0.000    1.000    0.000    6.000    0.000    0.000 
#    0.000    0.000    0.000    0.000    0.000    0.000 
#
# Total GULP energy -111666.733533 kJ/mol
# GULP energy per Si atom -5583.336677 kJ/mol
# Density = 2.416491 g / cm^3
# Si number density = 24.220037 Si / 1000 Ang^3
#
#
#
# Elastic Constant Matrix: (Units=GPa)
#
#
# Indices 1 2 3 4 5 6 
#
# 1 62.8508 -0.2331 40.0605 0.0000 -3.0687 0.0000
# 2 -0.2331 78.8396 7.2690 0.0000 5.9234 0.0000
# 3 40.0605 7.2690 150.0749 0.0000 -30.4452 0.0000
# 4 0.0000 0.0000 0.0000 21.2476 0.0000 -4.0695
# 5 -3.0687 5.9234 -30.4452 0.0000 39.4222 0.0000
# 6 0.0000 0.0000 0.0000 -4.0695 0.0000 14.0489
#
#
#
# Elastic Compliance Matrix: (Units=1/GPa)
#
#
# Indices 1 2 3 4 5 6 
#
# 1 0.019514 0.000838 -0.005890 0.000000 -0.003155 0.000000
# 2 0.000838 0.013050 -0.001471 0.000000 -0.003031 0.000000
# 3 -0.005890 -0.001471 0.009793 0.000000 0.007325 0.000000
# 4 0.000000 0.000000 0.000000 0.049829 0.000000 0.014434
# 5 -0.003155 -0.003031 0.007325 0.000000 0.031234 0.000000
# 6 0.000000 0.000000 0.000000 0.014434 0.000000 0.075361
#
#
# Mechanical properties :
#
#
# Convention : Reuss Voigt Hill
#
# Bulk Modulus (GPa) = 34.11654 42.88424 38.50039
# Shear Modulus (GPa) = 22.56366 31.25500 26.90933
#
# Velocity S-wave (km/s) = 3.05554 3.59619 3.33684
# Velocity P-wave (km/s) = 5.15414 5.91507 5.54766
#
# Compressibility (1/GPa) = 0.02931130
#
# Stress axis : x y z
#
# Youngs Moduli (GPa) = 51.24591 76.62949 102.11578
#
# Poissons Ratio (x) = -0.06420 0.60143
# Poissons Ratio (y) = -0.04293 0.15018
# Poissons Ratio (z) = 0.30182 0.11270
#
# Static dielectric constant tensor:
#      x y z
#    x 1.967860 0.000000 0.018710 
#    y 0.000000 1.917460 0.000000 
#    z 0.018710 0.000000 1.958460 
# 
# From -- ./inp_files/211331.got.cif
#   From: 2010.05.17/outbox.cif.g08.bks.cpg/sg12_106_cif.got.tgz:211331.got - 2010.06.03 13:09:07.
