data_PCOD9213282
_publ_section_title
;
Structure prediction by ZEFSAII (Michael W. Deem and Ramdas Pophale) SiO2 
 PCOD9213282
Probable space group: C 2/M
;
_chemical_formula_sum "Si O2"
_cell_formula_units_Z 56
_cell_length_a 25.646668
_cell_length_b 18.454090
_cell_length_c 7.674879
_cell_angle_alpha 90.000000
_cell_angle_beta 139.729750
_cell_angle_gamma 90.000000
_cell_volume 2347.968295
_symmetry_space_group_name_H-M "C 2/M"
_symmetry_group_IT_number 12
_symmetry_cell_setting 'monoclinic'
loop_
_space_group_symop_operation_xyz
x,y,z
-x,y,-z
-x,-y,-z
x,-y,z
1/2+x,1/2+y,z
1/2-x,1/2+y,-z
1/2-x,1/2-y,-z
1/2+x,1/2-y,z
loop_
_atom_site_type_symbol
_atom_site_label
_atom_site_fract_x
_atom_site_fract_y
_atom_site_fract_z
Si Si1 0.344720 0.132601 0.884920
Si Si2 0.347790 0.158082 0.509892
Si Si3 0.694781 0.725839 0.018110
Si Si4 0.945824 0.209258 0.697317
Si Si5 0.842785 0.916328 0.625390
Si Si6 0.936491 0.500000 0.104357
Si Si7 0.383037 0.000000 0.559183
Si Si8 0.067204 0.879699 0.784622
O O1 0.381865 0.150747 0.790813
O O2 0.343366 0.204258 0.993941
O O3 0.252865 0.102497 0.624880
O O4 0.400572 0.070208 0.104529
O O5 0.260389 0.192775 0.317153
O O6 0.398473 0.217179 0.532297
O O7 0.341303 0.077304 0.415602
O O8 0.750000 0.750000 0.000000
O O9 0.632702 0.660752 0.830862
O O10 0.888056 0.143794 0.621330
O O11 0.009968 0.181159 0.723217
O O12 0.000000 0.228191 0.000000
O O13 0.853681 0.000000 0.593832
O O14 0.883933 0.912136 0.924698
O O15 0.031028 0.500000 0.315913
O O16 0.898538 0.500000 0.809390
O O17 0.000000 0.922387 0.500000
#
# Coordination Sequence:
#
# PCOD9213282 Si02
#       8
#     8   8   8   8   8   4   4   8
#     4  11  20  38  67  99 126 169 214 271 324 394
#     4  11  21  39  65  96 130 167 218 264 328 400
#     4  12  25  42  67  91 127 174 225 272 324 396
#     4  10  22  37  62  95 127 167 215 270 326 391
#     4  11  22  41  69  96 129 168 219 275 331 394
#     4   9  20  36  61 105 135 159 207 269 340 399
#     4   9  22  34  63 103 138 163 200 275 342 395
#     4  11  25  42  61  92 131 170 219 274 334 388
#
# _framework density 23.850404999999999
#
# number of rings (size 3 to 8) (size 9 to 14) (size 15 to 20)
#    0.000    1.286    3.571    3.000    6.000    2.857 
#    0.000    0.714    0.000    0.857    0.000    0.000 
#    0.000    0.000    0.000    0.000    0.000    0.000 
#
# Total GULP energy -156374.182417 kJ/mol
# GULP energy per Si atom -5584.792229 kJ/mol
# Density = 2.379612 g / cm^3
# Si number density = 23.850405 Si / 1000 Ang^3
#
#
#
# Elastic Constant Matrix: (Units=GPa)
#
#
# Indices 1 2 3 4 5 6 
#
# 1 81.0427 47.1520 -2.9155 0.0000 9.9393 0.0000
# 2 47.1520 181.4320 12.3755 0.0000 12.6168 0.0000
# 3 -2.9155 12.3755 44.0157 0.0000 -2.8790 0.0000
# 4 0.0000 0.0000 0.0000 -1.2414 0.0000 6.8529
# 5 9.9393 12.6168 -2.8790 0.0000 30.2990 0.0000
# 6 0.0000 0.0000 0.0000 6.8529 0.0000 13.7221
#
#
#
# Elastic Compliance Matrix: (Units=1/GPa)
#
#
# Indices 1 2 3 4 5 6 
#
# 1 0.015009 -0.003808 0.001858 0.000000 -0.003162 0.000000
# 2 -0.003808 0.006781 -0.002276 0.000000 -0.001791 0.000000
# 3 0.001858 -0.002276 0.023651 0.000000 0.002586 0.000000
# 4 0.000000 0.000000 0.000000 -0.214416 0.000000 0.107081
# 5 -0.003162 -0.001791 0.002586 0.000000 0.035033 0.000000
# 6 0.000000 0.000000 0.000000 0.107081 0.000000 0.019398
#
#
# Mechanical properties :
#
#
# Convention : Reuss Voigt Hill
#
# Bulk Modulus (GPa) = 27.03419 46.63494 36.83457
# Shear Modulus (GPa) = -53.32614 25.21449 -14.05582
#
# Velocity S-wave (km/s) = -4.73362 3.25498 -2.43025
# Velocity P-wave (km/s) = 4.30310 5.80707 2.75730
#
# Compressibility (1/GPa) = 0.03699019
#
# Stress axis : x y z
#
# Youngs Moduli (GPa) = 66.62653 147.47039 42.28111
#
# Poissons Ratio (x) = 0.56150 -0.07855
# Poissons Ratio (y) = 0.25368 0.09623
# Poissons Ratio (z) = -0.12379 0.33563
#
# Static dielectric constant tensor:
#      x y z
#    x 1.895820 0.000000 -0.051670 
#    y 0.000000 1.916240 0.000000 
#    z -0.051670 0.000000 2.139510 
# 
# From -- ./inp_files/106067.got.cif
#   From: 2010.05.17/outbox.cif.g08.bks.cpg/sg12_54_cif.got.tgz:106067.got - 2010.06.03 13:09:07.
