data_PCOD9213543
_publ_section_title
;
Structure prediction by ZEFSAII (Michael W. Deem and Ramdas Pophale) SiO2 
 PCOD9213543
Probable space group: C 2/M
;
_chemical_formula_sum "Si O2"
_cell_formula_units_Z 44
_cell_length_a 15.466629
_cell_length_b 24.155402
_cell_length_c 6.069270
_cell_angle_alpha 90.000000
_cell_angle_beta 115.649932
_cell_angle_gamma 90.000000
_cell_volume 2044.046407
_symmetry_space_group_name_H-M "C 2/M"
_symmetry_group_IT_number 12
_symmetry_cell_setting 'monoclinic'
loop_
_space_group_symop_operation_xyz
x,y,z
-x,y,-z
-x,-y,-z
x,-y,z
1/2+x,1/2+y,z
1/2-x,1/2+y,-z
1/2-x,1/2-y,-z
1/2+x,1/2-y,z
loop_
_atom_site_type_symbol
_atom_site_label
_atom_site_fract_x
_atom_site_fract_y
_atom_site_fract_z
Si Si1 0.287553 0.436488 0.157701
Si Si2 0.907429 0.435879 0.767587
Si Si3 0.399946 0.765828 0.257451
Si Si4 0.500000 0.706721 0.000000
Si Si5 0.296359 0.132253 0.311311
Si Si6 0.643422 0.337498 0.498706
O O1 0.319825 0.500000 0.186258
O O2 0.185591 0.435069 0.175898
O O3 0.355397 0.394102 0.362499
O O4 0.266764 0.411239 0.895037
O O5 0.925262 0.500000 0.725388
O O6 0.881379 0.400170 0.526893
O O7 0.000000 0.414858 0.000000
O O8 0.500000 0.775967 0.500000
O O9 0.423786 0.745572 0.039165
O O10 0.337149 0.820489 0.199312
O O11 0.351595 0.714764 0.333424
O O12 0.550037 0.671070 0.244456
O O13 0.232434 0.160071 0.430133
#
# Coordination Sequence:
#
# PCOD9213543 Si02
#       6
#     8   8   8   4   8   8
#     4  10  22  38  60  90 123 158 205 253 300 361
#     4   9  20  37  57  85 124 167 211 247 286 351
#     4  10  23  39  60  93 124 160 200 250 299 369
#     4  10  22  42  65  86 123 158 202 256 312 360
#     4  11  22  37  63  91 126 164 200 246 308 355
#     4  10  22  42  62  88 122 162 202 251 307 363
#
# _framework density 21.525931
#
# number of rings (size 3 to 8) (size 9 to 14) (size 15 to 20)
#    0.000    2.000    0.000    2.182    2.545    9.455 
#    1.636    3.182    0.000   10.364    0.000    0.000 
#    0.000    0.000    0.000    0.000    0.000    0.000 
#
# Total GULP energy -123095.592918 kJ/mol
# GULP energy per Si atom -5595.254224 kJ/mol
# Density = 2.147694 g / cm^3
# Si number density = 21.525931 Si / 1000 Ang^3
#
#
#
# Elastic Constant Matrix: (Units=GPa)
#
#
# Indices 1 2 3 4 5 6 
#
# 1 36.9205 30.7861 19.1211 0.0000 -7.6772 0.0000
# 2 30.7861 115.3890 42.0076 0.0000 -10.1972 0.0000
# 3 19.1211 42.0076 93.6479 0.0000 -9.1306 0.0000
# 4 0.0000 0.0000 0.0000 24.1029 0.0000 3.5813
# 5 -7.6772 -10.1972 -9.1306 0.0000 23.1896 0.0000
# 6 0.0000 0.0000 0.0000 3.5813 0.0000 12.1414
#
#
#
# Elastic Compliance Matrix: (Units=1/GPa)
#
#
# Indices 1 2 3 4 5 6 
#
# 1 0.037009 -0.008043 -0.003223 0.000000 0.007447 0.000000
# 2 -0.008043 0.012288 -0.003746 0.000000 0.001266 0.000000
# 3 -0.003223 -0.003746 0.013261 0.000000 0.002507 0.000000
# 4 0.000000 0.000000 0.000000 0.043391 0.000000 -0.012799
# 5 0.007447 0.001266 0.002507 0.000000 0.047132 0.000000
# 6 0.000000 0.000000 0.000000 -0.012799 0.000000 0.086138
#
#
# Mechanical properties :
#
#
# Convention : Reuss Voigt Hill
#
# Bulk Modulus (GPa) = 30.73661 47.75412 39.24536
# Shear Modulus (GPa) = 17.85155 22.15628 20.00391
#
# Velocity S-wave (km/s) = 2.88289 3.21172 3.05174
# Velocity P-wave (km/s) = 5.03898 5.99885 5.53974
#
# Compressibility (1/GPa) = 0.03253449
#
# Stress axis : x y z
#
# Youngs Moduli (GPa) = 27.02022 81.38073 75.40744
#
# Poissons Ratio (x) = 0.65453 0.24302
# Poissons Ratio (y) = 0.21732 0.28251
# Poissons Ratio (z) = 0.08708 0.30488
#
# Static dielectric constant tensor:
#      x y z
#    x 1.791280 0.000000 0.012880 
#    y 0.000000 1.754340 0.000000 
#    z 0.012880 0.000000 1.772370 
# 
# From -- ./inp_files/17030.got.cif
#   From: 2010.05.17/outbox.cif.g08.bks.cpg/sg12_9_cif.got.tgz:17030.got - 2010.06.03 13:09:07.
