data_PCOD9213698
_publ_section_title
;
Structure prediction by ZEFSAII (Michael W. Deem and Ramdas Pophale) SiO2 
 PCOD9213698
Probable space group: C 2/M
;
_chemical_formula_sum "Si O2"
_cell_formula_units_Z 56
_cell_length_a 12.284127
_cell_length_b 18.170755
_cell_length_c 14.767520
_cell_angle_alpha 90.000000
_cell_angle_beta 61.174760
_cell_angle_gamma 90.000000
_cell_volume 2887.857297
_symmetry_space_group_name_H-M "C 2/M"
_symmetry_group_IT_number 12
_symmetry_cell_setting 'monoclinic'
loop_
_space_group_symop_operation_xyz
x,y,z
-x,y,-z
-x,-y,-z
x,-y,z
1/2+x,1/2+y,z
1/2-x,1/2+y,-z
1/2-x,1/2-y,-z
1/2+x,1/2-y,z
loop_
_atom_site_type_symbol
_atom_site_label
_atom_site_fract_x
_atom_site_fract_y
_atom_site_fract_z
Si Si1 0.353285 0.087366 0.063128
Si Si2 0.245513 0.085364 0.638333
Si Si3 0.743632 0.690077 0.262386
Si Si4 0.690577 0.327977 0.995257
Si Si5 0.723207 0.168306 0.551077
Si Si6 0.454293 0.200157 0.616842
Si Si7 0.093268 0.828160 0.831797
O O1 0.284308 0.133182 0.169821
O O2 0.281510 0.111079 0.000775
O O3 0.345811 0.000000 0.080929
O O4 0.500000 0.108060 0.000000
O O5 0.227721 0.111322 0.542444
O O6 0.357404 0.136061 0.630964
O O7 0.130598 0.108878 0.746577
O O8 0.273587 0.000000 0.632926
O O9 0.726875 0.657010 0.368798
O O10 0.618271 0.737853 0.297506
O O11 0.854088 0.750678 0.226123
O O12 0.552447 0.329385 0.092075
O O13 0.750000 0.250000 0.000000
O O14 0.666767 0.336510 0.897745
O O15 0.750000 0.250000 0.500000
O O16 0.573836 0.165919 0.615477
O O17 0.500000 0.229800 0.500000
#
# Coordination Sequence:
#
# PCOD9213698 Si02
#       7
#     8   8   8   8   8   8   8
#     4  11  26  44  61  89 129 165 203 253 311 372
#     4  10  22  39  58  89 128 160 198 249 309 366
#     4  11  21  37  62  90 121 157 204 247 300 364
#     4  11  22  40  66  92 121 156 209 261 311 367
#     4  11  20  36  59  89 123 159 201 248 299 354
#     4   9  19  35  58  88 117 155 200 254 297 347
#     4  10  22  38  64  98 117 157 208 263 308 365
#
# _framework density 19.391539000000002
#
# number of rings (size 3 to 8) (size 9 to 14) (size 15 to 20)
#    0.000    1.571    5.714    0.857    2.000    6.571 
#    0.000    2.857    0.000    0.429    0.000    0.000 
#    0.000    0.000    0.000    0.000    0.000    0.000 
#
# Total GULP energy -156315.802754 kJ/mol
# GULP energy per Si atom -5582.707241 kJ/mol
# Density = 1.934740 g / cm^3
# Si number density = 19.391539 Si / 1000 Ang^3
#
#
#
# Elastic Constant Matrix: (Units=GPa)
#
#
# Indices 1 2 3 4 5 6 
#
# 1 77.1955 20.2133 42.8501 0.0000 2.1460 0.0000
# 2 20.2133 95.3868 52.4958 0.0000 -1.3265 0.0000
# 3 42.8501 52.4958 120.8123 0.0000 -3.1436 0.0000
# 4 0.0000 0.0000 0.0000 24.1553 0.0000 3.6385
# 5 2.1460 -1.3265 -3.1436 0.0000 28.8065 0.0000
# 6 0.0000 0.0000 0.0000 3.6385 0.0000 17.3728
#
#
#
# Elastic Compliance Matrix: (Units=1/GPa)
#
#
# Indices 1 2 3 4 5 6 
#
# 1 0.016236 -0.000356 -0.005652 0.000000 -0.001843 0.000000
# 2 -0.000356 0.013786 -0.005864 0.000000 0.000021 0.000000
# 3 -0.005652 -0.005864 0.012870 0.000000 0.001556 0.000000
# 4 0.000000 0.000000 0.000000 0.042747 0.000000 -0.008953
# 5 -0.001843 0.000021 0.001556 0.000000 0.035022 0.000000
# 6 0.000000 0.000000 0.000000 -0.008953 0.000000 0.059436
#
#
# Mechanical properties :
#
#
# Convention : Reuss Voigt Hill
#
# Bulk Modulus (GPa) = 52.21991 58.27924 55.24958
# Shear Modulus (GPa) = 23.78406 25.92261 24.85333
#
# Velocity S-wave (km/s) = 3.50597 3.66019 3.58391
# Velocity P-wave (km/s) = 6.58610 6.92690 6.75865
#
# Compressibility (1/GPa) = 0.01914978
#
# Stress axis : x y z
#
# Youngs Moduli (GPa) = 61.59227 72.53508 77.69737
#
# Poissons Ratio (x) = 0.02579 0.43915
# Poissons Ratio (y) = 0.02190 0.45561
# Poissons Ratio (z) = 0.34812 0.42534
#
# Static dielectric constant tensor:
#      x y z
#    x 1.710200 0.000000 -0.003530 
#    y 0.000000 1.648490 0.000000 
#    z -0.003530 0.000000 1.715450 
# 
# From -- ./inp_files/206579.got.cif
#   From: 2010.05.17/outbox.cif.g08.bks.cpg/sg12_104_cif.got.tgz:206579.got - 2010.06.03 13:09:07.
