data_PCOD9213308
_publ_section_title
;
Structure prediction by ZEFSAII (Michael W. Deem and Ramdas Pophale) SiO2 
 PCOD9213308
Probable space group: C 2/M
;
_chemical_formula_sum "Si O2"
_cell_formula_units_Z 20
_cell_length_a 11.252731
_cell_length_b 10.223613
_cell_length_c 13.343998
_cell_angle_alpha 90.000000
_cell_angle_beta 148.247458
_cell_angle_gamma 90.000000
_cell_volume 807.870551
_symmetry_space_group_name_H-M "C 2/M"
_symmetry_group_IT_number 12
_symmetry_cell_setting 'monoclinic'
loop_
_space_group_symop_operation_xyz
x,y,z
-x,y,-z
-x,-y,-z
x,-y,z
1/2+x,1/2+y,z
1/2-x,1/2+y,-z
1/2-x,1/2-y,-z
1/2+x,1/2-y,z
loop_
_atom_site_type_symbol
_atom_site_label
_atom_site_fract_x
_atom_site_fract_y
_atom_site_fract_z
Si Si1 0.507068 0.000000 0.717897
Si Si2 0.341759 0.500000 0.789426
Si Si3 0.526021 0.500000 0.636761
Si Si4 0.526220 0.281169 0.273928
O O1 0.600553 0.000000 0.671944
O O2 0.237207 0.000000 0.520561
O O3 0.574855 0.137110 0.818935
O O4 0.398541 0.371100 0.764877
O O5 0.500000 0.500000 0.000000
O O6 0.500000 0.500000 0.500000
O O7 0.623538 0.370290 0.758195
O O8 0.750000 0.250000 0.500000
#
# Coordination Sequence:
#
# PCOD9213308 Si02
#       4
#     4   4   4   8
#     4  10  22  37  65  87 126 165 211 255 318 362
#     4  11  25  44  62  89 135 173 203 253 321 384
#     4   9  19  34  60  96 126 153 207 270 313 362
#     4   9  21  38  63  95 120 159 216 263 310 364
#
# _framework density 24.756440000000001
#
# number of rings (size 3 to 8) (size 9 to 14) (size 15 to 20)
#    0.000    2.400    0.000    1.200   11.200   12.800 
#    0.000    1.000    0.000    0.000    0.000    0.000 
#    0.000    0.000    0.000    0.000    0.000    0.000 
#
# Total GULP energy -55782.501078 kJ/mol
# GULP energy per Si atom -5578.250108 kJ/mol
# Density = 2.470009 g / cm^3
# Si number density = 24.756440 Si / 1000 Ang^3
#
#
#
# Elastic Constant Matrix: (Units=GPa)
#
#
# Indices 1 2 3 4 5 6 
#
# 1 153.4298 75.0348 49.3749 0.0005 -39.4139 0.0003
# 2 75.0348 299.9474 24.8358 0.0005 -50.4568 0.0005
# 3 49.3749 24.8358 89.7612 0.0005 -32.1195 0.0008
# 4 0.0005 0.0005 0.0005 17.2906 0.0005 -20.0223
# 5 -39.4139 -50.4568 -32.1195 0.0005 49.5543 0.0005
# 6 0.0003 0.0005 0.0008 -20.0223 0.0005 29.5801
#
#
#
# Elastic Compliance Matrix: (Units=1/GPa)
#
#
# Indices 1 2 3 4 5 6 
#
# 1 0.009248 -0.001405 -0.003357 -0.000001 0.003750 -0.000001
# 2 -0.001405 0.004251 0.000971 -0.000002 0.003840 -0.000001
# 3 -0.003357 0.000971 0.015776 -0.000006 0.008544 -0.000004
# 4 -0.000001 -0.000002 -0.000006 0.267536 -0.000011 0.181091
# 5 0.003750 0.003840 0.008544 -0.000011 0.032610 -0.000008
# 6 -0.000001 -0.000001 -0.000004 0.181091 -0.000008 0.156384
#
#
# Mechanical properties :
#
#
# Convention : Reuss Voigt Hill
#
# Bulk Modulus (GPa) = 46.09721 93.51438 69.80580
# Shear Modulus (GPa) = 9.98765 45.54450 27.76608
#
# Velocity S-wave (km/s) = 2.01075 4.29383 3.35262
# Velocity P-wave (km/s) = 4.90424 7.90180 6.57609
#
# Compressibility (1/GPa) = 0.02169329
#
# Stress axis : x y z
#
# Youngs Moduli (GPa) = 108.13063 235.24035 63.38812
#
# Poissons Ratio (x) = 0.33047 0.21277
# Poissons Ratio (y) = 0.15190 -0.06153
# Poissons Ratio (z) = 0.36296 -0.22835
#
# Static dielectric constant tensor:
#      x y z
#    x 2.030560 0.000000 0.070730 
#    y 0.000000 2.252910 0.000000 
#    z 0.070730 0.000000 2.196820 
# 
# From -- ./inp_files/35356.got.cif
#   From: 2010.05.17/outbox.cif.g08.bks.cpg/sg12_18_cif.got.tgz:35356.got - 2010.06.03 13:09:07.
