data_PCOD9213616
_publ_section_title
;
Structure prediction by ZEFSAII (Michael W. Deem and Ramdas Pophale) SiO2 
 PCOD9213616
Probable space group: C 2/M
;
_chemical_formula_sum "Si O2"
_cell_formula_units_Z 52
_cell_length_a 11.683815
_cell_length_b 20.186119
_cell_length_c 20.775359
_cell_angle_alpha 90.000000
_cell_angle_beta 35.146610
_cell_angle_gamma 90.000000
_cell_volume 2820.720839
_symmetry_space_group_name_H-M "C 2/M"
_symmetry_group_IT_number 12
_symmetry_cell_setting 'monoclinic'
loop_
_space_group_symop_operation_xyz
x,y,z
-x,y,-z
-x,-y,-z
x,-y,z
1/2+x,1/2+y,z
1/2-x,1/2+y,-z
1/2-x,1/2-y,-z
1/2+x,1/2-y,z
loop_
_atom_site_type_symbol
_atom_site_label
_atom_site_fract_x
_atom_site_fract_y
_atom_site_fract_z
Si Si1 0.912049 0.829566 0.307003
Si Si2 0.701316 0.074378 0.303889
Si Si3 0.117061 0.681488 0.736046
Si Si4 0.000000 0.110857 0.500000
Si Si5 0.704267 0.358722 0.868478
Si Si6 0.348785 0.203236 0.128326
Si Si7 0.275142 0.573543 0.477258
O O1 0.796330 0.873629 0.308711
O O2 0.879049 0.753104 0.301833
O O3 0.843613 0.861808 0.405932
O O4 0.149314 0.834562 0.199709
O O5 0.781405 0.091596 0.197007
O O6 0.462870 0.079458 0.410335
O O7 0.752016 0.000000 0.300279
O O8 0.324828 0.649645 0.618328
O O9 0.100496 0.686244 0.821177
O O10 0.917608 0.642317 0.806320
O O11 0.878600 0.074678 0.499281
O O12 0.685297 0.282486 0.853947
O O13 0.500000 0.372375 0.000000
O O14 0.500000 0.191449 0.000000
O O15 0.319432 0.500000 0.428010
#
# Coordination Sequence:
#
# PCOD9213616 Si02
#       7
#     8   8   8   4   8   8   8
#     4  11  23  38  63  90 121 157 201 250 309 360
#     4  11  23  40  59  86 121 162 208 246 296 362
#     4  11  23  38  64  96 124 157 198 257 316 361
#     4  12  23  40  64  94 127 154 204 256 312 368
#     4  10  22  38  62  89 121 157 205 248 304 360
#     4  10  22  39  64  93 121 159 200 253 310 364
#     4  11  24  42  62  86 122 168 206 245 297 368
#
# _framework density 18.435003999999999
#
# number of rings (size 3 to 8) (size 9 to 14) (size 15 to 20)
#    0.000    1.231    4.615    1.154    4.308    4.000 
#    0.000    0.000    0.000    1.846    0.000    0.000 
#    0.000    0.000    0.000    0.000    0.000    0.000 
#
# Total GULP energy -144868.405725 kJ/mol
# GULP energy per Si atom -5571.861759 kJ/mol
# Density = 1.839305 g / cm^3
# Si number density = 18.435004 Si / 1000 Ang^3
#
#
#
# Elastic Constant Matrix: (Units=GPa)
#
#
# Indices 1 2 3 4 5 6 
#
# 1 92.9215 16.3874 14.1502 0.2659 9.2018 -0.0659
# 2 16.3874 47.7804 25.9207 0.2057 1.7789 -0.0458
# 3 14.1502 25.9207 82.5988 0.7270 8.2762 -0.2107
# 4 0.2659 0.2057 0.7270 -269.3231 -0.3346 90.1557
# 5 9.2018 1.7789 8.2762 -0.3346 25.9753 0.1007
# 6 -0.0659 -0.0458 -0.2107 90.1557 0.1007 -39.3787
#
#
#
# Elastic Compliance Matrix: (Units=1/GPa)
#
#
# Indices 1 2 3 4 5 6 
#
# 1 0.011858 -0.003651 -0.000506 0.000020 -0.003789 0.000023
# 2 -0.003651 0.026365 -0.007847 0.000002 0.001988 0.000027
# 3 -0.000506 -0.007847 0.015065 0.000052 -0.004083 0.000038
# 4 0.000020 0.000002 0.000052 -0.015894 -0.000087 -0.036389
# 5 -0.003789 0.001988 -0.004083 -0.000087 0.041004 -0.000069
# 6 0.000023 0.000027 0.000038 -0.036389 -0.000069 -0.108705
#
#
# Mechanical properties :
#
#
# Convention : Reuss Voigt Hill
#
# Bulk Modulus (GPa) = 34.15543 37.35748 35.75646
# Shear Modulus (GPa) = 1444.56556 -45.42248 699.57154
#
# Velocity S-wave (km/s) = 28.02321 -4.96918 19.50138
# Velocity P-wave (km/s) = 32.64406 3.55179 22.94580
#
# Compressibility (1/GPa) = 0.02927792
#
# Stress axis : x y z
#
# Youngs Moduli (GPa) = 84.33132 37.92975 66.38047
#
# Poissons Ratio (x) = 0.13850 0.03359
# Poissons Ratio (y) = 0.30793 0.52090
# Poissons Ratio (z) = 0.04267 0.29764
#
# Static dielectric constant tensor:
#      x y z
#    x 1.652090 0.000000 0.014230 
#    y 0.000000 1.622440 0.000000 
#    z 0.014230 0.000000 1.639640 
# 
# From -- ./inp_files/133085.got.cif
#   From: 2010.05.17/outbox.cif.g08.bks.cpg/sg12_67_cif.got.tgz:133085.got - 2010.06.03 13:09:07.
