data_PCOD9213375
_publ_section_title
;
Structure prediction by ZEFSAII (Michael W. Deem and Ramdas Pophale) SiO2 
 PCOD9213375
Probable space group: C 2/M
;
_chemical_formula_sum "Si O2"
_cell_formula_units_Z 52
_cell_length_a 17.022482
_cell_length_b 7.601450
_cell_length_c 20.497809
_cell_angle_alpha 90.000000
_cell_angle_beta 51.393977
_cell_angle_gamma 90.000000
_cell_volume 2072.672471
_symmetry_space_group_name_H-M "C 2/M"
_symmetry_group_IT_number 12
_symmetry_cell_setting 'monoclinic'
loop_
_space_group_symop_operation_xyz
x,y,z
-x,y,-z
-x,-y,-z
x,-y,z
1/2+x,1/2+y,z
1/2-x,1/2+y,-z
1/2-x,1/2-y,-z
1/2+x,1/2-y,z
loop_
_atom_site_type_symbol
_atom_site_label
_atom_site_fract_x
_atom_site_fract_y
_atom_site_fract_z
Si Si1 0.059111 0.803311 0.388713
Si Si2 0.806285 0.500000 0.643923
Si Si3 0.088616 0.287383 0.113357
Si Si4 0.681863 0.207124 0.200536
Si Si5 0.859699 0.792645 0.415070
Si Si6 0.112568 0.287325 0.958554
Si Si7 0.636540 0.199592 0.733583
O O1 0.108191 0.655103 0.406971
O O2 0.124799 0.800434 0.288025
O O3 0.947171 0.760169 0.421576
O O4 0.065116 0.000000 0.412621
O O5 0.720792 0.345017 0.699663
O O6 0.097925 0.500000 0.109332
O O7 0.141177 0.225653 0.152093
O O8 0.133481 0.224574 0.021725
O O9 0.969775 0.251233 0.178979
O O10 0.658129 0.000000 0.222422
O O11 0.801349 0.226201 0.134732
O O12 0.750000 0.750000 0.500000
O O13 0.880216 0.696749 0.336340
O O14 0.860427 0.000000 0.399106
O O15 0.113655 0.500000 0.957164
O O16 0.000000 0.230875 0.000000
O O17 0.663744 0.000000 0.740301
#
# Coordination Sequence:
#
# PCOD9213375 Si02
#       7
#     8   4   8   8   8   8   8
#     4  11  25  44  70 104 140 186 234 288 351 417
#     4  12  26  44  69 109 150 180 232 284 360 419
#     4   9  20  38  63  90 132 178 228 287 348 403
#     4  11  21  38  62  92 130 175 233 288 345 407
#     4  11  24  45  76 111 140 183 239 287 344 416
#     4  10  22  38  56  86 127 178 230 284 349 408
#     4  11  23  44  72 104 143 187 231 289 351 418
#
# _framework density 25.088383
#
# number of rings (size 3 to 8) (size 9 to 14) (size 15 to 20)
#    0.000    1.385    3.077    1.846    4.308    0.308 
#    2.769    1.538    0.000    2.769    0.000    0.000 
#    0.000    0.000    0.000    0.000    0.000    0.000 
#
# Total GULP energy -145217.677741 kJ/mol
# GULP energy per Si atom -5585.295298 kJ/mol
# Density = 2.503128 g / cm^3
# Si number density = 25.088383 Si / 1000 Ang^3
#
#
#
# Elastic Constant Matrix: (Units=GPa)
#
#
# Indices 1 2 3 4 5 6 
#
# 1 50.3459 45.3025 43.8939 -0.0001 -15.0103 0.0005
# 2 45.3025 135.5075 26.9480 -0.0001 -14.3882 0.0012
# 3 43.8939 26.9480 153.1179 0.0000 -3.2032 0.0000
# 4 -0.0001 -0.0001 0.0000 20.3639 0.0000 -13.6090
# 5 -15.0103 -14.3882 -3.2032 0.0000 52.8069 -0.0001
# 6 0.0005 0.0012 0.0000 -13.6090 -0.0001 33.2089
#
#
#
# Elastic Compliance Matrix: (Units=1/GPa)
#
#
# Indices 1 2 3 4 5 6 
#
# 1 0.040052 -0.010674 -0.009438 0.000000 0.007904 0.000000
# 2 -0.010674 0.010710 0.001174 0.000000 -0.000045 0.000000
# 3 -0.009438 0.001174 0.008992 0.000000 -0.001817 0.000000
# 4 0.000000 0.000000 0.000000 0.067627 0.000000 0.027714
# 5 0.007904 -0.000045 -0.001817 0.000000 0.021061 0.000000
# 6 0.000000 0.000000 0.000000 0.027714 0.000000 0.041469
#
#
# Mechanical properties :
#
#
# Convention : Reuss Voigt Hill
#
# Bulk Modulus (GPa) = 45.70707 63.47337 54.59022
# Shear Modulus (GPa) = 21.26934 36.13105 28.70019
#
# Velocity S-wave (km/s) = 2.91482 3.79905 3.38592
# Velocity P-wave (km/s) = 5.43932 6.67821 6.09035
#
# Compressibility (1/GPa) = 0.02187845
#
# Stress axis : x y z
#
# Youngs Moduli (GPa) = 24.96746 93.37111 111.21299
#
# Poissons Ratio (x) = 0.99665 1.04960
# Poissons Ratio (y) = 0.26650 -0.13057
# Poissons Ratio (z) = 0.23564 -0.10962
#
# Static dielectric constant tensor:
#      x y z
#    x 2.085800 0.000000 0.027810 
#    y 0.000000 1.950680 0.000000 
#    z 0.027810 0.000000 1.976200 
# 
# From -- ./inp_files/362652.got.cif
#   From: 2010.05.17/outbox.cif.g08.bks.cpg/sg12_182_cif.got.tgz:362652.got - 2010.06.03 13:09:07.
