data_PCOD9213856
_publ_section_title
;
Structure prediction by ZEFSAII (Michael W. Deem and Ramdas Pophale) SiO2 
 PCOD9213856
Probable space group: C 2/M
;
_chemical_formula_sum "Si O2"
_cell_formula_units_Z 48
_cell_length_a 19.182918
_cell_length_b 17.291432
_cell_length_c 11.055481
_cell_angle_alpha 90.000000
_cell_angle_beta 35.969837
_cell_angle_gamma 90.000000
_cell_volume 2153.907759
_symmetry_space_group_name_H-M "C 2/M"
_symmetry_group_IT_number 12
_symmetry_cell_setting 'monoclinic'
loop_
_space_group_symop_operation_xyz
x,y,z
-x,y,-z
-x,-y,-z
x,-y,z
1/2+x,1/2+y,z
1/2-x,1/2+y,-z
1/2-x,1/2-y,-z
1/2+x,1/2-y,z
loop_
_atom_site_type_symbol
_atom_site_label
_atom_site_fract_x
_atom_site_fract_y
_atom_site_fract_z
Si Si1 0.607659 0.851719 0.937900
Si Si2 0.725838 0.129797 0.324303
Si Si3 0.544867 0.917265 0.276185
Si Si4 0.623862 0.241786 0.286383
Si Si5 0.914784 0.183765 0.902268
Si Si6 0.694712 0.667731 0.530568
O O1 0.726708 0.859869 0.692764
O O2 0.500000 0.867154 0.000000
O O3 0.591636 0.906700 0.074874
O O4 0.588391 0.764388 0.016506
O O5 0.598173 0.088778 0.513398
O O6 0.687380 0.215466 0.322224
O O7 0.780477 0.121497 0.380599
O O8 0.836992 0.117981 0.077578
O O9 0.594960 0.842754 0.273020
O O10 0.584153 0.000000 0.269795
O O11 0.500000 0.278340 0.500000
O O12 0.652175 0.295390 0.130274
O O13 0.054987 0.168058 0.697327
O O14 0.750000 0.750000 0.500000
#
# Coordination Sequence:
#
# PCOD9213856 Si02
#       6
#     8   8   8   8   8   8
#     4  11  19  33  54  83 113 146 186 224 282 334
#     4  11  20  34  55  82 114 147 186 233 284 337
#     4  10  22  39  59  80 108 150 198 242 276 322
#     4   9  20  35  53  83 114 147 189 233 282 333
#     4  11  21  33  56  83 120 150 177 226 285 354
#     4  12  19  32  53  82 119 154 180 218 286 353
#
# _framework density 22.285076
#
# number of rings (size 3 to 8) (size 9 to 14) (size 15 to 20)
#    0.000    1.333    5.000    3.000    0.000    3.333 
#    0.000    0.000    0.000    3.000    0.000    1.167 
#    0.000    0.000    0.000    0.000    0.000    0.000 
#
# Total GULP energy -133647.250887 kJ/mol
# GULP energy per Si atom -5568.635454 kJ/mol
# Density = 2.223435 g / cm^3
# Si number density = 22.285076 Si / 1000 Ang^3
#
#
#
# Elastic Constant Matrix: (Units=GPa)
#
#
# Indices 1 2 3 4 5 6 
#
# 1 93.0636 0.4875 59.9798 0.0000 5.0151 0.0000
# 2 0.4875 42.3900 30.8142 0.0000 7.5079 0.0000
# 3 59.9798 30.8142 202.8877 0.0000 -0.2359 0.0000
# 4 0.0000 0.0000 0.0000 -44.2090 0.0000 -40.2643
# 5 5.0151 7.5079 -0.2359 0.0000 61.0869 0.0000
# 6 0.0000 0.0000 0.0000 -40.2643 0.0000 -30.1142
#
#
#
# Elastic Compliance Matrix: (Units=1/GPa)
#
#
# Indices 1 2 3 4 5 6 
#
# 1 0.013778 0.003465 -0.004601 0.000000 -0.001575 0.000000
# 2 0.003465 0.028061 -0.005291 0.000000 -0.003754 0.000000
# 3 -0.004601 -0.005291 0.007094 0.000000 0.001055 0.000000
# 4 0.000000 0.000000 0.000000 0.103880 0.000000 -0.138893
# 5 -0.001575 -0.003754 0.001055 0.000000 0.016965 0.000000
# 6 0.000000 0.000000 0.000000 -0.138893 0.000000 0.152500
#
#
# Mechanical properties :
#
#
# Convention : Reuss Voigt Hill
#
# Bulk Modulus (GPa) = 27.71667 57.87823 42.79745
# Shear Modulus (GPa) = 14.40267 13.82339 14.11303
#
# Velocity S-wave (km/s) = 2.54499 2.49328 2.51927
# Velocity P-wave (km/s) = 4.59350 5.85805 5.26389
#
# Compressibility (1/GPa) = 0.03607938
#
# Stress axis : x y z
#
# Youngs Moduli (GPa) = 72.58203 35.63614 140.96736
#
# Poissons Ratio (x) = -0.12348 0.64861
# Poissons Ratio (y) = -0.25151 0.74581
# Poissons Ratio (z) = 0.33396 0.18854
#
# Static dielectric constant tensor:
#      x y z
#    x 1.913430 0.000000 0.019520 
#    y 0.000000 1.804730 0.000000 
#    z 0.019520 0.000000 1.952000 
# 
# From -- ./inp_files/169602.got.cif
#   From: 2010.05.17/outbox.cif.g08.bks.cpg/sg12_85_cif.got.tgz:169602.got - 2010.06.03 13:09:07.
