data_PCOD9213378
_publ_section_title
;
Structure prediction by ZEFSAII (Michael W. Deem and Ramdas Pophale) SiO2 
 PCOD9213378
Probable space group: C 2/M
;
_chemical_formula_sum "Si O2"
_cell_formula_units_Z 28
_cell_length_a 26.262981
_cell_length_b 7.680169
_cell_length_c 13.497727
_cell_angle_alpha 90.000000
_cell_angle_beta 39.049870
_cell_angle_gamma 90.000000
_cell_volume 1715.195490
_symmetry_space_group_name_H-M "C 2/M"
_symmetry_group_IT_number 12
_symmetry_cell_setting 'monoclinic'
loop_
_space_group_symop_operation_xyz
x,y,z
-x,y,-z
-x,-y,-z
x,-y,z
1/2+x,1/2+y,z
1/2-x,1/2+y,-z
1/2-x,1/2-y,-z
1/2+x,1/2-y,z
loop_
_atom_site_type_symbol
_atom_site_label
_atom_site_fract_x
_atom_site_fract_y
_atom_site_fract_z
Si Si1 0.089168 0.000000 0.407692
Si Si2 0.212292 0.297410 0.162728
Si Si3 0.696325 0.804027 0.779192
Si Si4 0.157499 0.000000 0.517617
Si Si5 0.905273 0.000000 0.166725
O O1 0.138107 0.168643 0.296068
O O2 0.097696 0.000000 0.514111
O O3 0.000000 0.000000 0.500000
O O4 0.189801 0.500000 0.199057
O O5 0.276345 0.259790 0.153830
O O6 0.250000 0.250000 0.000000
O O7 0.638174 0.668263 0.815206
O O8 0.661348 0.000000 0.839962
O O9 0.780213 0.837546 0.591560
O O10 0.113359 0.000000 0.688153
O O11 0.000000 0.000000 0.000000
#
# Coordination Sequence:
#
# PCOD9213378 Si02
#       5
#     4   8   8   4   4
#     4  10  22  38  56  87 122 145 186 243 284 332
#     4  11  19  35  61  85 111 151 195 230 281 345
#     4   9  20  37  57  78 111 150 193 220 275 346
#     4   8  20  40  55  78 110 154 190 214 279 344
#     4  12  22  34  58  87 112 143 188 245 284 316
#
# _framework density 16.324669
#
# number of rings (size 3 to 8) (size 9 to 14) (size 15 to 20)
#    0.857    1.143    4.286    0.857    0.000    3.429 
#    0.000    0.000    0.000    0.000    0.000    0.000 
#    0.000    0.000    0.000    0.000    0.000    0.000 
#
# Total GULP energy -77987.524709 kJ/mol
# GULP energy per Si atom -5570.537479 kJ/mol
# Density = 1.628751 g / cm^3
# Si number density = 16.324669 Si / 1000 Ang^3
#
#
#
# Elastic Constant Matrix: (Units=GPa)
#
#
# Indices 1 2 3 4 5 6 
#
# 1 158.2984 76.6985 102.6901 0.0000 -0.3853 0.0000
# 2 76.6985 165.1208 54.8277 -0.0001 0.8647 0.0001
# 3 102.6901 54.8277 120.8732 0.0000 21.0917 0.0000
# 4 0.0000 -0.0001 0.0000 8.5021 0.0000 3.6888
# 5 -0.3853 0.8647 21.0917 0.0000 28.0829 0.0000
# 6 0.0000 0.0001 0.0000 3.6888 0.0000 26.8775
#
#
#
# Elastic Compliance Matrix: (Units=1/GPa)
#
#
# Indices 1 2 3 4 5 6 
#
# 1 0.018773 -0.003229 -0.016740 0.000000 0.012930 0.000000
# 2 -0.003229 0.007847 -0.000882 0.000000 0.000376 0.000000
# 3 -0.016740 -0.000882 0.026389 0.000000 -0.020022 0.000000
# 4 0.000000 0.000000 0.000000 0.125066 0.000000 -0.017164
# 5 0.012930 0.000376 -0.020022 0.000000 0.050812 0.000000
# 6 0.000000 0.000000 0.000000 -0.017164 0.000000 0.039562
#
#
# Mechanical properties :
#
#
# Convention : Reuss Voigt Hill
#
# Bulk Modulus (GPa) = 88.44516 101.41389 94.92953
# Shear Modulus (GPa) = 15.92771 26.69758 21.31265
#
# Velocity S-wave (km/s) = 3.12698 4.04841 3.61716
# Velocity P-wave (km/s) = 8.20572 9.17119 8.70186
#
# Compressibility (1/GPa) = 0.01130644
#
# Stress axis : x y z
#
# Youngs Moduli (GPa) = 53.26845 127.43954 37.89505
#
# Poissons Ratio (x) = 0.41152 0.63437
# Poissons Ratio (y) = 0.17201 0.03341
# Poissons Ratio (z) = 0.89173 0.11235
#
# Static dielectric constant tensor:
#      x y z
#    x 1.528750 0.000000 0.011130 
#    y 0.000000 1.547050 0.000000 
#    z 0.011130 0.000000 1.528190 
# 
# From -- ./inp_files/161768.got.cif
#   From: 2010.05.17/outbox.cif.g08.bks.cpg/sg12_81_cif.got.tgz:161768.got - 2010.06.03 13:09:07.
