data_PCOD9213783
_publ_section_title
;
Structure prediction by ZEFSAII (Michael W. Deem and Ramdas Pophale) SiO2 
 PCOD9213783
Probable space group: C 2/M
;
_chemical_formula_sum "Si O2"
_cell_formula_units_Z 48
_cell_length_a 9.431817
_cell_length_b 13.520463
_cell_length_c 20.318253
_cell_angle_alpha 90.000000
_cell_angle_beta 52.274331
_cell_angle_gamma 90.000000
_cell_volume 2049.377863
_symmetry_space_group_name_H-M "C 2/M"
_symmetry_group_IT_number 12
_symmetry_cell_setting 'monoclinic'
loop_
_space_group_symop_operation_xyz
x,y,z
-x,y,-z
-x,-y,-z
x,-y,z
1/2+x,1/2+y,z
1/2-x,1/2+y,-z
1/2-x,1/2-y,-z
1/2+x,1/2-y,z
loop_
_atom_site_type_symbol
_atom_site_label
_atom_site_fract_x
_atom_site_fract_y
_atom_site_fract_z
Si Si1 0.206115 0.000000 0.361774
Si Si2 0.162248 0.207843 0.325074
Si Si3 0.245725 0.888318 0.061030
Si Si4 0.317102 0.607877 0.204168
Si Si5 0.743404 0.697509 0.571270
Si Si6 0.766922 0.000000 0.491863
Si Si7 0.203773 0.167129 0.928821
O O1 0.251106 0.100284 0.309667
O O2 0.278800 0.000000 0.416830
O O3 0.986778 0.000000 0.429218
O O4 0.263833 0.295494 0.259459
O O5 0.146639 0.247856 0.404189
O O6 0.966643 0.196019 0.348359
O O7 0.301580 0.786109 0.080318
O O8 0.030844 0.889474 0.131895
O O9 0.304763 0.000000 0.062595
O O10 0.297628 0.864942 0.969976
O O11 0.270705 0.500000 0.246710
O O12 0.230319 0.617861 0.156474
O O13 0.750000 0.750000 0.500000
O O14 0.798125 0.590240 0.533181
O O15 0.000000 0.134205 0.000000
#
# Coordination Sequence:
#
# PCOD9213783 Si02
#       7
#     4   8   8   8   8   4   8
#     4   9  18  40  61  82 114 162 195 234 307 370
#     4  11  24  40  62  90 120 158 199 250 303 361
#     4   9  18  35  61  84 113 159 201 238 290 356
#     4  10  22  39  56  84 124 159 193 242 304 361
#     4  11  22  41  63  87 116 155 204 247 301 360
#     4   9  18  36  64  83 112 153 200 242 294 371
#     4   9  18  35  59  85 115 153 200 245 287 344
#
# _framework density 23.421741000000001
#
# number of rings (size 3 to 8) (size 9 to 14) (size 15 to 20)
#    0.000    2.167    1.667    1.000    3.500    2.333 
#    4.500    0.833    7.333    0.000    0.000    0.000 
#    0.000    0.000    0.000    0.000    0.000    0.000 
#
# Total GULP energy -133928.684151 kJ/mol
# GULP energy per Si atom -5580.361840 kJ/mol
# Density = 2.336843 g / cm^3
# Si number density = 23.421741 Si / 1000 Ang^3
#
#
#
# Elastic Constant Matrix: (Units=GPa)
#
#
# Indices 1 2 3 4 5 6 
#
# 1 61.8306 9.8984 8.7728 0.0000 -5.9577 0.0000
# 2 9.8984 206.8287 45.6891 0.0000 4.5030 0.0000
# 3 8.7728 45.6891 64.7972 0.0000 4.5868 0.0000
# 4 0.0000 0.0000 0.0000 29.4716 0.0000 11.6529
# 5 -5.9577 4.5030 4.5868 0.0000 21.5396 0.0000
# 6 0.0000 0.0000 0.0000 11.6529 0.0000 3.1533
#
#
#
# Elastic Compliance Matrix: (Units=1/GPa)
#
#
# Indices 1 2 3 4 5 6 
#
# 1 0.017092 -0.000402 -0.002407 0.000000 0.005324 0.000000
# 2 -0.000402 0.005739 -0.003959 0.000000 -0.000468 0.000000
# 3 -0.002407 -0.003959 0.018823 0.000000 -0.003846 0.000000
# 4 0.000000 0.000000 0.000000 -0.073577 0.000000 0.271900
# 5 0.005324 -0.000468 -0.003846 0.000000 0.048816 -0.000001
# 6 0.000000 0.000000 0.000000 0.271900 -0.000001 -0.687668
#
#
# Mechanical properties :
#
#
# Convention : Reuss Voigt Hill
#
# Bulk Modulus (GPa) = 35.56629 51.35300 43.45964
# Shear Modulus (GPa) = -7.71765 28.77264 10.52750
#
# Velocity S-wave (km/s) = -1.81720 3.50874 2.12238
# Velocity P-wave (km/s) = 3.28864 6.19580 4.96000
#
# Compressibility (1/GPa) = 0.02811651
#
# Stress axis : x y z
#
# Youngs Moduli (GPa) = 58.50627 174.24935 53.12790
#
# Poissons Ratio (x) = 0.07007 0.12790
# Poissons Ratio (y) = 0.02353 0.21033
# Poissons Ratio (z) = 0.14085 0.68985
#
# Static dielectric constant tensor:
#      x y z
#    x 1.904430 0.000000 -0.028670 
#    y 0.000000 1.849910 0.000000 
#    z -0.028670 0.000000 1.887130 
# 
# From -- ./inp_files/204473.got.cif
#   From: 2010.05.17/outbox.cif.g08.bks.cpg/sg12_103_cif.got.tgz:204473.got - 2010.06.03 13:09:07.
