data_PCOD9213291
_publ_section_title
;
Structure prediction by ZEFSAII (Michael W. Deem and Ramdas Pophale) SiO2 
 PCOD9213291
Probable space group: C 2/M
;
_chemical_formula_sum "Si O2"
_cell_formula_units_Z 48
_cell_length_a 19.359010
_cell_length_b 15.112290
_cell_length_c 16.395688
_cell_angle_alpha 90.000000
_cell_angle_beta 28.634560
_cell_angle_gamma 90.000000
_cell_volume 2298.683792
_symmetry_space_group_name_H-M "C 2/M"
_symmetry_group_IT_number 12
_symmetry_cell_setting 'monoclinic'
loop_
_space_group_symop_operation_xyz
x,y,z
-x,y,-z
-x,-y,-z
x,-y,z
1/2+x,1/2+y,z
1/2-x,1/2+y,-z
1/2-x,1/2-y,-z
1/2+x,1/2-y,z
loop_
_atom_site_type_symbol
_atom_site_label
_atom_site_fract_x
_atom_site_fract_y
_atom_site_fract_z
Si Si1 0.692264 0.823957 0.462949
Si Si2 0.687555 0.354296 0.004196
Si Si3 0.782438 0.399234 0.087781
Si Si4 0.457968 0.209580 0.221302
Si Si5 0.593979 0.500000 0.984285
Si Si6 0.931452 0.253237 0.656047
Si Si7 0.143548 0.500000 0.404271
O O1 0.642523 0.839566 0.608038
O O2 0.847921 0.778311 0.293048
O O3 0.576530 0.748954 0.557897
O O4 0.669201 0.912792 0.434153
O O5 0.742506 0.395196 0.031882
O O6 0.587328 0.269610 0.125233
O O7 0.590275 0.417644 0.049215
O O8 0.823516 0.323789 0.808878
O O9 0.774095 0.500000 0.123791
O O10 0.664111 0.334994 0.251278
O O11 0.943498 0.359021 0.931046
O O12 0.746384 0.500000 0.783695
O O13 0.500000 0.500000 0.000000
O O14 0.000000 0.282037 0.500000
O O15 0.000000 0.500000 0.500000
#
# Coordination Sequence:
#
# PCOD9213291 Si02
#       7
#     8   8   8   8   4   8   4
#     4  11  21  39  59  95 131 165 208 258 317 387
#     4  11  20  40  60  87 127 169 212 258 316 395
#     4  11  22  41  65  89 118 168 223 267 317 372
#     4  10  22  37  63  87 125 169 214 260 314 377
#     4  12  24  36  58  94 133 165 200 258 327 391
#     4  11  22  39  63  89 122 164 215 263 316 374
#     4  12  26  38  60 100 138 169 196 251 334 398
#
# _framework density 20.881513999999999
#
# number of rings (size 3 to 8) (size 9 to 14) (size 15 to 20)
#    0.000    1.000    4.167    4.500    1.167    0.333 
#    0.000    3.333    0.000    1.000    0.000    0.000 
#    0.000    0.000    0.000    0.000    0.000    0.000 
#
# Total GULP energy -133776.680067 kJ/mol
# GULP energy per Si atom -5574.028336 kJ/mol
# Density = 2.083399 g / cm^3
# Si number density = 20.881514 Si / 1000 Ang^3
#
#
#
# Elastic Constant Matrix: (Units=GPa)
#
#
# Indices 1 2 3 4 5 6 
#
# 1 61.5417 14.8162 11.3396 0.0002 -12.4854 -0.0001
# 2 14.8162 97.1751 6.7864 0.0002 -8.6666 -0.0001
# 3 11.3396 6.7864 59.2955 0.0005 -12.4773 -0.0003
# 4 0.0002 0.0002 0.0005 14.1803 -0.0002 -3.8733
# 5 -12.4854 -8.6666 -12.4773 -0.0002 44.9910 0.0002
# 6 -0.0001 -0.0001 -0.0003 -3.8733 0.0002 22.0965
#
#
#
# Elastic Compliance Matrix: (Units=1/GPa)
#
#
# Indices 1 2 3 4 5 6 
#
# 1 0.018017 -0.002233 -0.002366 0.000000 0.003913 0.000000
# 2 -0.002233 0.010785 -0.000532 0.000000 0.001311 0.000000
# 3 -0.002366 -0.000532 0.018285 0.000000 0.004312 0.000000
# 4 0.000000 0.000000 0.000000 0.074067 0.000000 0.012983
# 5 0.003913 0.001311 0.004312 0.000000 0.024761 0.000000
# 6 0.000000 0.000000 0.000000 0.012983 0.000000 0.047532
#
#
# Mechanical properties :
#
#
# Convention : Reuss Voigt Hill
#
# Bulk Modulus (GPa) = 27.15502 31.54408 29.34955
# Shear Modulus (GPa) = 23.14993 28.59158 25.87076
#
# Velocity S-wave (km/s) = 3.33323 3.70432 3.52366
# Velocity P-wave (km/s) = 5.27697 5.78230 5.53541
#
# Compressibility (1/GPa) = 0.03682561
#
# Stress axis : x y z
#
# Youngs Moduli (GPa) = 55.50425 92.72026 54.68840
#
# Poissons Ratio (x) = 0.20702 0.12942
# Poissons Ratio (y) = 0.12392 0.02907
# Poissons Ratio (z) = 0.13135 0.04929
#
# Static dielectric constant tensor:
#      x y z
#    x 1.816260 0.000000 0.064480 
#    y 0.000000 1.618230 0.000000 
#    z 0.064480 0.000000 1.756680 
# 
# From -- ./inp_files/85727.got.cif
#   From: 2010.05.17/outbox.cif.g08.bks.cpg/sg12_43_cif.got.tgz:85727.got - 2010.06.03 13:09:07.
