data_PCOD9213075
_publ_section_title
;
Structure prediction by ZEFSAII (Michael W. Deem and Ramdas Pophale) SiO2 
 PCOD9213075
Probable space group: C 2/M
;
_chemical_formula_sum "Si O2"
_cell_formula_units_Z 50
_cell_length_a 8.920202
_cell_length_b 20.912556
_cell_length_c 13.925710
_cell_angle_alpha 90.000000
_cell_angle_beta 116.545722
_cell_angle_gamma 90.000000
_cell_volume 2323.899657
_symmetry_space_group_name_H-M "C 2/M"
_symmetry_group_IT_number 12
_symmetry_cell_setting 'monoclinic'
loop_
_space_group_symop_operation_xyz
x,y,z
-x,y,-z
-x,-y,-z
x,-y,z
1/2+x,1/2+y,z
1/2-x,1/2+y,-z
1/2-x,1/2-y,-z
1/2+x,1/2-y,z
loop_
_atom_site_type_symbol
_atom_site_label
_atom_site_fract_x
_atom_site_fract_y
_atom_site_fract_z
Si Si1 0.669119 0.742906 0.579763
Si Si2 0.230193 0.617279 0.100974
Si Si3 0.042928 0.669294 0.232336
Si Si4 0.912663 0.386780 0.378748
Si Si5 0.590763 0.426859 0.184823
Si Si6 0.315773 0.313718 0.936385
Si Si7 0.500000 0.000000 0.000000
O O1 0.500000 0.705849 0.500000
O O2 0.750000 0.750000 0.500000
O O3 0.807516 0.713578 0.688086
O O4 0.621304 0.811783 0.608723
O O5 0.114006 0.639409 0.155040
O O6 0.417856 0.596491 0.182792
O O7 0.143044 0.555887 0.030145
O O8 0.257568 0.670194 0.027268
O O9 0.016682 0.616360 0.308943
O O10 0.862495 0.704403 0.165022
O O11 0.740241 0.420636 0.303736
O O12 0.000000 0.412346 0.500000
O O13 0.577185 0.500000 0.147629
O O14 0.636208 0.377826 0.111449
O O15 0.500000 0.280353 0.000000
#
# Coordination Sequence:
#
# PCOD9213075 Si02
#       7
#     8   8   8   8   8   8   2
#     4  11  22  41  67  95 115 157 212 260 313 372
#     4  11  22  34  60  91 125 162 203 254 293 364
#     4  11  21  37  63  92 122 155 205 259 311 354
#     4  10  22  41  61  89 121 157 207 253 309 377
#     4  10  22  36  61  91 123 166 203 250 308 362
#     4   9  20  37  58  90 123 162 204 241 300 364
#     4  12  20  36  58  88 134 160 214 250 296 356
#
# _framework density 21.515559
#
# number of rings (size 3 to 8) (size 9 to 14) (size 15 to 20)
#    0.000    1.600    5.600    0.000    3.360    1.280 
#    0.000    0.000    0.000   33.600    0.000    0.000 
#    0.000    0.000    0.000    0.000    0.000    0.000 
#
# Total GULP energy -139174.618673 kJ/mol
# GULP energy per Si atom -5566.984747 kJ/mol
# Density = 2.146659 g / cm^3
# Si number density = 21.515559 Si / 1000 Ang^3
#
#
#
# Elastic Constant Matrix: (Units=GPa)
#
#
# Indices 1 2 3 4 5 6 
#
# 1 152.5978 17.7561 63.8125 0.0000 13.2619 0.0000
# 2 17.7561 37.1767 19.2565 0.0000 13.3192 0.0000
# 3 63.8125 19.2565 126.2738 0.0000 21.1582 0.0000
# 4 0.0000 0.0000 0.0000 -56.2563 0.0000 73.1341
# 5 13.2619 13.3192 21.1582 0.0000 59.2565 0.0000
# 6 0.0000 0.0000 0.0000 73.1341 0.0000 -54.3568
#
#
#
# Elastic Compliance Matrix: (Units=1/GPa)
#
#
# Indices 1 2 3 4 5 6 
#
# 1 0.008441 -0.001969 -0.003960 0.000000 -0.000033 0.000000
# 2 -0.001969 0.031312 -0.002845 0.000000 -0.005582 0.000000
# 3 -0.003960 -0.002845 0.010741 0.000000 -0.002310 0.000000
# 4 0.000000 0.000000 0.000000 0.023730 0.000000 0.031927
# 5 -0.000033 -0.005582 -0.002310 0.000000 0.018962 0.000000
# 6 0.000000 0.000000 0.000000 0.031927 0.000000 0.024559
#
#
# Mechanical properties :
#
#
# Convention : Reuss Voigt Hill
#
# Bulk Modulus (GPa) = 30.35145 57.52207 43.93676
# Shear Modulus (GPa) = 34.18222 4.07689 19.12955
#
# Velocity S-wave (km/s) = 3.99020 1.37803 2.98502
# Velocity P-wave (km/s) = 5.94696 5.41527 5.68733
#
# Compressibility (1/GPa) = 0.03294736
#
# Stress axis : x y z
#
# Youngs Moduli (GPa) = 118.46860 31.93645 93.09849
#
# Poissons Ratio (x) = 0.06287 0.36867
# Poissons Ratio (y) = 0.23323 0.26486
# Poissons Ratio (z) = 0.46913 0.09086
#
# Static dielectric constant tensor:
#      x y z
#    x 1.735610 0.000000 -0.009580 
#    y 0.000000 1.810100 0.000000 
#    z -0.009580 0.000000 1.817820 
# 
# From -- ./inp_files/199451.got.cif
#   From: 2010.05.17/outbox.cif.g08.bks.cpg/sg12_100_cif.got.tgz:199451.got - 2010.06.03 13:09:07.
