data_PCOD9213425
_publ_section_title
;
Structure prediction by ZEFSAII (Michael W. Deem and Ramdas Pophale) SiO2 
 PCOD9213425
Probable space group: C 2/M
;
_chemical_formula_sum "Si O2"
_cell_formula_units_Z 58
_cell_length_a 14.509768
_cell_length_b 9.534784
_cell_length_c 24.197216
_cell_angle_alpha 90.000000
_cell_angle_beta 96.762770
_cell_angle_gamma 90.000000
_cell_volume 3324.332450
_symmetry_space_group_name_H-M "C 2/M"
_symmetry_group_IT_number 12
_symmetry_cell_setting 'monoclinic'
loop_
_space_group_symop_operation_xyz
x,y,z
-x,y,-z
-x,-y,-z
x,-y,z
1/2+x,1/2+y,z
1/2-x,1/2+y,-z
1/2-x,1/2-y,-z
1/2+x,1/2-y,z
loop_
_atom_site_type_symbol
_atom_site_label
_atom_site_fract_x
_atom_site_fract_y
_atom_site_fract_z
Si Si1 0.534058 0.167139 0.063358
Si Si2 0.098629 0.667230 0.842526
Si Si3 0.253238 0.159821 0.556442
Si Si4 0.314551 0.667529 0.860677
Si Si5 0.455790 0.710148 0.440797
Si Si6 0.052681 0.833243 0.232981
Si Si7 0.107440 0.838408 0.361276
Si Si8 0.500000 0.000000 0.500000
O O1 0.452968 0.193431 0.102660
O O2 0.624473 0.250557 0.089956
O O3 0.553060 0.000000 0.064965
O O4 0.500000 0.206949 0.000000
O O5 0.094581 0.500000 0.831636
O O6 0.206558 0.708663 0.851737
O O7 0.037550 0.748850 0.793169
O O8 0.250000 0.250000 0.500000
O O9 0.149325 0.162312 0.571662
O O10 0.320851 0.235504 0.603825
O O11 0.284953 0.000000 0.546772
O O12 0.319013 0.500000 0.871274
O O13 0.365779 0.694789 0.805778
O O14 0.500000 0.647307 0.500000
O O15 0.515825 0.670255 0.392399
O O16 0.463878 0.875417 0.454871
O O17 0.085120 0.798111 0.296949
O O18 0.033305 0.000000 0.230027
O O19 0.141450 0.000000 0.364516
#
# Coordination Sequence:
#
# PCOD9213425 Si02
#       8
#     8   8   8   8   8   8   8   2
#     4   9  18  32  50  77 114 148 183 224 267 315
#     4   9  18  34  55  78 105 145 183 223 271 313
#     4  12  25  37  58  82 109 139 174 214 265 324
#     4   9  18  34  55  77 108 142 182 225 267 315
#     4  10  22  38  58  77 110 133 173 208 268 315
#     4   9  20  38  55  78 105 138 177 222 270 316
#     4  11  24  39  59  80 110 142 176 220 272 329
#     4   8  20  36  58  80 100 134 170 212 250 324
#
# _framework density 17.447113000000002
#
# number of rings (size 3 to 8) (size 9 to 14) (size 15 to 20)
#    0.414    1.793    1.379    0.828    4.828    3.586 
#    0.000    0.000    0.000    0.000    0.000    0.000 
#    0.000    0.000    0.000    0.000    0.000    0.000 
#
# Total GULP energy -161495.667241 kJ/mol
# GULP energy per Si atom -5568.816112 kJ/mol
# Density = 1.740740 g / cm^3
# Si number density = 17.447113 Si / 1000 Ang^3
#
#
#
# Elastic Constant Matrix: (Units=GPa)
#
#
# Indices 1 2 3 4 5 6 
#
# 1 141.9461 46.8452 68.4068 0.0000 24.9237 0.0000
# 2 46.8452 96.3430 66.9423 0.0000 18.2315 0.0000
# 3 68.4068 66.9423 155.3204 0.0000 25.1529 0.0000
# 4 0.0000 0.0000 0.0000 24.8043 0.0000 3.4487
# 5 24.9237 18.2315 25.1529 0.0000 16.8748 0.0000
# 6 0.0000 0.0000 0.0000 3.4487 0.0000 16.2490
#
#
#
# Elastic Compliance Matrix: (Units=1/GPa)
#
#
# Indices 1 2 3 4 5 6 
#
# 1 0.010476 -0.001552 -0.002255 0.000000 -0.010434 0.000000
# 2 -0.001552 0.016047 -0.005004 0.000000 -0.007585 0.000000
# 3 -0.002255 -0.005004 0.010774 0.000000 -0.007322 0.000000
# 4 0.000000 0.000000 0.000000 0.041542 0.000000 -0.008817
# 5 -0.010434 -0.007585 -0.007322 0.000000 0.093781 0.000000
# 6 0.000000 0.000000 0.000000 -0.008817 0.000000 0.063413
#
#
# Mechanical properties :
#
#
# Convention : Reuss Voigt Hill
#
# Bulk Modulus (GPa) = 50.82868 84.22202 67.52535
# Shear Modulus (GPa) = 19.21501 25.67997 22.44749
#
# Velocity S-wave (km/s) = 3.32223 3.84066 3.59081
# Velocity P-wave (km/s) = 6.62665 8.24895 7.48190
#
# Compressibility (1/GPa) = 0.01967393
#
# Stress axis : x y z
#
# Youngs Moduli (GPa) = 95.45471 62.31797 92.81620
#
# Poissons Ratio (x) = 0.09674 0.20931
# Poissons Ratio (y) = 0.14818 0.46445
# Poissons Ratio (z) = 0.21526 0.31184
#
# Static dielectric constant tensor:
#      x y z
#    x 1.595830 0.000000 -0.019890 
#    y 0.000000 1.610000 0.000000 
#    z -0.019890 0.000000 1.566300 
# 
# From -- ./inp_files/338061.got.cif
#   From: 2010.05.17/outbox.cif.g08.bks.cpg/sg12_170_cif.got.tgz:338061.got - 2010.06.03 13:09:07.
