data_PCOD9213847
_publ_section_title
;
Structure prediction by ZEFSAII (Michael W. Deem and Ramdas Pophale) SiO2 
 PCOD9213847
Probable space group: C 2/M
;
_chemical_formula_sum "Si O2"
_cell_formula_units_Z 64
_cell_length_a 26.947202
_cell_length_b 8.991774
_cell_length_c 23.153139
_cell_angle_alpha 90.000000
_cell_angle_beta 34.543330
_cell_angle_gamma 90.000000
_cell_volume 3181.079015
_symmetry_space_group_name_H-M "C 2/M"
_symmetry_group_IT_number 12
_symmetry_cell_setting 'monoclinic'
loop_
_space_group_symop_operation_xyz
x,y,z
-x,y,-z
-x,-y,-z
x,-y,z
1/2+x,1/2+y,z
1/2-x,1/2+y,-z
1/2-x,1/2-y,-z
1/2+x,1/2-y,z
loop_
_atom_site_type_symbol
_atom_site_label
_atom_site_fract_x
_atom_site_fract_y
_atom_site_fract_z
Si Si1 0.699781 0.324895 0.650328
Si Si2 0.223800 0.178589 0.086320
Si Si3 0.369072 0.178636 0.041347
Si Si4 0.907249 0.323861 0.558484
Si Si5 0.621313 0.323893 0.536607
Si Si6 0.280883 0.325816 0.230614
Si Si7 0.455682 0.172552 0.751800
Si Si8 0.981198 0.673416 0.182772
O O1 0.709323 0.500000 0.630195
O O2 0.781526 0.238243 0.544783
O O3 0.703424 0.300277 0.716384
O O4 0.605729 0.265525 0.722038
O O5 0.292337 0.223547 0.070259
O O6 0.126693 0.237312 0.192957
O O7 0.224692 0.000000 0.080580
O O8 0.250000 0.250000 0.000000
O O9 0.343270 0.235591 0.128824
O O10 0.372162 0.000000 0.038468
O O11 0.461733 0.229451 0.926016
O O12 0.899288 0.500000 0.549513
O O13 0.899440 0.223231 0.509501
O O14 0.822380 0.291027 0.679224
O O15 0.000000 0.303407 0.500000
O O16 0.618274 0.500000 0.547451
O O17 0.546661 0.242516 0.644478
O O18 0.294038 0.500000 0.206453
O O19 0.456880 0.178187 0.820351
O O20 0.450497 0.000000 0.739119
O O21 0.957010 0.500000 0.196934
#
# Coordination Sequence:
#
# PCOD9213847 Si02
#       8
#     8   8   8   8   8   8   8   8
#     4  10  22  42  64  87 117 154 197 248 300 354
#     4  11  22  39  60  87 122 161 200 246 297 351
#     4  10  22  39  58  86 122 156 196 242 292 349
#     4   9  19  37  58  83 117 157 199 242 293 353
#     4  11  23  39  60  89 120 154 198 245 297 357
#     4   9  20  37  57  85 117 153 197 240 290 351
#     4  11  23  41  62  87 122 161 200 246 297 354
#     4  10  22  41  62  86 116 155 200 246 298 353
#
# _framework density 20.118959
#
# number of rings (size 3 to 8) (size 9 to 14) (size 15 to 20)
#    0.000    1.875    1.250    3.000    1.750    6.250 
#    0.000    2.500    0.000    0.000    0.000    0.000 
#    0.000    0.000    0.000    0.000    0.000    0.000 
#
# Total GULP energy -178799.811611 kJ/mol
# GULP energy per Si atom -5587.494113 kJ/mol
# Density = 2.007317 g / cm^3
# Si number density = 20.118959 Si / 1000 Ang^3
#
#
#
# Elastic Constant Matrix: (Units=GPa)
#
#
# Indices 1 2 3 4 5 6 
#
# 1 25.3857 12.5388 -2.7694 -0.0009 -19.3718 -0.0002
# 2 12.5388 60.3933 21.1788 0.0023 -2.5810 -0.0059
# 3 -2.7694 21.1788 92.3542 -0.0026 -7.5163 0.0002
# 4 -0.0009 0.0023 -0.0026 37.1824 0.0001 -0.9890
# 5 -19.3718 -2.5810 -7.5163 0.0001 30.2325 0.0011
# 6 -0.0002 -0.0059 0.0002 -0.9890 0.0011 23.7335
#
#
#
# Elastic Compliance Matrix: (Units=1/GPa)
#
#
# Indices 1 2 3 4 5 6 
#
# 1 0.105550 -0.023970 0.014289 0.000005 0.069139 -0.000008
# 2 -0.023970 0.023458 -0.007334 -0.000002 -0.015180 0.000006
# 3 0.014289 -0.007334 0.013914 0.000002 0.011989 -0.000002
# 4 0.000005 -0.000002 0.000002 0.026924 0.000003 0.001122
# 5 0.069139 -0.015180 0.011989 0.000003 0.079063 -0.000007
# 6 -0.000008 0.000006 -0.000002 0.001122 -0.000007 0.042181
#
#
# Mechanical properties :
#
#
# Convention : Reuss Voigt Hill
#
# Bulk Modulus (GPa) = 9.18341 26.66995 17.92668
# Shear Modulus (GPa) = 13.83440 28.04201 20.93821
#
# Velocity S-wave (km/s) = 2.62511 3.73743 3.22952
# Velocity P-wave (km/s) = 3.70982 5.64884 4.77871
#
# Compressibility (1/GPa) = 0.10889203
#
# Stress axis : x y z
#
# Youngs Moduli (GPa) = 9.47415 42.62970 71.87094
#
# Poissons Ratio (x) = 1.02185 -1.02696
# Poissons Ratio (y) = 0.22710 0.52707
# Poissons Ratio (z) = -0.13538 0.31263
#
# Static dielectric constant tensor:
#      x y z
#    x 1.727520 0.000000 0.006370 
#    y 0.000000 1.673740 0.000000 
#    z 0.006370 0.000000 1.719530 
# 
# From -- ./inp_files/353390.got.cif
#   From: 2010.05.17/outbox.cif.g08.bks.cpg/sg12_177_cif.got.tgz:353390.got - 2010.06.03 13:09:07.
