data_PCOD9213734
_publ_section_title
;
Structure prediction by ZEFSAII (Michael W. Deem and Ramdas Pophale) SiO2 
 PCOD9213734
Probable space group: C 2/M
;
_chemical_formula_sum "Si O2"
_cell_formula_units_Z 48
_cell_length_a 13.817159
_cell_length_b 18.548324
_cell_length_c 12.202991
_cell_angle_alpha 90.000000
_cell_angle_beta 129.967180
_cell_angle_gamma 90.000000
_cell_volume 2396.913209
_symmetry_space_group_name_H-M "C 2/M"
_symmetry_group_IT_number 12
_symmetry_cell_setting 'monoclinic'
loop_
_space_group_symop_operation_xyz
x,y,z
-x,y,-z
-x,-y,-z
x,-y,z
1/2+x,1/2+y,z
1/2-x,1/2+y,-z
1/2-x,1/2-y,-z
1/2+x,1/2-y,z
loop_
_atom_site_type_symbol
_atom_site_label
_atom_site_fract_x
_atom_site_fract_y
_atom_site_fract_z
Si Si1 0.804792 0.679463 0.601157
Si Si2 0.143501 0.082187 0.109353
Si Si3 0.642257 0.087298 0.570416
Si Si4 0.856241 0.918247 0.355846
Si Si5 0.300501 0.637378 0.076800
Si Si6 0.049304 0.273315 0.912145
O O1 0.750000 0.750000 0.500000
O O2 0.827866 0.619521 0.525529
O O3 0.715802 0.642764 0.627394
O O4 0.933960 0.700928 0.754276
O O5 0.248207 0.115354 0.266684
O O6 0.129298 0.000000 0.137073
O O7 0.198239 0.085722 0.027240
O O8 0.000000 0.110689 0.000000
O O9 0.500000 0.109629 0.500000
O O10 0.644060 0.000000 0.571587
O O11 0.849698 0.898991 0.222784
O O12 0.000000 0.918147 0.500000
O O13 0.805309 0.000000 0.335963
O O14 0.388483 0.703534 0.100267
O O15 0.161427 0.668270 0.996829
O O16 0.000000 0.262656 0.000000
#
# Coordination Sequence:
#
# PCOD9213734 Si02
#       6
#     8   8   8   8   8   8
#     4  12  26  42  68  98 132 173 218 268 327 397
#     4  10  22  38  66  99 124 164 219 271 328 388
#     4  10  23  44  67  94 130 170 217 272 325 386
#     4  11  25  44  66  97 134 175 222 272 334 396
#     4  11  23  42  69  90 134 172 213 276 327 399
#     4  11  24  43  63  97 131 170 222 268 331 390
#
# _framework density 20.025756000000001
#
# number of rings (size 3 to 8) (size 9 to 14) (size 15 to 20)
#    0.000    1.167    1.667    3.500    7.000    2.000 
#    0.000    3.333    0.000    0.000    0.000    0.000 
#    0.000    0.000    0.000    0.000    0.000    0.000 
#
# Total GULP energy -134058.554556 kJ/mol
# GULP energy per Si atom -5585.773107 kJ/mol
# Density = 1.998018 g / cm^3
# Si number density = 20.025756 Si / 1000 Ang^3
#
#
#
# Elastic Constant Matrix: (Units=GPa)
#
#
# Indices 1 2 3 4 5 6 
#
# 1 107.2247 20.4437 59.2100 0.0000 -0.5860 0.0000
# 2 20.4437 46.6829 36.2794 0.0000 12.0435 0.0000
# 3 59.2100 36.2794 187.5530 0.0000 1.5811 0.0000
# 4 0.0000 0.0000 0.0000 12.2890 0.0000 -17.3853
# 5 -0.5860 12.0435 1.5811 0.0000 40.5618 0.0000
# 6 0.0000 0.0000 0.0000 -17.3853 0.0000 5.3604
#
#
#
# Elastic Compliance Matrix: (Units=1/GPa)
#
#
# Indices 1 2 3 4 5 6 
#
# 1 0.011612 -0.002979 -0.003100 0.000000 0.001173 0.000000
# 2 -0.002979 0.028337 -0.004471 0.000000 -0.008283 0.000000
# 3 -0.003100 -0.004471 0.007167 0.000000 0.001003 0.000000
# 4 0.000000 0.000000 0.000000 -0.022678 0.000000 -0.073550
# 5 0.001173 -0.008283 0.001003 0.000000 0.027091 0.000000
# 6 0.000000 0.000000 0.000000 -0.073550 0.000000 -0.051989
#
#
# Mechanical properties :
#
#
# Convention : Reuss Voigt Hill
#
# Bulk Modulus (GPa) = 38.43699 63.70298 51.06999
# Shear Modulus (GPa) = 170.57949 26.67742 98.62845
#
# Velocity S-wave (km/s) = 9.23932 3.65383 7.02551
# Velocity P-wave (km/s) = 11.53496 7.04842 9.55865
#
# Compressibility (1/GPa) = 0.02601660
#
# Stress axis : x y z
#
# Youngs Moduli (GPa) = 86.11613 35.28929 139.53315
#
# Poissons Ratio (x) = 0.10513 0.43249
# Poissons Ratio (y) = 0.25655 0.62386
# Poissons Ratio (z) = 0.26692 0.15778
#
# Static dielectric constant tensor:
#      x y z
#    x 1.684910 0.000000 0.017780 
#    y 0.000000 1.719670 0.000000 
#    z 0.017780 0.000000 1.654130 
# 
# From -- ./inp_files/134095.got.cif
#   From: 2010.05.17/outbox.cif.g08.bks.cpg/sg12_68_cif.got.tgz:134095.got - 2010.06.03 13:09:07.
