data_PCOD9213751
_publ_section_title
;
Structure prediction by ZEFSAII (Michael W. Deem and Ramdas Pophale) SiO2 
 PCOD9213751
Probable space group: C 2/M
;
_chemical_formula_sum "Si O2"
_cell_formula_units_Z 32
_cell_length_a 17.902144
_cell_length_b 15.480641
_cell_length_c 5.622115
_cell_angle_alpha 90.000000
_cell_angle_beta 99.726169
_cell_angle_gamma 90.000000
_cell_volume 1535.698793
_symmetry_space_group_name_H-M "C 2/M"
_symmetry_group_IT_number 12
_symmetry_cell_setting 'monoclinic'
loop_
_space_group_symop_operation_xyz
x,y,z
-x,y,-z
-x,-y,-z
x,-y,z
1/2+x,1/2+y,z
1/2-x,1/2+y,-z
1/2-x,1/2-y,-z
1/2+x,1/2-y,z
loop_
_atom_site_type_symbol
_atom_site_label
_atom_site_fract_x
_atom_site_fract_y
_atom_site_fract_z
Si Si1 0.088328 0.665473 0.092080
Si Si2 0.451516 0.500000 0.722159
Si Si3 0.846287 0.832101 0.622476
Si Si4 0.452237 0.000000 0.718109
Si Si5 0.303624 0.204468 0.220473
O O1 0.119018 0.756185 0.198529
O O2 0.095236 0.587927 0.283685
O O3 0.136030 0.644967 0.881062
O O4 0.000000 0.677138 0.000000
O O5 0.500000 0.500000 0.500000
O O6 0.396735 0.416338 0.679936
O O7 0.500000 0.500000 0.000000
O O8 0.757041 0.842142 0.639944
O O9 0.846377 0.784316 0.368608
O O10 0.500000 0.000000 0.500000
O O11 0.500000 0.000000 0.000000
O O12 0.250000 0.250000 0.000000
#
# Coordination Sequence:
#
# PCOD9213751 Si02
#       5
#     8   4   8   4   8
#     4  10  22  38  68  94 134 173 229 291 363 425
#     4  12  30  45  73 113 146 191 247 300 366 437
#     4  10  23  43  68  97 141 185 238 292 361 435
#     4  10  24  39  59  99 131 162 214 275 342 418
#     4   9  21  42  65  95 128 184 233 283 354 420
#
# _framework density 20.837419000000001
#
# number of rings (size 3 to 8) (size 9 to 14) (size 15 to 20)
#    0.000    2.000    0.000    0.750   17.500    1.000 
#    0.000   11.250    0.000    0.000    0.000    0.000 
#    0.000    0.000    0.000    0.000    0.000    0.000 
#
# Total GULP energy -89143.290185 kJ/mol
# GULP energy per Si atom -5571.455637 kJ/mol
# Density = 2.078999 g / cm^3
# Si number density = 20.837419 Si / 1000 Ang^3
#
#
#
# Elastic Constant Matrix: (Units=GPa)
#
#
# Indices 1 2 3 4 5 6 
#
# 1 130.9915 73.5144 49.6836 0.0000 -20.9625 0.0000
# 2 73.5144 161.8782 42.9833 0.0000 -19.9009 0.0000
# 3 49.6836 42.9833 111.0343 0.0000 -16.7552 0.0000
# 4 0.0000 0.0000 0.0000 33.5828 0.0000 4.3209
# 5 -20.9625 -19.9009 -16.7552 0.0000 46.9872 0.0000
# 6 0.0000 0.0000 0.0000 4.3209 0.0000 18.2940
#
#
#
# Elastic Compliance Matrix: (Units=1/GPa)
#
#
# Indices 1 2 3 4 5 6 
#
# 1 0.011518 -0.004097 -0.003228 0.000000 0.002252 0.000000
# 2 -0.004097 0.008540 -0.001271 0.000000 0.001336 0.000000
# 3 -0.003228 -0.001271 0.011250 0.000000 0.002033 0.000000
# 4 0.000000 0.000000 0.000000 0.030710 0.000000 -0.007254
# 5 0.002252 0.001336 0.002033 0.000000 0.023578 0.000000
# 6 0.000000 0.000000 0.000000 -0.007254 0.000000 0.056376
#
#
# Mechanical properties :
#
#
# Convention : Reuss Voigt Hill
#
# Bulk Modulus (GPa) = 70.84471 81.80742 76.32606
# Shear Modulus (GPa) = 30.51226 35.62098 33.06662
#
# Velocity S-wave (km/s) = 3.83077 4.13906 3.98790
# Velocity P-wave (km/s) = 7.32387 7.88591 7.61008
#
# Compressibility (1/GPa) = 0.01411538
#
# Stress axis : x y z
#
# Youngs Moduli (GPa) = 86.82050 117.10021 88.89261
#
# Poissons Ratio (x) = 0.47972 0.28695
# Poissons Ratio (y) = 0.35568 0.11300
# Poissons Ratio (z) = 0.28026 0.14885
#
# Static dielectric constant tensor:
#      x y z
#    x 1.831780 0.000000 -0.009300 
#    y 0.000000 1.763240 0.000000 
#    z -0.009300 0.000000 1.984250 
# 
# From -- ./inp_files/14570.got.cif
#   From: 2010.05.17/outbox.cif.g08.bks.cpg/sg12_8_cif.got.tgz:14570.got - 2010.06.03 13:09:07.
