data_PCOD9213266
_publ_section_title
;
Structure prediction by ZEFSAII (Michael W. Deem and Ramdas Pophale) SiO2 
 PCOD9213266
Probable space group: C 2/M
;
_chemical_formula_sum "Si O2"
_cell_formula_units_Z 56
_cell_length_a 14.052596
_cell_length_b 18.637817
_cell_length_c 14.222569
_cell_angle_alpha 90.000000
_cell_angle_beta 135.394420
_cell_angle_gamma 90.000000
_cell_volume 2615.798752
_symmetry_space_group_name_H-M "C 2/M"
_symmetry_group_IT_number 12
_symmetry_cell_setting 'monoclinic'
loop_
_space_group_symop_operation_xyz
x,y,z
-x,y,-z
-x,-y,-z
x,-y,z
1/2+x,1/2+y,z
1/2-x,1/2+y,-z
1/2-x,1/2-y,-z
1/2+x,1/2-y,z
loop_
_atom_site_type_symbol
_atom_site_label
_atom_site_fract_x
_atom_site_fract_y
_atom_site_fract_z
Si Si1 0.093498 0.582872 0.647281
Si Si2 0.581636 0.123921 0.301572
Si Si3 0.278770 0.700364 0.200279
Si Si4 0.633457 0.628609 0.549980
Si Si5 0.623310 0.666472 0.147037
Si Si6 0.390918 0.919698 0.005527
Si Si7 0.054104 0.214913 0.307415
O O1 0.123159 0.500000 0.644620
O O2 0.235317 0.623409 0.759178
O O3 0.000000 0.616432 0.500000
O O4 0.995245 0.586585 0.667588
O O5 0.722902 0.089570 0.366027
O O6 0.470965 0.123037 0.141633
O O7 0.617930 0.205870 0.353827
O O8 0.333412 0.686592 0.344385
O O9 0.157581 0.756286 0.125089
O O10 0.395787 0.729723 0.215738
O O11 0.231352 0.625678 0.122503
O O12 0.500000 0.590581 0.500000
O O13 0.595562 0.664336 0.423636
O O14 0.583534 0.678738 0.227885
O O15 0.500000 0.634030 0.000000
O O16 0.353304 0.000000 0.011371
O O17 0.500000 0.926373 0.000000
#
# Coordination Sequence:
#
# PCOD9213266 Si02
#       7
#     8   8   8   8   8   8   8
#     4  11  27  47  68  96 135 188 236 276 332 411
#     4  12  21  39  68  94 131 170 223 273 329 408
#     4  11  22  40  64  96 135 167 222 278 342 402
#     4  10  22  37  62 101 132 166 211 285 342 397
#     4  12  25  41  67 103 137 176 223 290 346 397
#     4  11  23  40  63  91 128 175 217 265 332 411
#     4  11  23  37  66  99 130 171 218 280 348 383
#
# _framework density 21.408374999999999
#
# number of rings (size 3 to 8) (size 9 to 14) (size 15 to 20)
#    0.000    0.857    4.286    3.000    4.000    1.429 
#    0.000    0.714    0.000   12.429    0.000    0.000 
#    0.000    0.000    0.000    0.000    0.000    0.000 
#
# Total GULP energy -156373.210061 kJ/mol
# GULP energy per Si atom -5584.757502 kJ/mol
# Density = 2.135965 g / cm^3
# Si number density = 21.408375 Si / 1000 Ang^3
#
#
#
# Elastic Constant Matrix: (Units=GPa)
#
#
# Indices 1 2 3 4 5 6 
#
# 1 156.6985 17.0268 50.7757 -0.0003 15.7192 0.0008
# 2 17.0268 56.5975 23.7255 0.0001 2.4377 -0.0004
# 3 50.7757 23.7255 105.9044 0.0000 8.8146 -0.0001
# 4 -0.0003 0.0001 0.0000 -610.3531 -0.0001 1643.3310
# 5 15.7192 2.4377 8.8146 -0.0001 31.5322 0.0003
# 6 0.0008 -0.0004 -0.0001 1643.3310 0.0003-4476.0521
#
#
#
# Elastic Compliance Matrix: (Units=1/GPa)
#
#
# Indices 1 2 3 4 5 6 
#
# 1 0.007844 -0.000838 -0.003331 0.000000 -0.002915 0.000000
# 2 -0.000838 0.019592 -0.003989 0.000000 0.000018 0.000000
# 3 -0.003331 -0.003989 0.012049 0.000000 -0.001400 0.000000
# 4 0.000000 0.000000 0.000000 -0.142388 0.000000 -0.052276
# 5 -0.002915 0.000018 -0.001400 0.000000 0.033557 0.000000
# 6 0.000000 0.000000 0.000000 -0.052276 0.000000 -0.019416
#
#
# Mechanical properties :
#
#
# Convention : Reuss Voigt Hill
#
# Bulk Modulus (GPa) = 43.15797 55.80626 49.48211
# Shear Modulus (GPa) = -77.25196 -995.79644 -536.52420
#
# Velocity S-wave (km/s) = -6.01359 -21.59058 -15.84797
# Velocity P-wave (km/s) = 5.29288 24.40110 17.65542
#
# Compressibility (1/GPa) = 0.02317069
#
# Stress axis : x y z
#
# Youngs Moduli (GPa) = 127.47991 51.04095 82.99151
#
# Poissons Ratio (x) = 0.04278 0.27641
# Poissons Ratio (y) = 0.10685 0.33104
# Poissons Ratio (z) = 0.42458 0.20359
#
# Static dielectric constant tensor:
#      x y z
#    x 1.830380 0.000000 0.009220 
#    y 0.000000 1.775730 0.000000 
#    z 0.009220 0.000000 1.851330 
# 
# From -- ./inp_files/217753.got.cif
#   From: 2010.05.17/outbox.cif.g08.bks.cpg/sg12_109_cif.got.tgz:217753.got - 2010.06.03 13:09:07.
