data_PCOD9213658
_publ_section_title
;
Structure prediction by ZEFSAII (Michael W. Deem and Ramdas Pophale) SiO2 
 PCOD9213658
Probable space group: C 2/M
;
_chemical_formula_sum "Si O2"
_cell_formula_units_Z 40
_cell_length_a 21.177420
_cell_length_b 14.781132
_cell_length_c 8.535667
_cell_angle_alpha 90.000000
_cell_angle_beta 51.457660
_cell_angle_gamma 90.000000
_cell_volume 2089.811452
_symmetry_space_group_name_H-M "C 2/M"
_symmetry_group_IT_number 12
_symmetry_cell_setting 'monoclinic'
loop_
_space_group_symop_operation_xyz
x,y,z
-x,y,-z
-x,-y,-z
x,-y,z
1/2+x,1/2+y,z
1/2-x,1/2+y,-z
1/2-x,1/2-y,-z
1/2+x,1/2-y,z
loop_
_atom_site_type_symbol
_atom_site_label
_atom_site_fract_x
_atom_site_fract_y
_atom_site_fract_z
Si Si1 0.831633 0.648632 0.963739
Si Si2 0.095183 0.000000 0.309604
Si Si3 0.743385 0.500000 0.886575
Si Si4 0.405097 0.295605 0.623292
Si Si5 0.247307 0.500000 0.498090
Si Si6 0.289519 0.312329 0.567349
Si Si7 0.414602 0.000000 0.040118
O O1 0.784482 0.584864 0.912519
O O2 0.866723 0.733440 0.815985
O O3 0.770095 0.681954 0.191604
O O4 0.897809 0.586755 0.952880
O O5 0.119901 0.098401 0.334167
O O6 0.000000 0.000000 0.500000
O O7 0.146143 0.000000 0.067677
O O8 0.761026 0.500000 0.675729
O O9 0.500000 0.290105 0.500000
O O10 0.371876 0.268636 0.504613
O O11 0.294346 0.411524 0.484600
O O12 0.160100 0.500000 0.720176
O O13 0.250000 0.250000 0.500000
O O14 0.500000 0.000000 0.000000
#
# Coordination Sequence:
#
# PCOD9213658 Si02
#       7
#     8   4   4   8   4   8   4
#     4  10  22  38  63  92 116 162 208 252 306 374
#     4  10  22  38  64  86 121 164 210 254 304 344
#     4  11  20  40  69  89 119 159 217 252 299 389
#     4  11  23  40  63  90 125 164 210 253 306 372
#     4  10  23  37  60  92 119 159 206 254 313 362
#     4  11  22  38  60  89 122 157 203 255 307 363
#     4   9  21  41  61  89 135 160 190 263 329 367
#
# _framework density 19.140483
#
# number of rings (size 3 to 8) (size 9 to 14) (size 15 to 20)
#    0.000    1.600    2.000    3.000    2.800    4.800 
#    0.000    2.000    0.000    2.400    0.000    0.000 
#    0.000    0.000    0.000    0.000    0.000    0.000 
#
# Total GULP energy -111448.460114 kJ/mol
# GULP energy per Si atom -5572.423006 kJ/mol
# Density = 1.909692 g / cm^3
# Si number density = 19.140483 Si / 1000 Ang^3
#
#
#
# Elastic Constant Matrix: (Units=GPa)
#
#
# Indices 1 2 3 4 5 6 
#
# 1 175.9721 53.3449 58.1802 0.0000 12.9202 0.0000
# 2 53.3449 108.1066 46.4330 0.0000 10.1998 0.0000
# 3 58.1802 46.4330 84.4948 0.0000 22.5457 0.0000
# 4 0.0000 0.0000 0.0000 30.7605 0.0000 6.0644
# 5 12.9202 10.1998 22.5457 0.0000 34.7892 0.0000
# 6 0.0000 0.0000 0.0000 6.0644 0.0000 21.3833
#
#
#
# Elastic Compliance Matrix: (Units=1/GPa)
#
#
# Indices 1 2 3 4 5 6 
#
# 1 0.007678 -0.001973 -0.004348 0.000000 0.000545 0.000000
# 2 -0.001973 0.012639 -0.005797 0.000000 0.000783 0.000000
# 3 -0.004348 -0.005797 0.020712 0.000000 -0.010108 0.000000
# 4 0.000000 0.000000 0.000000 0.034435 0.000000 -0.009766
# 5 0.000545 0.000783 -0.010108 0.000000 0.034863 0.000000
# 6 0.000000 0.000000 0.000000 -0.009766 0.000000 0.049535
#
#
# Mechanical properties :
#
#
# Convention : Reuss Voigt Hill
#
# Bulk Modulus (GPa) = 59.54377 76.05440 67.79909
# Shear Modulus (GPa) = 26.35802 31.42763 28.89282
#
# Velocity S-wave (km/s) = 3.71493 4.05649 3.88946
# Velocity P-wave (km/s) = 7.04112 7.85883 7.46118
#
# Compressibility (1/GPa) = 0.01679437
#
# Stress axis : x y z
#
# Youngs Moduli (GPa) = 130.23588 79.11863 48.28160
#
# Poissons Ratio (x) = 0.15607 0.20995
# Poissons Ratio (y) = 0.25690 0.27987
# Poissons Ratio (z) = 0.56632 0.45861
#
# Static dielectric constant tensor:
#      x y z
#    x 1.709900 0.000000 -0.023930 
#    y 0.000000 1.695430 0.000000 
#    z -0.023930 0.000000 1.641790 
# 
# From -- ./inp_files/85556.got.cif
#   From: 2010.05.17/outbox.cif.g08.bks.cpg/sg12_43_cif.got.tgz:85556.got - 2010.06.03 13:09:07.
