data_PCOD9213122
_publ_section_title
;
Structure prediction by ZEFSAII (Michael W. Deem and Ramdas Pophale) SiO2 
 PCOD9213122
Probable space group: C 2/M
;
_chemical_formula_sum "Si O2"
_cell_formula_units_Z 48
_cell_length_a 15.795483
_cell_length_b 13.421787
_cell_length_c 10.468499
_cell_angle_alpha 90.000000
_cell_angle_beta 108.008915
_cell_angle_gamma 90.000000
_cell_volume 2110.629637
_symmetry_space_group_name_H-M "C 2/M"
_symmetry_group_IT_number 12
_symmetry_cell_setting 'monoclinic'
loop_
_space_group_symop_operation_xyz
x,y,z
-x,y,-z
-x,-y,-z
x,-y,z
1/2+x,1/2+y,z
1/2-x,1/2+y,-z
1/2-x,1/2-y,-z
1/2+x,1/2-y,z
loop_
_atom_site_type_symbol
_atom_site_label
_atom_site_fract_x
_atom_site_fract_y
_atom_site_fract_z
Si Si1 0.582327 0.612414 0.753646
Si Si2 0.948217 0.296899 0.106383
Si Si3 0.706814 0.888359 0.091742
Si Si4 0.329710 0.117123 0.630813
Si Si5 0.423918 0.109528 0.353567
Si Si6 0.143368 0.216612 0.545266
O O1 0.550212 0.500000 0.747883
O O2 0.535284 0.688023 0.827747
O O3 0.687328 0.616019 0.839775
O O4 0.579442 0.651116 0.606059
O O5 0.964379 0.370490 0.233155
O O6 0.844315 0.312228 0.021907
O O7 0.000000 0.316166 0.000000
O O8 0.666401 0.878136 0.215043
O O9 0.685313 0.000000 0.034589
O O10 0.226085 0.145392 0.553251
O O11 0.375608 0.214977 0.587777
O O12 0.349207 0.000000 0.603795
O O13 0.500000 0.116513 0.500000
O O14 0.348011 0.190235 0.350445
O O15 0.386234 0.000000 0.339050
#
# Coordination Sequence:
#
# PCOD9213122 Si02
#       6
#     8   8   8   8   8   8
#     4   9  19  38  60  80 107 150 192 233 285 335
#     4  11  23  36  56  87 114 148 186 237 283 336
#     4   9  18  33  56  84 114 145 182 228 283 339
#     4   9  17  30  54  85 113 144 179 227 283 330
#     4  10  22  37  53  77 112 152 189 225 275 333
#     4   9  17  31  53  80 104 143 185 224 268 328
#
# _framework density 22.742028999999999
#
# number of rings (size 3 to 8) (size 9 to 14) (size 15 to 20)
#    0.000    2.500    0.000    3.000    2.333    1.667 
#    0.000    0.000    0.000   22.500    0.000    0.000 
#    0.000    0.000    0.000    0.000    0.000    0.000 
#
# Total GULP energy -133640.266351 kJ/mol
# GULP energy per Si atom -5568.344431 kJ/mol
# Density = 2.269027 g / cm^3
# Si number density = 22.742029 Si / 1000 Ang^3
#
#
#
# Elastic Constant Matrix: (Units=GPa)
#
#
# Indices 1 2 3 4 5 6 
#
# 1 33.1314 -1.5104 34.8690 0.0000 3.4718 0.0000
# 2 -1.5104 147.5154 42.9997 0.0000 6.8030 0.0000
# 3 34.8690 42.9997 103.5992 0.0000 -9.5359 0.0000
# 4 0.0000 0.0000 0.0000 18.1359 0.0000 -8.6494
# 5 3.4718 6.8030 -9.5359 0.0000 38.0597 0.0000
# 6 0.0000 0.0000 0.0000 -8.6494 0.0000 14.3141
#
#
#
# Elastic Compliance Matrix: (Units=1/GPa)
#
#
# Indices 1 2 3 4 5 6 
#
# 1 0.056631 0.008018 -0.023539 0.000000 -0.012497 0.000000
# 2 0.008018 0.009037 -0.006823 0.000000 -0.004056 0.000000
# 3 -0.023539 -0.006823 0.021206 0.000000 0.008680 0.000000
# 4 0.000000 0.000000 0.000000 0.077463 0.000000 0.046808
# 5 -0.012497 -0.004056 0.008680 0.000000 0.030314 0.000000
# 6 0.000000 0.000000 0.000000 0.046808 0.000000 0.098145
#
#
# Mechanical properties :
#
#
# Convention : Reuss Voigt Hill
#
# Bulk Modulus (GPa) = 23.70444 48.55141 36.12793
# Shear Modulus (GPa) = 14.22289 27.96111 21.09200
#
# Velocity S-wave (km/s) = 2.50351 3.51021 3.04870
# Velocity P-wave (km/s) = 4.33620 6.15011 5.32102
#
# Compressibility (1/GPa) = 0.04218619
#
# Stress axis : x y z
#
# Youngs Moduli (GPa) = 17.65813 110.65791 47.15668
#
# Poissons Ratio (x) = -0.88720 1.11001
# Poissons Ratio (y) = -0.14157 0.32173
# Poissons Ratio (z) = 0.41565 0.75498
#
# Static dielectric constant tensor:
#      x y z
#    x 1.945500 0.000000 -0.014230 
#    y 0.000000 1.826990 0.000000 
#    z -0.014230 0.000000 1.854340 
# 
# From -- ./inp_files/153712.got.cif
#   From: 2010.05.17/outbox.cif.g08.bks.cpg/sg12_77_cif.got.tgz:153712.got - 2010.06.03 13:09:07.
