data_PCOD9213001
_publ_section_title
;
Structure prediction by ZEFSAII (Michael W. Deem and Ramdas Pophale) SiO2 
 PCOD9213001
Probable space group: C 2/M
;
_chemical_formula_sum "Si O2"
_cell_formula_units_Z 44
_cell_length_a 17.163706
_cell_length_b 25.614675
_cell_length_c 5.129981
_cell_angle_alpha 90.000000
_cell_angle_beta 111.858621
_cell_angle_gamma 90.000000
_cell_volume 2093.210792
_symmetry_space_group_name_H-M "C 2/M"
_symmetry_group_IT_number 12
_symmetry_cell_setting 'monoclinic'
loop_
_space_group_symop_operation_xyz
x,y,z
-x,y,-z
-x,-y,-z
x,-y,z
1/2+x,1/2+y,z
1/2-x,1/2+y,-z
1/2-x,1/2-y,-z
1/2+x,1/2-y,z
loop_
_atom_site_type_symbol
_atom_site_label
_atom_site_fract_x
_atom_site_fract_y
_atom_site_fract_z
Si Si1 0.085136 0.443742 0.944173
Si Si2 0.500000 0.862136 0.500000
Si Si3 0.639527 0.206477 0.548899
Si Si4 0.202545 0.869739 0.149123
Si Si5 0.595843 0.270662 0.019199
Si Si6 0.267789 0.561419 0.326294
O O1 0.096815 0.500000 0.821709
O O2 0.068429 0.397669 0.725907
O O3 0.166134 0.436193 0.222681
O O4 0.000000 0.445945 0.000000
O O5 0.443763 0.827449 0.619889
O O6 0.717125 0.168432 0.704907
O O7 0.650810 0.244109 0.317309
O O8 0.614687 0.238989 0.777127
O O9 0.126031 0.829844 0.018074
O O10 0.193469 0.907095 0.386834
O O11 0.213906 0.907228 0.915531
O O12 0.500000 0.269764 0.000000
O O13 0.290697 0.500000 0.344812
#
# Coordination Sequence:
#
# PCOD9213001 Si02
#       6
#     8   4   8   8   8   8
#     4  10  22  36  55  86 125 170 212 246 293 357
#     4  12  21  34  60  82 132 158 205 242 296 348
#     4  12  24  39  63  92 130 167 209 246 303 370
#     4  12  24  43  67  90 127 166 208 253 316 369
#     4  12  25  44  63  94 124 164 209 264 311 370
#     4  11  24  42  65  93 124 163 210 259 310 374
#
# _framework density 21.020340000000001
#
# number of rings (size 3 to 8) (size 9 to 14) (size 15 to 20)
#    0.000    0.545    3.636    5.182    2.545    0.000 
#    0.000    0.000    0.000    3.273    0.000    0.000 
#    0.000    0.000    0.000    0.000    0.000    0.000 
#
# Total GULP energy -123041.863442 kJ/mol
# GULP energy per Si atom -5592.811975 kJ/mol
# Density = 2.097250 g / cm^3
# Si number density = 21.020340 Si / 1000 Ang^3
#
#
#
# Elastic Constant Matrix: (Units=GPa)
#
#
# Indices 1 2 3 4 5 6 
#
# 1 18.9892 32.8714 16.5194 0.0000 5.7705 0.0000
# 2 32.8714 147.8153 54.2586 0.0000 -5.6620 0.0000
# 3 16.5194 54.2586 99.1673 0.0000 -20.6635 0.0000
# 4 0.0000 0.0000 0.0000 14.2908 0.0000 23.6925
# 5 5.7705 -5.6620 -20.6635 0.0000 24.0297 0.0000
# 6 0.0000 0.0000 0.0000 23.6925 0.0000 -29.4501
#
#
#
# Elastic Compliance Matrix: (Units=1/GPa)
#
#
# Indices 1 2 3 4 5 6 
#
# 1 0.123791 -0.022521 -0.019004 0.000000 -0.051376 0.000000
# 2 -0.022521 0.012680 -0.001750 0.000000 0.006891 0.000000
# 3 -0.019004 -0.001750 0.018363 0.000000 0.019942 0.000000
# 4 0.000000 0.000000 0.000000 0.029984 0.000000 0.024122
# 5 -0.051376 0.006891 0.019942 0.000000 0.072724 0.000000
# 6 0.000000 0.000000 0.000000 0.024122 0.000000 -0.014550
#
#
# Mechanical properties :
#
#
# Convention : Reuss Voigt Hill
#
# Bulk Modulus (GPa) = 14.64500 52.58562 33.61531
# Shear Modulus (GPa) = 14.19229 12.59557 13.39393
#
# Velocity S-wave (km/s) = 2.60122 2.45053 2.52700
# Velocity P-wave (km/s) = 4.00050 5.75132 4.95387
#
# Compressibility (1/GPa) = 0.06828268
#
# Stress axis : x y z
#
# Youngs Moduli (GPa) = 8.07812 78.86506 54.45853
#
# Poissons Ratio (x) = 1.77612 1.03494
# Poissons Ratio (y) = 0.18193 0.09532
# Poissons Ratio (z) = 0.15352 0.13804
#
# Static dielectric constant tensor:
#      x y z
#    x 1.773920 0.000000 -0.017700 
#    y 0.000000 1.805220 0.000000 
#    z -0.017700 0.000000 1.760260 
# 
# From -- ./inp_files/16213.got.cif
#   From: 2010.05.17/outbox.cif.g08.bks.cpg/sg12_9_cif.got.tgz:16213.got - 2010.06.03 13:09:07.
