data_PCOD9213952
_publ_section_title
;
Structure prediction by ZEFSAII (Michael W. Deem and Ramdas Pophale) SiO2 
 PCOD9213952
Probable space group: C 2/M
;
_chemical_formula_sum "Si O2"
_cell_formula_units_Z 56
_cell_length_a 9.488102
_cell_length_b 28.282983
_cell_length_c 13.115427
_cell_angle_alpha 90.000000
_cell_angle_beta 127.874034
_cell_angle_gamma 90.000000
_cell_volume 2778.199467
_symmetry_space_group_name_H-M "C 2/M"
_symmetry_group_IT_number 12
_symmetry_cell_setting 'monoclinic'
loop_
_space_group_symop_operation_xyz
x,y,z
-x,y,-z
-x,-y,-z
x,-y,z
1/2+x,1/2+y,z
1/2-x,1/2+y,-z
1/2-x,1/2-y,-z
1/2+x,1/2-y,z
loop_
_atom_site_type_symbol
_atom_site_label
_atom_site_fract_x
_atom_site_fract_y
_atom_site_fract_z
Si Si1 0.694712 0.258525 0.093308
Si Si2 0.471141 0.895932 0.716292
Si Si3 0.843279 0.051366 0.512564
Si Si4 0.834436 0.651158 0.858003
Si Si5 0.676742 0.446061 0.145348
Si Si6 0.933578 0.876471 0.723413
Si Si7 0.381890 0.814149 0.353816
O O1 0.665029 0.207921 0.133845
O O2 0.833551 0.285174 0.229123
O O3 0.500000 0.283579 0.000000
O O4 0.750000 0.250000 0.000000
O O5 0.344709 0.938058 0.623450
O O6 0.372385 0.867699 0.761926
O O7 0.658984 0.918497 0.833730
O O8 0.514415 0.860375 0.642327
O O9 0.884165 0.096663 0.598565
O O10 0.000000 0.049400 0.500000
O O11 0.839924 0.000000 0.564445
O O12 0.642686 0.634997 0.814525
O O13 0.000000 0.634028 0.000000
O O14 0.728486 0.500000 0.193656
O O15 0.621932 0.414374 0.216579
O O16 0.500000 0.447800 0.000000
O O17 0.809083 0.830937 0.686222
O O18 0.500000 0.793402 0.500000
#
# Coordination Sequence:
#
# PCOD9213952 Si02
#       7
#     8   8   8   8   8   8   8
#     4  11  24  45  66  95 130 176 219 263 327 398
#     4  11  22  40  63  91 126 166 213 258 324 380
#     4  11  22  39  63  91 128 166 209 262 319 383
#     4  11  23  41  64  91 123 165 213 265 314 388
#     4  10  22  39  60  90 126 164 210 263 318 382
#     4  11  22  40  64  93 124 166 211 263 324 376
#     4  11  23  41  65  97 132 168 216 275 321 386
#
# _framework density 20.156939999999999
#
# number of rings (size 3 to 8) (size 9 to 14) (size 15 to 20)
#    0.000    1.143    2.857    4.286    0.000    3.429 
#    2.571    4.286    0.000    3.429    0.000    0.000 
#    0.000    0.000    0.000    0.000    0.000    0.000 
#
# Total GULP energy -156264.540278 kJ/mol
# GULP energy per Si atom -5580.876439 kJ/mol
# Density = 2.011106 g / cm^3
# Si number density = 20.156940 Si / 1000 Ang^3
#
#
#
# Elastic Constant Matrix: (Units=GPa)
#
#
# Indices 1 2 3 4 5 6 
#
# 1 118.4151 19.8387 32.7481 0.0000 12.7612 0.0000
# 2 19.8387 55.4342 23.0822 0.0000 8.5581 0.0000
# 3 32.7481 23.0822 98.5007 0.0000 9.6394 0.0000
# 4 0.0000 0.0000 0.0000 32.8726 0.0000 8.1886
# 5 12.7612 8.5581 9.6394 0.0000 27.5351 0.0000
# 6 0.0000 0.0000 0.0000 8.1886 0.0000 -24.1255
#
#
#
# Elastic Compliance Matrix: (Units=1/GPa)
#
#
# Indices 1 2 3 4 5 6 
#
# 1 0.009797 -0.001999 -0.002491 0.000000 -0.003047 0.000000
# 2 -0.001999 0.021012 -0.003843 0.000000 -0.004259 0.000000
# 3 -0.002491 -0.003843 0.012064 0.000000 -0.001875 0.000000
# 4 0.000000 0.000000 0.000000 0.028049 0.000000 0.009520
# 5 -0.003047 -0.004259 -0.001875 0.000000 0.039710 0.000000
# 6 0.000000 0.000000 0.000000 0.009520 0.000000 -0.038219
#
#
# Mechanical properties :
#
#
# Convention : Reuss Voigt Hill
#
# Bulk Modulus (GPa) = 38.15379 47.07643 42.61511
# Shear Modulus (GPa) = 51.11765 20.36851 35.74308
#
# Velocity S-wave (km/s) = 5.04132 3.18228 4.21555
# Velocity P-wave (km/s) = 7.27021 6.07521 6.69941
#
# Compressibility (1/GPa) = 0.02620972
#
# Stress axis : x y z
#
# Youngs Moduli (GPa) = 102.07338 47.59132 82.89000
#
# Poissons Ratio (x) = 0.09512 0.20644
# Poissons Ratio (y) = 0.20400 0.31852
# Poissons Ratio (z) = 0.25422 0.18288
#
# Static dielectric constant tensor:
#      x y z
#    x 1.711400 0.000000 0.016880 
#    y 0.000000 1.706760 0.000000 
#    z 0.016880 0.000000 1.741470 
# 
# From -- ./inp_files/125831.got.cif
#   From: 2010.05.17/outbox.cif.g08.bks.cpg/sg12_63_cif.got.tgz:125831.got - 2010.06.03 13:09:07.
