data_PCOD9213799
_publ_section_title
;
Structure prediction by ZEFSAII (Michael W. Deem and Ramdas Pophale) SiO2 
 PCOD9213799
Probable space group: C 2/M
;
_chemical_formula_sum "Si O2"
_cell_formula_units_Z 56
_cell_length_a 19.751918
_cell_length_b 8.665871
_cell_length_c 24.910248
_cell_angle_alpha 90.000000
_cell_angle_beta 47.371850
_cell_angle_gamma 90.000000
_cell_volume 3137.172076
_symmetry_space_group_name_H-M "C 2/M"
_symmetry_group_IT_number 12
_symmetry_cell_setting 'monoclinic'
loop_
_space_group_symop_operation_xyz
x,y,z
-x,y,-z
-x,-y,-z
x,-y,z
1/2+x,1/2+y,z
1/2-x,1/2+y,-z
1/2-x,1/2-y,-z
1/2+x,1/2-y,z
loop_
_atom_site_type_symbol
_atom_site_label
_atom_site_fract_x
_atom_site_fract_y
_atom_site_fract_z
Si Si1 0.634618 0.815480 0.902893
Si Si2 0.198710 0.315305 0.254551
Si Si3 0.475767 0.685283 0.705997
Si Si4 0.551046 0.315609 0.051070
Si Si5 0.309156 0.685652 0.300527
Si Si6 0.013150 0.316486 0.183205
Si Si7 0.312738 0.315128 0.419477
O O1 0.728079 0.758226 0.825789
O O2 0.548976 0.742976 0.915896
O O3 0.627468 0.000000 0.904865
O O4 0.622013 0.756101 0.970384
O O5 0.199325 0.500000 0.248035
O O6 0.099016 0.249533 0.294735
O O7 0.235351 0.278405 0.294530
O O8 0.472704 0.500000 0.709695
O O9 0.455259 0.750437 0.776458
O O10 0.580039 0.732922 0.635037
O O11 0.553158 0.500000 0.047358
O O12 0.562998 0.257439 0.105187
O O13 0.326638 0.500000 0.289975
O O14 0.405596 0.768336 0.236510
O O15 0.280700 0.727551 0.376381
O O16 0.022068 0.500000 0.177283
O O17 0.310601 0.500000 0.424074
O O18 0.250000 0.250000 0.500000
#
# Coordination Sequence:
#
# PCOD9213799 Si02
#       7
#     8   8   8   8   8   8   8
#     4  11  21  33  51  79 111 145 187 236 282 326
#     4  11  21  36  57  82 112 148 187 228 280 335
#     4  10  22  39  57  80 114 149 182 226 280 333
#     4  11  20  33  52  77 109 147 189 235 283 326
#     4   9  19  35  56  81 112 146 183 226 275 327
#     4  11  20  33  55  82 108 142 191 236 278 330
#     4   9  19  37  60  85 111 144 181 224 273 326
#
# _framework density 17.850473000000001
#
# number of rings (size 3 to 8) (size 9 to 14) (size 15 to 20)
#    0.000    1.714    1.429    6.429    0.000    3.429 
#    0.000    1.429    0.000    4.286    0.000    0.000 
#    0.000    0.000    0.000    0.000    0.000    0.000 
#
# Total GULP energy -156382.743234 kJ/mol
# GULP energy per Si atom -5585.097973 kJ/mol
# Density = 1.780984 g / cm^3
# Si number density = 17.850473 Si / 1000 Ang^3
#
#
#
# Elastic Constant Matrix: (Units=GPa)
#
#
# Indices 1 2 3 4 5 6 
#
# 1 105.8828 41.8721 48.8372 0.0000 8.2788 0.0001
# 2 41.8721 95.9765 38.6246 0.0000 6.5530 0.0002
# 3 48.8372 38.6246 130.4912 0.0000 14.2688 0.0000
# 4 0.0000 0.0000 0.0000 32.4094 0.0000 1.2392
# 5 8.2788 6.5530 14.2688 0.0000 16.8595 0.0000
# 6 0.0001 0.0002 0.0000 1.2392 0.0000 27.8875
#
#
#
# Elastic Compliance Matrix: (Units=1/GPa)
#
#
# Indices 1 2 3 4 5 6 
#
# 1 0.012755 -0.004086 -0.003364 0.000000 -0.001828 0.000000
# 2 -0.004086 0.013187 -0.002240 0.000000 -0.001223 0.000000
# 3 -0.003364 -0.002240 0.010259 0.000000 -0.006160 0.000000
# 4 0.000000 0.000000 0.000000 0.030908 0.000000 -0.001373
# 5 -0.001828 -0.001223 -0.006160 0.000000 0.065900 0.000000
# 6 0.000000 0.000000 0.000000 -0.001373 0.000000 0.035919
#
#
# Mechanical properties :
#
#
# Convention : Reuss Voigt Hill
#
# Bulk Modulus (GPa) = 59.45368 65.66869 62.56118
# Shear Modulus (GPa) = 25.78438 28.96572 27.37505
#
# Velocity S-wave (km/s) = 3.80473 4.03263 3.92034
# Velocity P-wave (km/s) = 7.25811 7.65185 7.45758
#
# Compressibility (1/GPa) = 0.01681982
#
# Stress axis : x y z
#
# Youngs Moduli (GPa) = 78.40147 75.83288 97.47382
#
# Poissons Ratio (x) = 0.30984 0.32793
# Poissons Ratio (y) = 0.32034 0.21837
# Poissons Ratio (z) = 0.26377 0.16989
#
# Static dielectric constant tensor:
#      x y z
#    x 1.610770 0.000000 0.015410 
#    y 0.000000 1.597560 0.000000 
#    z 0.015410 0.000000 1.600890 
# 
# From -- ./inp_files/345474.got.cif
#   From: 2010.05.17/outbox.cif.g08.bks.cpg/sg12_173_cif.got.tgz:345474.got - 2010.06.03 13:09:07.
