data_PCOD9213780
_publ_section_title
;
Structure prediction by ZEFSAII (Michael W. Deem and Ramdas Pophale) SiO2 
 PCOD9213780
Probable space group: C 2/M
;
_chemical_formula_sum "Si O2"
_cell_formula_units_Z 56
_cell_length_a 18.471510
_cell_length_b 8.552898
_cell_length_c 29.766491
_cell_angle_alpha 90.000000
_cell_angle_beta 140.780071
_cell_angle_gamma 90.000000
_cell_volume 2973.484633
_symmetry_space_group_name_H-M "C 2/M"
_symmetry_group_IT_number 12
_symmetry_cell_setting 'monoclinic'
loop_
_space_group_symop_operation_xyz
x,y,z
-x,y,-z
-x,-y,-z
x,-y,z
1/2+x,1/2+y,z
1/2-x,1/2+y,-z
1/2-x,1/2-y,-z
1/2+x,1/2-y,z
loop_
_atom_site_type_symbol
_atom_site_label
_atom_site_fract_x
_atom_site_fract_y
_atom_site_fract_z
Si Si1 0.170356 0.312579 0.002185
Si Si2 0.208875 0.687768 0.432223
Si Si3 0.631746 0.187625 0.570626
Si Si4 0.715893 0.687815 0.706726
Si Si5 0.645636 0.188521 0.848688
Si Si6 0.444992 0.189175 0.291959
Si Si7 0.525255 0.809847 0.153176
O O1 0.174826 0.500000 0.005289
O O2 0.230545 0.248173 0.075609
O O3 0.250000 0.250000 0.000000
O O4 0.043363 0.264174 0.925056
O O5 0.212986 0.500000 0.434300
O O6 0.250000 0.750000 0.500000
O O7 0.290499 0.750693 0.432426
O O8 0.077633 0.736038 0.359977
O O9 0.500000 0.236896 0.500000
O O10 0.678156 0.250700 0.640094
O O11 0.635085 0.000000 0.572693
O O12 0.716646 0.500000 0.706034
O O13 0.628314 0.745365 0.702321
O O14 0.844689 0.743739 0.780215
O O15 0.607604 0.240002 0.781075
O O16 0.551122 0.239294 0.840444
O O17 0.647450 0.000000 0.850488
O O18 0.441148 0.000000 0.291557
O O19 0.526664 0.000000 0.154657
#
# Coordination Sequence:
#
# PCOD9213780 Si02
#       7
#     8   8   8   8   8   8   8
#     4   9  16  29  50  76 106 137 174 221 272 324
#     4  11  23  40  62  86 113 146 183 223 270 323
#     4  11  24  41  60  84 115 147 179 221 274 325
#     4  11  22  37  58  82 109 145 189 229 268 322
#     4   9  17  33  55  76 103 140 181 223 270 324
#     4  10  22  39  56  78 113 150 180 222 279 326
#     4   8  16  32  53  77 105 139 177 221 274 325
#
# _framework density 18.833120999999998
#
# number of rings (size 3 to 8) (size 9 to 14) (size 15 to 20)
#    0.000    2.143    0.000    4.286    0.000    8.571 
#    0.000   10.714    0.000    4.286    0.000    0.000 
#    0.000    0.000    0.000    0.000    0.000    0.000 
#
# Total GULP energy -156296.797666 kJ/mol
# GULP energy per Si atom -5582.028488 kJ/mol
# Density = 1.879026 g / cm^3
# Si number density = 18.833121 Si / 1000 Ang^3
#
#
#
# Elastic Constant Matrix: (Units=GPa)
#
#
# Indices 1 2 3 4 5 6 
#
# 1 145.4383 30.5762 111.6246 0.0000 1.3590 0.0001
# 2 30.5762 27.6888 42.7416 -0.0001 0.2132 0.0003
# 3 111.6246 42.7416 231.6137 0.0000 1.4900 0.0000
# 4 0.0000 -0.0001 0.0000 32.4641 0.0000 -1.8309
# 5 1.3590 0.2132 1.4900 0.0000 33.5725 0.0000
# 6 0.0001 0.0003 0.0000 -1.8309 0.0000 28.5390
#
#
#
# Elastic Compliance Matrix: (Units=1/GPa)
#
#
# Indices 1 2 3 4 5 6 
#
# 1 0.011547 -0.005819 -0.004490 0.000000 -0.000231 0.000000
# 2 -0.005819 0.053434 -0.007058 0.000000 0.000209 -0.000001
# 3 -0.004490 -0.007058 0.007785 0.000000 -0.000119 0.000000
# 4 0.000000 0.000000 0.000000 0.030915 0.000000 0.001983
# 5 -0.000231 0.000209 -0.000119 0.000000 0.029800 0.000000
# 6 0.000000 -0.000001 0.000000 0.001983 0.000000 0.035167
#
#
# Mechanical properties :
#
#
# Convention : Reuss Voigt Hill
#
# Bulk Modulus (GPa) = 26.29281 86.06954 56.18118
# Shear Modulus (GPa) = 23.14192 33.56833 28.35512
#
# Velocity S-wave (km/s) = 3.50921 4.22644 3.88441
# Velocity P-wave (km/s) = 5.51459 8.34371 7.07206
#
# Compressibility (1/GPa) = 0.03803321
#
# Stress axis : x y z
#
# Youngs Moduli (GPa) = 86.60099 18.71462 128.46013
#
# Poissons Ratio (x) = 0.10890 0.57676
# Poissons Ratio (y) = 0.50393 0.90662
# Poissons Ratio (z) = 0.38882 0.13208
#
# Static dielectric constant tensor:
#      x y z
#    x 1.598230 0.000000 0.018250 
#    y 0.000000 1.645970 0.000000 
#    z 0.018250 0.000000 1.667590 
# 
# From -- ./inp_files/275296.got.cif
#   From: 2010.05.17/outbox.cif.g08.bks.cpg/sg12_138_cif.got.tgz:275296.got - 2010.06.03 13:09:07.
