data_PCOD9213660
_publ_section_title
;
Structure prediction by ZEFSAII (Michael W. Deem and Ramdas Pophale) SiO2 
 PCOD9213660
Probable space group: C 2/M
;
_chemical_formula_sum "Si O2"
_cell_formula_units_Z 52
_cell_length_a 21.289192
_cell_length_b 17.749383
_cell_length_c 14.975045
_cell_angle_alpha 90.000000
_cell_angle_beta 30.250146
_cell_angle_gamma 90.000000
_cell_volume 2850.678256
_symmetry_space_group_name_H-M "C 2/M"
_symmetry_group_IT_number 12
_symmetry_cell_setting 'monoclinic'
loop_
_space_group_symop_operation_xyz
x,y,z
-x,y,-z
-x,-y,-z
x,-y,z
1/2+x,1/2+y,z
1/2-x,1/2+y,-z
1/2-x,1/2-y,-z
1/2+x,1/2-y,z
loop_
_atom_site_type_symbol
_atom_site_label
_atom_site_fract_x
_atom_site_fract_y
_atom_site_fract_z
Si Si1 0.644347 0.339119 0.411276
Si Si2 0.623760 0.588757 0.254914
Si Si3 0.593146 0.089346 0.585966
Si Si4 0.317396 0.089732 0.857879
Si Si5 0.180480 0.315035 0.643049
Si Si6 0.742683 0.172446 0.251197
Si Si7 0.500000 0.730885 0.000000
O O1 0.500056 0.360543 0.603672
O O2 0.681817 0.389329 0.279588
O O3 0.722486 0.350730 0.405573
O O4 0.672732 0.252762 0.349206
O O5 0.590033 0.500000 0.296543
O O6 0.719278 0.602333 0.057717
O O7 0.454595 0.110534 0.723854
O O8 0.626339 0.127020 0.638740
O O9 0.688043 0.119028 0.394903
O O10 0.598841 0.000000 0.585924
O O11 0.283430 0.136944 0.812533
O O12 0.317585 0.000000 0.836446
O O13 0.250000 0.250000 0.500000
O O14 0.071024 0.279586 0.837784
O O15 0.889173 0.184776 0.089239
#
# Coordination Sequence:
#
# PCOD9213660 Si02
#       7
#     8   8   8   8   8   8   4
#     4  10  22  38  63  93 118 163 196 257 317 359
#     4  10  23  42  62  93 125 156 210 261 305 371
#     4  11  24  42  63  91 129 168 205 254 312 375
#     4  10  24  41  62  90 126 165 204 257 308 369
#     4  11  23  43  65  91 130 162 209 260 313 370
#     4  11  23  40  65  91 126 161 211 254 313 367
#     4  10  24  42  64  96 124 162 210 274 300 368
#
# _framework density 18.241274000000001
#
# number of rings (size 3 to 8) (size 9 to 14) (size 15 to 20)
#    0.000    1.538    3.077    1.846   10.769    3.077 
#    0.000    3.462    0.000    0.000    0.000    0.000 
#    0.000    0.000    0.000    0.000    0.000    0.000 
#
# Total GULP energy -145206.123272 kJ/mol
# GULP energy per Si atom -5584.850895 kJ/mol
# Density = 1.819976 g / cm^3
# Si number density = 18.241274 Si / 1000 Ang^3
#
#
#
# Elastic Constant Matrix: (Units=GPa)
#
#
# Indices 1 2 3 4 5 6 
#
# 1 193.0950 75.1090 77.3241 0.0000 -2.9860 0.0000
# 2 75.1090 63.7062 43.0338 0.0000 -9.9509 0.0000
# 3 77.3241 43.0338 119.1292 0.0000 -0.4373 0.0000
# 4 0.0000 0.0000 0.0000 30.0796 0.0000 9.2607
# 5 -2.9860 -9.9509 -0.4373 0.0000 31.9953 0.0000
# 6 0.0000 0.0000 0.0000 9.2607 0.0000 64.7818
#
#
#
# Elastic Compliance Matrix: (Units=1/GPa)
#
#
# Indices 1 2 3 4 5 6 
#
# 1 0.010514 -0.010790 -0.002935 0.000000 -0.002415 0.000000
# 2 -0.010790 0.033216 -0.004961 0.000000 0.009256 0.000000
# 3 -0.002935 -0.004961 0.012086 0.000000 -0.001652 0.000000
# 4 0.000000 0.000000 0.000000 0.034776 0.000000 -0.004971
# 5 -0.002415 0.009256 -0.001652 0.000000 0.033885 0.000000
# 6 0.000000 0.000000 0.000000 -0.004971 0.000000 0.016147
#
#
# Mechanical properties :
#
#
# Convention : Reuss Voigt Hill
#
# Bulk Modulus (GPa) = 54.22454 85.20714 69.71584
# Shear Modulus (GPa) = 27.15265 37.40224 32.27745
#
# Velocity S-wave (km/s) = 3.86233 4.53307 4.21107
# Velocity P-wave (km/s) = 7.04847 8.61457 7.87057
#
# Compressibility (1/GPa) = 0.01844184
#
# Stress axis : x y z
#
# Youngs Moduli (GPa) = 95.11022 30.10632 82.74293
#
# Poissons Ratio (x) = 0.32486 0.24289
# Poissons Ratio (y) = 1.02627 0.41048
# Poissons Ratio (z) = 0.27920 0.14936
#
# Static dielectric constant tensor:
#      x y z
#    x 1.613510 0.000000 -0.006390 
#    y 0.000000 1.618950 0.000000 
#    z -0.006390 0.000000 1.611320 
# 
# From -- ./inp_files/234426.got.cif
#   From: 2010.05.17/outbox.cif.g08.bks.cpg/sg12_118_cif.got.tgz:234426.got - 2010.06.03 13:09:07.
