data_PCOD9213606
_publ_section_title
;
Structure prediction by ZEFSAII (Michael W. Deem and Ramdas Pophale) SiO2 
 PCOD9213606
Probable space group: C 2/M
;
_chemical_formula_sum "Si O2"
_cell_formula_units_Z 48
_cell_length_a 10.721068
_cell_length_b 17.377073
_cell_length_c 14.569055
_cell_angle_alpha 90.000000
_cell_angle_beta 119.399081
_cell_angle_gamma 90.000000
_cell_volume 2364.692835
_symmetry_space_group_name_H-M "C 2/M"
_symmetry_group_IT_number 12
_symmetry_cell_setting 'monoclinic'
loop_
_space_group_symop_operation_xyz
x,y,z
-x,y,-z
-x,-y,-z
x,-y,z
1/2+x,1/2+y,z
1/2-x,1/2+y,-z
1/2-x,1/2-y,-z
1/2+x,1/2-y,z
loop_
_atom_site_type_symbol
_atom_site_label
_atom_site_fract_x
_atom_site_fract_y
_atom_site_fract_z
Si Si1 0.548885 0.413536 0.623466
Si Si2 0.374487 0.087085 0.171051
Si Si3 0.154969 0.660216 0.226345
Si Si4 0.168227 0.212706 0.382972
Si Si5 0.171964 0.226851 0.066357
Si Si6 0.373565 0.915665 0.380989
O O1 0.500000 0.413990 0.500000
O O2 0.519763 0.500000 0.649506
O O3 0.716096 0.394523 0.695421
O O4 0.461890 0.342419 0.635136
O O5 0.507317 0.115096 0.157905
O O6 0.243772 0.145946 0.118692
O O7 0.426858 0.088247 0.296004
O O8 0.333018 0.000000 0.133300
O O9 0.125110 0.720758 0.297330
O O10 0.200834 0.708700 0.153988
O O11 0.250000 0.250000 0.500000
O O12 0.274743 0.155812 0.368174
O O13 0.250000 0.250000 0.000000
O O14 0.000000 0.220149 0.000000
O O15 0.500000 0.913389 0.500000
O O16 0.301597 0.000000 0.365028
#
# Coordination Sequence:
#
# PCOD9213606 Si02
#       6
#     8   8   8   8   8   8
#     4  11  25  42  61  95 141 182 217 265 329 406
#     4  11  24  45  71 103 137 178 227 282 347 420
#     4  12  24  43  71  98 135 177 227 277 343 404
#     4  12  23  36  63  95 132 175 228 267 325 404
#     4  12  26  49  76 102 134 178 233 300 354 402
#     4  10  22  38  61  95 138 179 216 266 335 408
#
# _framework density 20.298618999999999
#
# number of rings (size 3 to 8) (size 9 to 14) (size 15 to 20)
#    0.000    0.667    5.000    3.000    2.333    0.333 
#    0.000    2.500    0.000    0.000    0.000    0.000 
#    0.000    0.000    0.000    0.000    0.000    0.000 
#
# Total GULP energy -134144.350621 kJ/mol
# GULP energy per Si atom -5589.347943 kJ/mol
# Density = 2.025242 g / cm^3
# Si number density = 20.298619 Si / 1000 Ang^3
#
#
#
# Elastic Constant Matrix: (Units=GPa)
#
#
# Indices 1 2 3 4 5 6 
#
# 1 95.4923 42.7465 25.7190 0.0000 5.9782 0.0000
# 2 42.7465 123.6180 35.2099 0.0000 -0.2882 0.0000
# 3 25.7190 35.2099 73.7624 0.0000 -1.0803 0.0000
# 4 0.0000 0.0000 0.0000 13.2586 0.0000 13.5697
# 5 5.9782 -0.2882 -1.0803 0.0000 36.0535 0.0000
# 6 0.0000 0.0000 0.0000 13.5697 0.0000 85.9307
#
#
#
# Elastic Compliance Matrix: (Units=1/GPa)
#
#
# Indices 1 2 3 4 5 6 
#
# 1 0.013032 -0.003713 -0.002805 0.000000 -0.002275 0.000000
# 2 -0.003713 0.010420 -0.003671 0.000000 0.000589 0.000000
# 3 -0.002805 -0.003671 0.016301 0.000000 0.000924 0.000000
# 4 0.000000 0.000000 0.000000 0.089962 0.000000 -0.014206
# 5 -0.002275 0.000589 0.000924 0.000000 0.028146 0.000000
# 6 0.000000 0.000000 0.000000 -0.014206 0.000000 0.013881
#
#
# Mechanical properties :
#
#
# Convention : Reuss Voigt Hill
#
# Bulk Modulus (GPa) = 51.61054 55.58038 53.59546
# Shear Modulus (GPa) = 25.17905 39.66170 32.42037
#
# Velocity S-wave (km/s) = 3.52580 4.42510 4.00080
# Velocity P-wave (km/s) = 6.48505 7.31775 6.91395
#
# Compressibility (1/GPa) = 0.01937589
#
# Stress axis : x y z
#
# Youngs Moduli (GPa) = 76.73492 95.96724 61.34649
#
# Poissons Ratio (x) = 0.35630 0.17207
# Poissons Ratio (y) = 0.28490 0.22519
# Poissons Ratio (z) = 0.21524 0.35228
#
# Static dielectric constant tensor:
#      x y z
#    x 1.732130 0.000000 0.006040 
#    y 0.000000 1.569440 0.000000 
#    z 0.006040 0.000000 1.766760 
# 
# From -- ./inp_files/131784.got.cif
#   From: 2010.05.17/outbox.cif.g08.bks.cpg/sg12_66_cif.got.tgz:131784.got - 2010.06.03 13:09:07.
