data_PCOD9213842
_publ_section_title
;
Structure prediction by ZEFSAII (Michael W. Deem and Ramdas Pophale) SiO2 
 PCOD9213842
Probable space group: C 2/M
;
_chemical_formula_sum "Si O2"
_cell_formula_units_Z 40
_cell_length_a 13.960022
_cell_length_b 24.036655
_cell_length_c 9.561767
_cell_angle_alpha 90.000000
_cell_angle_beta 141.414862
_cell_angle_gamma 90.000000
_cell_volume 2001.049896
_symmetry_space_group_name_H-M "C 2/M"
_symmetry_group_IT_number 12
_symmetry_cell_setting 'monoclinic'
loop_
_space_group_symop_operation_xyz
x,y,z
-x,y,-z
-x,-y,-z
x,-y,z
1/2+x,1/2+y,z
1/2-x,1/2+y,-z
1/2-x,1/2-y,-z
1/2+x,1/2-y,z
loop_
_atom_site_type_symbol
_atom_site_label
_atom_site_fract_x
_atom_site_fract_y
_atom_site_fract_z
Si Si1 0.133861 0.169284 0.325725
Si Si2 0.871878 0.156844 0.234707
Si Si3 0.149461 0.435379 0.864616
Si Si4 0.703242 0.935843 0.593191
Si Si5 0.325842 0.222605 0.794444
O O1 0.175289 0.107566 0.326419
O O2 0.244863 0.189708 0.576305
O O3 0.166426 0.212908 0.239739
O O4 0.965764 0.171853 0.202365
O O5 0.772770 0.207889 0.182297
O O6 0.000000 0.142873 0.500000
O O7 0.755589 0.106475 0.071772
O O8 0.171838 0.500000 0.931012
O O9 0.190846 0.430900 0.747004
O O10 0.966838 0.423160 0.662347
O O11 0.740050 0.000000 0.602432
O O12 0.500000 0.202666 0.000000
#
# Coordination Sequence:
#
# PCOD9213842 Si02
#       5
#     8   8   8   8   8
#     4  10  22  39  58  89 118 150 194 242 290 337
#     4  10  22  39  58  85 121 151 195 239 285 347
#     4   9  19  37  61  88 118 153 192 235 288 347
#     4   9  19  38  62  88 116 152 194 237 289 346
#     4  10  22  40  58  81 120 156 197 232 287 348
#
# _framework density 19.989505999999999
#
# number of rings (size 3 to 8) (size 9 to 14) (size 15 to 20)
#    0.000    2.400    0.000    2.400    2.800    2.000 
#   18.000    5.000    0.000   10.800    0.000    0.000 
#    0.000    0.000    0.000    0.000    0.000    0.000 
#
# Total GULP energy -111675.663733 kJ/mol
# GULP energy per Si atom -5583.783187 kJ/mol
# Density = 1.994401 g / cm^3
# Si number density = 19.989506 Si / 1000 Ang^3
#
#
#
# Elastic Constant Matrix: (Units=GPa)
#
#
# Indices 1 2 3 4 5 6 
#
# 1 146.7859 89.8138 32.7561 0.0000 13.3972 0.0000
# 2 89.8138 113.9942 40.0364 0.0000 0.7793 0.0000
# 3 32.7561 40.0364 80.9969 0.0000 6.9156 0.0000
# 4 0.0000 0.0000 0.0000 26.4288 0.0000 7.1524
# 5 13.3972 0.7793 6.9156 0.0000 15.3698 0.0000
# 6 0.0000 0.0000 0.0000 7.1524 0.0000 33.6978
#
#
#
# Elastic Compliance Matrix: (Units=1/GPa)
#
#
# Indices 1 2 3 4 5 6 
#
# 1 0.015362 -0.012376 0.001034 0.000000 -0.013228 0.000000
# 2 -0.012376 0.020639 -0.006269 0.000000 0.012562 0.000000
# 3 0.001034 -0.006269 0.015679 0.000000 -0.007638 0.000000
# 4 0.000000 0.000000 0.000000 0.040143 0.000000 -0.008520
# 5 -0.013228 0.012562 -0.007638 0.000000 0.079393 0.000000
# 6 0.000000 0.000000 0.000000 -0.008520 0.000000 0.031484
#
#
# Mechanical properties :
#
#
# Convention : Reuss Voigt Hill
#
# Bulk Modulus (GPa) = 60.76168 74.10995 67.43581
# Shear Modulus (GPa) = 20.54163 27.04399 23.79281
#
# Velocity S-wave (km/s) = 3.20913 3.68218 3.45376
# Velocity P-wave (km/s) = 6.64787 7.43188 7.05078
#
# Compressibility (1/GPa) = 0.01645774
#
# Stress axis : x y z
#
# Youngs Moduli (GPa) = 65.09722 48.45143 63.77971
#
# Poissons Ratio (x) = 0.59963 -0.06597
# Poissons Ratio (y) = 0.80564 0.39986
# Poissons Ratio (z) = -0.06734 0.30376
#
# Static dielectric constant tensor:
#      x y z
#    x 1.696110 0.000000 -0.008680 
#    y 0.000000 1.670200 0.000000 
#    z -0.008680 0.000000 1.726950 
# 
# From -- ./inp_files/50954.got.cif
#   From: 2010.05.17/outbox.cif.g08.bks.cpg/sg12_26_cif.got.tgz:50954.got - 2010.06.03 13:09:07.
