data_PCOD9213070
_publ_section_title
;
Structure prediction by ZEFSAII (Michael W. Deem and Ramdas Pophale) SiO2 
 PCOD9213070
Probable space group: C 2/M
;
_chemical_formula_sum "Si O2"
_cell_formula_units_Z 28
_cell_length_a 13.842174
_cell_length_b 5.686890
_cell_length_c 20.382168
_cell_angle_alpha 90.000000
_cell_angle_beta 40.846795
_cell_angle_gamma 90.000000
_cell_volume 1049.380328
_symmetry_space_group_name_H-M "C 2/M"
_symmetry_group_IT_number 12
_symmetry_cell_setting 'monoclinic'
loop_
_space_group_symop_operation_xyz
x,y,z
-x,y,-z
-x,-y,-z
x,-y,z
1/2+x,1/2+y,z
1/2-x,1/2+y,-z
1/2-x,1/2-y,-z
1/2+x,1/2-y,z
loop_
_atom_site_type_symbol
_atom_site_label
_atom_site_fract_x
_atom_site_fract_y
_atom_site_fract_z
Si Si1 0.329596 0.000000 0.608037
Si Si2 0.090157 0.250522 0.885102
Si Si3 0.892084 0.000000 0.618514
Si Si4 0.624370 0.250266 0.130700
Si Si5 0.548550 0.500000 0.675331
O O1 0.500000 0.000000 0.500000
O O2 0.305573 0.749639 0.657288
O O3 0.221890 0.000000 0.600723
O O4 0.174292 0.500000 0.839201
O O5 0.977999 0.250805 0.881192
O O6 0.170526 0.000000 0.841285
O O7 0.000000 0.252068 0.000000
O O8 0.000000 0.000000 0.500000
O O9 0.995977 0.000000 0.628694
O O10 0.709825 0.500000 0.084962
O O11 0.521290 0.283746 0.247195
O O12 0.702820 0.000000 0.093785
#
# Coordination Sequence:
#
# PCOD9213070 Si02
#       5
#     4   8   4   8   4
#     4  10  24  40  58  85 105 138 184 217 271 334
#     4   8  12  20  34  58  97 127 162 214 242 293
#     4  10  24  40  58  85 105 138 184 217 271 334
#     4   8  16  26  44  73  96 138 175 200 271 311
#     4  10  22  36  61  74 118 140 170 236 269 304
#
# _framework density 26.682413
#
# number of rings (size 3 to 8) (size 9 to 14) (size 15 to 20)
#    0.857    2.286    0.000    0.000    4.000    4.571 
#    0.000    0.000    0.000    0.000    0.000    0.000 
#    0.000    9.143    0.000    0.000    0.000    0.000 
#
# Total GULP energy -78238.595536 kJ/mol
# GULP energy per Si atom -5588.471110 kJ/mol
# Density = 2.662168 g / cm^3
# Si number density = 26.682413 Si / 1000 Ang^3
#
#
#
# Elastic Constant Matrix: (Units=GPa)
#
#
# Indices 1 2 3 4 5 6 
#
# 1 218.0128 36.6895 53.6392 -0.0001 55.4479 0.0038
# 2 36.6895 326.2153 20.1164 -0.0020 -5.2333 -0.0038
# 3 53.6392 20.1164 116.1139 -0.0003 26.0117 0.0006
# 4 -0.0001 -0.0020 -0.0003 29.6911 -0.0003 -16.0732
# 5 55.4479 -5.2333 26.0117 -0.0003 61.2180 -0.0009
# 6 0.0038 -0.0038 0.0006 -16.0732 -0.0009 -84.0917
#
#
#
# Elastic Compliance Matrix: (Units=1/GPa)
#
#
# Indices 1 2 3 4 5 6 
#
# 1 0.006437 -0.000702 -0.001693 0.000000 -0.005171 0.000000
# 2 -0.000702 0.003192 -0.000478 0.000000 0.001112 0.000000
# 3 -0.001693 -0.000478 0.010105 0.000000 -0.002800 0.000000
# 4 0.000000 0.000000 0.000000 0.030522 0.000000 -0.005834
# 5 -0.005171 0.001112 -0.002800 0.000000 0.022303 -0.000001
# 6 0.000000 0.000000 0.000000 -0.005834 -0.000001 -0.010777
#
#
# Mechanical properties :
#
#
# Convention : Reuss Voigt Hill
#
# Bulk Modulus (GPa) = 71.49930 97.91468 84.70699
# Shear Modulus (GPa) = 69.26079 38.02327 53.64203
#
# Velocity S-wave (km/s) = 5.10037 3.77905 4.48860
# Velocity P-wave (km/s) = 7.84472 7.47112 7.66020
#
# Compressibility (1/GPa) = 0.01398615
#
# Stress axis : x y z
#
# Youngs Moduli (GPa) = 155.35603 313.30710 98.96440
#
# Poissons Ratio (x) = 0.22009 0.16760
# Poissons Ratio (y) = 0.10913 0.04726
# Poissons Ratio (z) = 0.26310 0.14963
#
# Static dielectric constant tensor:
#      x y z
#    x 1.972140 0.000000 0.026950 
#    y 0.000000 2.159330 0.000000 
#    z 0.026950 0.000000 2.125180 
# 
# From -- ./inp_files/266416.got.cif
#   From: 2010.05.17/outbox.cif.g08.bks.cpg/sg12_134_cif.got.tgz:266416.got - 2010.06.03 13:09:07.
