data_PCOD9213947
_publ_section_title
;
Structure prediction by ZEFSAII (Michael W. Deem and Ramdas Pophale) SiO2 
 PCOD9213947
Probable space group: C 2/M
;
_chemical_formula_sum "Si O2"
_cell_formula_units_Z 64
_cell_length_a 30.537419
_cell_length_b 8.821390
_cell_length_c 16.390096
_cell_angle_alpha 90.000000
_cell_angle_beta 132.904418
_cell_angle_gamma 90.000000
_cell_volume 3234.095125
_symmetry_space_group_name_H-M "C 2/M"
_symmetry_group_IT_number 12
_symmetry_cell_setting 'monoclinic'
loop_
_space_group_symop_operation_xyz
x,y,z
-x,y,-z
-x,-y,-z
x,-y,z
1/2+x,1/2+y,z
1/2-x,1/2+y,-z
1/2-x,1/2-y,-z
1/2+x,1/2-y,z
loop_
_atom_site_type_symbol
_atom_site_label
_atom_site_fract_x
_atom_site_fract_y
_atom_site_fract_z
Si Si1 0.794059 0.182577 0.123174
Si Si2 0.746959 0.182643 0.241962
Si Si3 0.045551 0.681126 0.916544
Si Si4 0.474475 0.821538 0.558367
Si Si5 0.874805 0.819632 0.848424
Si Si6 0.418961 0.318120 0.203492
Si Si7 0.138375 0.181101 0.508542
Si Si8 0.405240 0.181361 0.716393
O O1 0.773796 0.227752 0.188068
O O2 0.861461 0.226666 0.184209
O O3 0.791374 0.000000 0.116280
O O4 0.750000 0.250000 0.000000
O O5 0.685200 0.264281 0.182915
O O6 0.796372 0.217637 0.373469
O O7 0.737621 0.000000 0.229334
O O8 0.051972 0.500000 0.927183
O O9 0.083688 0.749188 0.890266
O O10 0.976110 0.717486 0.811455
O O11 0.069711 0.751164 0.030687
O O12 0.500000 0.804112 0.500000
O O13 0.521831 0.746601 0.679378
O O14 0.411144 0.741835 0.490992
O O15 0.468866 0.000000 0.570092
O O16 0.875527 0.754018 0.758204
O O17 0.878415 0.000000 0.851864
O O18 0.421876 0.500000 0.202458
O O19 0.122799 0.254920 0.402141
O O20 0.133218 0.000000 0.495801
O O21 0.399109 0.000000 0.710632
#
# Coordination Sequence:
#
# PCOD9213947 Si02
#       8
#     8   8   8   8   8   8   8   8
#     4  10  22  39  60  89 124 165 211 258 311 372
#     4  10  23  44  65  89 126 170 214 261 320 380
#     4  11  23  41  65  94 130 167 207 258 322 386
#     4  11  23  38  58  88 125 166 209 253 309 374
#     4  12  26  42  65  95 125 163 215 267 318 376
#     4  11  22  37  61  92 125 161 208 260 313 371
#     4  11  23  41  67  94 125 165 212 267 318 372
#     4  11  24  43  67  94 128 167 209 258 322 387
#
# _framework density 19.789152000000001
#
# number of rings (size 3 to 8) (size 9 to 14) (size 15 to 20)
#    0.000    1.125    1.250    4.875    0.000   10.000 
#    0.000    0.000    0.000    0.000    0.000    0.000 
#    0.000    0.000    0.000    0.000    0.000    0.000 
#
# Total GULP energy -179057.507767 kJ/mol
# GULP energy per Si atom -5595.547118 kJ/mol
# Density = 1.974411 g / cm^3
# Si number density = 19.789152 Si / 1000 Ang^3
#
#
#
# Elastic Constant Matrix: (Units=GPa)
#
#
# Indices 1 2 3 4 5 6 
#
# 1 73.9683 18.5015 15.9337 0.0000 -12.6346 0.0000
# 2 18.5015 44.5264 36.1437 0.0000 -3.6003 0.0000
# 3 15.9337 36.1437 100.5357 0.0000 -5.1369 0.0000
# 4 0.0000 0.0000 0.0000 31.6690 0.0000 -4.0427
# 5 -12.6346 -3.6003 -5.1369 0.0000 30.2483 0.0000
# 6 0.0000 0.0000 0.0000 -4.0427 0.0000 30.1319
#
#
#
# Elastic Compliance Matrix: (Units=1/GPa)
#
#
# Indices 1 2 3 4 5 6 
#
# 1 0.016093 -0.006186 -0.000021 0.000000 0.005982 0.000000
# 2 -0.006186 0.034195 -0.011335 0.000000 -0.000439 0.000000
# 3 -0.000021 -0.011335 0.014078 0.000000 0.001033 0.000000
# 4 0.000000 0.000000 0.000000 0.032127 0.000000 0.004310
# 5 0.005982 -0.000439 0.001033 0.000000 0.035682 0.000000
# 6 0.000000 0.000000 0.000000 0.004310 0.000000 0.033766
#
#
# Mechanical properties :
#
#
# Convention : Reuss Voigt Hill
#
# Bulk Modulus (GPa) = 34.15206 40.02090 37.08648
# Shear Modulus (GPa) = 23.72079 28.30660 26.01369
#
# Velocity S-wave (km/s) = 3.46595 3.78618 3.62960
# Velocity P-wave (km/s) = 5.77170 6.27544 6.02883
#
# Compressibility (1/GPa) = 0.02928081
#
# Stress axis : x y z
#
# Youngs Moduli (GPa) = 62.13903 29.24406 71.03280
#
# Poissons Ratio (x) = 0.18091 0.00148
# Poissons Ratio (y) = 0.38441 0.80519
# Poissons Ratio (z) = 0.00130 0.33149
#
# Static dielectric constant tensor:
#      x y z
#    x 1.696560 0.000000 -0.005550 
#    y 0.000000 1.659220 0.000000 
#    z -0.005550 0.000000 1.679530 
# 
# From -- ./inp_files/250058.got.cif
#   From: 2010.05.17/outbox.cif.g08.bks.cpg/sg12_126_cif.got.tgz:250058.got - 2010.06.03 13:09:07.
