data_PCOD9213756
_publ_section_title
;
Structure prediction by ZEFSAII (Michael W. Deem and Ramdas Pophale) SiO2 
 PCOD9213756
Probable space group: C 2/M
;
_chemical_formula_sum "Si O2"
_cell_formula_units_Z 50
_cell_length_a 28.847710
_cell_length_b 16.643849
_cell_length_c 14.442433
_cell_angle_alpha 90.000000
_cell_angle_beta 160.153086
_cell_angle_gamma 90.000000
_cell_volume 2354.267159
_symmetry_space_group_name_H-M "C 2/M"
_symmetry_group_IT_number 12
_symmetry_cell_setting 'monoclinic'
loop_
_space_group_symop_operation_xyz
x,y,z
-x,y,-z
-x,-y,-z
x,-y,z
1/2+x,1/2+y,z
1/2-x,1/2+y,-z
1/2-x,1/2-y,-z
1/2+x,1/2-y,z
loop_
_atom_site_type_symbol
_atom_site_label
_atom_site_fract_x
_atom_site_fract_y
_atom_site_fract_z
Si Si1 0.713746 0.859134 0.615872
Si Si2 0.234260 0.834832 0.684922
Si Si3 0.938953 0.091813 0.163403
Si Si4 0.457317 0.871456 0.258039
Si Si5 0.158962 0.328667 0.310459
Si Si6 0.500000 0.000000 0.500000
Si Si7 0.112857 0.790222 0.783043
O O1 0.732484 0.762793 0.671537
O O2 0.591303 0.889739 0.450025
O O3 0.677058 0.875351 0.440484
O O4 0.852923 0.900122 0.908288
O O5 0.289307 0.865328 0.688819
O O6 0.083282 0.865783 0.420588
O O7 0.330705 0.865703 0.948831
O O8 0.854850 0.140253 0.083358
O O9 0.955987 0.000000 0.222495
O O10 0.449759 0.930503 0.330451
O O11 0.465837 0.781607 0.313730
O O12 0.250000 0.250000 0.500000
O O13 0.000000 0.307188 0.000000
O O14 0.000000 0.823374 0.500000
O O15 0.250000 0.750000 0.000000
#
# Coordination Sequence:
#
# PCOD9213756 Si02
#       7
#     8   8   8   8   8   2   8
#     4  11  22  44  74 102 146 189 245 305 364 444
#     4  11  22  45  74 103 148 190 240 302 377 441
#     4  12  28  45  69 108 147 193 240 308 377 438
#     4  12  24  45  70 101 138 193 242 303 365 436
#     4  10  22  38  71 116 143 189 253 302 359 448
#     4  12  32  40  72 104 138 180 268 306 368 430
#     4  12  24  45  70  95 134 190 243 296 363 435
#
# _framework density 21.238030999999999
#
# number of rings (size 3 to 8) (size 9 to 14) (size 15 to 20)
#    0.000    0.640    5.600    1.920    8.960    0.320 
#    0.000    1.600    0.000    1.920    0.000    0.000 
#    0.000    0.000    0.000    0.000    0.000    0.000 
#
# Total GULP energy -139483.337038 kJ/mol
# GULP energy per Si atom -5579.333482 kJ/mol
# Density = 2.118969 g / cm^3
# Si number density = 21.238031 Si / 1000 Ang^3
#
#
#
# Elastic Constant Matrix: (Units=GPa)
#
#
# Indices 1 2 3 4 5 6 
#
# 1 106.9085 24.3408 43.4177 0.0000 -13.1574 0.0000
# 2 24.3408 84.9321 1.2348 0.0000 -2.4652 0.0000
# 3 43.4177 1.2348 134.1020 0.0000 -15.8741 0.0000
# 4 0.0000 0.0000 0.0000 8.5807 0.0000 -8.6605
# 5 -13.1574 -2.4652 -15.8741 0.0000 45.4088 0.0000
# 6 0.0000 0.0000 0.0000 -8.6605 0.0000 0.3035
#
#
#
# Elastic Compliance Matrix: (Units=1/GPa)
#
#
# Indices 1 2 3 4 5 6 
#
# 1 0.011785 -0.003268 -0.003549 0.000000 0.001997 0.000000
# 2 -0.003268 0.012699 0.000950 0.000000 0.000075 0.000000
# 3 -0.003549 0.000950 0.008848 0.000000 0.002116 0.000000
# 4 0.000000 0.000000 0.000000 -0.004192 0.000000 -0.119620
# 5 0.001997 0.000075 0.002116 0.000000 0.023345 0.000000
# 6 0.000000 0.000000 0.000000 -0.119620 0.000000 -0.118517
#
#
# Mechanical properties :
#
#
# Convention : Reuss Voigt Hill
#
# Bulk Modulus (GPa) = 46.30140 51.54769 48.92455
# Shear Modulus (GPa) = -106.15866 27.98856 -39.08505
#
# Velocity S-wave (km/s) = -7.07769 3.63416 -4.29456
# Velocity P-wave (km/s) = 6.70396 6.47562 1.22668
#
# Compressibility (1/GPa) = 0.02159762
#
# Stress axis : x y z
#
# Youngs Moduli (GPa) = 84.85416 78.74624 113.02174
#
# Poissons Ratio (x) = 0.25734 0.40113
# Poissons Ratio (y) = 0.27730 -0.10736
# Poissons Ratio (z) = 0.30116 -0.07480
#
# Static dielectric constant tensor:
#      x y z
#    x 1.823870 0.000000 -0.013230 
#    y 0.000000 1.768540 0.000000 
#    z -0.013230 0.000000 1.764820 
# 
# From -- ./inp_files/251760.got.cif
#   From: 2010.05.17/outbox.cif.g08.bks.cpg/sg12_126_cif.got.tgz:251760.got - 2010.06.03 13:09:07.
