data_PCOD9213429
_publ_section_title
;
Structure prediction by ZEFSAII (Michael W. Deem and Ramdas Pophale) SiO2 
 PCOD9213429
Probable space group: C 2/M
;
_chemical_formula_sum "Si O2"
_cell_formula_units_Z 56
_cell_length_a 17.448116
_cell_length_b 16.548869
_cell_length_c 15.418214
_cell_angle_alpha 90.000000
_cell_angle_beta 144.504104
_cell_angle_gamma 90.000000
_cell_volume 2585.004771
_symmetry_space_group_name_H-M "C 2/M"
_symmetry_group_IT_number 12
_symmetry_cell_setting 'monoclinic'
loop_
_space_group_symop_operation_xyz
x,y,z
-x,y,-z
-x,-y,-z
x,-y,z
1/2+x,1/2+y,z
1/2-x,1/2+y,-z
1/2-x,1/2-y,-z
1/2+x,1/2-y,z
loop_
_atom_site_type_symbol
_atom_site_label
_atom_site_fract_x
_atom_site_fract_y
_atom_site_fract_z
Si Si1 0.217012 0.337404 0.860670
Si Si2 0.123423 0.595060 0.020388
Si Si3 0.866151 0.847943 0.823772
Si Si4 0.860541 0.669372 0.773029
Si Si5 0.877989 0.166419 0.165284
Si Si6 0.076431 0.500000 0.699889
Si Si7 0.920550 0.903242 0.516649
Si Si8 0.789132 0.500000 0.368753
O O1 0.257004 0.328353 0.797565
O O2 0.138153 0.259434 0.821144
O O3 0.134313 0.419089 0.795356
O O4 0.354189 0.340263 0.041034
O O5 0.121680 0.500000 0.036732
O O6 0.986868 0.622991 0.851709
O O7 0.137539 0.643275 0.123670
O O8 0.249023 0.619968 0.081722
O O9 0.881392 0.764856 0.785785
O O10 0.804802 0.921731 0.713497
O O11 0.000000 0.868999 0.000000
O O12 0.720522 0.639530 0.611158
O O13 0.998348 0.125875 0.325144
O O14 0.142695 0.500000 0.664430
O O15 0.917779 0.500000 0.548388
O O16 0.000000 0.882502 0.500000
O O17 0.904966 0.000000 0.502013
#
# Coordination Sequence:
#
# PCOD9213429 Si02
#       8
#     8   8   8   8   8   4   8   4
#     4  10  22  38  58  84 114 152 197 236 291 353
#     4  11  20  35  58  86 116 153 193 232 288 355
#     4  11  19  38  62  87 113 149 196 243 296 343
#     4  11  20  34  57  86 118 148 187 240 292 345
#     4  11  22  37  59  84 117 158 193 239 288 354
#     4   9  20  38  58  82 113 143 192 244 294 340
#     4  11  21  33  53  86 118 150 195 241 293 340
#     4   9  21  34  60  88 107 139 192 257 289 327
#
# _framework density 21.663402999999999
#
# number of rings (size 3 to 8) (size 9 to 14) (size 15 to 20)
#    0.000    1.429    4.286    2.357    4.000    0.000 
#    0.000    0.000    3.143    2.571    0.000    0.000 
#    0.000    0.000    0.000    0.000    0.000    0.000 
#
# Total GULP energy -156535.941483 kJ/mol
# GULP energy per Si atom -5590.569339 kJ/mol
# Density = 2.161410 g / cm^3
# Si number density = 21.663403 Si / 1000 Ang^3
#
#
#
# Elastic Constant Matrix: (Units=GPa)
#
#
# Indices 1 2 3 4 5 6 
#
# 1 22.1335 4.1995 13.9194 -0.0001 7.1686 0.0000
# 2 4.1995 167.7854 62.9516 -0.0001 16.8621 0.0000
# 3 13.9194 62.9516 150.1152 -0.0002 33.1987 -0.0001
# 4 -0.0001 -0.0001 -0.0002 74.7416 -0.0001 9.6163
# 5 7.1686 16.8621 33.1987 -0.0001 32.0882 0.0000
# 6 0.0000 0.0000 -0.0001 9.6163 0.0000 11.5666
#
#
#
# Elastic Compliance Matrix: (Units=1/GPa)
#
#
# Indices 1 2 3 4 5 6 
#
# 1 0.049665 0.000748 -0.003084 0.000000 -0.008298 0.000000
# 2 0.000748 0.007102 -0.002834 0.000000 -0.000967 0.000000
# 3 -0.003084 -0.002834 0.009925 0.000000 -0.008091 0.000000
# 4 0.000000 0.000000 0.000000 0.014982 0.000000 -0.012456
# 5 -0.008298 -0.000967 -0.008091 0.000000 0.041897 0.000000
# 6 0.000000 0.000000 0.000000 -0.012456 0.000000 0.096811
#
#
# Mechanical properties :
#
#
# Convention : Reuss Voigt Hill
#
# Bulk Modulus (GPa) = 17.74525 55.79724 36.77125
# Shear Modulus (GPa) = 20.03969 40.94351 30.49160
#
# Velocity S-wave (km/s) = 3.04476 4.35211 3.75576
# Velocity P-wave (km/s) = 4.53540 7.14611 5.98485
#
# Compressibility (1/GPa) = 0.05635310
#
# Stress axis : x y z
#
# Youngs Moduli (GPa) = 20.13481 140.81337 100.75561
#
# Poissons Ratio (x) = -0.10530 0.31070
# Poissons Ratio (y) = -0.01506 0.28549
# Poissons Ratio (z) = 0.06209 0.39900
#
# Static dielectric constant tensor:
#      x y z
#    x 1.828670 0.000000 -0.000020 
#    y 0.000000 1.751430 0.000000 
#    z -0.000020 0.000000 1.749390 
# 
# From -- ./inp_files/284623.got.cif
#   From: 2010.05.17/outbox.cif.g08.bks.cpg/sg12_143_cif.got.tgz:284623.got - 2010.06.03 13:09:07.
