data_PCOD9213189
_publ_section_title
;
Structure prediction by ZEFSAII (Michael W. Deem and Ramdas Pophale) SiO2 
 PCOD9213189
Probable space group: C 2/M
;
_chemical_formula_sum "Si O2"
_cell_formula_units_Z 60
_cell_length_a 8.949430
_cell_length_b 13.968479
_cell_length_c 27.461260
_cell_angle_alpha 90.000000
_cell_angle_beta 55.817703
_cell_angle_gamma 90.000000
_cell_volume 2839.905822
_symmetry_space_group_name_H-M "C 2/M"
_symmetry_group_IT_number 12
_symmetry_cell_setting 'monoclinic'
loop_
_space_group_symop_operation_xyz
x,y,z
-x,y,-z
-x,-y,-z
x,-y,z
1/2+x,1/2+y,z
1/2-x,1/2+y,-z
1/2-x,1/2-y,-z
1/2+x,1/2-y,z
loop_
_atom_site_type_symbol
_atom_site_label
_atom_site_fract_x
_atom_site_fract_y
_atom_site_fract_z
Si Si1 0.452918 0.386296 0.651778
Si Si2 0.584186 0.204728 0.881168
Si Si3 0.456644 0.885851 0.305195
Si Si4 0.893227 0.294411 0.418276
Si Si5 0.681940 0.386854 0.810291
Si Si6 0.500000 0.242677 0.500000
Si Si7 0.078035 0.113549 0.232816
Si Si8 0.192778 0.211255 0.957603
O O1 0.484292 0.500000 0.640373
O O2 0.243456 0.365461 0.677663
O O3 0.572279 0.318929 0.596163
O O4 0.482126 0.355851 0.702506
O O5 0.592204 0.317634 0.866051
O O6 0.734851 0.156751 0.820277
O O7 0.383817 0.164949 0.906953
O O8 0.645253 0.206160 0.926543
O O9 0.475099 0.844562 0.356077
O O10 0.612204 0.856523 0.238860
O O11 0.475838 0.000000 0.305662
O O12 0.678825 0.306280 0.460622
O O13 0.977864 0.318173 0.454789
O O14 0.673116 0.500000 0.823776
O O15 0.573483 0.370021 0.780011
O O16 0.106158 0.000000 0.231553
O O17 0.250000 0.250000 0.000000
O O18 0.000000 0.158524 0.000000
#
# Coordination Sequence:
#
# PCOD9213189 Si02
#       8
#     8   8   8   8   8   4   8   8
#     4  10  22  39  60  85 117 153 185 225 287 353
#     4  11  19  36  63  84 112 158 186 231 295 334
#     4  10  22  39  60  85 117 153 184 226 288 350
#     4  11  21  42  60  84 113 152 186 246 279 340
#     4  10  22  37  57  90 122 146 185 234 283 348
#     4  10  24  38  60  84 112 144 200 242 286 314
#     4  10  22  37  57  90 121 147 186 231 283 351
#     4   9  20  36  58  84 112 151 202 238 275 329
#
# _framework density 21.127461
#
# number of rings (size 3 to 8) (size 9 to 14) (size 15 to 20)
#    0.000    1.867    2.667    0.800    3.733    2.133 
#    0.000    4.000    0.000   16.000    0.000    0.000 
#    0.000    0.000    0.000    0.000    0.000    0.000 
#
# Total GULP energy -167401.969569 kJ/mol
# GULP energy per Si atom -5580.065652 kJ/mol
# Density = 2.107937 g / cm^3
# Si number density = 21.127461 Si / 1000 Ang^3
#
#
#
# Elastic Constant Matrix: (Units=GPa)
#
#
# Indices 1 2 3 4 5 6 
#
# 1 80.8577 21.6988 24.9364 0.0000 -0.3125 0.0000
# 2 21.6988 30.3096 22.2948 0.0000 0.1024 0.0000
# 3 24.9364 22.2948 84.0040 0.0000 -2.8970 0.0000
# 4 0.0000 0.0000 0.0000 7.9978 0.0000 -2.2470
# 5 -0.3125 0.1024 -2.8970 0.0000 46.4689 0.0000
# 6 0.0000 0.0000 0.0000 -2.2470 0.0000 14.2304
#
#
#
# Elastic Compliance Matrix: (Units=1/GPa)
#
#
# Indices 1 2 3 4 5 6 
#
# 1 0.015593 -0.009640 -0.002070 0.000000 -0.000003 0.000000
# 2 -0.009640 0.046984 -0.009634 0.000000 -0.000769 0.000000
# 3 -0.002070 -0.009634 0.015108 0.000000 0.000949 0.000000
# 4 0.000000 0.000000 0.000000 0.130839 0.000000 0.020660
# 5 -0.000003 -0.000769 0.000949 0.000000 0.021581 0.000000
# 6 0.000000 0.000000 0.000000 0.020660 0.000000 0.073534
#
#
# Mechanical properties :
#
#
# Convention : Reuss Voigt Hill
#
# Bulk Modulus (GPa) = 28.57526 37.00349 32.78937
# Shear Modulus (GPa) = 13.96671 22.15549 18.06110
#
# Velocity S-wave (km/s) = 2.57392 3.24181 2.92698
# Velocity P-wave (km/s) = 4.73159 5.61826 5.19388
#
# Compressibility (1/GPa) = 0.03499531
#
# Stress axis : x y z
#
# Youngs Moduli (GPa) = 64.13175 21.28395 66.18803
#
# Poissons Ratio (x) = 0.20518 0.13703
# Poissons Ratio (y) = 0.61824 0.63768
# Poissons Ratio (z) = 0.13277 0.20506
#
# Static dielectric constant tensor:
#      x y z
#    x 1.800170 0.000000 -0.003050 
#    y 0.000000 1.747440 0.000000 
#    z -0.003050 0.000000 1.784060 
# 
# From -- ./inp_files/356560.got.cif
#   From: 2010.05.17/outbox.cif.g08.bks.cpg/sg12_179_cif.got.tgz:356560.got - 2010.06.03 13:09:07.
