data_PCOD9213496
_publ_section_title
;
Structure prediction by ZEFSAII (Michael W. Deem and Ramdas Pophale) SiO2 
 PCOD9213496
Probable space group: C 2/M
;
_chemical_formula_sum "Si O2"
_cell_formula_units_Z 44
_cell_length_a 24.051392
_cell_length_b 15.795104
_cell_length_c 15.677347
_cell_angle_alpha 90.000000
_cell_angle_beta 163.232018
_cell_angle_gamma 90.000000
_cell_volume 1718.210040
_symmetry_space_group_name_H-M "C 2/M"
_symmetry_group_IT_number 12
_symmetry_cell_setting 'monoclinic'
loop_
_space_group_symop_operation_xyz
x,y,z
-x,y,-z
-x,-y,-z
x,-y,z
1/2+x,1/2+y,z
1/2-x,1/2+y,-z
1/2-x,1/2-y,-z
1/2+x,1/2-y,z
loop_
_atom_site_type_symbol
_atom_site_label
_atom_site_fract_x
_atom_site_fract_y
_atom_site_fract_z
Si Si1 0.949384 0.176435 0.206245
Si Si2 0.807954 0.500000 0.909524
Si Si3 0.071543 0.500000 0.719351
Si Si4 0.547156 0.669868 0.164369
Si Si5 0.020693 0.316797 0.626186
Si Si6 0.502714 0.500000 0.330699
Si Si7 0.933504 0.372306 0.809282
O O1 0.046658 0.258424 0.393937
O O2 0.910316 0.177272 0.047879
O O3 0.069342 0.091422 0.396387
O O4 0.753459 0.170328 0.973137
O O5 0.592356 0.500000 0.556585
O O6 0.845681 0.500000 0.064173
O O7 0.914209 0.416028 0.029813
O O8 0.954024 0.414240 0.531327
O O9 0.276648 0.500000 0.971196
O O10 0.725865 0.613754 0.460388
O O11 0.581216 0.770653 0.203638
O O12 0.500000 0.638865 0.000000
O O13 0.000000 0.279455 0.500000
O O14 0.000000 0.403625 0.000000
#
# Coordination Sequence:
#
# PCOD9213496 Si02
#       7
#     8   4   4   8   8   4   8
#     4  10  22  40  61  90 125 167 213 264 325 389
#     4  12  22  37  64  89 122 167 212 267 323 389
#     4  10  22  39  59  94 127 159 209 265 330 390
#     4  10  22  41  62  89 128 170 214 266 324 385
#     4  10  22  39  64  92 123 165 213 262 326 394
#     4  10  23  40  61  91 129 164 209 274 328 375
#     4  10  22  38  59  89 122 165 218 265 315 380
#
# _framework density 25.608045000000001
#
# number of rings (size 3 to 8) (size 9 to 14) (size 15 to 20)
#    0.000    1.818    0.000    3.000    0.000   12.364 
#    0.000    1.818    0.000    0.000    0.000    0.000 
#    0.000    0.000    0.000    0.000    0.000    0.000 
#
# Total GULP energy -122569.852625 kJ/mol
# GULP energy per Si atom -5571.356938 kJ/mol
# Density = 2.554976 g / cm^3
# Si number density = 25.608045 Si / 1000 Ang^3
#
#
#
# Elastic Constant Matrix: (Units=GPa)
#
#
# Indices 1 2 3 4 5 6 
#
# 1 146.7571 43.7050 53.0604 0.0000 -47.3754 0.0000
# 2 43.7050 121.7416 43.2662 0.0000 -20.9968 0.0000
# 3 53.0604 43.2662 95.7379 0.0000 -30.1028 0.0000
# 4 0.0000 0.0000 0.0000 8.1599 0.0000 -20.4559
# 5 -47.3754 -20.9968 -30.1028 0.0000 39.0185 0.0000
# 6 0.0000 0.0000 0.0000 -20.4559 0.0000 3.8424
#
#
#
# Elastic Compliance Matrix: (Units=1/GPa)
#
#
# Indices 1 2 3 4 5 6 
#
# 1 0.011901 -0.001429 -0.002176 0.000000 0.012002 0.000000
# 2 -0.001429 0.010138 -0.003459 0.000000 0.001052 0.000000
# 3 -0.002176 -0.003459 0.015577 0.000000 0.007514 0.000000
# 4 0.000000 0.000000 0.000000 -0.009926 0.000000 -0.052845
# 5 0.012002 0.001052 0.007514 0.000000 0.046564 0.000000
# 6 0.000000 0.000000 0.000000 -0.052845 0.000000 -0.021080
#
#
# Mechanical properties :
#
#
# Convention : Reuss Voigt Hill
#
# Bulk Modulus (GPa) = 42.57571 71.58885 57.08228
# Shear Modulus (GPa) = 66.55117 25.15116 45.85116
#
# Velocity S-wave (km/s) = 5.10341 3.13734 4.23602
# Velocity P-wave (km/s) = 7.16857 6.41406 6.80179
#
# Compressibility (1/GPa) = 0.02348757
#
# Stress axis : x y z
#
# Youngs Moduli (GPa) = 84.02904 98.64105 64.19699
#
# Poissons Ratio (x) = 0.14096 0.13971
# Poissons Ratio (y) = 0.12008 0.22204
# Poissons Ratio (z) = 0.18286 0.34118
#
# Static dielectric constant tensor:
#      x y z
#    x 2.071290 0.000000 0.034500 
#    y 0.000000 2.108180 0.000000 
#    z 0.034500 0.000000 2.062890 
# 
# From -- ./inp_files/241581.got.cif
#   From: 2010.05.17/outbox.cif.g08.bks.cpg/sg12_121_cif.got.tgz:241581.got - 2010.06.03 13:09:07.
