data_PCOD9213618
_publ_section_title
;
Structure prediction by ZEFSAII (Michael W. Deem and Ramdas Pophale) SiO2 
 PCOD9213618
Probable space group: C 2/M
;
_chemical_formula_sum "Si O2"
_cell_formula_units_Z 48
_cell_length_a 25.284399
_cell_length_b 14.782958
_cell_length_c 22.243458
_cell_angle_alpha 90.000000
_cell_angle_beta 162.617914
_cell_angle_gamma 90.000000
_cell_volume 2483.780348
_symmetry_space_group_name_H-M "C 2/M"
_symmetry_group_IT_number 12
_symmetry_cell_setting 'monoclinic'
loop_
_space_group_symop_operation_xyz
x,y,z
-x,y,-z
-x,-y,-z
x,-y,z
1/2+x,1/2+y,z
1/2-x,1/2+y,-z
1/2-x,1/2-y,-z
1/2+x,1/2-y,z
loop_
_atom_site_type_symbol
_atom_site_label
_atom_site_fract_x
_atom_site_fract_y
_atom_site_fract_z
Si Si1 0.586279 0.794922 0.653593
Si Si2 0.272262 0.318939 0.080264
Si Si3 0.218508 0.295797 0.592828
Si Si4 0.439054 0.397110 0.003452
Si Si5 0.646090 0.599671 0.486096
Si Si6 0.904932 0.398349 0.655064
O O1 0.500000 0.751320 0.500000
O O2 0.678306 0.732043 0.804002
O O3 0.416682 0.836728 0.504572
O O4 0.740935 0.862052 0.799759
O O5 0.439528 0.383218 0.249710
O O6 0.250000 0.250000 0.000000
O O7 0.090675 0.373592 0.887009
O O8 0.211893 0.187602 0.593964
O O9 0.136727 0.324449 0.440511
O O10 0.415398 0.333713 0.807667
O O11 0.455276 0.500000 0.042925
O O12 0.500000 0.395024 0.000000
O O13 0.672992 0.500000 0.542526
O O14 0.753472 0.602873 0.540628
O O15 0.912907 0.500000 0.637376
#
# Coordination Sequence:
#
# PCOD9213618 Si02
#       6
#     8   8   8   8   8   8
#     4  11  23  41  62  88 121 171 209 250 309 366
#     4  11  22  40  62  90 124 163 208 257 312 362
#     4  11  22  40  62  89 130 160 209 254 313 364
#     4  11  24  39  60  92 127 166 207 249 302 376
#     4  10  22  38  62  89 123 161 203 260 313 365
#     4  11  22  37  62  94 127 164 203 255 314 373
#
# _framework density 19.325379999999999
#
# number of rings (size 3 to 8) (size 9 to 14) (size 15 to 20)
#    0.000    1.167    5.000    2.500    2.333    1.667 
#    0.000    0.000    0.000   13.000    0.000    0.000 
#    0.000    0.000    0.000    0.000    0.000    0.000 
#
# Total GULP energy -133858.982079 kJ/mol
# GULP energy per Si atom -5577.457587 kJ/mol
# Density = 1.928139 g / cm^3
# Si number density = 19.325380 Si / 1000 Ang^3
#
#
#
# Elastic Constant Matrix: (Units=GPa)
#
#
# Indices 1 2 3 4 5 6 
#
# 1 71.7940 20.0043 33.3044 0.0130 13.3140 0.0040
# 2 20.0043 117.6902 47.0998 0.0206 6.0934 0.0097
# 3 33.3044 47.0998 100.3104 0.0231 0.6669 0.0108
# 4 0.0130 0.0206 0.0231 17.9511 0.0125 1.2895
# 5 13.3140 6.0934 0.6669 0.0125 36.3866 0.0057
# 6 0.0040 0.0097 0.0108 1.2895 0.0057 14.3950
#
#
#
# Elastic Compliance Matrix: (Units=1/GPa)
#
#
# Indices 1 2 3 4 5 6 
#
# 1 0.017867 -0.000432 -0.005687 -0.000001 -0.006361 0.000002
# 2 -0.000432 0.010575 -0.004812 -0.000004 -0.001525 -0.000002
# 3 -0.005687 -0.004812 0.014099 -0.000010 0.002628 -0.000006
# 4 -0.000001 -0.000004 -0.000010 0.056068 -0.000017 -0.005022
# 5 -0.006361 -0.001525 0.002628 -0.000017 0.030017 -0.000010
# 6 0.000002 -0.000002 -0.000006 -0.005022 -0.000010 0.069918
#
#
# Mechanical properties :
#
#
# Convention : Reuss Voigt Hill
#
# Bulk Modulus (GPa) = 48.35656 54.51241 51.43449
# Shear Modulus (GPa) = 21.99748 26.37228 24.18488
#
# Velocity S-wave (km/s) = 3.37748 3.69812 3.54143
# Velocity P-wave (km/s) = 6.34716 6.81936 6.58749
#
# Compressibility (1/GPa) = 0.02067972
#
# Stress axis : x y z
#
# Youngs Moduli (GPa) = 55.96974 94.56323 70.92617
#
# Poissons Ratio (x) = 0.04081 0.40336
# Poissons Ratio (y) = 0.02416 0.34129
# Poissons Ratio (z) = 0.31830 0.45503
#
# Static dielectric constant tensor:
#      x y z
#    x 1.682150 0.000000 0.000230 
#    y 0.000000 1.705000 -0.000010 
#    z 0.000230 -0.000010 1.679060 
# 
# From -- ./inp_files/325695.got.cif
#   From: 2010.05.17/outbox.cif.g08.bks.cpg/sg12_163_cif.got.tgz:325695.got - 2010.06.03 13:09:07.
