data_PCOD9213530
_publ_section_title
;
Structure prediction by ZEFSAII (Michael W. Deem and Ramdas Pophale) SiO2 
 PCOD9213530
Probable space group: C 2/M
;
_chemical_formula_sum "Si O2"
_cell_formula_units_Z 56
_cell_length_a 22.034779
_cell_length_b 31.796195
_cell_length_c 9.472974
_cell_angle_alpha 90.000000
_cell_angle_beta 26.208449
_cell_angle_gamma 90.000000
_cell_volume 2931.141526
_symmetry_space_group_name_H-M "C 2/M"
_symmetry_group_IT_number 12
_symmetry_cell_setting 'monoclinic'
loop_
_space_group_symop_operation_xyz
x,y,z
-x,y,-z
-x,-y,-z
x,-y,z
1/2+x,1/2+y,z
1/2-x,1/2+y,-z
1/2-x,1/2-y,-z
1/2+x,1/2-y,z
loop_
_atom_site_type_symbol
_atom_site_label
_atom_site_fract_x
_atom_site_fract_y
_atom_site_fract_z
Si Si1 0.756649 0.876469 0.814725
Si Si2 0.891423 0.744170 0.117627
Si Si3 0.352732 0.048362 0.476702
Si Si4 0.239257 0.871723 0.864698
Si Si5 0.505983 0.338438 0.148172
Si Si6 0.006994 0.318138 0.326876
Si Si7 0.684438 0.048290 0.770269
O O1 0.756151 0.919912 0.728721
O O2 0.856173 0.844420 0.526105
O O3 0.797477 0.875889 0.893664
O O4 0.601460 0.859516 0.135126
O O5 0.750000 0.750000 0.500000
O O6 0.945634 0.790250 0.962829
O O7 0.911217 0.714306 0.942239
O O8 0.000000 0.724834 0.000000
O O9 0.299368 0.083585 0.692381
O O10 0.297834 0.058415 0.433050
O O11 0.314006 0.000000 0.589976
O O12 0.518692 0.050001 0.132446
O O13 0.355155 0.834911 0.602906
O O14 0.112116 0.861531 0.029125
O O15 0.500000 0.354810 0.000000
O O16 0.000000 0.300454 0.500000
O O17 0.727289 0.000000 0.704413
#
# Coordination Sequence:
#
# PCOD9213530 Si02
#       7
#     8   8   8   8   8   8   8
#     4  11  22  38  58  88 123 156 197 239 293 360
#     4  11  23  41  62  88 115 150 203 250 293 347
#     4   9  18  34  58  89 119 153 197 244 292 340
#     4  11  22  38  59  88 119 159 197 240 294 354
#     4  11  24  41  59  83 117 157 196 244 301 348
#     4  10  22  38  60  88 120 154 194 242 299 354
#     4   9  18  34  58  88 120 155 196 243 292 343
#
# _framework density 19.105184000000001
#
# number of rings (size 3 to 8) (size 9 to 14) (size 15 to 20)
#    0.000    1.714    1.429    4.714    0.000    2.857 
#    0.000    5.714    0.000    4.286    0.000    0.000 
#    0.000    0.000    0.000    0.000    0.000    0.000 
#
# Total GULP energy -156152.390653 kJ/mol
# GULP energy per Si atom -5576.871095 kJ/mol
# Density = 1.906170 g / cm^3
# Si number density = 19.105184 Si / 1000 Ang^3
#
#
#
# Elastic Constant Matrix: (Units=GPa)
#
#
# Indices 1 2 3 4 5 6 
#
# 1 105.4065 36.3237 46.4383 -0.0003 13.8700 -0.0001
# 2 36.3237 73.0438 32.0089 -0.0008 25.3846 -0.0003
# 3 46.4383 32.0089 92.5326 0.0011 22.3320 0.0005
# 4 -0.0003 -0.0008 0.0011 -155.9754 -0.0002 -67.0292
# 5 13.8700 25.3846 22.3320 -0.0002 37.5919 -0.0001
# 6 -0.0001 -0.0003 0.0005 -67.0292 -0.0001 -2.1579
#
#
#
# Elastic Compliance Matrix: (Units=1/GPa)
#
#
# Indices 1 2 3 4 5 6 
#
# 1 0.013312 -0.004786 -0.005393 0.000000 0.001524 0.000000
# 2 -0.004786 0.020846 -0.002146 0.000000 -0.011036 0.000000
# 3 -0.005393 -0.002146 0.015673 0.000000 -0.005872 0.000000
# 4 0.000000 0.000000 0.000000 0.000519 0.000000 -0.016127
# 5 0.001524 -0.011036 -0.005872 0.000000 0.036980 0.000000
# 6 0.000000 0.000000 0.000000 -0.016127 0.000000 0.037527
#
#
# Mechanical properties :
#
#
# Convention : Reuss Voigt Hill
#
# Bulk Modulus (GPa) = 39.71184 55.61384 47.66284
# Shear Modulus (GPa) = 31.66566 -13.69414 8.98576
#
# Velocity S-wave (km/s) = 4.07558 -2.68017 2.17106
# Velocity P-wave (km/s) = 6.55577 4.42659 5.59343
#
# Compressibility (1/GPa) = 0.02518141
#
# Stress axis : x y z
#
# Youngs Moduli (GPa) = 75.12152 47.97058 63.80484
#
# Poissons Ratio (x) = 0.22960 0.34409
# Poissons Ratio (y) = 0.35955 0.13690
# Poissons Ratio (z) = 0.40512 0.10293
#
# Static dielectric constant tensor:
#      x y z
#    x 1.630380 0.000000 -0.034740 
#    y 0.000000 1.655050 0.000000 
#    z -0.034740 0.000000 1.641620 
# 
# From -- ./inp_files/91526.got.cif
#   From: 2010.05.17/outbox.cif.g08.bks.cpg/sg12_46_cif.got.tgz:91526.got - 2010.06.03 13:09:07.
