data_PCOD9213150
_publ_section_title
;
Structure prediction by ZEFSAII (Michael W. Deem and Ramdas Pophale) SiO2 
 PCOD9213150
Probable space group: C 2/M
;
_chemical_formula_sum "Si O2"
_cell_formula_units_Z 56
_cell_length_a 17.461722
_cell_length_b 30.992875
_cell_length_c 5.402812
_cell_angle_alpha 90.000000
_cell_angle_beta 110.188913
_cell_angle_gamma 90.000000
_cell_volume 2744.294714
_symmetry_space_group_name_H-M "C 2/M"
_symmetry_group_IT_number 12
_symmetry_cell_setting 'monoclinic'
loop_
_space_group_symop_operation_xyz
x,y,z
-x,y,-z
-x,-y,-z
x,-y,z
1/2+x,1/2+y,z
1/2-x,1/2+y,-z
1/2-x,1/2-y,-z
1/2+x,1/2-y,z
loop_
_atom_site_type_symbol
_atom_site_label
_atom_site_fract_x
_atom_site_fract_y
_atom_site_fract_z
Si Si1 0.916230 0.676869 0.554486
Si Si2 0.195698 0.048816 0.752292
Si Si3 0.298948 0.126230 0.687208
Si Si4 0.850359 0.156551 0.764874
Si Si5 0.764283 0.300634 0.026334
Si Si6 0.908246 0.066559 0.863139
Si Si7 0.950754 0.228724 0.701493
O O1 0.887813 0.633981 0.669409
O O2 0.840601 0.689998 0.293300
O O3 0.927995 0.721294 0.720170
O O4 0.000000 0.669632 0.500000
O O5 0.267856 0.084671 0.804194
O O6 0.135529 0.052696 0.443888
O O7 0.228122 0.000000 0.790250
O O8 0.145318 0.056048 0.951179
O O9 0.230527 0.130210 0.401077
O O10 0.287344 0.171103 0.818296
O O11 0.821644 0.180096 0.978018
O O12 0.913927 0.118550 0.856058
O O13 0.876856 0.194817 0.611982
O O14 0.750000 0.250000 0.000000
O O15 0.000000 0.049402 0.000000
O O16 0.000000 0.227067 0.500000
O O17 0.000000 0.214477 0.000000
#
# Coordination Sequence:
#
# PCOD9213150 Si02
#       7
#     8   8   8   8   8   8   8
#     4  10  24  39  57  90 123 162 212 264 314 369
#     4  11  24  43  66  92 124 162 210 263 318 381
#     4  10  22  39  62  86 120 161 212 260 314 374
#     4  10  22  37  55  86 123 166 213 254 300 362
#     4  11  21  36  63  85 121 165 212 255 306 366
#     4  11  23  40  62  94 131 167 208 257 313 370
#     4  11  25  37  56  86 127 171 211 253 304 360
#
# _framework density 20.405971999999998
#
# number of rings (size 3 to 8) (size 9 to 14) (size 15 to 20)
#    0.000    1.429    1.429    3.000   10.000    6.286 
#    0.000    0.000    0.000    0.429    0.000    1.000 
#    0.000    0.000    0.000    0.000    0.000    0.000 
#
# Total GULP energy -156059.898997 kJ/mol
# GULP energy per Si atom -5573.567821 kJ/mol
# Density = 2.035953 g / cm^3
# Si number density = 20.405972 Si / 1000 Ang^3
#
#
#
# Elastic Constant Matrix: (Units=GPa)
#
#
# Indices 1 2 3 4 5 6 
#
# 1 101.2742 47.3127 7.0257 0.0000 -16.0751 0.0000
# 2 47.3127 108.3630 3.4042 0.0000 -13.4495 0.0000
# 3 7.0257 3.4042 75.5929 0.0000 -9.5693 0.0000
# 4 0.0000 0.0000 0.0000 9.8943 0.0000 5.1380
# 5 -16.0751 -13.4495 -9.5693 0.0000 27.4722 0.0000
# 6 0.0000 0.0000 0.0000 5.1380 0.0000 6.0176
#
#
#
# Elastic Compliance Matrix: (Units=1/GPa)
#
#
# Indices 1 2 3 4 5 6 
#
# 1 0.013067 -0.005068 -0.000348 0.000000 0.005043 0.000000
# 2 -0.005068 0.011793 0.000309 0.000000 0.002916 0.000000
# 3 -0.000348 0.000309 0.013851 0.000000 0.004773 0.000000
# 4 0.000000 0.000000 0.000000 0.181572 0.000000 -0.155029
# 5 0.005043 0.002916 0.004773 0.000000 0.042441 0.000000
# 6 0.000000 0.000000 0.000000 -0.155029 0.000000 0.298544
#
#
# Mechanical properties :
#
#
# Convention : Reuss Voigt Hill
#
# Bulk Modulus (GPa) = 35.09086 44.52391 39.80739
# Shear Modulus (GPa) = 8.60613 23.84268 16.22440
#
# Velocity S-wave (km/s) = 2.05587 3.42192 2.82278
# Velocity P-wave (km/s) = 4.78217 6.12202 5.49310
#
# Compressibility (1/GPa) = 0.02849745
#
# Stress axis : x y z
#
# Youngs Moduli (GPa) = 76.53135 84.79452 72.19530
#
# Poissons Ratio (x) = 0.42975 0.02511
# Poissons Ratio (y) = 0.38787 -0.02231
# Poissons Ratio (z) = 0.02661 -0.02621
#
# Static dielectric constant tensor:
#      x y z
#    x 1.804480 0.000000 0.033390 
#    y 0.000000 1.804540 0.000000 
#    z 0.033390 0.000000 1.793300 
# 
# From -- ./inp_files/17705.got.cif
#   From: 2010.05.17/outbox.cif.g08.bks.cpg/sg12_9_cif.got.tgz:17705.got - 2010.06.03 13:09:07.
