data_PCOD9213570
_publ_section_title
;
Structure prediction by ZEFSAII (Michael W. Deem and Ramdas Pophale) SiO2 
 PCOD9213570
Probable space group: C 2/M
;
_chemical_formula_sum "Si O2"
_cell_formula_units_Z 60
_cell_length_a 23.444777
_cell_length_b 9.545743
_cell_length_c 20.175524
_cell_angle_alpha 90.000000
_cell_angle_beta 135.950351
_cell_angle_gamma 90.000000
_cell_volume 3139.361346
_symmetry_space_group_name_H-M "C 2/M"
_symmetry_group_IT_number 12
_symmetry_cell_setting 'monoclinic'
loop_
_space_group_symop_operation_xyz
x,y,z
-x,y,-z
-x,-y,-z
x,-y,z
1/2+x,1/2+y,z
1/2-x,1/2+y,-z
1/2-x,1/2-y,-z
1/2+x,1/2-y,z
loop_
_atom_site_type_symbol
_atom_site_label
_atom_site_fract_x
_atom_site_fract_y
_atom_site_fract_z
Si Si1 0.761515 0.500000 0.530551
Si Si2 0.789682 0.336406 0.368701
Si Si3 0.134138 0.837253 0.087132
Si Si4 0.634309 0.243344 0.429704
Si Si5 0.552886 0.665532 0.741718
Si Si6 0.171534 0.338046 0.747576
Si Si7 0.473590 0.663705 0.133594
Si Si8 0.875820 0.668061 0.788802
O O1 0.690028 0.378927 0.464847
O O2 0.832725 0.622144 0.590163
O O3 0.762464 0.500000 0.346513
O O4 0.844775 0.310659 0.478536
O O5 0.835116 0.311144 0.336968
O O6 0.711464 0.234488 0.305086
O O7 0.231477 0.821338 0.156717
O O8 0.110249 0.730707 0.125321
O O9 0.120423 0.000000 0.097579
O O10 0.083638 0.815416 0.978069
O O11 0.539166 0.277967 0.344563
O O12 0.553438 0.500000 0.729145
O O13 0.615674 0.741026 0.745533
O O14 0.572776 0.687867 0.836020
O O15 0.149777 0.500000 0.741283
O O16 0.500825 0.500000 0.156451
O O17 0.551268 0.764750 0.192592
O O18 0.873221 0.500000 0.785595
#
# Coordination Sequence:
#
# PCOD9213570 Si02
#       8
#     4   8   8   8   8   8   8   8
#     4  10  24  38  62  88 128 158 194 236 294 356
#     4  10  22  41  63  86 114 163 203 238 292 357
#     4   9  19  41  63  85 114 159 201 240 289 356
#     4  11  23  40  61  91 123 164 192 241 291 352
#     4  11  25  41  57  88 121 155 196 248 298 345
#     4   9  21  41  63  83 112 150 205 250 291 351
#     4  10  22  38  61  84 118 161 200 236 296 361
#     4  11  23  34  58  93 126 150 191 246 299 352
#
# _framework density 19.112165999999998
#
# number of rings (size 3 to 8) (size 9 to 14) (size 15 to 20)
#    0.000    1.867    1.333    2.400    5.600    5.867 
#    0.000    2.000    0.000    0.000    0.000    0.000 
#    0.000    0.000    0.000    0.000    0.000    0.000 
#
# Total GULP energy -167116.578895 kJ/mol
# GULP energy per Si atom -5570.552630 kJ/mol
# Density = 1.906867 g / cm^3
# Si number density = 19.112166 Si / 1000 Ang^3
#
#
#
# Elastic Constant Matrix: (Units=GPa)
#
#
# Indices 1 2 3 4 5 6 
#
# 1 94.8435 74.1275 20.8964 0.0000 -5.6210 0.0000
# 2 74.1275 130.4465 22.8729 0.0000 -9.4844 0.0000
# 3 20.8964 22.8729 65.0697 0.0000 -20.1513 0.0000
# 4 0.0000 0.0000 0.0000 14.6223 0.0000 19.8124
# 5 -5.6210 -9.4844 -20.1513 0.0000 19.8926 0.0000
# 6 0.0000 0.0000 0.0000 19.8124 0.0000 -12.8160
#
#
#
# Elastic Compliance Matrix: (Units=1/GPa)
#
#
# Indices 1 2 3 4 5 6 
#
# 1 0.019472 -0.010684 -0.003455 0.000000 -0.003092 0.000000
# 2 -0.010684 0.014060 -0.000539 0.000000 0.003138 0.000000
# 3 -0.003455 -0.000539 0.023730 0.000000 0.022805 0.000000
# 4 0.000000 0.000000 0.000000 0.022099 0.000000 0.034163
# 5 -0.003092 0.003138 0.022805 0.000000 0.073994 0.000000
# 6 0.000000 0.000000 0.000000 0.034163 0.000000 -0.025214
#
#
# Mechanical properties :
#
#
# Convention : Reuss Voigt Hill
#
# Bulk Modulus (GPa) = 35.83644 58.46147 47.14896
# Shear Modulus (GPa) = 29.97597 15.83732 22.90664
#
# Velocity S-wave (km/s) = 3.96463 2.88175 3.46575
# Velocity P-wave (km/s) = 6.30468 6.45970 6.38266
#
# Compressibility (1/GPa) = 0.02790455
#
# Stress axis : x y z
#
# Youngs Moduli (GPa) = 51.35507 71.12296 42.14136
#
# Poissons Ratio (x) = 0.75990 0.14561
# Poissons Ratio (y) = 0.54869 0.02273
# Poissons Ratio (z) = 0.17744 0.03836
#
# Static dielectric constant tensor:
#      x y z
#    x 1.657850 0.000000 -0.046200 
#    y 0.000000 1.643210 0.000000 
#    z -0.046200 0.000000 1.689670 
# 
# From -- ./inp_files/320536.got.cif
#   From: 2010.05.17/outbox.cif.g08.bks.cpg/sg12_161_cif.got.tgz:320536.got - 2010.06.03 13:09:07.
