data_PCOD9213918
_publ_section_title
;
Structure prediction by ZEFSAII (Michael W. Deem and Ramdas Pophale) SiO2 
 PCOD9213918
Probable space group: C 2/M
;
_chemical_formula_sum "Si O2"
_cell_formula_units_Z 48
_cell_length_a 13.869786
_cell_length_b 12.564665
_cell_length_c 14.567953
_cell_angle_alpha 90.000000
_cell_angle_beta 95.365747
_cell_angle_gamma 90.000000
_cell_volume 2527.621065
_symmetry_space_group_name_H-M "C 2/M"
_symmetry_group_IT_number 12
_symmetry_cell_setting 'monoclinic'
loop_
_space_group_symop_operation_xyz
x,y,z
-x,y,-z
-x,-y,-z
x,-y,z
1/2+x,1/2+y,z
1/2-x,1/2+y,-z
1/2-x,1/2-y,-z
1/2+x,1/2-y,z
loop_
_atom_site_type_symbol
_atom_site_label
_atom_site_fract_x
_atom_site_fract_y
_atom_site_fract_z
Si Si1 0.155399 0.237336 0.367401
Si Si2 0.762765 0.118628 0.231508
Si Si3 0.159609 0.375366 0.549359
Si Si4 0.168884 0.673156 0.036993
Si Si5 0.553050 0.252736 0.699253
Si Si6 0.514439 0.877555 0.875266
O O1 0.197885 0.298472 0.282892
O O2 0.148544 0.324300 0.448101
O O3 0.230599 0.148591 0.407853
O O4 0.049246 0.196391 0.335315
O O5 0.731030 0.117389 0.122583
O O6 0.870705 0.162364 0.255639
O O7 0.752077 0.000000 0.268661
O O8 0.137200 0.500000 0.548916
O O9 0.095163 0.307511 0.614356
O O10 0.069591 0.696645 0.087254
O O11 0.250000 0.750000 0.000000
O O12 0.112715 0.623188 0.944600
O O13 0.536627 0.164991 0.776794
O O14 0.478232 0.000000 0.872152
#
# Coordination Sequence:
#
# PCOD9213918 Si02
#       6
#     8   8   8   8   8   8
#     4  10  22  39  60  85 119 156 193 238 289 345
#     4  11  22  38  60  85 116 157 198 236 286 348
#     4  10  22  39  60  88 119 153 193 240 290 341
#     4  11  21  37  59  84 115 149 192 243 283 337
#     4  11  22  37  59  90 119 150 192 241 289 339
#     4  11  22  37  60  88 114 152 195 235 289 346
#
# _framework density 18.990186999999999
#
# number of rings (size 3 to 8) (size 9 to 14) (size 15 to 20)
#    0.000    1.333    3.333    3.500    0.000    3.333 
#    0.000    0.000    0.000   10.000    0.000    0.000 
#    0.000    0.000    0.000    0.000    0.000    0.000 
#
# Total GULP energy -133688.134241 kJ/mol
# GULP energy per Si atom -5570.338927 kJ/mol
# Density = 1.894696 g / cm^3
# Si number density = 18.990187 Si / 1000 Ang^3
#
#
#
# Elastic Constant Matrix: (Units=GPa)
#
#
# Indices 1 2 3 4 5 6 
#
# 1 122.9664 4.6052 18.0323 0.0000 22.6686 0.0000
# 2 4.6052 25.7453 -8.8169 0.0000 0.9152 0.0000
# 3 18.0323 -8.8169 77.2658 0.0000 3.1451 0.0000
# 4 0.0000 0.0000 0.0000 11.8137 0.0000 -3.6300
# 5 22.6686 0.9152 3.1451 0.0000 35.7874 0.0000
# 6 0.0000 0.0000 0.0000 -3.6300 0.0000 6.3558
#
#
#
# Elastic Compliance Matrix: (Units=1/GPa)
#
#
# Indices 1 2 3 4 5 6 
#
# 1 0.009628 -0.002292 -0.002271 0.000000 -0.005840 0.000000
# 2 -0.002292 0.041042 0.005221 0.000000 -0.000056 0.000000
# 3 -0.002271 0.005221 0.014065 0.000000 0.000069 0.000000
# 4 0.000000 0.000000 0.000000 0.102664 0.000000 0.058635
# 5 -0.005840 -0.000056 0.000069 0.000000 0.031638 0.000000
# 6 0.000000 0.000000 0.000000 0.058635 0.000000 0.190826
#
#
# Mechanical properties :
#
#
# Convention : Reuss Voigt Hill
#
# Bulk Modulus (GPa) = 15.14002 28.17986 21.65994
# Shear Modulus (GPa) = 12.17837 24.93518 18.55677
#
# Velocity S-wave (km/s) = 2.53513 3.62754 3.12937
# Velocity P-wave (km/s) = 4.06928 5.69358 4.94853
#
# Compressibility (1/GPa) = 0.06605013
#
# Stress axis : x y z
#
# Youngs Moduli (GPa) = 103.86598 24.36536 71.09739
#
# Poissons Ratio (x) = 0.05585 0.16145
# Poissons Ratio (y) = 0.23808 -0.37117
# Poissons Ratio (z) = 0.23586 -0.12720
#
# Static dielectric constant tensor:
#      x y z
#    x 1.688700 0.000000 0.015570 
#    y 0.000000 1.610210 0.000000 
#    z 0.015570 0.000000 1.660670 
# 
# From -- ./inp_files/212849.got.cif
#   From: 2010.05.17/outbox.cif.g08.bks.cpg/sg12_107_cif.got.tgz:212849.got - 2010.06.03 13:09:07.
