data_PCOD9213194
_publ_section_title
;
Structure prediction by ZEFSAII (Michael W. Deem and Ramdas Pophale) SiO2 
 PCOD9213194
Probable space group: C 2/M
;
_chemical_formula_sum "Si O2"
_cell_formula_units_Z 64
_cell_length_a 25.014438
_cell_length_b 21.948204
_cell_length_c 10.387136
_cell_angle_alpha 90.000000
_cell_angle_beta 146.764376
_cell_angle_gamma 90.000000
_cell_volume 3125.591302
_symmetry_space_group_name_H-M "C 2/M"
_symmetry_group_IT_number 12
_symmetry_cell_setting 'monoclinic'
loop_
_space_group_symop_operation_xyz
x,y,z
-x,y,-z
-x,-y,-z
x,-y,z
1/2+x,1/2+y,z
1/2-x,1/2+y,-z
1/2-x,1/2-y,-z
1/2+x,1/2-y,z
loop_
_atom_site_type_symbol
_atom_site_label
_atom_site_fract_x
_atom_site_fract_y
_atom_site_fract_z
Si Si1 0.207755 0.570768 0.295727
Si Si2 0.325602 0.928901 0.470614
Si Si3 0.631996 0.569215 0.912237
Si Si4 0.824601 0.817732 0.421245
Si Si5 0.647874 0.257847 0.084278
Si Si6 0.386488 0.688700 0.262816
Si Si7 0.973872 0.136283 0.082899
Si Si8 0.516670 0.856257 0.882880
O O1 0.226771 0.500000 0.307559
O O2 0.214228 0.580558 0.463717
O O3 0.277076 0.616728 0.358243
O O4 0.097158 0.590059 0.038247
O O5 0.414226 0.882182 0.624611
O O6 0.359508 0.000000 0.535137
O O7 0.237510 0.922644 0.192872
O O8 0.620430 0.500000 0.849923
O O9 0.619542 0.616327 0.772743
O O10 0.554087 0.588674 0.864140
O O11 0.831822 0.800523 0.285512
O O12 0.934331 0.822961 0.690310
O O13 0.751314 0.769075 0.335094
O O14 0.652655 0.281874 0.947309
O O15 0.613450 0.314808 0.099802
O O16 0.568620 0.203139 0.928873
O O17 0.500000 0.706470 0.500000
O O18 0.000000 0.107181 0.000000
O O19 0.500000 0.842591 0.000000
#
# Coordination Sequence:
#
# PCOD9213194 Si02
#       8
#     8   8   8   8   8   8   8   8
#     4   9  18  32  56  88 118 149 184 222 272 330
#     4   9  17  33  56  86 121 150 179 222 274 330
#     4  10  22  38  57  83 112 145 189 230 276 331
#     4  11  22  39  58  82 112 144 188 233 274 327
#     4  10  22  37  58  83 110 145 188 230 276 326
#     4  11  22  44  59  79 106 143 191 235 278 325
#     4  11  23  39  58  84 117 147 180 226 277 329
#     4   9  17  32  56  88 119 149 184 222 271 331
#
# _framework density 20.476126000000001
#
# number of rings (size 3 to 8) (size 9 to 14) (size 15 to 20)
#    0.000    2.000    2.500    1.875    0.000    5.500 
#    2.250    0.000    0.000    0.000    0.000    4.375 
#    0.000    0.000    0.000    0.000    0.000    0.000 
#
# Total GULP energy -178677.770653 kJ/mol
# GULP energy per Si atom -5583.680333 kJ/mol
# Density = 2.042952 g / cm^3
# Si number density = 20.476126 Si / 1000 Ang^3
#
#
#
# Elastic Constant Matrix: (Units=GPa)
#
#
# Indices 1 2 3 4 5 6 
#
# 1 55.3672 2.5477 -7.4526 0.0000 13.8186 0.0000
# 2 2.5477 61.3141 2.9694 0.0000 18.2538 0.0000
# 3 -7.4526 2.9694 35.9856 0.0000 13.9934 0.0000
# 4 0.0000 0.0000 0.0000 21.2068 0.0000 -3.5073
# 5 13.8186 18.2538 13.9934 0.0000 22.0099 0.0000
# 6 0.0000 0.0000 0.0000 -3.5073 0.0000 5.5088
#
#
#
# Elastic Compliance Matrix: (Units=1/GPa)
#
#
# Indices 1 2 3 4 5 6 
#
# 1 0.030878 0.010019 0.021703 0.000000 -0.041494 0.000000
# 2 0.010019 0.026281 0.014384 0.000000 -0.037231 0.000000
# 3 0.021703 0.014384 0.054511 0.000000 -0.060212 0.000000
# 4 0.000000 0.000000 0.000000 0.052704 0.000000 0.033556
# 5 -0.041494 -0.037231 -0.060212 0.000000 0.140644 0.000000
# 6 0.000000 0.000000 0.000000 0.033556 0.000000 0.202890
#
#
# Mechanical properties :
#
#
# Convention : Reuss Voigt Hill
#
# Bulk Modulus (GPa) = 4.90481 16.53290 10.71886
# Shear Modulus (GPa) = 10.33793 20.05194 15.19494
#
# Velocity S-wave (km/s) = 2.24939 3.13275 2.72707
# Velocity P-wave (km/s) = 3.02438 4.60187 3.89385
#
# Compressibility (1/GPa) = 0.20388141
#
# Stress axis : x y z
#
# Youngs Moduli (GPa) = 32.38595 38.05099 18.34498
#
# Poissons Ratio (x) = -0.38123 -0.39815
# Poissons Ratio (y) = -0.32447 -0.26387
# Poissons Ratio (z) = -0.70288 -0.54733
#
# Static dielectric constant tensor:
#      x y z
#    x 1.706970 0.000000 0.018920 
#    y 0.000000 1.719980 0.000000 
#    z 0.018920 0.000000 1.765260 
# 
# From -- ./inp_files/184708.got.cif
#   From: 2010.05.17/outbox.cif.g08.bks.cpg/sg12_93_cif.got.tgz:184708.got - 2010.06.03 13:09:07.
