data_PCOD9213140
_publ_section_title
;
Structure prediction by ZEFSAII (Michael W. Deem and Ramdas Pophale) SiO2 
 PCOD9213140
Probable space group: C 2/M
;
_chemical_formula_sum "Si O2"
_cell_formula_units_Z 64
_cell_length_a 24.615825
_cell_length_b 25.095563
_cell_length_c 5.473105
_cell_angle_alpha 90.000000
_cell_angle_beta 103.423507
_cell_angle_gamma 90.000000
_cell_volume 3288.633109
_symmetry_space_group_name_H-M "C 2/M"
_symmetry_group_IT_number 12
_symmetry_cell_setting 'monoclinic'
loop_
_space_group_symop_operation_xyz
x,y,z
-x,y,-z
-x,-y,-z
x,-y,z
1/2+x,1/2+y,z
1/2-x,1/2+y,-z
1/2-x,1/2-y,-z
1/2+x,1/2-y,z
loop_
_atom_site_type_symbol
_atom_site_label
_atom_site_fract_x
_atom_site_fract_y
_atom_site_fract_z
Si Si1 0.862223 0.268919 0.109894
Si Si2 0.531495 0.288257 0.279789
Si Si3 0.367342 0.332252 0.859260
Si Si4 0.843576 0.641920 0.706474
Si Si5 0.815123 0.937611 0.782807
Si Si6 0.260066 0.795604 0.314090
Si Si7 0.055204 0.329457 0.438519
Si Si8 0.244188 0.562062 0.207181
O O1 0.800475 0.268968 0.157687
O O2 0.904766 0.302588 0.316606
O O3 0.884927 0.209766 0.087724
O O4 0.854099 0.302291 0.855124
O O5 0.500000 0.301236 0.500000
O O6 0.593861 0.312697 0.322770
O O7 0.535749 0.223657 0.273627
O O8 0.500000 0.306786 0.000000
O O9 0.365770 0.395825 0.870009
O O10 0.301232 0.318959 0.786766
O O11 0.799598 0.656977 0.451165
O O12 0.904852 0.630215 0.665376
O O13 0.810435 0.599389 0.832689
O O14 0.784144 0.927928 0.487369
O O15 0.831386 0.000000 0.799807
O O16 0.775830 0.929901 0.982248
O O17 0.250000 0.750000 0.500000
O O18 0.000000 0.353574 0.500000
O O19 0.228120 0.500000 0.205564
#
# Coordination Sequence:
#
# PCOD9213140 Si02
#       8
#     8   8   8   8   8   8   8   8
#     4  11  22  34  51  86 120 154 188 237 297 353
#     4  11  24  41  57  82 118 157 201 237 281 347
#     4  12  20  36  60  81 117 159 189 241 293 350
#     4  11  21  34  54  84 119 149 195 236 287 346
#     4  10  23  39  60  86 115 153 197 237 287 352
#     4  11  21  31  47  86 120 147 183 230 299 361
#     4  10  22  37  55  79 120 157 202 234 283 343
#     4  10  22  40  58  83 120 159 192 235 289 347
#
# _framework density 19.460972000000002
#
# number of rings (size 3 to 8) (size 9 to 14) (size 15 to 20)
#    0.000    1.250    3.750    3.375    3.500    2.000 
#    0.000    0.000    0.000    1.125    0.000    0.875 
#    0.000    0.500    0.000    0.000    0.000    0.000 
#
# Total GULP energy -178313.054462 kJ/mol
# GULP energy per Si atom -5572.282952 kJ/mol
# Density = 1.941668 g / cm^3
# Si number density = 19.460972 Si / 1000 Ang^3
#
#
#
# Elastic Constant Matrix: (Units=GPa)
#
#
# Indices 1 2 3 4 5 6 
#
# 1 116.7789 4.4901 28.3286 0.0000 -24.2788 0.0000
# 2 4.4901 62.0767 8.7477 0.0000 -9.1305 0.0000
# 3 28.3286 8.7477 79.6134 0.0000 -7.9079 0.0000
# 4 0.0000 0.0000 0.0000 15.5079 0.0000 -9.9054
# 5 -24.2788 -9.1305 -7.9079 0.0000 31.8566 0.0000
# 6 0.0000 0.0000 0.0000 -9.9054 0.0000 21.9496
#
#
#
# Elastic Compliance Matrix: (Units=1/GPa)
#
#
# Indices 1 2 3 4 5 6 
#
# 1 0.010923 0.000803 -0.003204 0.000000 0.007759 0.000000
# 2 0.000803 0.017031 -0.001652 0.000000 0.005083 0.000000
# 3 -0.003204 -0.001652 0.013936 0.000000 0.000544 0.000000
# 4 0.000000 0.000000 0.000000 0.090597 0.000000 0.040885
# 5 0.007759 0.005083 0.000544 0.000000 0.038896 0.000000
# 6 0.000000 0.000000 0.000000 0.040885 0.000000 0.064009
#
#
# Mechanical properties :
#
#
# Convention : Reuss Voigt Hill
#
# Bulk Modulus (GPa) = 29.60012 37.95576 33.77794
# Shear Modulus (GPa) = 19.62617 28.32298 23.97458
#
# Velocity S-wave (km/s) = 3.17912 3.81907 3.51370
# Velocity P-wave (km/s) = 5.35898 6.24444 5.81858
#
# Compressibility (1/GPa) = 0.03378365
#
# Stress axis : x y z
#
# Youngs Moduli (GPa) = 91.55194 58.71474 71.75474
#
# Poissons Ratio (x) = -0.04713 0.22991
# Poissons Ratio (y) = -0.07349 0.11855
# Poissons Ratio (z) = 0.29334 0.09700
#
# Static dielectric constant tensor:
#      x y z
#    x 1.853270 0.000000 -0.071730 
#    y 0.000000 1.706690 0.000000 
#    z -0.071730 0.000000 1.839530 
# 
# From -- ./inp_files/26100.got.cif
#   From: 2010.05.17/outbox.cif.g08.bks.cpg/sg12_14_cif.got.tgz:26100.got - 2010.06.03 13:09:07.
