data_PCOD9213168
_publ_section_title
;
Structure prediction by ZEFSAII (Michael W. Deem and Ramdas Pophale) SiO2 
 PCOD9213168
Probable space group: C 2/M
;
_chemical_formula_sum "Si O2"
_cell_formula_units_Z 56
_cell_length_a 9.166847
_cell_length_b 28.168707
_cell_length_c 20.912147
_cell_angle_alpha 90.000000
_cell_angle_beta 32.943842
_cell_angle_gamma 90.000000
_cell_volume 2936.554763
_symmetry_space_group_name_H-M "C 2/M"
_symmetry_group_IT_number 12
_symmetry_cell_setting 'monoclinic'
loop_
_space_group_symop_operation_xyz
x,y,z
-x,y,-z
-x,-y,-z
x,-y,z
1/2+x,1/2+y,z
1/2-x,1/2+y,-z
1/2-x,1/2-y,-z
1/2+x,1/2-y,z
loop_
_atom_site_type_symbol
_atom_site_label
_atom_site_fract_x
_atom_site_fract_y
_atom_site_fract_z
Si Si1 0.801569 0.642353 0.392350
Si Si2 0.686723 0.199004 0.493937
Si Si3 0.307345 0.824840 0.253720
Si Si4 0.296321 0.053406 0.478184
Si Si5 0.900506 0.054877 0.310805
Si Si6 0.732183 0.860619 0.869110
Si Si7 0.294301 0.742701 0.909110
O O1 0.500000 0.663863 0.500000
O O2 0.940944 0.669576 0.399967
O O3 0.897777 0.647829 0.284687
O O4 0.774994 0.589506 0.428235
O O5 0.500000 0.199240 0.500000
O O6 0.750000 0.250000 0.500000
O O7 0.982909 0.178534 0.368920
O O8 0.385693 0.847322 0.157253
O O9 0.451987 0.773803 0.205707
O O10 0.599145 0.054893 0.394001
O O11 0.116871 0.065229 0.606511
O O12 0.234771 0.000000 0.481205
O O13 0.056615 0.097475 0.219651
O O14 0.999673 0.000000 0.266720
O O15 0.820649 0.810490 0.869949
O O16 0.500000 0.879533 0.000000
O O17 0.250000 0.750000 0.000000
O O18 0.000000 0.761876 0.000000
#
# Coordination Sequence:
#
# PCOD9213168 Si02
#       7
#     8   8   8   8   8   8   8
#     4  10  22  37  56  89 123 159 200 245 308 374
#     4  11  25  38  56  87 123 161 199 244 312 376
#     4  11  24  42  57  89 127 160 211 257 310 376
#     4   9  19  37  61  93 125 156 202 249 313 384
#     4   9  19  36  63  96 124 158 204 259 311 375
#     4  11  23  40  64  85 122 162 215 257 312 362
#     4  11  23  42  61  86 116 163 217 265 306 357
#
# _framework density 19.069966000000001
#
# number of rings (size 3 to 8) (size 9 to 14) (size 15 to 20)
#    0.000    1.714    2.857    3.857    8.000    1.714 
#    0.000    0.714    0.000    0.000    0.000    2.000 
#    0.000    0.000    0.000    0.000    0.000    0.000 
#
# Total GULP energy -156043.675125 kJ/mol
# GULP energy per Si atom -5572.988397 kJ/mol
# Density = 1.902656 g / cm^3
# Si number density = 19.069966 Si / 1000 Ang^3
#
#
#
# Elastic Constant Matrix: (Units=GPa)
#
#
# Indices 1 2 3 4 5 6 
#
# 1 151.9608 54.5233 42.6248 0.0002 27.5762 0.0001
# 2 54.5233 109.2190 42.8284 0.0006 23.0349 0.0001
# 3 42.6248 42.8284 72.4810 0.0049 21.4296 0.0009
# 4 0.0002 0.0006 0.0049 24.6644 -0.0013 -3.7162
# 5 27.5762 23.0349 21.4296 -0.0013 37.7101 -0.0003
# 6 0.0001 0.0001 0.0009 -3.7162 -0.0003 29.0799
#
#
#
# Elastic Compliance Matrix: (Units=1/GPa)
#
#
# Indices 1 2 3 4 5 6 
#
# 1 0.008900 -0.002697 -0.002648 0.000000 -0.003356 0.000000
# 2 -0.002697 0.013242 -0.005325 0.000001 -0.003091 0.000000
# 3 -0.002648 -0.005325 0.020393 -0.000004 -0.006399 -0.000001
# 4 0.000000 0.000001 -0.000004 0.041340 0.000003 0.005283
# 5 -0.003356 -0.003091 -0.006399 0.000003 0.034497 0.000001
# 6 0.000000 0.000000 -0.000001 0.005283 0.000001 0.035063
#
#
# Mechanical properties :
#
#
# Convention : Reuss Voigt Hill
#
# Bulk Modulus (GPa) = 47.18109 68.17931 57.68020
# Shear Modulus (GPa) = 27.49674 31.20317 29.34995
#
# Velocity S-wave (km/s) = 3.80134 4.04944 3.92735
# Velocity P-wave (km/s) = 6.63790 7.59564 7.13286
#
# Compressibility (1/GPa) = 0.02119493
#
# Stress axis : x y z
#
# Youngs Moduli (GPa) = 112.35841 75.51674 49.03752
#
# Poissons Ratio (x) = 0.20365 0.12986
# Poissons Ratio (y) = 0.30300 0.26112
# Poissons Ratio (z) = 0.29755 0.40212
#
# Static dielectric constant tensor:
#      x y z
#    x 1.689880 0.000000 0.015750 
#    y 0.000000 1.651380 0.000000 
#    z 0.015750 0.000000 1.709370 
# 
# From -- ./inp_files/302967.got.cif
#   From: 2010.05.17/outbox.cif.g08.bks.cpg/sg12_152_cif.got.tgz:302967.got - 2010.06.03 13:09:07.
