data_PCOD9213816
_publ_section_title
;
Structure prediction by ZEFSAII (Michael W. Deem and Ramdas Pophale) SiO2 
 PCOD9213816
Probable space group: C 2/M
;
_chemical_formula_sum "Si O2"
_cell_formula_units_Z 56
_cell_length_a 10.190010
_cell_length_b 28.880251
_cell_length_c 12.342948
_cell_angle_alpha 90.000000
_cell_angle_beta 114.082751
_cell_angle_gamma 90.000000
_cell_volume 3316.231395
_symmetry_space_group_name_H-M "C 2/M"
_symmetry_group_IT_number 12
_symmetry_cell_setting 'monoclinic'
loop_
_space_group_symop_operation_xyz
x,y,z
-x,y,-z
-x,-y,-z
x,-y,z
1/2+x,1/2+y,z
1/2-x,1/2+y,-z
1/2-x,1/2-y,-z
1/2+x,1/2-y,z
loop_
_atom_site_type_symbol
_atom_site_label
_atom_site_fract_x
_atom_site_fract_y
_atom_site_fract_z
Si Si1 0.320668 0.352287 0.677660
Si Si2 0.651777 0.206460 0.998660
Si Si3 0.383941 0.051727 0.621044
Si Si4 0.793432 0.551287 0.336423
Si Si5 0.577685 0.196358 0.736984
Si Si6 0.381683 0.692714 0.246616
Si Si7 0.769443 0.649809 0.603185
O O1 0.310266 0.405444 0.712322
O O2 0.192828 0.325374 0.694560
O O3 0.473748 0.329599 0.750590
O O4 0.290986 0.349727 0.538942
O O5 0.883477 0.318145 0.126550
O O6 0.747576 0.182033 0.122155
O O7 0.500000 0.220681 0.000000
O O8 0.750000 0.250000 0.000000
O O9 0.337544 0.051422 0.478616
O O10 0.556375 0.058409 0.676572
O O11 0.307615 0.096426 0.645258
O O12 0.351697 0.000000 0.653277
O O13 0.737343 0.500000 0.291914
O O14 0.591507 0.252079 0.736042
O O15 0.418274 0.178675 0.656409
O O16 0.339867 0.672062 0.348803
#
# Coordination Sequence:
#
# PCOD9213816 Si02
#       7
#     8   8   8   8   8   8   8
#     4  11  22  33  52  83 111 142 174 208 270 326
#     4  10  22  39  58  75  97 137 190 234 258 290
#     4   8  14  27  50  75 100 135 177 216 254 301
#     4   8  14  28  49  74 103 134 174 219 253 302
#     4  11  22  36  56  75 104 144 185 220 250 305
#     4  11  24  36  51  75 111 144 176 218 263 309
#     4  11  20  35  52  79 114 141 173 214 261 327
#
# _framework density 16.886638999999999
#
# number of rings (size 3 to 8) (size 9 to 14) (size 15 to 20)
#    0.000    2.000    2.857    2.571    6.000    3.429 
#    0.000    0.714    0.000    3.429    0.000    6.000 
#    0.000    0.000    0.000    0.000    0.000    0.000 
#
# Total GULP energy -156070.306043 kJ/mol
# GULP energy per Si atom -5573.939502 kJ/mol
# Density = 1.684820 g / cm^3
# Si number density = 16.886639 Si / 1000 Ang^3
#
#
#
# Elastic Constant Matrix: (Units=GPa)
#
#
# Indices 1 2 3 4 5 6 
#
# 1 60.6184 20.8542 -3.2344 0.0000 5.9052 0.0000
# 2 20.8542 110.8196 3.8405 0.0000 5.3087 0.0000
# 3 -3.2344 3.8405 37.2885 0.0000 2.1284 0.0000
# 4 0.0000 0.0000 0.0000 -3.7069 0.0000 1.7334
# 5 5.9052 5.3087 2.1284 0.0000 26.0864 0.0000
# 6 0.0000 0.0000 0.0000 1.7334 0.0000 -9.4727
#
#
#
# Elastic Compliance Matrix: (Units=1/GPa)
#
#
# Indices 1 2 3 4 5 6 
#
# 1 0.018097 -0.003307 0.002116 0.000000 -0.003596 0.000000
# 2 -0.003307 0.009743 -0.001226 0.000000 -0.001134 0.000000
# 3 0.002116 -0.001226 0.027268 0.000000 -0.002454 0.000000
# 4 0.000000 0.000000 0.000000 -0.295011 0.000000 -0.053983
# 5 -0.003596 -0.001134 -0.002454 0.000000 0.039579 0.000000
# 6 0.000000 0.000000 0.000000 -0.053983 0.000000 -0.115445
#
#
# Mechanical properties :
#
#
# Convention : Reuss Voigt Hill
#
# Bulk Modulus (GPa) = 19.89068 27.96079 23.92573
# Shear Modulus (GPa) = -16.99657 15.06577 -0.96540
#
# Velocity S-wave (km/s) = -3.17600 2.99016 -0.75692
# Velocity P-wave (km/s) = 1.28248 5.33997 3.66542
#
# Compressibility (1/GPa) = 0.05027480
#
# Stress axis : x y z
#
# Youngs Moduli (GPa) = 55.25649 102.64067 36.67337
#
# Poissons Ratio (x) = 0.33940 -0.07759
# Poissons Ratio (y) = 0.18271 0.04494
# Poissons Ratio (z) = -0.11690 0.12579
#
# Static dielectric constant tensor:
#      x y z
#    x 1.551570 0.000000 -0.002310 
#    y 0.000000 1.594320 0.000000 
#    z -0.002310 0.000000 1.588600 
# 
# From -- ./inp_files/200653.got.cif
#   From: 2010.05.17/outbox.cif.g08.bks.cpg/sg12_101_cif.got.tgz:200653.got - 2010.06.03 13:09:07.
