data_PCOD9213366
_publ_section_title
;
Structure prediction by ZEFSAII (Michael W. Deem and Ramdas Pophale) SiO2 
 PCOD9213366
Probable space group: C 2/M
;
_chemical_formula_sum "Si O2"
_cell_formula_units_Z 36
_cell_length_a 10.867088
_cell_length_b 9.156214
_cell_length_c 17.787025
_cell_angle_alpha 90.000000
_cell_angle_beta 104.155559
_cell_angle_gamma 90.000000
_cell_volume 1716.093177
_symmetry_space_group_name_H-M "C 2/M"
_symmetry_group_IT_number 12
_symmetry_cell_setting 'monoclinic'
loop_
_space_group_symop_operation_xyz
x,y,z
-x,y,-z
-x,-y,-z
x,-y,z
1/2+x,1/2+y,z
1/2-x,1/2+y,-z
1/2-x,1/2-y,-z
1/2+x,1/2-y,z
loop_
_atom_site_type_symbol
_atom_site_label
_atom_site_fract_x
_atom_site_fract_y
_atom_site_fract_z
Si Si1 0.455229 0.750754 0.832427
Si Si2 0.000000 0.257044 0.500000
Si Si3 0.046034 0.000000 0.412306
Si Si4 0.628422 0.500000 0.069138
Si Si5 0.592577 0.000000 0.942098
Si Si6 0.315806 0.000000 0.533204
Si Si7 0.451299 0.500000 0.252443
Si Si8 0.317810 0.000000 0.714577
O O1 0.376687 0.644052 0.877370
O O2 0.547208 0.856213 0.891933
O O3 0.539705 0.641129 0.796772
O O4 0.377435 0.857076 0.764647
O O5 0.975300 0.147501 0.427156
O O6 0.113972 0.359841 0.491540
O O7 0.174460 0.000000 0.479835
O O8 0.069152 0.000000 0.327774
O O9 0.754111 0.500000 0.035510
O O10 0.500000 0.500000 0.000000
O O11 0.500000 0.000000 0.000000
O O12 0.331532 0.000000 0.626075
O O13 0.328663 0.500000 0.285180
#
# Coordination Sequence:
#
# PCOD9213366 Si02
#       8
#     8   4   4   4   4   4   4   4
#     4  10  24  42  63  93 128 164 206 253 309 371
#     4  10  22  38  56  82 116 150 200 258 308 364
#     4  11  22  38  61  88 117 158 208 258 309 363
#     4  11  24  43  69  99 129 164 207 256 310 374
#     4  11  24  43  69  98 129 166 208 255 308 374
#     4  11  23  39  60  87 119 159 208 259 309 363
#     4  11  23  40  62  88 124 165 206 257 310 364
#     4  11  22  40  63  86 122 167 207 253 310 368
#
# _framework density 20.977882000000001
#
# number of rings (size 3 to 8) (size 9 to 14) (size 15 to 20)
#    0.000    1.333    0.000    5.333    0.000    8.889 
#    0.000    8.889    0.000    0.000    0.000    0.000 
#    0.000    0.000    0.000    0.000    0.000    0.000 
#
# Total GULP energy -100496.703463 kJ/mol
# GULP energy per Si atom -5583.150192 kJ/mol
# Density = 2.093014 g / cm^3
# Si number density = 20.977882 Si / 1000 Ang^3
#
#
#
# Elastic Constant Matrix: (Units=GPa)
#
#
# Indices 1 2 3 4 5 6 
#
# 1 136.8259 53.0236 61.2412 0.0000 -11.3208 0.0000
# 2 53.0236 170.0021 63.1151 0.0000 -9.7319 0.0000
# 3 61.2412 63.1151 128.4630 0.0000 -6.9106 0.0000
# 4 0.0000 0.0000 0.0000 16.6864 0.0000 -5.5437
# 5 -11.3208 -9.7319 -6.9106 0.0000 28.2714 0.0000
# 6 0.0000 0.0000 0.0000 -5.5437 0.0000 14.0998
#
#
#
# Elastic Compliance Matrix: (Units=1/GPa)
#
#
# Indices 1 2 3 4 5 6 
#
# 1 0.009796 -0.001504 -0.003798 0.000000 0.002477 0.000000
# 2 -0.001504 0.007501 -0.002900 0.000000 0.001271 0.000000
# 3 -0.003798 -0.002900 0.011029 0.000000 0.000177 0.000000
# 4 0.000000 0.000000 0.000000 0.068934 0.000000 0.027103
# 5 0.002477 0.001271 0.000177 0.000000 0.036844 0.000000
# 6 0.000000 0.000000 0.000000 0.027103 0.000000 0.081579
#
#
# Mechanical properties :
#
#
# Convention : Reuss Voigt Hill
#
# Bulk Modulus (GPa) = 83.87297 87.78342 85.82819
# Shear Modulus (GPa) = 21.18102 29.00561 25.09331
#
# Velocity S-wave (km/s) = 3.18100 3.72247 3.46233
# Velocity P-wave (km/s) = 7.31848 7.77253 7.54892
#
# Compressibility (1/GPa) = 0.01192279
#
# Stress axis : x y z
#
# Youngs Moduli (GPa) = 102.08137 133.32185 90.66773
#
# Poissons Ratio (x) = 0.20045 0.34436
# Poissons Ratio (y) = 0.15348 0.26294
# Poissons Ratio (z) = 0.38771 0.38663
#
# Static dielectric constant tensor:
#      x y z
#    x 1.782370 0.000000 -0.006040 
#    y 0.000000 1.757940 0.000000 
#    z -0.006040 0.000000 1.774930 
# 
# From -- ./inp_files/261147.got.cif
#   From: 2010.05.17/outbox.cif.g08.bks.cpg/sg12_131_cif.got.tgz:261147.got - 2010.06.03 13:09:07.
