data_PCOD9213436
_publ_section_title
;
Structure prediction by ZEFSAII (Michael W. Deem and Ramdas Pophale) SiO2 
 PCOD9213436
Probable space group: C 2/M
;
_chemical_formula_sum "Si O2"
_cell_formula_units_Z 64
_cell_length_a 9.436986
_cell_length_b 12.969805
_cell_length_c 25.821829
_cell_angle_alpha 90.000000
_cell_angle_beta 94.932565
_cell_angle_gamma 90.000000
_cell_volume 3148.780598
_symmetry_space_group_name_H-M "C 2/M"
_symmetry_group_IT_number 12
_symmetry_cell_setting 'monoclinic'
loop_
_space_group_symop_operation_xyz
x,y,z
-x,y,-z
-x,-y,-z
x,-y,z
1/2+x,1/2+y,z
1/2-x,1/2+y,-z
1/2-x,1/2-y,-z
1/2+x,1/2-y,z
loop_
_atom_site_type_symbol
_atom_site_label
_atom_site_fract_x
_atom_site_fract_y
_atom_site_fract_z
Si Si1 0.117352 0.724551 0.960860
Si Si2 0.511290 0.620981 0.562349
Si Si3 0.038636 0.694390 0.686965
Si Si4 0.628084 0.380043 0.759172
Si Si5 0.728100 0.254692 0.383718
Si Si6 0.500521 0.621477 0.870804
Si Si7 0.056397 0.383994 0.214434
Si Si8 0.682391 0.882194 0.866354
O O1 0.081893 0.814527 0.917821
O O2 0.145691 0.627471 0.925142
O O3 0.250000 0.750000 0.000000
O O4 0.000000 0.707588 0.000000
O O5 0.500000 0.628024 0.500000
O O6 0.520342 0.500000 0.577163
O O7 0.370089 0.673296 0.582902
O O8 0.653238 0.682643 0.584967
O O9 0.050019 0.806824 0.715504
O O10 0.174807 0.683226 0.654474
O O11 0.028300 0.617691 0.734533
O O12 0.892158 0.689619 0.650427
O O13 0.629969 0.500000 0.741675
O O14 0.563070 0.378424 0.814729
O O15 0.789393 0.337485 0.769749
O O16 0.496597 0.500000 0.886534
O O17 0.338434 0.663234 0.863638
O O18 0.089774 0.500000 0.197486
O O19 0.949439 0.336387 0.169599
O O20 0.692713 0.000000 0.848840
#
# Coordination Sequence:
#
# PCOD9213436 Si02
#       8
#     8   8   8   8   8   8   8   8
#     4  12  25  40  61  86 109 144 188 242 306 365
#     4  10  22  44  71  95 130 181 228 277 331 381
#     4  11  21  37  59  90 130 168 199 254 317 366
#     4  10  22  39  61  85 116 163 206 241 297 374
#     4  10  23  38  62 100 134 168 220 273 325 384
#     4  10  23  42  62  84 113 153 197 243 296 366
#     4  10  22  38  58  84 118 159 198 241 295 364
#     4  10  23  42  60  83 115 150 193 242 295 361
#
# _framework density 20.325327000000001
#
# number of rings (size 3 to 8) (size 9 to 14) (size 15 to 20)
#    0.000    1.625    2.500    1.125    3.500    6.000 
#    0.000    1.875    0.000    6.750    0.000    0.000 
#    0.000    0.000    0.000    0.000    0.000    0.000 
#
# Total GULP energy -178512.369531 kJ/mol
# GULP energy per Si atom -5578.511548 kJ/mol
# Density = 2.027907 g / cm^3
# Si number density = 20.325327 Si / 1000 Ang^3
#
#
#
# Elastic Constant Matrix: (Units=GPa)
#
#
# Indices 1 2 3 4 5 6 
#
# 1 150.6734 26.6147 57.0459 0.0000 -2.7236 0.0000
# 2 26.6147 78.6379 18.2057 0.0000 9.1470 0.0000
# 3 57.0459 18.2057 104.9071 0.0000 -7.7054 0.0000
# 4 0.0000 0.0000 0.0000 13.7395 0.0000 -8.2131
# 5 -2.7236 9.1470 -7.7054 0.0000 43.5941 0.0000
# 6 0.0000 0.0000 0.0000 -8.2131 0.0000 19.4546
#
#
#
# Elastic Compliance Matrix: (Units=1/GPa)
#
#
# Indices 1 2 3 4 5 6 
#
# 1 0.008626 -0.001935 -0.004342 0.000000 0.000177 0.000000
# 2 -0.001935 0.014147 -0.001651 0.000000 -0.003381 0.000000
# 3 -0.004342 -0.001651 0.012345 0.000000 0.002257 0.000000
# 4 0.000000 0.000000 0.000000 0.097350 0.000000 0.041098
# 5 0.000177 -0.003381 0.002257 0.000000 0.024058 0.000000
# 6 0.000000 0.000000 0.000000 0.041098 0.000000 0.068752
#
#
# Mechanical properties :
#
#
# Convention : Reuss Voigt Hill
#
# Bulk Modulus (GPa) = 51.91416 59.77234 55.84325
# Shear Modulus (GPa) = 20.19758 30.84777 25.52268
#
# Velocity S-wave (km/s) = 3.15574 3.89999 3.54744
# Velocity P-wave (km/s) = 6.23501 7.05348 6.65684
#
# Compressibility (1/GPa) = 0.01926257
#
# Stress axis : x y z
#
# Youngs Moduli (GPa) = 115.93408 70.68673 81.00144
#
# Poissons Ratio (x) = 0.13676 0.35167
# Poissons Ratio (y) = 0.22431 0.13376
# Poissons Ratio (z) = 0.50334 0.11673
#
# Static dielectric constant tensor:
#      x y z
#    x 1.722550 0.000000 -0.005610 
#    y 0.000000 1.765870 0.000000 
#    z -0.005610 0.000000 1.652090 
# 
# From -- ./inp_files/332951.got.cif
#   From: 2010.05.17/outbox.cif.g08.bks.cpg/sg12_167_cif.got.tgz:332951.got - 2010.06.03 13:09:07.
