data_PCOD9213765
_publ_section_title
;
Structure prediction by ZEFSAII (Michael W. Deem and Ramdas Pophale) SiO2 
 PCOD9213765
Probable space group: C 2/M
;
_chemical_formula_sum "Si O2"
_cell_formula_units_Z 56
_cell_length_a 30.212544
_cell_length_b 7.792435
_cell_length_c 11.974102
_cell_angle_alpha 90.000000
_cell_angle_beta 69.528927
_cell_angle_gamma 90.000000
_cell_volume 2641.027840
_symmetry_space_group_name_H-M "C 2/M"
_symmetry_group_IT_number 12
_symmetry_cell_setting 'monoclinic'
loop_
_space_group_symop_operation_xyz
x,y,z
-x,y,-z
-x,-y,-z
x,-y,z
1/2+x,1/2+y,z
1/2-x,1/2+y,-z
1/2-x,1/2-y,-z
1/2+x,1/2-y,z
loop_
_atom_site_type_symbol
_atom_site_label
_atom_site_fract_x
_atom_site_fract_y
_atom_site_fract_z
Si Si1 0.261745 0.706446 0.616104
Si Si2 0.826079 0.298243 0.161978
Si Si3 0.478356 0.709401 0.845518
Si Si4 0.543840 0.289843 0.385710
Si Si5 0.351281 0.710728 0.670797
Si Si6 0.572154 0.292928 0.882897
Si Si7 0.304461 0.699241 0.938516
O O1 0.261707 0.500000 0.625897
O O2 0.250000 0.750000 0.500000
O O3 0.219778 0.772576 0.733567
O O4 0.312968 0.766272 0.612975
O O5 0.818819 0.500000 0.154825
O O6 0.874780 0.267096 0.183483
O O7 0.829769 0.225999 0.034009
O O8 0.477251 0.500000 0.846570
O O9 0.462355 0.765837 0.737567
O O10 0.531829 0.760808 0.830962
O O11 0.445652 0.764355 0.978329
O O12 0.500000 0.233951 0.500000
O O13 0.543397 0.500000 0.385158
O O14 0.594591 0.234610 0.388082
O O15 0.352310 0.500000 0.668305
O O16 0.331098 0.774605 0.808118
O O17 0.572642 0.500000 0.882953
O O18 0.303527 0.500000 0.915069
O O19 0.250000 0.750000 0.000000
#
# Coordination Sequence:
#
# PCOD9213765 Si02
#       7
#     8   8   8   8   8   8   8
#     4  10  22  39  54  73 105 144 181 222 268 322
#     4  11  22  36  52  79 114 143 180 226 270 325
#     4   8  15  29  48  75 106 132 173 226 269 317
#     4   9  16  26  45  73 102 135 172 213 264 319
#     4   9  18  34  53  76 110 142 171 221 278 318
#     4   9  17  31  53  77 103 138 176 220 272 322
#     4  11  20  34  57  82 110 144 180 223 278 331
#
# _framework density 21.203866000000001
#
# number of rings (size 3 to 8) (size 9 to 14) (size 15 to 20)
#    0.000    2.429    1.429    2.571    0.000    4.571 
#    0.000    4.286    0.000    0.000    0.000    0.000 
#    0.000    8.571    0.000    0.000    0.000    0.000 
#
# Total GULP energy -156304.501369 kJ/mol
# GULP energy per Si atom -5582.303620 kJ/mol
# Density = 2.115561 g / cm^3
# Si number density = 21.203866 Si / 1000 Ang^3
#
#
#
# Elastic Constant Matrix: (Units=GPa)
#
#
# Indices 1 2 3 4 5 6 
#
# 1 188.8277 -2.0925 77.6901 0.0000 -14.5139 0.0000
# 2 -2.0925 20.8439 0.8019 0.0000 -4.0505 0.0000
# 3 77.6901 0.8019 89.5634 0.0000 0.3016 0.0000
# 4 0.0000 0.0000 0.0000 11.3784 0.0000 -0.2313
# 5 -14.5139 -4.0505 0.3016 0.0000 34.1598 0.0000
# 6 0.0000 0.0000 0.0000 -0.2313 0.0000 22.1658
#
#
#
# Elastic Compliance Matrix: (Units=1/GPa)
#
#
# Indices 1 2 3 4 5 6 
#
# 1 0.008769 0.001956 -0.007638 0.000000 0.004025 0.000000
# 2 0.001956 0.049563 -0.002163 0.000000 0.006727 0.000000
# 3 -0.007638 -0.002163 0.017822 0.000000 -0.003659 0.000000
# 4 0.000000 0.000000 0.000000 0.087904 0.000000 0.000917
# 5 0.004025 0.006727 -0.003659 0.000000 0.031814 0.000000
# 6 0.000000 0.000000 0.000000 0.000917 0.000000 0.045124
#
#
# Mechanical properties :
#
#
# Convention : Reuss Voigt Hill
#
# Bulk Modulus (GPa) = 16.53864 50.22599 33.38232
# Shear Modulus (GPa) = 18.06082 28.39650 23.22866
#
# Velocity S-wave (km/s) = 2.92168 3.66350 3.31341
# Velocity P-wave (km/s) = 4.38159 6.45241 5.51507
#
# Compressibility (1/GPa) = 0.06046447
#
# Stress axis : x y z
#
# Youngs Moduli (GPa) = 114.03242 20.17649 56.10925
#
# Poissons Ratio (x) = -0.03947 0.42856
# Poissons Ratio (y) = -0.22310 0.12139
# Poissons Ratio (z) = 0.87097 0.04365
#
# Static dielectric constant tensor:
#      x y z
#    x 1.763350 0.000000 -0.007100 
#    y 0.000000 1.788680 0.000000 
#    z -0.007100 0.000000 1.751230 
# 
# From -- ./inp_files/187268.got.cif
#   From: 2010.05.17/outbox.cif.g08.bks.cpg/sg12_94_cif.got.tgz:187268.got - 2010.06.03 13:09:07.
