data_PCOD9213697
_publ_section_title
;
Structure prediction by ZEFSAII (Michael W. Deem and Ramdas Pophale) SiO2 
 PCOD9213697
Probable space group: C 2/M
;
_chemical_formula_sum "Si O2"
_cell_formula_units_Z 50
_cell_length_a 14.769058
_cell_length_b 7.733371
_cell_length_c 24.057013
_cell_angle_alpha 90.000000
_cell_angle_beta 46.282854
_cell_angle_gamma 90.000000
_cell_volume 1985.901356
_symmetry_space_group_name_H-M "C 2/M"
_symmetry_group_IT_number 12
_symmetry_cell_setting 'monoclinic'
loop_
_space_group_symop_operation_xyz
x,y,z
-x,y,-z
-x,-y,-z
x,-y,z
1/2+x,1/2+y,z
1/2-x,1/2+y,-z
1/2-x,1/2-y,-z
1/2+x,1/2-y,z
loop_
_atom_site_type_symbol
_atom_site_label
_atom_site_fract_x
_atom_site_fract_y
_atom_site_fract_z
Si Si1 0.750187 0.294160 0.203216
Si Si2 0.606411 0.791811 0.571123
Si Si3 0.877540 0.197284 0.855620
Si Si4 0.500000 0.500000 0.000000
Si Si5 0.103332 0.699860 0.695282
Si Si6 0.953345 0.304389 0.939816
Si Si7 0.857964 0.301645 0.632844
O O1 0.724518 0.500000 0.218983
O O2 0.693546 0.231219 0.168620
O O3 0.899596 0.273331 0.137774
O O4 0.690560 0.206163 0.282549
O O5 0.750000 0.750000 0.500000
O O6 0.575671 0.728529 0.646109
O O7 0.499167 0.729966 0.574615
O O8 0.595161 0.000000 0.576824
O O9 0.022632 0.199919 0.774395
O O10 0.876451 0.288614 0.915234
O O11 0.836138 0.000000 0.880994
O O12 0.428084 0.653774 0.994203
O O13 0.064926 0.500000 0.715539
O O14 0.251068 0.708698 0.643467
O O15 0.941483 0.500000 0.966320
O O16 0.860381 0.500000 0.612429
#
# Coordination Sequence:
#
# PCOD9213697 Si02
#       7
#     8   8   8   2   8   8   8
#     4  10  22  38  64  97 129 164 214 269 325 376
#     4  10  24  42  59  84 125 171 216 265 329 393
#     4  11  21  38  65  99 129 165 217 270 323 383
#     4  12  26  48  72  98 136 182 220 252 336 406
#     4  11  22  38  59  92 126 163 213 271 326 384
#     4  11  24  45  70  98 135 176 217 271 321 391
#     4  11  22  37  60  92 124 162 213 270 321 384
#
# _framework density 25.177485000000001
#
# number of rings (size 3 to 8) (size 9 to 14) (size 15 to 20)
#    0.000    1.280    4.000    1.680    1.120    3.840 
#    0.000    4.000    0.000    0.000    0.000    0.000 
#    0.000    0.000    0.000    0.000    0.000    0.000 
#
# Total GULP energy -139722.091187 kJ/mol
# GULP energy per Si atom -5588.883647 kJ/mol
# Density = 2.512018 g / cm^3
# Si number density = 25.177485 Si / 1000 Ang^3
#
#
#
# Elastic Constant Matrix: (Units=GPa)
#
#
# Indices 1 2 3 4 5 6 
#
# 1 118.5267 -3.0006 -4.9225 0.0000 -4.9911 0.0003
# 2 -3.0006 75.3602 -4.0265 -0.0001 7.8111 0.0006
# 3 -4.9225 -4.0265 53.6899 0.0000 -25.4187 0.0000
# 4 0.0000 -0.0001 0.0000 7.6252 0.0000 18.4674
# 5 -4.9911 7.8111 -25.4187 0.0000 51.1867 0.0000
# 6 0.0003 0.0006 0.0000 18.4674 0.0000 9.5294
#
#
#
# Elastic Compliance Matrix: (Units=1/GPa)
#
#
# Indices 1 2 3 4 5 6 
#
# 1 0.008574 0.000262 0.001546 0.000000 0.001564 0.000000
# 2 0.000262 0.013491 0.000096 -0.000001 -0.001986 0.000000
# 3 0.001546 0.000096 0.024629 0.000000 0.012367 0.000000
# 4 0.000000 -0.000001 0.000000 -0.035507 0.000000 0.068810
# 5 0.001564 -0.001986 0.012367 0.000000 0.026133 0.000000
# 6 0.000000 0.000000 0.000000 0.068810 0.000000 -0.028412
#
#
# Mechanical properties :
#
#
# Convention : Reuss Voigt Hill
#
# Bulk Modulus (GPa) = 19.80157 24.85307 22.32732
# Shear Modulus (GPa) = 227.95279 30.97003 129.46141
#
# Velocity S-wave (km/s) = 9.52549 3.51104 7.17852
# Velocity P-wave (km/s) = 11.35173 5.13119 8.80883
#
# Compressibility (1/GPa) = 0.05050105
#
# Stress axis : x y z
#
# Youngs Moduli (GPa) = 116.63705 74.12367 40.60214
#
# Poissons Ratio (x) = -0.01941 -0.06277
# Poissons Ratio (y) = -0.03055 -0.00388
# Poissons Ratio (z) = -0.18033 -0.00709
#
# Static dielectric constant tensor:
#      x y z
#    x 1.998120 0.000000 -0.034730 
#    y 0.000000 1.892600 0.000000 
#    z -0.034730 0.000000 2.010130 
# 
# From -- ./inp_files/308564.got.cif
#   From: 2010.05.17/outbox.cif.g08.bks.cpg/sg12_155_cif.got.tgz:308564.got - 2010.06.03 13:09:07.
