data_PCOD9213313
_publ_section_title
;
Structure prediction by ZEFSAII (Michael W. Deem and Ramdas Pophale) SiO2 
 PCOD9213313
Probable space group: C 2/M
;
_chemical_formula_sum "Si O2"
_cell_formula_units_Z 44
_cell_length_a 19.767945
_cell_length_b 10.659042
_cell_length_c 12.288872
_cell_angle_alpha 90.000000
_cell_angle_beta 56.348851
_cell_angle_gamma 90.000000
_cell_volume 2155.449325
_symmetry_space_group_name_H-M "C 2/M"
_symmetry_group_IT_number 12
_symmetry_cell_setting 'monoclinic'
loop_
_space_group_symop_operation_xyz
x,y,z
-x,y,-z
-x,-y,-z
x,-y,z
1/2+x,1/2+y,z
1/2-x,1/2+y,-z
1/2-x,1/2-y,-z
1/2+x,1/2-y,z
loop_
_atom_site_type_symbol
_atom_site_label
_atom_site_fract_x
_atom_site_fract_y
_atom_site_fract_z
Si Si1 0.043490 0.353286 0.845247
Si Si2 0.675279 0.500000 0.965536
Si Si3 0.636146 0.144466 0.397011
Si Si4 0.073299 0.000000 0.262700
Si Si5 0.258741 0.000000 0.111409
Si Si6 0.984629 0.726362 0.673886
Si Si7 0.196528 0.749166 0.805997
O O1 0.061368 0.500000 0.811234
O O2 0.987465 0.306030 0.797740
O O3 0.126508 0.275720 0.780885
O O4 0.000000 0.340089 0.000000
O O5 0.679340 0.374197 0.891299
O O6 0.595908 0.500000 0.113747
O O7 0.748482 0.500000 0.989749
O O8 0.568420 0.180491 0.545717
O O9 0.589370 0.161537 0.323857
O O10 0.715643 0.229485 0.325731
O O11 0.659875 0.000000 0.389801
O O12 0.026852 0.125821 0.332827
O O13 0.163803 0.000000 0.233855
O O14 0.299620 0.874403 0.120768
#
# Coordination Sequence:
#
# PCOD9213313 Si02
#       7
#     8   4   8   4   4   8   8
#     4  11  25  43  64  93 134 173 215 269 336 397
#     4  10  22  37  66  95 134 167 219 278 316 388
#     4  11  23  42  70  96 128 173 227 272 324 387
#     4  10  22  39  65  96 126 173 219 278 331 367
#     4  10  22  39  63 100 130 172 224 267 330 382
#     4  11  23  43  65  95 132 172 222 271 322 394
#     4  12  22  42  65  98 133 173 219 273 331 394
#
# _framework density 20.413376
#
# number of rings (size 3 to 8) (size 9 to 14) (size 15 to 20)
#    0.545    0.545    3.636    3.818    0.000    5.091 
#    0.000    1.818    0.000    0.000    0.000    0.000 
#    0.000    0.000    0.000    0.000    0.000    0.000 
#
# Total GULP energy -122971.280270 kJ/mol
# GULP energy per Si atom -5589.603649 kJ/mol
# Density = 2.036691 g / cm^3
# Si number density = 20.413376 Si / 1000 Ang^3
#
#
#
# Elastic Constant Matrix: (Units=GPa)
#
#
# Indices 1 2 3 4 5 6 
#
# 1 40.4275 3.1277 14.5908 0.0000 -9.5346 0.0000
# 2 3.1277 122.5268 11.9460 0.0000 1.3667 0.0000
# 3 14.5908 11.9460 36.0121 0.0000 3.7755 0.0000
# 4 0.0000 0.0000 0.0000 17.6399 0.0000 -2.7605
# 5 -9.5346 1.3667 3.7755 0.0000 31.5130 0.0000
# 6 0.0000 0.0000 0.0000 -2.7605 0.0000 16.7737
#
#
#
# Elastic Compliance Matrix: (Units=1/GPa)
#
#
# Indices 1 2 3 4 5 6 
#
# 1 0.032724 0.000461 -0.014632 0.000000 0.011634 0.000000
# 2 0.000461 0.008441 -0.003001 0.000000 0.000133 0.000000
# 3 -0.014632 -0.003001 0.035590 0.000000 -0.008561 0.000000
# 4 0.000000 0.000000 0.000000 0.058188 0.000000 0.009576
# 5 0.011634 0.000133 -0.008561 0.000000 0.036273 0.000000
# 6 0.000000 0.000000 0.000000 0.009576 0.000000 0.061193
#
#
# Mechanical properties :
#
#
# Convention : Reuss Voigt Hill
#
# Bulk Modulus (GPa) = 23.57778 28.69948 26.13863
# Shear Modulus (GPa) = 17.80065 24.47211 21.13638
#
# Velocity S-wave (km/s) = 2.95618 3.46616 3.22128
# Velocity P-wave (km/s) = 4.81947 5.48714 5.16411
#
# Compressibility (1/GPa) = 0.04241282
#
# Stress axis : x y z
#
# Youngs Moduli (GPa) = 30.55820 118.47218 28.09813
#
# Poissons Ratio (x) = -0.05466 0.41112
# Poissons Ratio (y) = -0.01410 0.08432
# Poissons Ratio (z) = 0.44711 0.35552
#
# Static dielectric constant tensor:
#      x y z
#    x 1.719050 0.000000 -0.008120 
#    y 0.000000 1.695420 0.000000 
#    z -0.008120 0.000000 1.733330 
# 
# From -- ./inp_files/172825.got.cif
#   From: 2010.05.17/outbox.cif.g08.bks.cpg/sg12_87_cif.got.tgz:172825.got - 2010.06.03 13:09:07.
