data_PCOD9213526
_publ_section_title
;
Structure prediction by ZEFSAII (Michael W. Deem and Ramdas Pophale) SiO2 
 PCOD9213526
Probable space group: C 2/M
;
_chemical_formula_sum "Si O2"
_cell_formula_units_Z 52
_cell_length_a 9.214059
_cell_length_b 17.291540
_cell_length_c 19.866363
_cell_angle_alpha 90.000000
_cell_angle_beta 135.282720
_cell_angle_gamma 90.000000
_cell_volume 2227.072943
_symmetry_space_group_name_H-M "C 2/M"
_symmetry_group_IT_number 12
_symmetry_cell_setting 'monoclinic'
loop_
_space_group_symop_operation_xyz
x,y,z
-x,y,-z
-x,-y,-z
x,-y,z
1/2+x,1/2+y,z
1/2-x,1/2+y,-z
1/2-x,1/2-y,-z
1/2+x,1/2-y,z
loop_
_atom_site_type_symbol
_atom_site_label
_atom_site_fract_x
_atom_site_fract_y
_atom_site_fract_z
Si Si1 0.591680 0.698896 0.135451
Si Si2 0.432347 0.913006 0.224630
Si Si3 0.983432 0.085800 0.699535
Si Si4 0.000000 0.717861 0.500000
Si Si5 0.513631 0.915634 0.598016
Si Si6 0.711683 0.849655 0.089441
Si Si7 0.286579 0.297340 0.311784
O O1 0.708184 0.624839 0.144582
O O2 0.634327 0.772690 0.103046
O O3 0.358957 0.678241 0.077447
O O4 0.712665 0.724160 0.243814
O O5 0.489603 0.913750 0.322835
O O6 0.594603 0.855400 0.245475
O O7 0.442348 0.000000 0.202179
O O8 0.140748 0.101982 0.812776
O O9 0.031068 0.155134 0.663755
O O10 0.751718 0.086065 0.651761
O O11 0.023829 0.000000 0.684221
O O12 0.915242 0.658276 0.529104
O O13 0.153978 0.770735 0.593957
O O14 0.425157 0.000000 0.548532
O O15 0.500000 0.891157 0.000000
#
# Coordination Sequence:
#
# PCOD9213526 Si02
#       7
#     8   8   8   4   8   8   8
#     4  11  21  41  61  90 126 164 203 251 307 372
#     4  11  22  41  63  86 120 171 213 245 304 379
#     4  10  22  42  61  85 123 164 203 250 314 375
#     4  12  23  38  61  92 124 156 216 262 305 360
#     4  10  22  38  60  87 123 164 207 258 309 362
#     4  11  22  37  65  97 123 155 203 260 308 365
#     4  11  24  38  63  88 122 165 210 253 308 364
#
# _framework density 23.349032999999999
#
# number of rings (size 3 to 8) (size 9 to 14) (size 15 to 20)
#    0.000    1.231    4.615    1.154    2.154    2.769 
#    0.000    3.077    0.000    0.462    0.000    0.000 
#    0.000    0.000    0.000    0.000    0.000    0.000 
#
# Total GULP energy -145451.374124 kJ/mol
# GULP energy per Si atom -5594.283620 kJ/mol
# Density = 2.329589 g / cm^3
# Si number density = 23.349033 Si / 1000 Ang^3
#
#
#
# Elastic Constant Matrix: (Units=GPa)
#
#
# Indices 1 2 3 4 5 6 
#
# 1 78.7313 18.4995 4.5898 0.0000 27.8372 0.0000
# 2 18.4995 122.8947 9.4788 0.0000 14.9987 0.0000
# 3 4.5898 9.4788 80.9952 0.0000 22.5653 0.0000
# 4 0.0000 0.0000 0.0000 13.8687 0.0000 3.4245
# 5 27.8372 14.9987 22.5653 0.0000 33.3750 0.0000
# 6 0.0000 0.0000 0.0000 3.4245 0.0000 1.8347
#
#
#
# Elastic Compliance Matrix: (Units=1/GPa)
#
#
# Indices 1 2 3 4 5 6 
#
# 1 0.019180 -0.000965 0.004142 0.000000 -0.018364 0.000000
# 2 -0.000965 0.008658 -0.000122 0.000000 -0.003003 0.000000
# 3 0.004142 -0.000122 0.016107 0.000000 -0.014291 0.000000
# 4 0.000000 0.000000 0.000000 0.133746 0.000000 -0.249640
# 5 -0.018364 -0.003003 -0.014291 0.000000 0.056292 0.000000
# 6 0.000000 0.000000 0.000000 -0.249640 0.000000 1.011018
#
#
# Mechanical properties :
#
#
# Convention : Reuss Voigt Hill
#
# Bulk Modulus (GPa) = 19.97765 38.63971 29.30868
# Shear Modulus (GPa) = 3.98224 26.48589 15.23406
#
# Velocity S-wave (km/s) = 1.30737 3.37166 2.55708
# Velocity P-wave (km/s) = 3.29449 5.63401 4.61496
#
# Compressibility (1/GPa) = 0.05005593
#
# Stress axis : x y z
#
# Youngs Moduli (GPa) = 52.13795 115.49580 62.08362
#
# Poissons Ratio (x) = 0.11150 -0.25718
# Poissons Ratio (y) = 0.05033 0.00756
# Poissons Ratio (z) = -0.21598 0.01407
#
# Static dielectric constant tensor:
#      x y z
#    x 1.884540 0.000000 -0.017820 
#    y 0.000000 1.885290 0.000000 
#    z -0.017820 0.000000 1.932070 
# 
# From -- ./inp_files/301201.got.cif
#   From: 2010.05.17/outbox.cif.g08.bks.cpg/sg12_151_cif.got.tgz:301201.got - 2010.06.03 13:09:07.
