data_PCOD9213659
_publ_section_title
;
Structure prediction by ZEFSAII (Michael W. Deem and Ramdas Pophale) SiO2 
 PCOD9213659
Probable space group: C 2/M
;
_chemical_formula_sum "Si O2"
_cell_formula_units_Z 56
_cell_length_a 21.488258
_cell_length_b 17.385533
_cell_length_c 14.286505
_cell_angle_alpha 90.000000
_cell_angle_beta 32.396770
_cell_angle_gamma 90.000000
_cell_volume 2859.572178
_symmetry_space_group_name_H-M "C 2/M"
_symmetry_group_IT_number 12
_symmetry_cell_setting 'monoclinic'
loop_
_space_group_symop_operation_xyz
x,y,z
-x,y,-z
-x,-y,-z
x,-y,z
1/2+x,1/2+y,z
1/2-x,1/2+y,-z
1/2-x,1/2-y,-z
1/2+x,1/2-y,z
loop_
_atom_site_type_symbol
_atom_site_label
_atom_site_fract_x
_atom_site_fract_y
_atom_site_fract_z
Si Si1 0.391198 0.347681 0.515786
Si Si2 0.636162 0.410920 0.243348
Si Si3 0.060937 0.780203 0.018601
Si Si4 0.322117 0.670088 0.409638
Si Si5 0.555284 0.822981 0.530950
Si Si6 0.163965 0.309926 0.056792
Si Si7 0.276814 0.411265 0.275916
O O1 0.529790 0.363424 0.333068
O O2 0.359652 0.388818 0.652244
O O3 0.322490 0.370110 0.510229
O O4 0.373818 0.256066 0.544065
O O5 0.610151 0.500000 0.265030
O O6 0.758819 0.386307 0.046428
O O7 0.133392 0.722410 0.992110
O O8 0.954877 0.807968 0.217857
O O9 0.139106 0.852689 0.886938
O O10 0.000000 0.749191 0.000000
O O11 0.250000 0.750000 0.500000
O O12 0.284002 0.614266 0.375096
O O13 0.500000 0.815271 0.500000
O O14 0.453809 0.824287 0.736528
O O15 0.644387 0.892986 0.417365
O O16 0.250000 0.250000 0.000000
O O17 0.308390 0.500000 0.221961
#
# Coordination Sequence:
#
# PCOD9213659 Si02
#       7
#     8   8   8   8   8   8   8
#     4  11  19  39  64  90 121 161 212 259 311 377
#     4  11  24  38  61  96 129 158 203 268 324 370
#     4  10  22  38  63  92 122 164 217 258 308 373
#     4  11  21  38  65  94 119 166 218 261 304 374
#     4  12  22  40  69  92 119 166 217 264 306 375
#     4  12  21  41  66  93 121 167 217 260 313 381
#     4  11  25  41  59  92 135 167 206 261 320 375
#
# _framework density 19.583349999999999
#
# number of rings (size 3 to 8) (size 9 to 14) (size 15 to 20)
#    0.000    0.857    5.714    2.571    2.000    4.571 
#    0.000    5.000    0.000    0.429    0.000    0.000 
#    0.000    0.000    0.000    0.000    0.000    0.000 
#
# Total GULP energy -156385.470553 kJ/mol
# GULP energy per Si atom -5585.195377 kJ/mol
# Density = 1.953878 g / cm^3
# Si number density = 19.583350 Si / 1000 Ang^3
#
#
#
# Elastic Constant Matrix: (Units=GPa)
#
#
# Indices 1 2 3 4 5 6 
#
# 1 87.0440 8.5113 14.9093 0.0000 13.8374 0.0000
# 2 8.5113 63.7689 23.2736 0.0000 3.0795 0.0000
# 3 14.9093 23.2736 88.3106 0.0000 1.3019 0.0000
# 4 0.0000 0.0000 0.0000 19.0863 0.0000 -3.5042
# 5 13.8374 3.0795 1.3019 0.0000 18.4873 0.0000
# 6 0.0000 0.0000 0.0000 -3.5042 0.0000 15.7693
#
#
#
# Elastic Compliance Matrix: (Units=1/GPa)
#
#
# Indices 1 2 3 4 5 6 
#
# 1 0.013446 -0.000603 -0.001966 0.000000 -0.009825 0.000000
# 2 -0.000603 0.017500 -0.004479 0.000000 -0.002149 0.000000
# 3 -0.001966 -0.004479 0.012817 0.000000 0.001315 0.000000
# 4 0.000000 0.000000 0.000000 0.054622 0.000000 0.012138
# 5 -0.009825 -0.002149 0.001315 0.000000 0.061710 0.000000
# 6 0.000000 0.000000 0.000000 0.012138 0.000000 0.066112
#
#
# Mechanical properties :
#
#
# Convention : Reuss Voigt Hill
#
# Bulk Modulus (GPa) = 33.70658 36.94577 35.32618
# Shear Modulus (GPa) = 19.98467 23.49721 21.74094
#
# Velocity S-wave (km/s) = 3.19798 3.46765 3.33554
# Velocity P-wave (km/s) = 5.55746 5.91098 5.73694
#
# Compressibility (1/GPa) = 0.02966780
#
# Stress axis : x y z
#
# Youngs Moduli (GPa) = 74.37100 57.14163 78.02384
#
# Poissons Ratio (x) = 0.03443 0.15343
# Poissons Ratio (y) = 0.04481 0.34944
# Poissons Ratio (z) = 0.14625 0.25592
#
# Static dielectric constant tensor:
#      x y z
#    x 1.724810 0.000000 -0.008190 
#    y 0.000000 1.661780 0.000000 
#    z -0.008190 0.000000 1.734820 
# 
# From -- ./inp_files/234654.got.cif
#   From: 2010.05.17/outbox.cif.g08.bks.cpg/sg12_118_cif.got.tgz:234654.got - 2010.06.03 13:09:07.
