data_PCOD9213998
_publ_section_title
;
Structure prediction by ZEFSAII (Michael W. Deem and Ramdas Pophale) SiO2 
 PCOD9213998
Probable space group: C 2/M
;
_chemical_formula_sum "Si O2"
_cell_formula_units_Z 64
_cell_length_a 30.839922
_cell_length_b 18.519601
_cell_length_c 9.661190
_cell_angle_alpha 90.000000
_cell_angle_beta 141.065285
_cell_angle_gamma 90.000000
_cell_volume 3467.652106
_symmetry_space_group_name_H-M "C 2/M"
_symmetry_group_IT_number 12
_symmetry_cell_setting 'monoclinic'
loop_
_space_group_symop_operation_xyz
x,y,z
-x,y,-z
-x,-y,-z
x,-y,z
1/2+x,1/2+y,z
1/2-x,1/2+y,-z
1/2-x,1/2-y,-z
1/2+x,1/2-y,z
loop_
_atom_site_type_symbol
_atom_site_label
_atom_site_fract_x
_atom_site_fract_y
_atom_site_fract_z
Si Si1 0.197538 0.416600 0.079383
Si Si2 0.345407 0.416258 0.836255
Si Si3 0.067898 0.684836 0.750108
Si Si4 0.578271 0.351445 0.729201
Si Si5 0.348817 0.585959 0.344811
Si Si6 0.579751 0.353941 0.222185
Si Si7 0.569184 0.808249 0.087930
Si Si8 0.194242 0.415653 0.402950
O O1 0.181699 0.500000 0.005985
O O2 0.133509 0.365624 0.885609
O O3 0.269589 0.397349 0.185750
O O4 0.206760 0.412303 0.268469
O O5 0.348558 0.500000 0.881238
O O6 0.370263 0.405058 0.741670
O O7 0.265985 0.392303 0.651744
O O8 0.398862 0.372498 0.060854
O O9 0.082192 0.765186 0.728943
O O10 0.000000 0.658385 0.500000
O O11 0.057613 0.690146 0.892178
O O12 0.500000 0.373441 0.500000
O O13 0.630606 0.392050 0.758102
O O14 0.359455 0.500000 0.393007
O O15 0.398619 0.632994 0.566814
O O16 0.588647 0.272193 0.188907
O O17 0.500000 0.373022 0.000000
O O18 0.630380 0.863827 0.274066
O O19 0.500000 0.827656 0.000000
O O20 0.180792 0.500000 0.403507
#
# Coordination Sequence:
#
# PCOD9213998 Si02
#       8
#     8   8   8   8   8   8   8   8
#     4   9  19  39  63  87 116 150 191 239 288 340
#     4  11  21  37  58  84 115 151 194 235 288 344
#     4  10  22  40  61  86 118 153 190 234 290 350
#     4  11  24  39  56  82 120 157 192 237 289 340
#     4  11  23  39  59  85 117 153 195 239 284 340
#     4  11  22  35  57  87 112 149 193 239 279 337
#     4  10  22  39  61  89 117 149 191 240 288 339
#     4   9  19  38  63  88 117 150 188 239 291 342
#
# _framework density 18.456292000000001
#
# number of rings (size 3 to 8) (size 9 to 14) (size 15 to 20)
#    0.000    1.750    2.500    1.500    5.250    5.500 
#    2.250    0.000    0.000    0.000    0.000    0.000 
#    0.000    0.000    0.000    0.000    0.000    0.000 
#
# Total GULP energy -178602.477210 kJ/mol
# GULP energy per Si atom -5581.327413 kJ/mol
# Density = 1.841428 g / cm^3
# Si number density = 18.456292 Si / 1000 Ang^3
#
#
#
# Elastic Constant Matrix: (Units=GPa)
#
#
# Indices 1 2 3 4 5 6 
#
# 1 76.0776 31.0497 1.6506 0.0000 23.6141 0.0000
# 2 31.0497 50.7771 36.3458 0.0000 28.2259 0.0000
# 3 1.6506 36.3458 73.2616 0.0000 25.1435 0.0000
# 4 0.0000 0.0000 0.0000 26.5284 0.0000 1.2848
# 5 23.6141 28.2259 25.1435 0.0000 33.1994 0.0000
# 6 0.0000 0.0000 0.0000 1.2848 0.0000 26.0151
#
#
#
# Elastic Compliance Matrix: (Units=1/GPa)
#
#
# Indices 1 2 3 4 5 6 
#
# 1 0.022792 -0.015554 0.011118 0.000000 -0.011408 0.000000
# 2 -0.015554 0.054771 -0.019778 0.000000 -0.020523 0.000000
# 3 0.011118 -0.019778 0.027233 0.000000 -0.011718 0.000000
# 4 0.000000 0.000000 0.000000 0.037786 0.000000 -0.001866
# 5 -0.011408 -0.020523 -0.011718 0.000000 0.064559 0.000000
# 6 0.000000 0.000000 0.000000 -0.001866 0.000000 0.038531
#
#
# Mechanical properties :
#
#
# Convention : Reuss Voigt Hill
#
# Bulk Modulus (GPa) = 17.74054 37.57873 27.65964
# Shear Modulus (GPa) = 15.98008 25.88659 20.93334
#
# Velocity S-wave (km/s) = 2.94570 3.74918 3.37146
# Velocity P-wave (km/s) = 4.60462 6.25675 5.49315
#
# Compressibility (1/GPa) = 0.05636806
#
# Stress axis : x y z
#
# Youngs Moduli (GPa) = 43.87409 18.25793 36.72027
#
# Poissons Ratio (x) = 0.28399 -0.40827
# Poissons Ratio (y) = 0.68243 0.72626
# Poissons Ratio (z) = -0.48781 0.36111
#
# Static dielectric constant tensor:
#      x y z
#    x 1.608800 0.000000 0.000200 
#    y 0.000000 1.619440 0.000000 
#    z 0.000200 0.000000 1.623510 
# 
# From -- ./inp_files/112917.got.cif
#   From: 2010.05.17/outbox.cif.g08.bks.cpg/sg12_57_cif.got.tgz:112917.got - 2010.06.03 13:09:07.
