data_PCOD9213913
_publ_section_title
;
Structure prediction by ZEFSAII (Michael W. Deem and Ramdas Pophale) SiO2 
 PCOD9213913
Probable space group: C 2/M
;
_chemical_formula_sum "Si O2"
_cell_formula_units_Z 64
_cell_length_a 14.858308
_cell_length_b 8.781146
_cell_length_c 33.945445
_cell_angle_alpha 90.000000
_cell_angle_beta 130.647565
_cell_angle_gamma 90.000000
_cell_volume 3360.390688
_symmetry_space_group_name_H-M "C 2/M"
_symmetry_group_IT_number 12
_symmetry_cell_setting 'monoclinic'
loop_
_space_group_symop_operation_xyz
x,y,z
-x,y,-z
-x,-y,-z
x,-y,z
1/2+x,1/2+y,z
1/2-x,1/2+y,-z
1/2-x,1/2-y,-z
1/2+x,1/2-y,z
loop_
_atom_site_type_symbol
_atom_site_label
_atom_site_fract_x
_atom_site_fract_y
_atom_site_fract_z
Si Si1 0.768914 0.182293 0.283450
Si Si2 0.503835 0.814762 0.804047
Si Si3 0.617732 0.180828 0.605135
Si Si4 0.925633 0.319065 0.260121
Si Si5 0.858944 0.819584 0.634811
Si Si6 0.371339 0.183879 0.080398
Si Si7 0.875111 0.820373 0.547453
Si Si8 0.095631 0.183698 0.994467
O O1 0.632257 0.232564 0.240932
O O2 0.832432 0.255910 0.339235
O O3 0.836930 0.231781 0.263480
O O4 0.773616 0.000000 0.289185
O O5 0.578168 0.770674 0.786567
O O6 0.558946 0.763205 0.860939
O O7 0.503492 0.000000 0.804581
O O8 0.721288 0.214890 0.603394
O O9 0.490263 0.250979 0.559571
O O10 0.604657 0.000000 0.604456
O O11 0.905670 0.500000 0.257259
O O12 0.056995 0.279388 0.313496
O O13 0.891245 0.792468 0.598801
O O14 0.877552 0.000000 0.648624
O O15 0.231785 0.225562 0.043905
O O16 0.377380 0.000000 0.080192
O O17 0.423008 0.250191 0.054561
O O18 0.750000 0.750000 0.500000
O O19 0.871385 0.000000 0.539927
O O20 0.089627 0.000000 0.990692
O O21 0.000000 0.233872 0.000000
#
# Coordination Sequence:
#
# PCOD9213913 Si02
#       8
#     8   8   8   8   8   8   8   8
#     4  11  21  36  55  80 112 148 187 230 281 334
#     4   9  20  36  54  79 114 151 186 230 282 337
#     4  11  22  38  61  87 112 146 189 231 280 338
#     4  11  21  35  57  84 111 147 191 229 275 338
#     4  10  22  39  60  84 115 149 185 229 282 333
#     4   9  18  35  55  77 110 149 188 231 281 336
#     4  11  24  42  62  86 117 152 187 238 289 336
#     4   9  18  33  55  81 109 145 187 235 288 337
#
# _framework density 19.045403
#
# number of rings (size 3 to 8) (size 9 to 14) (size 15 to 20)
#    0.000    1.875    2.500    1.500    0.000    2.750 
#    0.000    6.250    0.000    0.000    0.000    0.000 
#    0.000    0.000    0.000    0.000    0.000    0.000 
#
# Total GULP energy -178688.655115 kJ/mol
# GULP energy per Si atom -5584.020472 kJ/mol
# Density = 1.900206 g / cm^3
# Si number density = 19.045403 Si / 1000 Ang^3
#
#
#
# Elastic Constant Matrix: (Units=GPa)
#
#
# Indices 1 2 3 4 5 6 
#
# 1 74.8157 13.6258 -30.0768 0.0000 4.1776 0.0000
# 2 13.6258 19.6204 9.8910 0.0000 -3.1824 0.0000
# 3 -30.0768 9.8910 8.7151 0.0000 12.9033 0.0000
# 4 0.0000 0.0000 0.0000 24.2527 0.0000 0.4802
# 5 4.1776 -3.1824 12.9033 0.0000 13.5214 0.0000
# 6 0.0000 0.0000 0.0000 0.4802 0.0000 23.3739
#
#
#
# Elastic Compliance Matrix: (Units=1/GPa)
#
#
# Indices 1 2 3 4 5 6 
#
# 1 0.004584 0.007563 -0.016220 0.000000 0.015842 0.000000
# 2 0.007563 0.027788 0.028242 0.000000 -0.022748 0.000000
# 3 -0.016220 0.028242 -0.022897 0.000000 0.033509 0.000000
# 4 0.000000 0.000000 0.000000 0.041249 0.000000 -0.000847
# 5 0.015842 -0.022748 0.033509 0.000000 0.031731 0.000000
# 6 0.000000 0.000000 0.000000 -0.000847 0.000000 0.042800
#
#
# Mechanical properties :
#
#
# Convention : Reuss Voigt Hill
#
# Bulk Modulus (GPa) = 20.55693 10.00346 15.28019
# Shear Modulus (GPa) = 48.87581 19.54368 34.20974
#
# Velocity S-wave (km/s) = 5.07134 3.20685 4.24278
# Velocity P-wave (km/s) = 6.71628 4.35611 5.66057
#
# Compressibility (1/GPa) = 0.04864540
#
# Stress axis : x y z
#
# Youngs Moduli (GPa) = 218.16370 35.98625 -43.67330
#
# Poissons Ratio (x) = -0.27216 -0.70836
# Poissons Ratio (y) = -1.64994 1.23342
# Poissons Ratio (z) = 3.53853 -1.01633
#
# Static dielectric constant tensor:
#      x y z
#    x 1.675410 0.000000 0.009680 
#    y 0.000000 1.639640 0.000000 
#    z 0.009680 0.000000 1.650210 
# 
# From -- ./inp_files/375629.got.cif
#   From: 2010.05.17/outbox.cif.g08.bks.cpg/sg12_188_cif.got.tgz:375629.got - 2010.06.03 13:09:07.
