data_PCOD9213403
_publ_section_title
;
Structure prediction by ZEFSAII (Michael W. Deem and Ramdas Pophale) SiO2 
 PCOD9213403
Probable space group: C 2/M
;
_chemical_formula_sum "Si O2"
_cell_formula_units_Z 56
_cell_length_a 9.955738
_cell_length_b 13.926765
_cell_length_c 25.064695
_cell_angle_alpha 90.000000
_cell_angle_beta 53.711891
_cell_angle_gamma 90.000000
_cell_volume 2801.229695
_symmetry_space_group_name_H-M "C 2/M"
_symmetry_group_IT_number 12
_symmetry_cell_setting 'monoclinic'
loop_
_space_group_symop_operation_xyz
x,y,z
-x,y,-z
-x,-y,-z
x,-y,z
1/2+x,1/2+y,z
1/2-x,1/2+y,-z
1/2-x,1/2-y,-z
1/2+x,1/2-y,z
loop_
_atom_site_type_symbol
_atom_site_label
_atom_site_fract_x
_atom_site_fract_y
_atom_site_fract_z
Si Si1 0.482640 0.114355 0.296499
Si Si2 0.136812 0.884639 0.323493
Si Si3 0.269788 0.382976 0.440375
Si Si4 0.274984 0.266204 0.802045
Si Si5 0.112630 0.216417 0.109469
Si Si6 0.820764 0.890526 0.013537
Si Si7 0.507635 0.116800 0.413336
O O1 0.293377 0.136649 0.324620
O O2 0.607447 0.172867 0.230151
O O3 0.517420 0.142830 0.349436
O O4 0.506696 0.000000 0.285500
O O5 0.170486 0.835658 0.258778
O O6 0.961003 0.853574 0.390367
O O7 0.130049 0.000000 0.318081
O O8 0.269564 0.500000 0.440897
O O9 0.162932 0.353232 0.517103
O O10 0.162487 0.352522 0.413789
O O11 0.309798 0.310492 0.851808
O O12 0.084526 0.234031 0.840328
O O13 0.197181 0.315559 0.070130
O O14 0.153990 0.140070 0.053733
O O15 0.763449 0.000000 0.031785
O O16 0.000000 0.881588 0.000000
O O17 0.508339 0.000000 0.414216
#
# Coordination Sequence:
#
# PCOD9213403 Si02
#       7
#     8   8   8   8   8   8   8
#     4  10  22  38  58  85 117 159 206 248 299 361
#     4  10  22  38  57  85 119 157 203 253 301 353
#     4   8  15  30  53  81 114 151 197 256 309 352
#     4  12  24  41  60  89 129 163 195 240 298 351
#     4  11  24  42  65  94 126 160 194 240 291 347
#     4  10  22  43  71  98 123 156 198 239 285 346
#     4   8  15  30  53  81 113 152 199 252 308 359
#
# _framework density 19.991219999999998
#
# number of rings (size 3 to 8) (size 9 to 14) (size 15 to 20)
#    0.000    2.143    2.857    0.857    2.000    2.857 
#    0.000    4.286    0.000    0.000    0.000    0.000 
#    0.000    0.000    0.000    0.000    0.000    0.000 
#
# Total GULP energy -156452.309754 kJ/mol
# GULP energy per Si atom -5587.582491 kJ/mol
# Density = 1.994572 g / cm^3
# Si number density = 19.991220 Si / 1000 Ang^3
#
#
#
# Elastic Constant Matrix: (Units=GPa)
#
#
# Indices 1 2 3 4 5 6 
#
# 1 50.0255 -2.3337 5.5836 0.0000 -9.1365 0.0000
# 2 -2.3337 58.2385 -2.1743 0.0000 -8.1584 0.0000
# 3 5.5836 -2.1743 58.0655 0.0000 -1.8553 0.0000
# 4 0.0000 0.0000 0.0000 17.1640 0.0000 -0.1626
# 5 -9.1365 -8.1584 -1.8553 0.0000 49.4012 0.0000
# 6 0.0000 0.0000 0.0000 -0.1626 0.0000 17.9703
#
#
#
# Elastic Compliance Matrix: (Units=1/GPa)
#
#
# Indices 1 2 3 4 5 6 
#
# 1 0.020994 0.001338 -0.001840 0.000000 0.004035 0.000000
# 2 0.001338 0.017696 0.000636 0.000000 0.003194 0.000000
# 3 -0.001840 0.000636 0.017436 0.000000 0.000420 0.000000
# 4 0.000000 0.000000 0.000000 0.058267 0.000000 0.000527
# 5 0.004035 0.003194 0.000420 0.000000 0.021532 0.000000
# 6 0.000000 0.000000 0.000000 0.000527 0.000000 0.055652
#
#
# Mechanical properties :
#
#
# Convention : Reuss Voigt Hill
#
# Bulk Modulus (GPa) = 17.73239 18.72008 18.22623
# Shear Modulus (GPa) = 23.79744 27.92402 25.86073
#
# Velocity S-wave (km/s) = 3.45395 3.74145 3.60057
# Velocity P-wave (km/s) = 4.97953 5.29614 5.14027
#
# Compressibility (1/GPa) = 0.05639399
#
# Stress axis : x y z
#
# Youngs Moduli (GPa) = 47.63167 56.51152 57.35241
#
# Poissons Ratio (x) = -0.07560 0.10552
# Poissons Ratio (y) = -0.06372 -0.03648
# Poissons Ratio (z) = 0.08763 -0.03594
#
# Static dielectric constant tensor:
#      x y z
#    x 1.681940 0.000000 0.005070 
#    y 0.000000 1.717370 0.000000 
#    z 0.005070 0.000000 1.672160 
# 
# From -- ./inp_files/300150.got.cif
#   From: 2010.05.17/outbox.cif.g08.bks.cpg/sg12_151_cif.got.tgz:300150.got - 2010.06.03 13:09:07.
