data_PCOD9213364
_publ_section_title
;
Structure prediction by ZEFSAII (Michael W. Deem and Ramdas Pophale) SiO2 
 PCOD9213364
Probable space group: C 2/M
;
_chemical_formula_sum "Si O2"
_cell_formula_units_Z 40
_cell_length_a 11.745011
_cell_length_b 27.482342
_cell_length_c 9.022915
_cell_angle_alpha 90.000000
_cell_angle_beta 135.539383
_cell_angle_gamma 90.000000
_cell_volume 2039.913965
_symmetry_space_group_name_H-M "C 2/M"
_symmetry_group_IT_number 12
_symmetry_cell_setting 'monoclinic'
loop_
_space_group_symop_operation_xyz
x,y,z
-x,y,-z
-x,-y,-z
x,-y,z
1/2+x,1/2+y,z
1/2-x,1/2+y,-z
1/2-x,1/2-y,-z
1/2+x,1/2-y,z
loop_
_atom_site_type_symbol
_atom_site_label
_atom_site_fract_x
_atom_site_fract_y
_atom_site_fract_z
Si Si1 0.557856 0.848763 0.387335
Si Si2 0.943741 0.852069 0.777692
Si Si3 0.545038 0.054117 0.214749
Si Si4 0.437613 0.248130 0.116250
Si Si5 0.436823 0.447412 0.607930
O O1 0.500000 0.842758 0.500000
O O2 0.751045 0.853059 0.579185
O O3 0.487236 0.898412 0.250152
O O4 0.510489 0.800973 0.252068
O O5 0.005348 0.900640 0.755130
O O6 0.997731 0.800013 0.764974
O O7 0.000000 0.854039 0.000000
O O8 0.740670 0.054022 0.415491
O O9 0.486428 0.000000 0.208236
O O10 0.500000 0.059446 0.000000
O O11 0.500000 0.247529 0.000000
O O12 0.250000 0.250000 0.000000
O O13 0.500000 0.446065 0.500000
O O14 0.483078 0.500000 0.717573
#
# Coordination Sequence:
#
# PCOD9213364 Si02
#       5
#     8   8   8   8   8
#     4  11  22  37  59  86 118 153 195 243 295 353
#     4  10  22  38  56  82 115 151 191 236 287 344
#     4   9  19  36  57  82 113 149 190 237 291 350
#     4  11  24  42  63  88 119 154 198 246 299 357
#     4   9  19  35  56  82 110 144 187 233 282 341
#
# _framework density 19.608671000000001
#
# number of rings (size 3 to 8) (size 9 to 14) (size 15 to 20)
#    0.000    2.000    0.000    3.600    0.000    8.000 
#    0.000    0.000    0.000    0.000    0.000    0.000 
#    0.000    0.000    0.000    0.000    0.000    0.000 
#
# Total GULP energy -111426.311679 kJ/mol
# GULP energy per Si atom -5571.315584 kJ/mol
# Density = 1.956404 g / cm^3
# Si number density = 19.608671 Si / 1000 Ang^3
#
#
#
# Elastic Constant Matrix: (Units=GPa)
#
#
# Indices 1 2 3 4 5 6 
#
# 1 75.1986 47.9701 13.1647 0.0000 -7.2894 0.0000
# 2 47.9701 229.0265 67.4199 0.0000 -26.2293 0.0000
# 3 13.1647 67.4199 65.0981 0.0000 -7.6260 0.0000
# 4 0.0000 0.0000 0.0000 45.0877 0.0000 1.2866
# 5 -7.2894 -26.2293 -7.6260 0.0000 23.3313 0.0000
# 6 0.0000 0.0000 0.0000 1.2866 0.0000 67.1093
#
#
#
# Elastic Compliance Matrix: (Units=1/GPa)
#
#
# Indices 1 2 3 4 5 6 
#
# 1 0.015391 -0.003163 0.000322 0.000000 0.001358 0.000000
# 2 -0.003163 0.007584 -0.006584 0.000000 0.005385 0.000000
# 3 0.000322 -0.006584 0.022106 0.000000 -0.000075 0.000000
# 4 0.000000 0.000000 0.000000 0.022191 0.000000 -0.000425
# 5 0.001358 0.005385 -0.000075 0.000000 0.049315 0.000000
# 6 0.000000 0.000000 0.000000 -0.000425 0.000000 0.014909
#
#
# Mechanical properties :
#
#
# Convention : Reuss Voigt Hill
#
# Bulk Modulus (GPa) = 38.12109 69.60360 53.86234
# Shear Modulus (GPa) = 31.42906 43.15689 37.29297
#
# Velocity S-wave (km/s) = 4.00786 4.69647 4.36576
# Velocity P-wave (km/s) = 6.39534 8.06118 7.27609
#
# Compressibility (1/GPa) = 0.02623220
#
# Stress axis : x y z
#
# Youngs Moduli (GPa) = 64.97266 131.86271 45.23699
#
# Poissons Ratio (x) = 0.41710 -0.01459
# Poissons Ratio (y) = 0.20552 0.29782
# Poissons Ratio (z) = -0.02095 0.86813
#
# Static dielectric constant tensor:
#      x y z
#    x 1.703000 0.000000 0.002830 
#    y 0.000000 1.732530 0.000000 
#    z 0.002830 0.000000 1.677350 
# 
# From -- ./inp_files/52335.got.cif
#   From: 2010.05.17/outbox.cif.g08.bks.cpg/sg12_27_cif.got.tgz:52335.got - 2010.06.03 13:09:07.
