data_PCOD9213110
_publ_section_title
;
Structure prediction by ZEFSAII (Michael W. Deem and Ramdas Pophale) SiO2 
 PCOD9213110
Probable space group: C 2/M
;
_chemical_formula_sum "Si O2"
_cell_formula_units_Z 56
_cell_length_a 27.646601
_cell_length_b 7.644054
_cell_length_c 15.052532
_cell_angle_alpha 90.000000
_cell_angle_beta 56.848236
_cell_angle_gamma 90.000000
_cell_volume 2663.282511
_symmetry_space_group_name_H-M "C 2/M"
_symmetry_group_IT_number 12
_symmetry_cell_setting 'monoclinic'
loop_
_space_group_symop_operation_xyz
x,y,z
-x,y,-z
-x,-y,-z
x,-y,z
1/2+x,1/2+y,z
1/2-x,1/2+y,-z
1/2-x,1/2-y,-z
1/2+x,1/2-y,z
loop_
_atom_site_type_symbol
_atom_site_label
_atom_site_fract_x
_atom_site_fract_y
_atom_site_fract_z
Si Si1 0.751302 0.289436 0.602880
Si Si2 0.967871 0.211370 0.387059
Si Si3 0.142542 0.296075 0.388409
Si Si4 0.467994 0.712522 0.184667
Si Si5 0.639573 0.714379 0.823706
Si Si6 0.898962 0.786415 0.950979
Si Si7 0.901835 0.793035 0.751296
O O1 0.751420 0.500000 0.608785
O O2 0.750000 0.250000 0.500000
O O3 0.808198 0.220562 0.596526
O O4 0.694289 0.226646 0.711719
O O5 0.919652 0.271779 0.503493
O O6 0.952505 0.262265 0.301322
O O7 0.033521 0.274735 0.336340
O O8 0.967922 0.000000 0.392269
O O9 0.154187 0.500000 0.369287
O O10 0.139335 0.230505 0.290925
O O11 0.468396 0.500000 0.181661
O O12 0.419694 0.771368 0.164468
O O13 0.534008 0.765624 0.100913
O O14 0.639729 0.500000 0.822468
O O15 0.638463 0.771105 0.927412
O O16 0.883171 0.726182 0.867240
O O17 0.897422 0.000000 0.953277
O O18 0.909595 0.000000 0.755426
#
# Coordination Sequence:
#
# PCOD9213110 Si02
#       7
#     8   8   8   8   8   8   8
#     4  10  22  37  52  72  97 127 162 198 236 281
#     4   9  17  30  49  73  99 126 159 198 240 288
#     4  11  22  33  46  68  98 130 164 199 236 281
#     4   8  13  22  42  73 100 119 145 190 246 291
#     4   9  15  26  46  69  95 126 156 191 238 284
#     4   8  14  25  44  72  99 119 149 195 240 284
#     4   9  18  32  50  73  98 124 158 200 243 286
#
# _framework density 21.026686000000002
#
# number of rings (size 3 to 8) (size 9 to 14) (size 15 to 20)
#    0.000    2.857    0.000    3.857    0.000    6.286 
#    0.000    0.714    0.000    0.857    0.000    0.000 
#    0.000   10.286    0.000    0.000    0.000    0.000 
#
# Total GULP energy -156207.539630 kJ/mol
# GULP energy per Si atom -5578.840701 kJ/mol
# Density = 2.097883 g / cm^3
# Si number density = 21.026686 Si / 1000 Ang^3
#
#
#
# Elastic Constant Matrix: (Units=GPa)
#
#
# Indices 1 2 3 4 5 6 
#
# 1 116.3711 4.1539 83.6833 0.0000 37.6637 0.0000
# 2 4.1539 28.4694 0.5310 0.0000 -2.0962 -0.0001
# 3 83.6833 0.5310 184.3460 0.0000 24.6316 0.0000
# 4 0.0000 0.0000 0.0000 -1.8088 0.0000 -0.2889
# 5 37.6637 -2.0962 24.6316 0.0000 22.3654 0.0000
# 6 0.0000 -0.0001 0.0000 -0.2889 0.0000 10.7193
#
#
#
# Elastic Compliance Matrix: (Units=1/GPa)
#
#
# Indices 1 2 3 4 5 6 
#
# 1 0.025051 -0.006144 -0.006614 0.000000 -0.035478 0.000000
# 2 -0.006144 0.036941 0.000982 -0.000001 0.012727 0.000000
# 3 -0.006614 0.000982 0.008118 0.000000 0.002289 0.000000
# 4 0.000000 -0.000001 0.000000 -0.550482 -0.000001 -0.014835
# 5 -0.035478 0.012727 0.002289 -0.000001 0.103130 0.000000
# 6 0.000000 0.000000 0.000000 -0.014835 0.000000 0.092890
#
#
# Mechanical properties :
#
#
# Convention : Reuss Voigt Hill
#
# Bulk Modulus (GPa) = 21.47825 56.21366 38.84595
# Shear Modulus (GPa) = -20.38471 22.30974 0.96252
#
# Velocity S-wave (km/s) = -3.11701 3.26086 0.67731
# Velocity P-wave (km/s) = 1.64845 6.40079 4.37337
#
# Compressibility (1/GPa) = 0.04655873
#
# Stress axis : x y z
#
# Youngs Moduli (GPa) = 39.91842 27.07044 123.18016
#
# Poissons Ratio (x) = 0.16632 0.81467
# Poissons Ratio (y) = 0.24526 -0.12097
# Poissons Ratio (z) = 0.26401 -0.02659
#
# Static dielectric constant tensor:
#      x y z
#    x 1.766030 0.000000 0.016530 
#    y 0.000000 1.799360 0.000000 
#    z 0.016530 0.000000 1.742340 
# 
# From -- ./inp_files/243691.got.cif
#   From: 2010.05.17/outbox.cif.g08.bks.cpg/sg12_122_cif.got.tgz:243691.got - 2010.06.03 13:09:07.
