data_PCOD9213149
_publ_section_title
;
Structure prediction by ZEFSAII (Michael W. Deem and Ramdas Pophale) SiO2 
 PCOD9213149
Probable space group: C 2/M
;
_chemical_formula_sum "Si O2"
_cell_formula_units_Z 56
_cell_length_a 14.569116
_cell_length_b 20.561728
_cell_length_c 13.712252
_cell_angle_alpha 90.000000
_cell_angle_beta 131.935093
_cell_angle_gamma 90.000000
_cell_volume 3055.748010
_symmetry_space_group_name_H-M "C 2/M"
_symmetry_group_IT_number 12
_symmetry_cell_setting 'monoclinic'
loop_
_space_group_symop_operation_xyz
x,y,z
-x,y,-z
-x,-y,-z
x,-y,z
1/2+x,1/2+y,z
1/2-x,1/2+y,-z
1/2-x,1/2-y,-z
1/2+x,1/2-y,z
loop_
_atom_site_type_symbol
_atom_site_label
_atom_site_fract_x
_atom_site_fract_y
_atom_site_fract_z
Si Si1 0.000067 0.688876 0.717444
Si Si2 0.392165 0.301903 0.503472
Si Si3 0.357021 0.754498 0.781092
Si Si4 0.860186 0.072682 0.618430
Si Si5 0.417182 0.924670 0.532883
Si Si6 0.500033 0.380449 0.891649
Si Si7 0.276920 0.713122 0.921243
O O1 0.937411 0.747210 0.611720
O O2 0.964384 0.705312 0.803392
O O3 0.945273 0.621077 0.643724
O O4 0.143752 0.688247 0.792946
O O5 0.500000 0.310609 0.500000
O O6 0.267960 0.274342 0.364368
O O7 0.370064 0.368769 0.547608
O O8 0.400380 0.678937 0.810126
O O9 0.332568 0.760628 0.878544
O O10 0.730194 0.078972 0.584407
O O11 0.968621 0.077486 0.775559
O O12 0.860155 0.000000 0.573887
O O13 0.500000 0.901949 0.500000
O O14 0.449549 0.000000 0.573070
O O15 0.500000 0.411269 0.000000
O O16 0.630296 0.344097 0.985293
O O17 0.250000 0.750000 0.000000
#
# Coordination Sequence:
#
# PCOD9213149 Si02
#       7
#     8   8   8   8   8   8   8
#     4  12  21  35  63  87 117 152 188 243 299 345
#     4  12  22  36  61  91 116 148 198 241 300 349
#     4  11  21  36  58  89 117 147 189 244 292 349
#     4  11  23  41  59  82 120 158 195 244 295 349
#     4  10  23  38  57  86 119 153 194 241 297 354
#     4  10  22  37  55  84 120 150 198 234 286 348
#     4  11  22  36  55  88 120 150 188 243 287 345
#
# _framework density 18.326118999999998
#
# number of rings (size 3 to 8) (size 9 to 14) (size 15 to 20)
#    0.000    1.000    5.714    1.714    4.000    0.571 
#    0.000    0.714    0.000    0.000    0.000    1.000 
#    0.000    0.000    0.000    0.000    0.000    0.000 
#
# Total GULP energy -156138.976089 kJ/mol
# GULP energy per Si atom -5576.392003 kJ/mol
# Density = 1.828441 g / cm^3
# Si number density = 18.326119 Si / 1000 Ang^3
#
#
#
# Elastic Constant Matrix: (Units=GPa)
#
#
# Indices 1 2 3 4 5 6 
#
# 1 114.4845 24.7352 29.0515 0.0000 -4.9905 0.0000
# 2 24.7352 71.0954 36.0467 0.0000 1.3048 0.0000
# 3 29.0515 36.0467 84.1492 0.0000 5.3539 0.0000
# 4 0.0000 0.0000 0.0000 20.2171 0.0000 -0.2730
# 5 -4.9905 1.3048 5.3539 0.0000 28.9089 0.0000
# 6 0.0000 0.0000 0.0000 -0.2730 0.0000 17.3017
#
#
#
# Elastic Compliance Matrix: (Units=1/GPa)
#
#
# Indices 1 2 3 4 5 6 
#
# 1 0.009980 -0.002163 -0.002666 0.000000 0.002314 0.000000
# 2 -0.002163 0.018448 -0.007163 0.000000 0.000121 0.000000
# 3 -0.002666 -0.007163 0.016071 0.000000 -0.003113 0.000000
# 4 0.000000 0.000000 0.000000 0.049474 0.000000 0.000781
# 5 0.002314 0.000121 -0.003113 0.000000 0.035562 0.000000
# 6 0.000000 0.000000 0.000000 0.000781 0.000000 0.057810
#
#
# Mechanical properties :
#
#
# Convention : Reuss Voigt Hill
#
# Bulk Modulus (GPa) = 48.74834 49.93289 49.34062
# Shear Modulus (GPa) = 22.91829 25.27859 24.09844
#
# Velocity S-wave (km/s) = 3.54019 3.71802 3.63020
# Velocity P-wave (km/s) = 6.58550 6.76296 6.67482
#
# Compressibility (1/GPa) = 0.02051352
#
# Stress axis : x y z
#
# Youngs Moduli (GPa) = 100.20541 54.20688 62.22488
#
# Poissons Ratio (x) = 0.11724 0.16590
# Poissons Ratio (y) = 0.21672 0.44575
# Poissons Ratio (z) = 0.26716 0.38831
#
# Static dielectric constant tensor:
#      x y z
#    x 1.654020 0.000000 0.005960 
#    y 0.000000 1.624250 0.000000 
#    z 0.005960 0.000000 1.671130 
# 
# From -- ./inp_files/169505.got.cif
#   From: 2010.05.17/outbox.cif.g08.bks.cpg/sg12_85_cif.got.tgz:169505.got - 2010.06.03 13:09:07.
