data_PCOD9213486
_publ_section_title
;
Structure prediction by ZEFSAII (Michael W. Deem and Ramdas Pophale) SiO2 
 PCOD9213486
Probable space group: C 2/M
;
_chemical_formula_sum "Si O2"
_cell_formula_units_Z 48
_cell_length_a 16.376823
_cell_length_b 29.377316
_cell_length_c 8.861997
_cell_angle_alpha 90.000000
_cell_angle_beta 34.150222
_cell_angle_gamma 90.000000
_cell_volume 2393.417136
_symmetry_space_group_name_H-M "C 2/M"
_symmetry_group_IT_number 12
_symmetry_cell_setting 'monoclinic'
loop_
_space_group_symop_operation_xyz
x,y,z
-x,y,-z
-x,-y,-z
x,-y,z
1/2+x,1/2+y,z
1/2-x,1/2+y,-z
1/2-x,1/2-y,-z
1/2+x,1/2-y,z
loop_
_atom_site_type_symbol
_atom_site_label
_atom_site_fract_x
_atom_site_fract_y
_atom_site_fract_z
Si Si1 0.166387 0.713431 0.230499
Si Si2 0.635625 0.114624 0.362881
Si Si3 0.707813 0.446972 0.336591
Si Si4 0.634805 0.447533 0.098483
Si Si5 0.829812 0.208800 0.296941
Si Si6 0.144357 0.368119 0.699432
O O1 0.151940 0.658713 0.225306
O O2 0.251365 0.709415 0.256251
O O3 0.000000 0.729613 0.500000
O O4 0.250000 0.750000 0.000000
O O5 0.500000 0.087693 0.500000
O O6 0.603442 0.123690 0.587293
O O7 0.783717 0.086979 0.133236
O O8 0.748986 0.500000 0.298443
O O9 0.697963 0.439227 0.170886
O O10 0.538339 0.441527 0.641720
O O11 0.806791 0.412046 0.278612
O O12 0.665137 0.500000 0.014404
O O13 0.750000 0.250000 0.500000
O O14 0.782387 0.165512 0.470219
O O15 0.000000 0.212173 0.000000
O O16 0.000000 0.347795 0.000000
#
# Coordination Sequence:
#
# PCOD9213486 Si02
#       6
#     8   8   8   8   8   8
#     4  10  22  41  60  86 122 156 201 250 299 367
#     4  10  22  38  59  86 121 159 206 253 308 368
#     4   9  20  38  61  89 123 162 207 256 312 371
#     4   9  19  38  61  88 121 160 207 257 309 373
#     4  11  24  41  65  92 125 162 205 256 311 373
#     4  11  24  39  62  89 125 165 207 257 313 371
#
# _framework density 20.055007
#
# number of rings (size 3 to 8) (size 9 to 14) (size 15 to 20)
#    0.000    2.000    0.000    3.500    4.667    5.333 
#    3.000    1.667    0.000    0.000    0.000    0.000 
#    0.000    0.000    0.000    0.000    0.000    0.000 
#
# Total GULP energy -133672.359988 kJ/mol
# GULP energy per Si atom -5569.681666 kJ/mol
# Density = 2.000936 g / cm^3
# Si number density = 20.055007 Si / 1000 Ang^3
#
#
#
# Elastic Constant Matrix: (Units=GPa)
#
#
# Indices 1 2 3 4 5 6 
#
# 1 59.4330 19.4390 14.7227 0.0000 -16.3535 0.0000
# 2 19.4390 56.6614 43.3321 0.0000 -2.2203 0.0000
# 3 14.7227 43.3321 140.1160 0.0000 -12.3899 0.0000
# 4 0.0000 0.0000 0.0000 27.6500 0.0000 -7.1431
# 5 -16.3535 -2.2203 -12.3899 0.0000 29.4124 0.0000
# 6 0.0000 0.0000 0.0000 -7.1431 0.0000 28.2439
#
#
#
# Elastic Compliance Matrix: (Units=1/GPa)
#
#
# Indices 1 2 3 4 5 6 
#
# 1 0.022653 -0.008261 0.001281 0.000000 0.012511 0.000000
# 2 -0.008261 0.026177 -0.007748 0.000000 -0.005881 0.000000
# 3 0.001281 -0.007748 0.009774 0.000000 0.004244 0.000000
# 4 0.000000 0.000000 0.000000 0.038695 0.000000 0.009786
# 5 0.012511 -0.005881 0.004244 0.000000 0.042299 0.000000
# 6 0.000000 0.000000 0.000000 0.009786 0.000000 0.037881
#
#
# Mechanical properties :
#
#
# Convention : Reuss Voigt Hill
#
# Bulk Modulus (GPa) = 34.30692 45.68866 39.99779
# Shear Modulus (GPa) = 23.07866 28.97569 26.02717
#
# Velocity S-wave (km/s) = 3.39598 3.80519 3.60639
# Velocity P-wave (km/s) = 5.70267 6.49131 6.10973
#
# Compressibility (1/GPa) = 0.02914864
#
# Stress axis : x y z
#
# Youngs Moduli (GPa) = 44.14460 38.20094 102.31549
#
# Poissons Ratio (x) = 0.31557 -0.13104
# Poissons Ratio (y) = 0.36467 0.79270
# Poissons Ratio (z) = -0.05654 0.29596
#
# Static dielectric constant tensor:
#      x y z
#    x 1.710410 0.000000 -0.015650 
#    y 0.000000 1.761910 0.000000 
#    z -0.015650 0.000000 1.763470 
# 
# From -- ./inp_files/80557.got.cif
#   From: 2010.05.17/outbox.cif.g08.bks.cpg/sg12_41_cif.got.tgz:80557.got - 2010.06.03 13:09:07.
