data_PCOD9213337
_publ_section_title
;
Structure prediction by ZEFSAII (Michael W. Deem and Ramdas Pophale) SiO2 
 PCOD9213337
Probable space group: C 2/M
;
_chemical_formula_sum "Si O2"
_cell_formula_units_Z 52
_cell_length_a 15.416821
_cell_length_b 17.572456
_cell_length_c 9.909058
_cell_angle_alpha 90.000000
_cell_angle_beta 103.324927
_cell_angle_gamma 90.000000
_cell_volume 2612.207243
_symmetry_space_group_name_H-M "C 2/M"
_symmetry_group_IT_number 12
_symmetry_cell_setting 'monoclinic'
loop_
_space_group_symop_operation_xyz
x,y,z
-x,y,-z
-x,-y,-z
x,-y,z
1/2+x,1/2+y,z
1/2-x,1/2+y,-z
1/2-x,1/2-y,-z
1/2+x,1/2-y,z
loop_
_atom_site_type_symbol
_atom_site_label
_atom_site_fract_x
_atom_site_fract_y
_atom_site_fract_z
Si Si1 0.981455 0.500000 0.153143
Si Si2 0.835810 0.087714 0.108114
Si Si3 0.608840 0.223533 0.184402
Si Si4 0.500000 0.349460 0.000000
Si Si5 0.140462 0.365127 0.940044
Si Si6 0.406583 0.000000 0.548285
Si Si7 0.600777 0.166373 0.484383
Si Si8 0.683183 0.261867 0.748032
O O1 0.919917 0.426499 0.156500
O O2 0.064847 0.500000 0.283520
O O3 0.000000 0.500000 0.000000
O O4 0.838887 0.150286 0.229105
O O5 0.835822 0.000000 0.152026
O O6 0.741029 0.104898 0.000166
O O7 0.920233 0.103731 0.041270
O O8 0.545036 0.292943 0.124876
O O9 0.597765 0.193204 0.329823
O O10 0.711057 0.248433 0.203974
O O11 0.599833 0.156550 0.070836
O O12 0.142551 0.288413 0.854049
O O13 0.500000 0.000000 0.500000
O O14 0.360694 0.080204 0.497362
O O15 0.500000 0.162923 0.500000
O O16 0.651242 0.226303 0.596691
#
# Coordination Sequence:
#
# PCOD9213337 Si02
#       8
#     4   8   8   4   8   4   8   8
#     4  12  24  34  62  99 134 162 205 262 322 388
#     4  11  22  40  63  94 127 165 213 274 319 373
#     4  11  23  37  65  91 121 166 221 258 311 386
#     4  12  21  38  64  95 128 164 222 267 314 380
#     4  11  21  40  62  94 130 168 207 262 326 379
#     4  10  22  38  54  90 126 165 201 243 318 389
#     4  11  23  40  61  90 127 169 206 262 316 386
#     4  11  22  43  64  89 125 171 216 261 325 379
#
# _framework density 19.906535999999999
#
# number of rings (size 3 to 8) (size 9 to 14) (size 15 to 20)
#    0.000    0.923    3.846    5.308    3.231    0.000 
#    1.385    0.000    0.000    5.077    0.000    0.000 
#    0.000    0.000    0.000    0.000    0.000    0.000 
#
# Total GULP energy -145395.454812 kJ/mol
# GULP energy per Si atom -5592.132877 kJ/mol
# Density = 1.986123 g / cm^3
# Si number density = 19.906536 Si / 1000 Ang^3
#
#
#
# Elastic Constant Matrix: (Units=GPa)
#
#
# Indices 1 2 3 4 5 6 
#
# 1 75.3262 30.4424 13.4746 0.0000 6.7872 0.0000
# 2 30.4424 169.5858 49.9762 0.0000 6.1423 0.0000
# 3 13.4746 49.9762 99.3795 0.0000 -11.1322 0.0000
# 4 0.0000 0.0000 0.0000 29.6393 0.0000 11.1231
# 5 6.7872 6.1423 -11.1322 0.0000 25.8640 0.0000
# 6 0.0000 0.0000 0.0000 11.1231 0.0000 28.2297
#
#
#
# Elastic Compliance Matrix: (Units=1/GPa)
#
#
# Indices 1 2 3 4 5 6 
#
# 1 0.014726 -0.002090 -0.001390 0.000000 -0.003966 0.000000
# 2 -0.002090 0.007498 -0.003809 0.000000 -0.002872 0.000000
# 3 -0.001390 -0.003809 0.012932 0.000000 0.006835 0.000000
# 4 0.000000 0.000000 0.000000 0.039594 0.000000 -0.015601
# 5 -0.003966 -0.002872 0.006835 0.000000 0.043329 0.000000
# 6 0.000000 0.000000 0.000000 -0.015601 0.000000 0.041571
#
#
# Mechanical properties :
#
#
# Convention : Reuss Voigt Hill
#
# Bulk Modulus (GPa) = 48.59449 59.11978 53.85714
# Shear Modulus (GPa) = 27.61088 33.43982 30.52535
#
# Velocity S-wave (km/s) = 3.72832 4.10303 3.92016
# Velocity P-wave (km/s) = 6.55730 7.22563 6.89956
#
# Compressibility (1/GPa) = 0.02057846
#
# Stress axis : x y z
#
# Youngs Moduli (GPa) = 67.90546 133.36013 77.32698
#
# Poissons Ratio (x) = 0.27876 0.10747
# Poissons Ratio (y) = 0.14194 0.29455
# Poissons Ratio (z) = 0.09438 0.50798
#
# Static dielectric constant tensor:
#      x y z
#    x 1.714290 0.000000 -0.017360 
#    y 0.000000 1.728470 0.000000 
#    z -0.017360 0.000000 1.728760 
# 
# From -- ./inp_files/75351.got.cif
#   From: 2010.05.17/outbox.cif.g08.bks.cpg/sg12_38_cif.got.tgz:75351.got - 2010.06.03 13:09:07.
