data_PCOD9213710
_publ_section_title
;
Structure prediction by ZEFSAII (Michael W. Deem and Ramdas Pophale) SiO2 
 PCOD9213710
Probable space group: C 2/M
;
_chemical_formula_sum "Si O2"
_cell_formula_units_Z 44
_cell_length_a 28.245737
_cell_length_b 17.875506
_cell_length_c 5.291309
_cell_angle_alpha 90.000000
_cell_angle_beta 130.312548
_cell_angle_gamma 90.000000
_cell_volume 2037.180042
_symmetry_space_group_name_H-M "C 2/M"
_symmetry_group_IT_number 12
_symmetry_cell_setting 'monoclinic'
loop_
_space_group_symop_operation_xyz
x,y,z
-x,y,-z
-x,-y,-z
x,-y,z
1/2+x,1/2+y,z
1/2-x,1/2+y,-z
1/2-x,1/2-y,-z
1/2+x,1/2-y,z
loop_
_atom_site_type_symbol
_atom_site_label
_atom_site_fract_x
_atom_site_fract_y
_atom_site_fract_z
Si Si1 0.541770 0.000000 0.900981
Si Si2 0.931409 0.344127 0.143955
Si Si3 0.186186 0.910866 0.502691
Si Si4 0.569779 0.690189 0.175705
Si Si5 0.755858 0.160183 0.785591
Si Si6 0.655311 0.785160 0.775600
O O1 0.500000 0.000000 0.500000
O O2 0.577099 0.078747 0.034655
O O3 0.500000 0.000000 0.000000
O O4 0.878727 0.344926 0.173987
O O5 0.000000 0.347111 0.500000
O O6 0.931748 0.264937 0.000718
O O7 0.118461 0.871048 0.241751
O O8 0.228701 0.884397 0.414148
O O9 0.180344 0.000000 0.484587
O O10 0.215825 0.882310 0.869760
O O11 0.603123 0.723122 0.539023
O O12 0.500000 0.664861 0.000000
O O13 0.686328 0.181417 0.630421
O O14 0.791033 0.240106 0.894942
#
# Coordination Sequence:
#
# PCOD9213710 Si02
#       6
#     4   8   8   8   8   8
#     4  10  24  40  58  84 128 170 200 254 321 369
#     4  11  21  39  63  91 131 169 213 263 319 394
#     4  11  24  44  66  94 135 174 216 274 321 377
#     4  11  22  38  67  98 131 169 219 263 326 392
#     4  10  23  42  65  92 126 168 220 265 325 373
#     4  10  22  38  65  94 123 168 216 271 314 383
#
# _framework density 21.598486000000001
#
# number of rings (size 3 to 8) (size 9 to 14) (size 15 to 20)
#    0.000    1.455    3.636    1.091    5.091    2.545 
#    3.273    0.000    0.000    3.818    0.000    0.000 
#    0.000    0.000    0.000    0.000    0.000    0.000 
#
# Total GULP energy -122888.689392 kJ/mol
# GULP energy per Si atom -5585.849518 kJ/mol
# Density = 2.154933 g / cm^3
# Si number density = 21.598486 Si / 1000 Ang^3
#
#
#
# Elastic Constant Matrix: (Units=GPa)
#
#
# Indices 1 2 3 4 5 6 
#
# 1 164.1714 53.8895 29.8250 0.0000 3.5284 0.0000
# 2 53.8895 147.0612 23.2183 0.0000 1.7068 0.0000
# 3 29.8250 23.2183 64.7076 0.0000 1.1878 0.0000
# 4 0.0000 0.0000 0.0000 25.6444 0.0000 2.3948
# 5 3.5284 1.7068 1.1878 0.0000 36.8737 0.0000
# 6 0.0000 0.0000 0.0000 2.3948 0.0000 32.6771
#
#
#
# Elastic Compliance Matrix: (Units=1/GPa)
#
#
# Indices 1 2 3 4 5 6 
#
# 1 0.007310 -0.002271 -0.002545 0.000000 -0.000512 0.000000
# 2 -0.002271 0.007916 -0.001792 0.000000 -0.000091 0.000000
# 3 -0.002545 -0.001792 0.017274 0.000000 -0.000230 0.000000
# 4 0.000000 0.000000 0.000000 0.039264 0.000000 -0.002877
# 5 -0.000512 -0.000091 -0.000230 0.000000 0.027180 0.000000
# 6 0.000000 0.000000 0.000000 -0.002877 0.000000 0.030813
#
#
# Mechanical properties :
#
#
# Convention : Reuss Voigt Hill
#
# Bulk Modulus (GPa) = 51.85529 65.53398 58.69464
# Shear Modulus (GPa) = 33.46680 36.97289 35.21984
#
# Velocity S-wave (km/s) = 3.94064 4.14191 4.04253
# Velocity P-wave (km/s) = 6.69072 7.29943 7.00169
#
# Compressibility (1/GPa) = 0.01928444
#
# Stress axis : x y z
#
# Youngs Moduli (GPa) = 136.79882 126.32564 57.88900
#
# Poissons Ratio (x) = 0.28688 0.14733
# Poissons Ratio (y) = 0.31066 0.10374
# Poissons Ratio (z) = 0.34816 0.22638
#
# Static dielectric constant tensor:
#      x y z
#    x 1.804740 0.000000 -0.002440 
#    y 0.000000 1.758820 0.000000 
#    z -0.002440 0.000000 1.888340 
# 
# From -- ./inp_files/20393.got.cif
#   From: 2010.05.17/outbox.cif.g08.bks.cpg/sg12_11_cif.got.tgz:20393.got - 2010.06.03 13:09:07.
