data_PCOD9213803
_publ_section_title
;
Structure prediction by ZEFSAII (Michael W. Deem and Ramdas Pophale) SiO2 
 PCOD9213803
Probable space group: C 2/M
;
_chemical_formula_sum "Si O2"
_cell_formula_units_Z 56
_cell_length_a 21.452602
_cell_length_b 13.883151
_cell_length_c 19.463904
_cell_angle_alpha 90.000000
_cell_angle_beta 151.068715
_cell_angle_gamma 90.000000
_cell_volume 2804.324302
_symmetry_space_group_name_H-M "C 2/M"
_symmetry_group_IT_number 12
_symmetry_cell_setting 'monoclinic'
loop_
_space_group_symop_operation_xyz
x,y,z
-x,y,-z
-x,-y,-z
x,-y,z
1/2+x,1/2+y,z
1/2-x,1/2+y,-z
1/2-x,1/2-y,-z
1/2+x,1/2-y,z
loop_
_atom_site_type_symbol
_atom_site_label
_atom_site_fract_x
_atom_site_fract_y
_atom_site_fract_z
Si Si1 0.882372 0.393258 0.440118
Si Si2 0.669101 0.115565 0.226770
Si Si3 0.237913 0.886899 0.055806
Si Si4 0.353467 0.312428 0.166437
Si Si5 0.555314 0.307423 0.474591
Si Si6 0.111762 0.616489 0.014632
Si Si7 0.139624 0.884242 0.114315
O O1 0.860816 0.500000 0.448991
O O2 0.923832 0.304340 0.525804
O O3 0.756428 0.357499 0.277255
O O4 0.000000 0.402624 0.500000
O O5 0.804391 0.145642 0.388889
O O6 0.657735 0.145573 0.135718
O O7 0.664402 0.000000 0.221237
O O8 0.537004 0.147772 0.136169
O O9 0.345843 0.803700 0.151231
O O10 0.177625 0.867311 0.072489
O O11 0.277935 0.000000 0.091989
O O12 0.136729 0.864568 0.897359
O O13 0.454628 0.345660 0.321663
O O14 0.212476 0.342240 0.058400
O O15 0.500000 0.313406 0.500000
O O16 0.116166 0.500000 0.015098
O O17 0.134343 0.000000 0.116332
O O18 0.000000 0.845524 0.000000
#
# Coordination Sequence:
#
# PCOD9213803 Si02
#       7
#     8   8   8   8   8   8   8
#     4   9  18  32  51  78 113 147 180 228 289 341
#     4   9  19  33  52  80 117 150 185 233 283 329
#     4  10  22  39  57  83 117 153 194 241 286 341
#     4  11  22  36  59  85 113 153 198 234 284 342
#     4  11  20  32  51  85 118 148 188 238 287 337
#     4   9  18  35  55  79 110 151 192 230 277 335
#     4   9  18  34  58  84 107 138 186 238 286 335
#
# _framework density 19.969159000000001
#
# number of rings (size 3 to 8) (size 9 to 14) (size 15 to 20)
#    0.000    2.286    1.429    3.000    0.000    4.286 
#    0.000    0.000    0.000    9.429    0.000   18.000 
#    0.000    0.000    0.000    0.000    0.000    0.000 
#
# Total GULP energy -156143.172104 kJ/mol
# GULP energy per Si atom -5576.541861 kJ/mol
# Density = 1.992371 g / cm^3
# Si number density = 19.969159 Si / 1000 Ang^3
#
#
#
# Elastic Constant Matrix: (Units=GPa)
#
#
# Indices 1 2 3 4 5 6 
#
# 1 28.0476 1.5815 27.5233 0.0000 3.3014 0.0000
# 2 1.5815 53.4376 -4.2603 0.0000 5.8222 0.0000
# 3 27.5233 -4.2603 122.6426 0.0001 8.7255 0.0000
# 4 0.0000 0.0000 0.0001 27.0635 0.0001 3.9406
# 5 3.3014 5.8222 8.7255 0.0001 29.5415 0.0001
# 6 0.0000 0.0000 0.0000 3.9406 0.0001 23.9779
#
#
#
# Elastic Compliance Matrix: (Units=1/GPa)
#
#
# Indices 1 2 3 4 5 6 
#
# 1 0.046060 -0.001996 -0.010284 0.000000 -0.001716 0.000000
# 2 -0.001996 0.019320 0.001404 0.000000 -0.003999 0.000000
# 3 -0.010284 0.001404 0.010673 0.000000 -0.002280 0.000000
# 4 0.000000 0.000000 0.000000 0.037856 0.000000 -0.006221
# 5 -0.001716 -0.003999 -0.002280 0.000000 0.035504 0.000000
# 6 0.000000 0.000000 0.000000 -0.006221 0.000000 0.042728
#
#
# Mechanical properties :
#
#
# Convention : Reuss Voigt Hill
#
# Bulk Modulus (GPa) = 18.41624 28.20189 23.30907
# Shear Modulus (GPa) = 21.55239 28.06881 24.81060
#
# Velocity S-wave (km/s) = 3.28881 3.75321 3.52866
# Velocity P-wave (km/s) = 4.86457 5.73895 5.31975
#
# Compressibility (1/GPa) = 0.05429990
#
# Stress axis : x y z
#
# Youngs Moduli (GPa) = 21.71088 51.75954 93.69770
#
# Poissons Ratio (x) = 0.10331 0.96358
# Poissons Ratio (y) = 0.04334 -0.13151
# Poissons Ratio (z) = 0.22327 -0.07265
#
# Static dielectric constant tensor:
#      x y z
#    x 1.689270 0.000000 -0.002160 
#    y 0.000000 1.785670 0.000000 
#    z -0.002160 0.000000 1.733190 
# 
# From -- ./inp_files/284595.got.cif
#   From: 2010.05.17/outbox.cif.g08.bks.cpg/sg12_143_cif.got.tgz:284595.got - 2010.06.03 13:09:07.
