data_PCOD9213385
_publ_section_title
;
Structure prediction by ZEFSAII (Michael W. Deem and Ramdas Pophale) SiO2 
 PCOD9213385
Probable space group: C 2/M
;
_chemical_formula_sum "Si O2"
_cell_formula_units_Z 40
_cell_length_a 23.411425
_cell_length_b 13.761586
_cell_length_c 22.933620
_cell_angle_alpha 90.000000
_cell_angle_beta 17.487684
_cell_angle_gamma 90.000000
_cell_volume 2220.314846
_symmetry_space_group_name_H-M "C 2/M"
_symmetry_group_IT_number 12
_symmetry_cell_setting 'monoclinic'
loop_
_space_group_symop_operation_xyz
x,y,z
-x,y,-z
-x,-y,-z
x,-y,z
1/2+x,1/2+y,z
1/2-x,1/2+y,-z
1/2-x,1/2-y,-z
1/2+x,1/2-y,z
loop_
_atom_site_type_symbol
_atom_site_label
_atom_site_fract_x
_atom_site_fract_y
_atom_site_fract_z
Si Si1 0.721399 0.500000 0.324872
Si Si2 0.382527 0.260332 0.278738
Si Si3 0.797350 0.192372 0.856657
Si Si4 0.085076 0.783077 0.479459
Si Si5 0.355618 0.615189 0.411493
Si Si6 0.158383 0.500000 0.927623
O O1 0.618680 0.400369 0.443214
O O2 0.760711 0.500000 0.217052
O O3 0.931153 0.500000 0.147189
O O4 0.282946 0.258569 0.312240
O O5 0.321931 0.350740 0.378105
O O6 0.296864 0.167476 0.397658
O O7 0.609061 0.251228 0.055239
O O8 0.725621 0.094544 0.895664
O O9 0.930853 0.242451 0.678639
O O10 0.940564 0.160323 0.768209
O O11 0.000000 0.753429 0.500000
O O12 0.354073 0.500000 0.420632
#
# Coordination Sequence:
#
# PCOD9213385 Si02
#       6
#     4   8   8   8   8   4
#     4  11  20  31  44  79 119 144 173 194 256 329
#     4  10  23  37  51  82 107 132 183 217 254 318
#     4  11  20  32  53  77 107 140 171 208 256 317
#     4  11  21  32  50  74 112 143 168 209 258 314
#     4  10  22  38  57  74 104 142 173 222 268 303
#     4  11  19  28  51  77 110 147 168 200 252 321
#
# _framework density 18.015463
#
# number of rings (size 3 to 8) (size 9 to 14) (size 15 to 20)
#    0.000    1.400    5.000    1.500    5.600    0.800 
#    0.000    0.000    0.000    0.600    0.000    1.400 
#    0.000    0.000    0.000    0.000    0.000    0.000 
#
# Total GULP energy -111602.411710 kJ/mol
# GULP energy per Si atom -5580.120586 kJ/mol
# Density = 1.797446 g / cm^3
# Si number density = 18.015463 Si / 1000 Ang^3
#
#
#
# Elastic Constant Matrix: (Units=GPa)
#
#
# Indices 1 2 3 4 5 6 
#
# 1 96.2939 15.9506 13.7787 0.0158 -9.5868 -0.0023
# 2 15.9506 19.4604 11.4974 -0.1230 2.8770 0.0205
# 3 13.7787 11.4974 103.3338 -0.0098 -6.6140 0.0064
# 4 0.0158 -0.1230 -0.0098 0.3081 -0.0101 6.9854
# 5 -9.5868 2.8770 -6.6140 -0.0101 26.3126 0.0042
# 6 -0.0023 0.0205 0.0064 6.9854 0.0042 16.5330
#
#
#
# Elastic Compliance Matrix: (Units=1/GPa)
#
#
# Indices 1 2 3 4 5 6 
#
# 1 0.012868 -0.011375 -0.000072 0.000622 0.005914 -0.000248
# 2 -0.011375 0.066606 -0.006734 -0.003299 -0.013121 0.001316
# 3 -0.000072 -0.006734 0.010653 0.000269 0.003388 -0.000110
# 4 0.000622 -0.003299 0.000269 -0.378145 0.000484 0.159775
# 5 0.005914 -0.013121 0.003388 0.000484 0.042446 -0.000199
# 6 -0.000248 0.001316 -0.000110 0.159775 -0.000199 -0.007023
#
#
# Mechanical properties :
#
#
# Convention : Reuss Voigt Hill
#
# Bulk Modulus (GPa) = 18.59933 33.50461 26.05197
# Shear Modulus (GPa) = -25.21297 20.48817 -2.36240
#
# Velocity S-wave (km/s) = -3.74507 3.37598 -1.14637
# Velocity P-wave (km/s) = 2.89037 5.81673 3.56932
#
# Compressibility (1/GPa) = 0.05376537
#
# Stress axis : x y z
#
# Youngs Moduli (GPa) = 77.71178 15.01358 93.86929
#
# Poissons Ratio (x) = 0.17078 0.00672
# Poissons Ratio (y) = 0.88398 0.63215
# Poissons Ratio (z) = 0.00556 0.10111
#
# Static dielectric constant tensor:
#      x y z
#    x 1.658660 -0.000010 -0.014170 
#    y -0.000010 1.569150 0.000020 
#    z -0.014170 0.000020 1.661660 
# 
# From -- ./inp_files/322074.got.cif
#   From: 2010.05.17/outbox.cif.g08.bks.cpg/sg12_162_cif.got.tgz:322074.got - 2010.06.03 13:09:07.
