data_PCOD9213262
_publ_section_title
;
Structure prediction by ZEFSAII (Michael W. Deem and Ramdas Pophale) SiO2 
 PCOD9213262
Probable space group: C 2/M
;
_chemical_formula_sum "Si O2"
_cell_formula_units_Z 50
_cell_length_a 27.915402
_cell_length_b 8.099521
_cell_length_c 12.783734
_cell_angle_alpha 90.000000
_cell_angle_beta 120.697120
_cell_angle_gamma 90.000000
_cell_volume 2485.408341
_symmetry_space_group_name_H-M "C 2/M"
_symmetry_group_IT_number 12
_symmetry_cell_setting 'monoclinic'
loop_
_space_group_symop_operation_xyz
x,y,z
-x,y,-z
-x,-y,-z
x,-y,z
1/2+x,1/2+y,z
1/2-x,1/2+y,-z
1/2-x,1/2-y,-z
1/2+x,1/2-y,z
loop_
_atom_site_type_symbol
_atom_site_label
_atom_site_fract_x
_atom_site_fract_y
_atom_site_fract_z
Si Si1 0.500000 0.500000 0.000000
Si Si2 0.517299 0.809978 0.161920
Si Si3 0.823018 0.199700 0.759333
Si Si4 0.194757 0.189118 0.879276
Si Si5 0.303077 0.192205 0.347694
Si Si6 0.884588 0.805346 0.614705
Si Si7 0.385199 0.809526 0.037887
O O1 0.469752 0.651252 0.897546
O O2 0.556807 0.786888 0.306014
O O3 0.451660 0.789473 0.110919
O O4 0.526308 0.000000 0.132662
O O5 0.759290 0.258568 0.699982
O O6 0.848370 0.248103 0.675942
O O7 0.823089 0.000000 0.766247
O O8 0.859303 0.263671 0.896882
O O9 0.185554 0.287476 0.762468
O O10 0.144644 0.205831 0.905472
O O11 0.202837 0.000000 0.858149
O O12 0.250000 0.250000 0.000000
O O13 0.349676 0.271832 0.472030
O O14 0.302112 0.000000 0.373986
O O15 0.894086 0.000000 0.631544
O O16 0.372125 0.000000 0.044759
#
# Coordination Sequence:
#
# PCOD9213262 Si02
#       7
#     2   8   8   8   8   8   8
#     4  12  22  40  68  94 134 172 226 268 324 384
#     4  11  25  42  63  97 135 176 220 274 329 389
#     4  10  22  37  61  93 129 172 211 261 321 386
#     4  12  24  41  66  94 127 165 216 275 331 388
#     4  11  23  41  63  92 130 172 218 267 325 391
#     4  11  23  41  64  93 133 178 220 262 323 398
#     4  11  24  40  65  95 130 167 216 270 329 384
#
# _framework density 20.117419000000002
#
# number of rings (size 3 to 8) (size 9 to 14) (size 15 to 20)
#    0.000    0.960    2.400    4.560    4.480    3.200 
#    0.000    0.800    0.000    4.800    0.000    0.000 
#    0.000    0.000    0.000    0.000    0.000    0.000 
#
# Total GULP energy -139477.976977 kJ/mol
# GULP energy per Si atom -5579.119079 kJ/mol
# Density = 2.007163 g / cm^3
# Si number density = 20.117419 Si / 1000 Ang^3
#
#
#
# Elastic Constant Matrix: (Units=GPa)
#
#
# Indices 1 2 3 4 5 6 
#
# 1 42.5616 24.0859 46.2521 0.0000 11.9743 0.0000
# 2 24.0859 86.6225 17.9871 0.0000 14.6803 0.0000
# 3 46.2521 17.9871 164.7265 0.0000 24.0870 0.0000
# 4 0.0000 0.0000 0.0000 38.7138 0.0000 2.2646
# 5 11.9743 14.6803 24.0870 0.0000 32.7369 0.0000
# 6 0.0000 0.0000 0.0000 2.2646 0.0000 17.5495
#
#
#
# Elastic Compliance Matrix: (Units=1/GPa)
#
#
# Indices 1 2 3 4 5 6 
#
# 1 0.039893 -0.008453 -0.009747 0.000000 -0.003629 0.000000
# 2 -0.008453 0.014340 0.001452 0.000000 -0.004407 0.000000
# 3 -0.009747 0.001452 0.009214 0.000000 -0.003865 0.000000
# 4 0.000000 0.000000 0.000000 0.026027 0.000000 -0.003359
# 5 -0.003629 -0.004407 -0.003865 0.000000 0.036694 0.000000
# 6 0.000000 0.000000 0.000000 -0.003359 0.000000 0.057415
#
#
# Mechanical properties :
#
#
# Convention : Reuss Voigt Hill
#
# Bulk Modulus (GPa) = 33.38918 52.28454 42.83686
# Shear Modulus (GPa) = 22.02022 31.50575 26.76298
#
# Velocity S-wave (km/s) = 3.31204 3.96168 3.65134
# Velocity P-wave (km/s) = 5.59100 6.85366 6.25428
#
# Compressibility (1/GPa) = 0.02994982
#
# Stress axis : x y z
#
# Youngs Moduli (GPa) = 25.06725 69.73402 108.52802
#
# Poissons Ratio (x) = 0.58948 1.05787
# Poissons Ratio (y) = 0.21190 -0.15759
# Poissons Ratio (z) = 0.24434 -0.10126
#
# Static dielectric constant tensor:
#      x y z
#    x 1.728220 0.000000 0.035470 
#    y 0.000000 1.710920 0.000000 
#    z 0.035470 0.000000 1.647340 
# 
# From -- ./inp_files/181243.got.cif
#   From: 2010.05.17/outbox.cif.g08.bks.cpg/sg12_91_cif.got.tgz:181243.got - 2010.06.03 13:09:07.
