data_PCOD9213831
_publ_section_title
;
Structure prediction by ZEFSAII (Michael W. Deem and Ramdas Pophale) SiO2 
 PCOD9213831
Probable space group: C 2/M
;
_chemical_formula_sum "Si O2"
_cell_formula_units_Z 48
_cell_length_a 16.884657
_cell_length_b 30.577260
_cell_length_c 7.996286
_cell_angle_alpha 90.000000
_cell_angle_beta 33.148614
_cell_angle_gamma 90.000000
_cell_volume 2257.447189
_symmetry_space_group_name_H-M "C 2/M"
_symmetry_group_IT_number 12
_symmetry_cell_setting 'monoclinic'
loop_
_space_group_symop_operation_xyz
x,y,z
-x,y,-z
-x,-y,-z
x,-y,z
1/2+x,1/2+y,z
1/2-x,1/2+y,-z
1/2-x,1/2-y,-z
1/2+x,1/2-y,z
loop_
_atom_site_type_symbol
_atom_site_label
_atom_site_fract_x
_atom_site_fract_y
_atom_site_fract_z
Si Si1 0.901880 0.115651 0.839562
Si Si2 0.863474 0.448725 0.614716
Si Si3 0.348399 0.267639 0.675972
Si Si4 0.316267 0.644483 0.518000
Si Si5 0.695482 0.824177 0.372355
Si Si6 0.530673 0.884492 0.128476
O O1 0.000000 0.112362 0.500000
O O2 0.028573 0.121229 0.752605
O O3 0.782634 0.077422 0.077915
O O4 0.803283 0.159125 0.036298
O O5 0.834623 0.500000 0.653451
O O6 0.000000 0.442016 0.500000
O O7 0.934619 0.427662 0.323055
O O8 0.500000 0.272674 0.500000
O O9 0.316435 0.311309 0.628519
O O10 0.338502 0.226678 0.565674
O O11 0.250000 0.250000 0.000000
O O12 0.268541 0.658187 0.415166
O O13 0.202302 0.613029 0.818594
O O14 0.543558 0.849823 0.617919
O O15 0.500000 0.865576 0.000000
#
# Coordination Sequence:
#
# PCOD9213831 Si02
#       6
#     8   8   8   8   8   8
#     4  11  22  37  60  87 117 153 196 247 297 348
#     4  10  22  40  62  88 118 152 189 234 293 363
#     4  12  24  36  54  84 121 159 205 248 289 341
#     4  11  21  38  60  86 119 157 199 249 301 344
#     4  10  22  39  58  82 118 162 204 243 293 350
#     4   9  20  38  62  85 111 151 197 239 288 353
#
# _framework density 21.262957
#
# number of rings (size 3 to 8) (size 9 to 14) (size 15 to 20)
#    0.000    1.500    0.000    5.500    0.000    4.667 
#    0.000    5.833    0.000   13.000    0.000    0.000 
#    0.000    0.000    0.000    0.000    0.000    0.000 
#
# Total GULP energy -133757.735308 kJ/mol
# GULP energy per Si atom -5573.238971 kJ/mol
# Density = 2.121456 g / cm^3
# Si number density = 21.262957 Si / 1000 Ang^3
#
#
#
# Elastic Constant Matrix: (Units=GPa)
#
#
# Indices 1 2 3 4 5 6 
#
# 1 61.3074 26.6799 26.5052 0.0000 7.2638 0.0000
# 2 26.6799 126.6468 58.8637 0.0000 -7.3606 0.0000
# 3 26.5052 58.8637 161.0257 0.0000 -3.6276 0.0000
# 4 0.0000 0.0000 0.0000 24.2738 0.0000 -5.5760
# 5 7.2638 -7.3606 -3.6276 0.0000 27.6052 0.0000
# 6 0.0000 0.0000 0.0000 -5.5760 0.0000 27.4712
#
#
#
# Elastic Compliance Matrix: (Units=1/GPa)
#
#
# Indices 1 2 3 4 5 6 
#
# 1 0.019483 -0.003513 -0.002066 0.000000 -0.006335 0.000000
# 2 -0.003513 0.010267 -0.003102 0.000000 0.003254 0.000000
# 3 -0.002066 -0.003102 0.007700 0.000000 0.000728 0.000000
# 4 0.000000 0.000000 0.000000 0.043211 0.000000 0.008771
# 5 -0.006335 0.003254 0.000728 0.000000 0.038855 0.000000
# 6 0.000000 0.000000 0.000000 0.008771 0.000000 0.038182
#
#
# Mechanical properties :
#
#
# Convention : Reuss Voigt Hill
#
# Bulk Modulus (GPa) = 49.77365 63.67527 56.72446
# Shear Modulus (GPa) = 27.50947 31.66547 29.58747
#
# Velocity S-wave (km/s) = 3.60081 3.86324 3.73433
# Velocity P-wave (km/s) = 6.38335 7.06478 6.73269
#
# Compressibility (1/GPa) = 0.02009095
#
# Stress axis : x y z
#
# Youngs Moduli (GPa) = 51.32561 97.40317 129.86333
#
# Poissons Ratio (x) = 0.34213 0.26826
# Poissons Ratio (y) = 0.18028 0.40278
# Poissons Ratio (z) = 0.10602 0.30210
#
# Static dielectric constant tensor:
#      x y z
#    x 1.876320 0.000000 0.032410 
#    y 0.000000 1.755660 0.000000 
#    z 0.032410 0.000000 1.795400 
# 
# From -- ./inp_files/80612.got.cif
#   From: 2010.05.17/outbox.cif.g08.bks.cpg/sg12_41_cif.got.tgz:80612.got - 2010.06.03 13:09:07.
