data_PCOD9213361
_publ_section_title
;
Structure prediction by ZEFSAII (Michael W. Deem and Ramdas Pophale) SiO2 
 PCOD9213361
Probable space group: C 2/M
;
_chemical_formula_sum "Si O2"
_cell_formula_units_Z 48
_cell_length_a 28.602999
_cell_length_b 7.816860
_cell_length_c 10.031932
_cell_angle_alpha 90.000000
_cell_angle_beta 74.709144
_cell_angle_gamma 90.000000
_cell_volume 2163.592788
_symmetry_space_group_name_H-M "C 2/M"
_symmetry_group_IT_number 12
_symmetry_cell_setting 'monoclinic'
loop_
_space_group_symop_operation_xyz
x,y,z
-x,y,-z
-x,-y,-z
x,-y,z
1/2+x,1/2+y,z
1/2-x,1/2+y,-z
1/2-x,1/2-y,-z
1/2+x,1/2-y,z
loop_
_atom_site_type_symbol
_atom_site_label
_atom_site_fract_x
_atom_site_fract_y
_atom_site_fract_z
Si Si1 0.934579 0.706882 0.932328
Si Si2 0.305355 0.300639 0.276383
Si Si3 0.828077 0.798269 0.964961
Si Si4 0.958976 0.708963 0.215458
Si Si5 0.704722 0.699219 0.288151
Si Si6 0.125811 0.303697 0.542412
O O1 0.932844 0.500000 0.931609
O O2 0.885600 0.775219 0.906120
O O3 0.984813 0.760261 0.825085
O O4 0.938335 0.759933 0.085436
O O5 0.319985 0.500000 0.271948
O O6 0.247643 0.288831 0.336406
O O7 0.336860 0.204557 0.361519
O O8 0.314924 0.229275 0.120493
O O9 0.800772 0.726486 0.856666
O O10 0.817090 0.000000 0.976823
O O11 0.957648 0.500000 0.218027
O O12 0.924202 0.768547 0.360060
O O13 0.717546 0.500000 0.271967
O O14 0.653662 0.714156 0.401614
O O15 0.117853 0.500000 0.508694
#
# Coordination Sequence:
#
# PCOD9213361 Si02
#       6
#     8   8   8   8   8   8
#     4   9  16  32  58  84 109 140 180 226 271 319
#     4  11  22  38  59  83 108 141 187 232 273 324
#     4  10  22  38  56  82 114 144 181 227 276 325
#     4   8  16  31  55  85 111 138 178 226 270 317
#     4  11  24  40  55  77 113 151 184 225 273 325
#     4  11  21  37  59  84 112 145 183 225 273 325
#
# _framework density 22.185321999999999
#
# number of rings (size 3 to 8) (size 9 to 14) (size 15 to 20)
#    0.000    2.000    1.667    3.500    0.000    2.000 
#    0.000    4.167    0.000    5.000    0.000    0.000 
#    0.000    0.000    0.000    0.000    0.000    0.000 
#
# Total GULP energy -134093.920367 kJ/mol
# GULP energy per Si atom -5587.246682 kJ/mol
# Density = 2.213483 g / cm^3
# Si number density = 22.185322 Si / 1000 Ang^3
#
#
#
# Elastic Constant Matrix: (Units=GPa)
#
#
# Indices 1 2 3 4 5 6 
#
# 1 50.0552 -9.4095 6.3208 0.0000 -16.5334 0.0000
# 2 -9.4095 39.7581 0.6522 0.0000 0.4235 0.0000
# 3 6.3208 0.6522 75.5573 0.0000 -14.9286 0.0000
# 4 0.0000 0.0000 0.0000 12.0138 0.0000 -5.7541
# 5 -16.5334 0.4235 -14.9286 0.0000 34.9191 0.0000
# 6 0.0000 0.0000 0.0000 -5.7541 0.0000 21.0645
#
#
#
# Elastic Compliance Matrix: (Units=1/GPa)
#
#
# Indices 1 2 3 4 5 6 
#
# 1 0.024944 0.005774 0.000200 0.000000 0.011826 0.000000
# 2 0.005774 0.026498 -0.000257 0.000000 0.002303 0.000000
# 3 0.000200 -0.000257 0.014461 0.000000 0.006280 0.000000
# 4 0.000000 0.000000 0.000000 0.095767 0.000000 0.026160
# 5 0.011826 0.002303 0.006280 0.000000 0.036894 0.000000
# 6 0.000000 0.000000 0.000000 0.026160 0.000000 0.054619
#
#
# Mechanical properties :
#
#
# Convention : Reuss Voigt Hill
#
# Bulk Modulus (GPa) = 12.93007 17.83308 15.38158
# Shear Modulus (GPa) = 18.68954 24.78661 21.73807
#
# Velocity S-wave (km/s) = 2.90561 3.34616 3.13364
# Velocity P-wave (km/s) = 4.13493 4.79424 4.47674
#
# Compressibility (1/GPa) = 0.07733909
#
# Stress axis : x y z
#
# Youngs Moduli (GPa) = 40.08918 37.73817 69.14990
#
# Poissons Ratio (x) = -0.21791 -0.01383
# Poissons Ratio (y) = -0.23149 0.01776
# Poissons Ratio (z) = -0.00802 0.00969
#
# Static dielectric constant tensor:
#      x y z
#    x 1.796180 0.000000 -0.031370 
#    y 0.000000 1.806280 0.000000 
#    z -0.031370 0.000000 1.851070 
# 
# From -- ./inp_files/185738.got.cif
#   From: 2010.05.17/outbox.cif.g08.bks.cpg/sg12_93_cif.got.tgz:185738.got - 2010.06.03 13:09:07.
