data_PCOD9213671
_publ_section_title
;
Structure prediction by ZEFSAII (Michael W. Deem and Ramdas Pophale) SiO2 
 PCOD9213671
Probable space group: C 2/M
;
_chemical_formula_sum "Si O2"
_cell_formula_units_Z 58
_cell_length_a 22.452658
_cell_length_b 21.063149
_cell_length_c 8.729573
_cell_angle_alpha 90.000000
_cell_angle_beta 44.455336
_cell_angle_gamma 90.000000
_cell_volume 2891.352790
_symmetry_space_group_name_H-M "C 2/M"
_symmetry_group_IT_number 12
_symmetry_cell_setting 'monoclinic'
loop_
_space_group_symop_operation_xyz
x,y,z
-x,y,-z
-x,-y,-z
x,-y,z
1/2+x,1/2+y,z
1/2-x,1/2+y,-z
1/2-x,1/2-y,-z
1/2+x,1/2-y,z
loop_
_atom_site_type_symbol
_atom_site_label
_atom_site_fract_x
_atom_site_fract_y
_atom_site_fract_z
Si Si1 0.299120 0.367773 0.891739
Si Si2 0.457144 0.569429 0.744913
Si Si3 0.595435 0.923407 0.773059
Si Si4 0.380488 0.116036 0.619966
Si Si5 0.585068 0.738653 0.429562
Si Si6 0.070295 0.842157 0.746015
Si Si7 0.775767 0.923762 0.593992
Si Si8 0.000000 0.500000 0.500000
O O1 0.368919 0.397266 0.875349
O O2 0.333910 0.296995 0.792894
O O3 0.293559 0.404037 0.738011
O O4 0.211436 0.376784 0.137498
O O5 0.500000 0.564639 0.500000
O O6 0.443073 0.500000 0.836300
O O7 0.520252 0.606945 0.735656
O O8 0.616608 0.897160 0.566768
O O9 0.676790 0.909915 0.732800
O O10 0.590272 0.000000 0.770767
O O11 0.500000 0.902310 0.000000
O O12 0.417203 0.186222 0.578116
O O13 0.428400 0.056711 0.608183
O O14 0.500000 0.713641 0.500000
O O15 0.587003 0.716663 0.602566
O O16 0.158431 0.879093 0.623336
O O17 0.000000 0.823842 0.000000
O O18 0.790052 0.000000 0.547327
#
# Coordination Sequence:
#
# PCOD9213671 Si02
#       8
#     8   8   8   8   8   8   8   2
#     4  11  23  41  67 100 130 172 222 270 324 400
#     4  11  20  36  64  97 136 172 213 263 327 390
#     4  10  24  43  62  88 132 173 215 274 338 395
#     4  12  27  43  70  99 128 164 228 284 338 392
#     4  11  22  46  67  94 131 177 218 273 332 393
#     4  11  23  40  63  95 137 176 219 261 320 397
#     4  10  22  38  63  95 133 176 213 264 334 391
#     4  12  28  44  70 108 126 162 234 294 340 386
#
# _framework density 20.059815
#
# number of rings (size 3 to 8) (size 9 to 14) (size 15 to 20)
#    0.000    1.103    5.517    1.241    5.793    1.655 
#    0.000    2.759    0.000    0.000    0.000    0.000 
#    0.000    0.000    0.000    0.000    0.000    0.000 
#
# Total GULP energy -161511.909071 kJ/mol
# GULP energy per Si atom -5569.376175 kJ/mol
# Density = 2.001416 g / cm^3
# Si number density = 20.059815 Si / 1000 Ang^3
#
#
#
# Elastic Constant Matrix: (Units=GPa)
#
#
# Indices 1 2 3 4 5 6 
#
# 1 282.0875 145.1234 -127.5389 0.0000 300.6990 0.0000
# 2 145.1234 196.2108 -51.4168 0.0000 154.8568 0.0000
# 3 -127.5389 -51.4168 282.1880 0.0000 -311.1283 0.0000
# 4 0.0000 0.0000 0.0000 15.8709 0.0000 -13.1582
# 5 300.6990 154.8568 -311.1283 0.0000 583.8097 0.0000
# 6 0.0000 0.0000 0.0000 -13.1582 0.0000 38.1166
#
#
#
# Elastic Compliance Matrix: (Units=1/GPa)
#
#
# Indices 1 2 3 4 5 6 
#
# 1 0.010397 -0.004009 -0.001851 0.000000 -0.005278 0.000000
# 2 -0.004009 0.008357 -0.001107 0.000000 -0.000742 0.000000
# 3 -0.001851 -0.001107 0.009409 0.000000 0.006261 0.000000
# 4 0.000000 0.000000 0.000000 0.088272 0.000000 0.030472
# 5 -0.005278 -0.000742 0.006261 0.000000 0.007965 0.000000
# 6 0.000000 0.000000 0.000000 0.030472 0.000000 0.036755
#
#
# Mechanical properties :
#
#
# Convention : Reuss Voigt Hill
#
# Bulk Modulus (GPa) = 70.27992 76.98018 73.63005
# Shear Modulus (GPa) = 27.80369 180.51402 104.15885
#
# Velocity S-wave (km/s) = 3.72699 9.49649 7.21366
# Velocity P-wave (km/s) = 7.32338 12.59774 10.30376
#
# Compressibility (1/GPa) = 0.01422882
#
# Stress axis : x y z
#
# Youngs Moduli (GPa) = 96.18012 119.65550 106.28419
#
# Poissons Ratio (x) = 0.47976 0.19669
# Poissons Ratio (y) = 0.38563 0.11767
# Poissons Ratio (z) = 0.17799 0.13247
#
# Static dielectric constant tensor:
#      x y z
#    x 1.730440 0.000000 -0.018870 
#    y 0.000000 1.700960 0.000000 
#    z -0.018870 0.000000 1.780800 
# 
# From -- ./inp_files/99243.got.cif
#   From: 2010.05.17/outbox.cif.g08.bks.cpg/sg12_50_cif.got.tgz:99243.got - 2010.06.03 13:09:07.
