data_PCOD9213485
_publ_section_title
;
Structure prediction by ZEFSAII (Michael W. Deem and Ramdas Pophale) SiO2 
 PCOD9213485
Probable space group: C 2/M
;
_chemical_formula_sum "Si O2"
_cell_formula_units_Z 56
_cell_length_a 14.216276
_cell_length_b 18.081624
_cell_length_c 21.620955
_cell_angle_alpha 90.000000
_cell_angle_beta 32.441054
_cell_angle_gamma 90.000000
_cell_volume 2981.347093
_symmetry_space_group_name_H-M "C 2/M"
_symmetry_group_IT_number 12
_symmetry_cell_setting 'monoclinic'
loop_
_space_group_symop_operation_xyz
x,y,z
-x,y,-z
-x,-y,-z
x,-y,z
1/2+x,1/2+y,z
1/2-x,1/2+y,-z
1/2-x,1/2-y,-z
1/2+x,1/2-y,z
loop_
_atom_site_type_symbol
_atom_site_label
_atom_site_fract_x
_atom_site_fract_y
_atom_site_fract_z
Si Si1 0.649909 0.358792 0.864783
Si Si2 0.335737 0.169158 0.951539
Si Si3 0.853162 0.089645 0.531328
Si Si4 0.988037 0.911101 0.688421
Si Si5 0.990006 0.088023 0.824843
Si Si6 0.949800 0.586272 0.770988
Si Si7 0.857804 0.685026 0.131572
O O1 0.579498 0.375666 0.835130
O O2 0.829065 0.403082 0.777810
O O3 0.688208 0.271412 0.849138
O O4 0.500000 0.377406 0.000000
O O5 0.347318 0.134994 0.877692
O O6 0.532271 0.173406 0.867262
O O7 0.250000 0.250000 0.000000
O O8 0.210093 0.116882 0.061547
O O9 0.651526 0.111440 0.655075
O O10 0.000000 0.115480 0.500000
O O11 0.901558 0.109060 0.433783
O O12 0.855404 0.000000 0.533534
O O13 0.806870 0.867641 0.781662
O O14 0.061235 0.893451 0.716581
O O15 0.960072 0.000000 0.702625
O O16 0.995946 0.000000 0.829345
O O17 0.948831 0.500000 0.789595
O O18 0.000000 0.668553 0.000000
#
# Coordination Sequence:
#
# PCOD9213485 Si02
#       7
#     8   8   8   8   8   8   8
#     4  11  22  37  58  85 124 163 197 246 301 352
#     4  12  21  36  57  86 123 158 189 241 305 359
#     4   9  19  40  63  86 117 155 201 257 304 347
#     4  10  22  38  59  86 120 156 195 251 309 358
#     4  11  22  36  57  85 121 157 195 243 300 360
#     4  11  23  38  64  91 114 154 213 253 290 356
#     4  11  21  35  57  84 120 160 196 241 307 369
#
# _framework density 18.783456000000001
#
# number of rings (size 3 to 8) (size 9 to 14) (size 15 to 20)
#    0.000    1.286    4.286    2.571    0.000    3.143 
#    0.000    1.429    0.000    5.143    0.000    0.000 
#    0.000    0.000    0.000    0.000    0.000    0.000 
#
# Total GULP energy -156194.391282 kJ/mol
# GULP energy per Si atom -5578.371117 kJ/mol
# Density = 1.874070 g / cm^3
# Si number density = 18.783456 Si / 1000 Ang^3
#
#
#
# Elastic Constant Matrix: (Units=GPa)
#
#
# Indices 1 2 3 4 5 6 
#
# 1 122.7706 24.5035 48.4411 0.0012 4.6014 0.0008
# 2 24.5035 35.6361 32.9376 0.0059 2.3666 0.0002
# 3 48.4411 32.9376 101.1774 0.0111 9.1662 -0.0013
# 4 0.0012 0.0059 0.0111 6.3652 -0.0039 -6.8363
# 5 4.6014 2.3666 9.1662 -0.0039 32.2137 -0.0003
# 6 0.0008 0.0002 -0.0013 -6.8363 -0.0003 25.4511
#
#
#
# Elastic Compliance Matrix: (Units=1/GPa)
#
#
# Indices 1 2 3 4 5 6 
#
# 1 0.010362 -0.003636 -0.003764 0.000010 -0.000142 0.000002
# 2 -0.003636 0.041434 -0.011824 -0.000025 0.000840 -0.000007
# 3 -0.003764 -0.011824 0.015815 -0.000023 -0.003094 -0.000005
# 4 0.000010 -0.000025 -0.000023 0.220801 0.000034 0.059308
# 5 -0.000142 0.000840 -0.003094 0.000034 0.031882 0.000009
# 6 0.000002 -0.000007 -0.000005 0.059308 0.000009 0.055222
#
#
# Mechanical properties :
#
#
# Convention : Reuss Voigt Hill
#
# Bulk Modulus (GPa) = 34.29023 52.37205 43.33114
# Shear Modulus (GPa) = 11.80122 23.05280 17.42701
#
# Velocity S-wave (km/s) = 2.50927 3.50707 3.04926
# Velocity P-wave (km/s) = 5.16628 6.65898 5.95955
#
# Compressibility (1/GPa) = 0.02916282
#
# Stress axis : x y z
#
# Youngs Moduli (GPa) = 96.51062 24.13458 63.22951
#
# Poissons Ratio (x) = 0.08775 0.23802
# Poissons Ratio (y) = 0.35090 0.74762
# Poissons Ratio (z) = 0.36330 0.28537
#
# Static dielectric constant tensor:
#      x y z
#    x 1.774560 0.000000 0.046830 
#    y 0.000000 1.640830 0.000000 
#    z 0.046830 0.000000 1.646780 
# 
# From -- ./inp_files/311679.got.cif
#   From: 2010.05.17/outbox.cif.g08.bks.cpg/sg12_156_cif.got.tgz:311679.got - 2010.06.03 13:09:07.
