data_PCOD9213051
_publ_section_title
;
Structure prediction by ZEFSAII (Michael W. Deem and Ramdas Pophale) SiO2 
 PCOD9213051
Probable space group: C 2/M
;
_chemical_formula_sum "Si O2"
_cell_formula_units_Z 48
_cell_length_a 18.126851
_cell_length_b 17.562650
_cell_length_c 14.153948
_cell_angle_alpha 90.000000
_cell_angle_beta 31.983963
_cell_angle_gamma 90.000000
_cell_volume 2386.740048
_symmetry_space_group_name_H-M "C 2/M"
_symmetry_group_IT_number 12
_symmetry_cell_setting 'monoclinic'
loop_
_space_group_symop_operation_xyz
x,y,z
-x,y,-z
-x,-y,-z
x,-y,z
1/2+x,1/2+y,z
1/2-x,1/2+y,-z
1/2-x,1/2-y,-z
1/2+x,1/2-y,z
loop_
_atom_site_type_symbol
_atom_site_label
_atom_site_fract_x
_atom_site_fract_y
_atom_site_fract_z
Si Si1 0.576563 0.665420 0.819373
Si Si2 0.075513 0.500000 0.518193
Si Si3 0.979596 0.090811 0.408254
Si Si4 0.822693 0.234847 0.521830
Si Si5 0.385260 0.500000 0.205814
Si Si6 0.667723 0.675995 0.054278
Si Si7 0.954884 0.650710 0.658721
O O1 0.708098 0.717440 0.704329
O O2 0.609359 0.580125 0.745387
O O3 0.464536 0.696940 0.867047
O O4 0.500000 0.653736 0.000000
O O5 0.235890 0.500000 0.320567
O O6 0.000000 0.500000 0.500000
O O7 0.030407 0.576399 0.618625
O O8 0.108889 0.122188 0.202873
O O9 0.000000 0.101504 0.500000
O O10 0.852613 0.147529 0.516106
O O11 0.959723 0.000000 0.413651
O O12 0.750000 0.250000 0.500000
O O13 0.969865 0.276942 0.376567
O O14 0.500000 0.500000 0.000000
O O15 0.750000 0.750000 0.000000
O O16 0.790849 0.639942 0.855246
O O17 0.000000 0.656669 0.500000
#
# Coordination Sequence:
#
# PCOD9213051 Si02
#       7
#     8   4   8   8   4   8   8
#     4  11  24  38  67 100 140 177 212 283 368 432
#     4  10  22  36  58  94 136 175 209 252 345 435
#     4  11  27  49  72  96 137 195 249 292 335 405
#     4  12  22  43  67  98 131 172 233 290 354 405
#     4  10  22  38  58 100 142 173 214 250 349 447
#     4  12  25  42  68 103 131 174 236 285 344 418
#     4  11  23  40  65  97 139 178 212 276 353 435
#
# _framework density 20.111114000000001
#
# number of rings (size 3 to 8) (size 9 to 14) (size 15 to 20)
#    0.000    0.833    5.000    1.500   11.667    0.000 
#    1.500    0.000    0.000    0.500    0.000    0.000 
#    0.000    0.000    0.000    0.000    0.000    0.000 
#
# Total GULP energy -133660.751411 kJ/mol
# GULP energy per Si atom -5569.197975 kJ/mol
# Density = 2.006534 g / cm^3
# Si number density = 20.111114 Si / 1000 Ang^3
#
#
#
# Elastic Constant Matrix: (Units=GPa)
#
#
# Indices 1 2 3 4 5 6 
#
# 1 95.4414 49.6020 33.4775 -0.0002 -5.8744 0.0000
# 2 49.6020 164.5638 44.0184 -0.0001 -7.9147 0.0000
# 3 33.4775 44.0184 144.1172 -0.0003 -13.3248 0.0001
# 4 -0.0002 -0.0001 -0.0003 26.6730 0.0002 -2.5287
# 5 -5.8744 -7.9147 -13.3248 0.0002 43.6433 -0.0001
# 6 0.0000 0.0000 0.0001 -2.5287 -0.0001 26.6901
#
#
#
# Elastic Compliance Matrix: (Units=1/GPa)
#
#
# Indices 1 2 3 4 5 6 
#
# 1 0.012932 -0.003356 -0.001929 0.000000 0.000543 0.000000
# 2 -0.003356 0.007503 -0.001470 0.000000 0.000460 0.000000
# 3 -0.001929 -0.001470 0.008013 0.000000 0.001920 0.000000
# 4 0.000000 0.000000 0.000000 0.037831 0.000000 0.003584
# 5 0.000543 0.000460 0.001920 0.000000 0.023656 0.000000
# 6 0.000000 0.000000 0.000000 0.003584 0.000000 0.037807
#
#
# Mechanical properties :
#
#
# Convention : Reuss Voigt Hill
#
# Bulk Modulus (GPa) = 66.93492 73.14646 70.04069
# Shear Modulus (GPa) = 34.19264 37.86957 36.03111
#
# Velocity S-wave (km/s) = 4.12780 4.34408 4.23732
# Velocity P-wave (km/s) = 7.48820 7.84930 7.67088
#
# Compressibility (1/GPa) = 0.01493988
#
# Stress axis : x y z
#
# Youngs Moduli (GPa) = 77.32980 133.27268 124.79257
#
# Poissons Ratio (x) = 0.44723 0.24069
# Poissons Ratio (y) = 0.25950 0.18341
# Poissons Ratio (z) = 0.14915 0.19587
#
# Static dielectric constant tensor:
#      x y z
#    x 1.754790 0.000000 0.096760 
#    y 0.000000 2.001700 0.000000 
#    z 0.096760 0.000000 1.851730 
# 
# From -- ./inp_files/226776.got.cif
#   From: 2010.05.17/outbox.cif.g08.bks.cpg/sg12_114_cif.got.tgz:226776.got - 2010.06.03 13:09:07.
