data_PCOD9213394
_publ_section_title
;
Structure prediction by ZEFSAII (Michael W. Deem and Ramdas Pophale) SiO2 
 PCOD9213394
Probable space group: C 2/M
;
_chemical_formula_sum "Si O2"
_cell_formula_units_Z 64
_cell_length_a 9.967386
_cell_length_b 27.726220
_cell_length_c 20.280044
_cell_angle_alpha 90.000000
_cell_angle_beta 135.751803
_cell_angle_gamma 90.000000
_cell_volume 3910.675973
_symmetry_space_group_name_H-M "C 2/M"
_symmetry_group_IT_number 12
_symmetry_cell_setting 'monoclinic'
loop_
_space_group_symop_operation_xyz
x,y,z
-x,y,-z
-x,-y,-z
x,-y,z
1/2+x,1/2+y,z
1/2-x,1/2+y,-z
1/2-x,1/2-y,-z
1/2+x,1/2-y,z
loop_
_atom_site_type_symbol
_atom_site_label
_atom_site_fract_x
_atom_site_fract_y
_atom_site_fract_z
Si Si1 0.133611 0.204020 0.984001
Si Si2 0.509369 0.151648 0.829961
Si Si3 0.145366 0.202854 0.491817
Si Si4 0.034237 0.687200 0.690410
Si Si5 0.022850 0.944266 0.119056
Si Si6 0.897687 0.803216 0.280927
Si Si7 0.676684 0.055304 0.894566
Si Si8 0.571706 0.652176 0.210244
O O1 0.009577 0.181792 0.881314
O O2 0.250000 0.250000 0.000000
O O3 0.298226 0.167237 0.064452
O O4 0.000000 0.214880 0.000000
O O5 0.540293 0.165476 0.765154
O O6 0.322845 0.180822 0.787811
O O7 0.507193 0.094093 0.837409
O O8 0.250000 0.250000 0.500000
O O9 0.326424 0.175456 0.586561
O O10 0.000000 0.215163 0.500000
O O11 0.021943 0.180797 0.388697
O O12 0.074103 0.745006 0.711061
O O13 0.203446 0.664510 0.707062
O O14 0.191558 0.935635 0.124172
O O15 0.036508 0.903650 0.179666
O O16 0.038618 0.000000 0.146853
O O17 0.824355 0.939889 0.007921
O O18 0.973275 0.827775 0.241155
O O19 0.611462 0.000000 0.869506
#
# Coordination Sequence:
#
# PCOD9213394 Si02
#       8
#     8   8   8   8   8   8   8   8
#     4  12  24  35  50  75 115 154 187 215 261 328
#     4  12  21  36  55  79 112 149 186 225 272 325
#     4  10  22  38  57  81 109 147 189 235 277 319
#     4  11  21  37  59  78 112 149 189 229 266 328
#     4   9  17  34  56  79 106 141 188 239 271 315
#     4  11  25  37  53  82 115 149 184 228 276 330
#     4   9  17  33  57  80 103 141 192 236 271 316
#     4  12  23  36  54  83 112 149 189 222 276 329
#
# _framework density 16.365456999999999
#
# number of rings (size 3 to 8) (size 9 to 14) (size 15 to 20)
#    0.000    1.250    5.000    3.000    7.000    0.000 
#    0.000    0.625    0.000    1.500    0.000    5.250 
#    0.000    0.000    0.000    0.000    0.000    0.000 
#
# Total GULP energy -178535.447148 kJ/mol
# GULP energy per Si atom -5579.232723 kJ/mol
# Density = 1.632821 g / cm^3
# Si number density = 16.365457 Si / 1000 Ang^3
#
#
#
# Elastic Constant Matrix: (Units=GPa)
#
#
# Indices 1 2 3 4 5 6 
#
# 1 92.7788 27.8737 25.2068 0.0000 2.6318 0.0000
# 2 27.8737 100.3423 24.2581 0.0000 -3.6902 0.0000
# 3 25.2068 24.2581 71.9840 0.0000 4.6432 0.0000
# 4 0.0000 0.0000 0.0000 6.4551 0.0000 1.0765
# 5 2.6318 -3.6902 4.6432 0.0000 27.5551 0.0000
# 6 0.0000 0.0000 0.0000 1.0765 0.0000 11.3604
#
#
#
# Elastic Compliance Matrix: (Units=1/GPa)
#
#
# Indices 1 2 3 4 5 6 
#
# 1 0.012545 -0.002694 -0.003422 0.000000 -0.000982 0.000000
# 2 -0.002694 0.011549 -0.003099 0.000000 0.002326 0.000000
# 3 -0.003422 -0.003099 0.016317 0.000000 -0.002838 0.000000
# 4 0.000000 0.000000 0.000000 0.157403 0.000000 -0.014915
# 5 -0.000982 0.002326 -0.002838 0.000000 0.037174 0.000000
# 6 0.000000 0.000000 0.000000 -0.014915 0.000000 0.089438
#
#
# Mechanical properties :
#
#
# Convention : Reuss Voigt Hill
#
# Bulk Modulus (GPa) = 45.48965 46.64247 46.06606
# Shear Modulus (GPa) = 14.27826 21.59190 17.93508
#
# Velocity S-wave (km/s) = 2.95695 3.63624 3.31405
# Velocity P-wave (km/s) = 6.28606 6.79647 6.54624
#
# Compressibility (1/GPa) = 0.02198302
#
# Stress axis : x y z
#
# Youngs Moduli (GPa) = 79.71214 86.58892 61.28401
#
# Poissons Ratio (x) = 0.23325 0.20970
# Poissons Ratio (y) = 0.21473 0.18990
# Poissons Ratio (z) = 0.27276 0.26831
#
# Static dielectric constant tensor:
#      x y z
#    x 1.546030 0.000000 -0.007340 
#    y 0.000000 1.570750 0.000000 
#    z -0.007340 0.000000 1.635100 
# 
# From -- ./inp_files/302649.got.cif
#   From: 2010.05.17/outbox.cif.g08.bks.cpg/sg12_152_cif.got.tgz:302649.got - 2010.06.03 13:09:07.
