data_PCOD9213942
_publ_section_title
;
Structure prediction by ZEFSAII (Michael W. Deem and Ramdas Pophale) SiO2 
 PCOD9213942
Probable space group: C 2/M
;
_chemical_formula_sum "Si O2"
_cell_formula_units_Z 64
_cell_length_a 13.331824
_cell_length_b 26.190565
_cell_length_c 18.103470
_cell_angle_alpha 90.000000
_cell_angle_beta 147.905869
_cell_angle_gamma 90.000000
_cell_volume 3358.502916
_symmetry_space_group_name_H-M "C 2/M"
_symmetry_group_IT_number 12
_symmetry_cell_setting 'monoclinic'
loop_
_space_group_symop_operation_xyz
x,y,z
-x,y,-z
-x,-y,-z
x,-y,z
1/2+x,1/2+y,z
1/2-x,1/2+y,-z
1/2-x,1/2-y,-z
1/2+x,1/2-y,z
loop_
_atom_site_type_symbol
_atom_site_label
_atom_site_fract_x
_atom_site_fract_y
_atom_site_fract_z
Si Si1 0.532274 0.617597 0.436259
Si Si2 0.854174 0.941134 0.099839
Si Si3 0.577188 0.722877 0.853095
Si Si4 0.782047 0.642634 0.876221
Si Si5 0.726930 0.443318 0.432815
Si Si6 0.965677 0.357392 0.398370
Si Si7 0.338952 0.794178 0.604551
Si Si8 0.960753 0.134311 0.889990
O O1 0.500000 0.602734 0.500000
O O2 0.336518 0.629850 0.271544
O O3 0.635668 0.574218 0.452998
O O4 0.674915 0.665996 0.523267
O O5 0.724713 0.906359 0.072577
O O6 0.054834 0.941975 0.267703
O O7 0.898341 0.909154 0.053399
O O8 0.793057 0.000000 0.051382
O O9 0.661166 0.687162 0.840497
O O10 0.439019 0.765895 0.734872
O O11 0.486245 0.684416 0.855246
O O12 0.750000 0.750000 0.000000
O O13 0.000000 0.656899 0.000000
O O14 0.805636 0.500000 0.485434
O O15 0.882102 0.402461 0.507792
O O16 0.757401 0.379497 0.258477
O O17 0.000000 0.331165 0.500000
O O18 0.012813 0.322203 0.357386
O O19 0.250000 0.750000 0.500000
O O20 0.000000 0.144408 0.000000
#
# Coordination Sequence:
#
# PCOD9213942 Si02
#       8
#     8   8   8   8   8   8   8   8
#     4  10  22  39  60  89 118 154 197 248 297 339
#     4   9  19  39  64  87 118 157 194 240 295 351
#     4  11  24  41  59  83 119 159 198 240 296 352
#     4  10  22  40  61  86 119 155 200 245 292 352
#     4   9  19  38  63  89 119 154 195 240 291 355
#     4  11  21  36  61  90 116 151 198 237 289 352
#     4  11  22  39  58  85 119 151 195 246 291 344
#     4  11  23  40  59  87 122 154 191 245 294 348
#
# _framework density 19.05611
#
# number of rings (size 3 to 8) (size 9 to 14) (size 15 to 20)
#    0.000    1.750    2.500    1.500    1.750    4.500 
#    2.250    0.000    0.000    0.000    0.000    0.000 
#    0.000    0.000    0.000    0.000    0.000    0.000 
#
# Total GULP energy -178645.239625 kJ/mol
# GULP energy per Si atom -5582.663738 kJ/mol
# Density = 1.901274 g / cm^3
# Si number density = 19.056110 Si / 1000 Ang^3
#
#
#
# Elastic Constant Matrix: (Units=GPa)
#
#
# Indices 1 2 3 4 5 6 
#
# 1 88.7135 10.1176 26.8518 0.0000 -15.8361 0.0000
# 2 10.1176 73.2459 -1.7724 0.0001 -10.2686 0.0000
# 3 26.8518 -1.7724 72.6248 -0.0003 -13.9229 0.0000
# 4 0.0000 0.0001 -0.0003 22.5694 -0.0002 0.2762
# 5 -15.8361 -10.2686 -13.9229 -0.0002 27.3873 -0.0001
# 6 0.0000 0.0000 0.0000 0.2762 -0.0001 -0.2294
#
#
#
# Elastic Compliance Matrix: (Units=1/GPa)
#
#
# Indices 1 2 3 4 5 6 
#
# 1 0.013586 -0.001224 -0.004027 0.000000 0.005349 -0.000001
# 2 -0.001224 0.014677 0.001917 0.000000 0.005770 0.000000
# 3 -0.004027 0.001917 0.016616 0.000000 0.006837 -0.000004
# 4 0.000000 0.000000 0.000000 0.043664 0.000001 0.052580
# 5 0.005349 0.005770 0.006837 0.000001 0.045245 -0.000012
# 6 -0.000001 0.000000 -0.000004 0.052580 -0.000012 -4.296444
#
#
# Mechanical properties :
#
#
# Convention : Reuss Voigt Hill
#
# Bulk Modulus (GPa) = 26.17163 33.88647 30.02905
# Shear Modulus (GPa) = -1.20678 23.23794 11.01558
#
# Velocity S-wave (km/s) = -0.79665 3.49585 2.40690
# Velocity P-wave (km/s) = 3.59411 5.84086 4.84940
#
# Compressibility (1/GPa) = 0.03820931
#
# Stress axis : x y z
#
# Youngs Moduli (GPa) = 73.60638 68.13381 60.18289
#
# Poissons Ratio (x) = 0.08341 0.24239
# Poissons Ratio (y) = 0.09011 -0.11537
# Poissons Ratio (z) = 0.29645 -0.13061
#
# Static dielectric constant tensor:
#      x y z
#    x 6.729080 -0.000060 -1.368500 
#    y -0.000060 1.634160 0.000020 
#    z -1.368500 0.000020 2.031450 
# 
# From -- ./inp_files/209422.got.cif
#   From: 2010.05.17/outbox.cif.g08.bks.cpg/sg12_105_cif.got.tgz:209422.got - 2010.06.03 13:09:07.
