data_PCOD9213795
_publ_section_title
;
Structure prediction by ZEFSAII (Michael W. Deem and Ramdas Pophale) SiO2 
 PCOD9213795
Probable space group: C 2/M
;
_chemical_formula_sum "Si O2"
_cell_formula_units_Z 48
_cell_length_a 11.795333
_cell_length_b 14.077878
_cell_length_c 14.250982
_cell_angle_alpha 90.000000
_cell_angle_beta 98.102731
_cell_angle_gamma 90.000000
_cell_volume 2342.797873
_symmetry_space_group_name_H-M "C 2/M"
_symmetry_group_IT_number 12
_symmetry_cell_setting 'monoclinic'
loop_
_space_group_symop_operation_xyz
x,y,z
-x,y,-z
-x,-y,-z
x,-y,z
1/2+x,1/2+y,z
1/2-x,1/2+y,-z
1/2-x,1/2-y,-z
1/2+x,1/2-y,z
loop_
_atom_site_type_symbol
_atom_site_label
_atom_site_fract_x
_atom_site_fract_y
_atom_site_fract_z
Si Si1 0.400628 0.390484 0.614848
Si Si2 0.830959 0.888843 0.410930
Si Si3 0.777404 0.790881 0.216442
Si Si4 0.489571 0.386437 0.818074
Si Si5 0.876067 0.386925 0.945547
Si Si6 0.270325 0.610490 0.888353
O O1 0.363335 0.500000 0.620290
O O2 0.327775 0.353166 0.518318
O O3 0.533806 0.390819 0.598868
O O4 0.411696 0.350694 0.720643
O O5 0.776528 0.824021 0.324146
O O6 0.792581 0.000000 0.400771
O O7 0.666327 0.831282 0.150060
O O8 0.788067 0.680564 0.192558
O O9 0.887972 0.839268 0.179300
O O10 0.507774 0.500000 0.809063
O O11 0.407205 0.373807 0.897461
O O12 0.878735 0.500000 0.925938
O O13 0.783523 0.370302 0.016928
O O14 0.000000 0.359543 0.000000
O O15 0.249959 0.500000 0.863539
#
# Coordination Sequence:
#
# PCOD9213795 Si02
#       6
#     8   8   8   8   8   8
#     4   7  11  23  46  77 113 137 158 211 276 316
#     4   8  13  24  47  82 111 133 168 218 269 310
#     4  11  20  33  58  81 107 138 185 223 260 314
#     4   9  18  34  57  85 111 136 174 223 272 316
#     4  10  22  39  57  79 109 142 178 221 271 321
#     4  10  23  39  53  77 111 145 176 220 276 318
#
# _framework density 20.488323000000001
#
# number of rings (size 3 to 8) (size 9 to 14) (size 15 to 20)
#    0.000    2.833    0.000    4.000    2.333    0.667 
#    0.000    3.333    0.000    0.000    0.000    9.333 
#    0.000    0.833    0.000    0.000    0.000    0.000 
#
# Total GULP energy -133746.295748 kJ/mol
# GULP energy per Si atom -5572.762323 kJ/mol
# Density = 2.044169 g / cm^3
# Si number density = 20.488323 Si / 1000 Ang^3
#
#
#
# Elastic Constant Matrix: (Units=GPa)
#
#
# Indices 1 2 3 4 5 6 
#
# 1 55.1096 5.4009 27.8951 0.0000 -0.2498 0.0000
# 2 5.4009 73.7608 38.8832 0.0000 19.1272 0.0000
# 3 27.8951 38.8832 118.7739 0.0000 27.5662 0.0000
# 4 0.0000 0.0000 0.0000 18.1241 0.0000 11.8141
# 5 -0.2498 19.1272 27.5662 0.0000 23.7903 0.0000
# 6 0.0000 0.0000 0.0000 11.8141 0.0000 13.7173
#
#
#
# Elastic Compliance Matrix: (Units=1/GPa)
#
#
# Indices 1 2 3 4 5 6 
#
# 1 0.021759 -0.000069 -0.007049 0.000000 0.008452 0.000000
# 2 -0.000069 0.018128 -0.003468 0.000000 -0.010557 0.000000
# 3 -0.007049 -0.003468 0.014472 0.000000 -0.014055 0.000000
# 4 0.000000 0.000000 0.000000 0.125798 0.000000 -0.108344
# 5 0.008452 -0.010557 -0.014055 0.000000 0.066896 0.000000
# 6 0.000000 0.000000 0.000000 -0.108344 0.000000 0.166211
#
#
# Mechanical properties :
#
#
# Convention : Reuss Voigt Hill
#
# Bulk Modulus (GPa) = 30.13282 43.55584 36.84433
# Shear Modulus (GPa) = 11.22334 22.82403 17.02369
#
# Velocity S-wave (km/s) = 2.34304 3.34129 2.88566
# Velocity P-wave (km/s) = 4.69670 6.01586 5.39674
#
# Compressibility (1/GPa) = 0.03318640
#
# Stress axis : x y z
#
# Youngs Moduli (GPa) = 45.95814 55.16247 69.09705
#
# Poissons Ratio (x) = 0.00380 0.48709
# Poissons Ratio (y) = 0.00317 0.23965
# Poissons Ratio (z) = 0.32398 0.19132
#
# Static dielectric constant tensor:
#      x y z
#    x 1.740130 0.000000 -0.031730 
#    y 0.000000 1.756240 0.000000 
#    z -0.031730 0.000000 1.796980 
# 
# From -- ./inp_files/204559.got.cif
#   From: 2010.05.17/outbox.cif.g08.bks.cpg/sg12_103_cif.got.tgz:204559.got - 2010.06.03 13:09:07.
