data_PCOD9213647
_publ_section_title
;
Structure prediction by ZEFSAII (Michael W. Deem and Ramdas Pophale) SiO2 
 PCOD9213647
Probable space group: C 2/M
;
_chemical_formula_sum "Si O2"
_cell_formula_units_Z 56
_cell_length_a 18.177292
_cell_length_b 20.708876
_cell_length_c 11.792222
_cell_angle_alpha 90.000000
_cell_angle_beta 139.686250
_cell_angle_gamma 90.000000
_cell_volume 2871.887164
_symmetry_space_group_name_H-M "C 2/M"
_symmetry_group_IT_number 12
_symmetry_cell_setting 'monoclinic'
loop_
_space_group_symop_operation_xyz
x,y,z
-x,y,-z
-x,-y,-z
x,-y,z
1/2+x,1/2+y,z
1/2-x,1/2+y,-z
1/2-x,1/2-y,-z
1/2+x,1/2-y,z
loop_
_atom_site_type_symbol
_atom_site_label
_atom_site_fract_x
_atom_site_fract_y
_atom_site_fract_z
Si Si1 0.857237 0.240614 0.544549
Si Si2 0.087801 0.303854 0.813364
Si Si3 0.380290 0.926255 0.296527
Si Si4 0.214597 0.794497 0.794139
Si Si5 0.399731 0.430034 0.290334
Si Si6 0.020782 0.883929 0.211118
Si Si7 0.343678 0.425195 0.832792
O O1 0.750000 0.250000 0.500000
O O2 0.810982 0.225750 0.364402
O O3 0.930945 0.180444 0.677022
O O4 0.951689 0.297213 0.657253
O O5 0.124051 0.373236 0.806492
O O6 0.136676 0.251368 0.781521
O O7 0.155807 0.289375 0.009353
O O8 0.500000 0.921173 0.500000
O O9 0.283702 0.913929 0.277152
O O10 0.365184 0.000000 0.237645
O O11 0.176123 0.867912 0.772846
O O12 0.500000 0.428760 0.500000
O O13 0.341249 0.500000 0.227762
O O14 0.461477 0.423240 0.241810
O O15 0.123510 0.914906 0.259213
O O16 0.921102 0.878621 0.000689
O O17 0.372702 0.500000 0.894976
#
# Coordination Sequence:
#
# PCOD9213647 Si02
#       7
#     8   8   8   8   8   8   8
#     4  12  27  43  63  91 128 166 217 262 314 383
#     4  11  24  41  69  90 128 168 204 266 320 369
#     4  10  22  40  65  96 129 170 215 257 316 380
#     4  11  23  43  64  96 127 163 211 260 317 381
#     4  11  20  36  63  94 130 167 204 258 316 376
#     4  11  21  37  60  90 128 162 205 259 312 372
#     4  10  22  38  62  96 130 162 207 264 319 373
#
# _framework density 19.499372999999999
#
# number of rings (size 3 to 8) (size 9 to 14) (size 15 to 20)
#    0.000    1.143    2.857    3.857    6.000    3.429 
#    0.000    0.000    0.000    0.857    0.000    2.000 
#    0.000    0.000    0.000    0.000    0.000    0.000 
#
# Total GULP energy -156376.955410 kJ/mol
# GULP energy per Si atom -5584.891265 kJ/mol
# Density = 1.945499 g / cm^3
# Si number density = 19.499373 Si / 1000 Ang^3
#
#
#
# Elastic Constant Matrix: (Units=GPa)
#
#
# Indices 1 2 3 4 5 6 
#
# 1 120.8559 21.1324 65.7638 0.0000 6.4576 0.0000
# 2 21.1324 80.5358 24.8648 0.0000 0.7778 0.0000
# 3 65.7638 24.8648 103.3795 0.0000 -6.7876 0.0000
# 4 0.0000 0.0000 0.0000 17.8036 0.0000 -2.6623
# 5 6.4576 0.7778 -6.7876 0.0000 37.3636 0.0000
# 6 0.0000 0.0000 0.0000 -2.6623 0.0000 26.9573
#
#
#
# Elastic Compliance Matrix: (Units=1/GPa)
#
#
# Indices 1 2 3 4 5 6 
#
# 1 0.013229 -0.000820 -0.008468 0.000000 -0.003808 0.000000
# 2 -0.000820 0.013492 -0.002766 0.000000 -0.000642 0.000000
# 3 -0.008468 -0.002766 0.016016 0.000000 0.004431 0.000000
# 4 0.000000 0.000000 0.000000 0.057010 0.000000 0.005630
# 5 -0.003808 -0.000642 0.004431 0.000000 0.028240 0.000000
# 6 0.000000 0.000000 0.000000 0.005630 0.000000 0.037652
#
#
# Mechanical properties :
#
#
# Convention : Reuss Voigt Hill
#
# Bulk Modulus (GPa) = 53.67814 58.69924 56.18869
# Shear Modulus (GPa) = 25.51571 29.29227 27.40399
#
# Velocity S-wave (km/s) = 3.62130 3.88005 3.75290
# Velocity P-wave (km/s) = 6.71364 7.08813 6.90342
#
# Compressibility (1/GPa) = 0.01862956
#
# Stress axis : x y z
#
# Youngs Moduli (GPa) = 75.59006 74.11772 62.43646
#
# Poissons Ratio (x) = 0.06078 0.52874
# Poissons Ratio (y) = 0.06198 0.17267
# Poissons Ratio (z) = 0.64013 0.20498
#
# Static dielectric constant tensor:
#      x y z
#    x 1.488060 0.000000 -0.026890 
#    y 0.000000 1.728960 0.000000 
#    z -0.026890 0.000000 1.689550 
# 
# From -- ./inp_files/160323.got.cif
#   From: 2010.05.17/outbox.cif.g08.bks.cpg/sg12_81_cif.got.tgz:160323.got - 2010.06.03 13:09:07.
