data_PCOD9213990
_publ_section_title
;
Structure prediction by ZEFSAII (Michael W. Deem and Ramdas Pophale) SiO2 
 PCOD9213990
Probable space group: C 2/M
;
_chemical_formula_sum "Si O2"
_cell_formula_units_Z 56
_cell_length_a 16.883754
_cell_length_b 13.433899
_cell_length_c 13.598440
_cell_angle_alpha 90.000000
_cell_angle_beta 110.933468
_cell_angle_gamma 90.000000
_cell_volume 2880.747342
_symmetry_space_group_name_H-M "C 2/M"
_symmetry_group_IT_number 12
_symmetry_cell_setting 'monoclinic'
loop_
_space_group_symop_operation_xyz
x,y,z
-x,y,-z
-x,-y,-z
x,-y,z
1/2+x,1/2+y,z
1/2-x,1/2+y,-z
1/2-x,1/2-y,-z
1/2+x,1/2-y,z
loop_
_atom_site_type_symbol
_atom_site_label
_atom_site_fract_x
_atom_site_fract_y
_atom_site_fract_z
Si Si1 0.902217 0.732860 0.956503
Si Si2 0.753432 0.381962 0.785704
Si Si3 0.497024 0.886711 0.665443
Si Si4 0.909596 0.790074 0.179550
Si Si5 0.632789 0.110868 0.551404
Si Si6 0.218701 0.756160 0.374896
Si Si7 0.418657 0.384603 0.785923
O O1 0.833727 0.656003 0.884672
O O2 0.903748 0.827672 0.882995
O O3 0.878745 0.763483 0.056427
O O4 0.000000 0.695353 0.000000
O O5 0.743601 0.500000 0.785652
O O6 0.667995 0.328850 0.788821
O O7 0.775587 0.344105 0.685483
O O8 0.539040 0.806285 0.755672
O O9 0.410030 0.854758 0.570976
O O10 0.560975 0.894067 0.602109
O O11 0.486765 0.000000 0.700942
O O12 0.982842 0.872646 0.198570
O O13 0.705251 0.175193 0.632205
O O14 0.665042 0.000000 0.545725
O O15 0.250000 0.750000 0.500000
O O16 0.135490 0.820199 0.315725
O O17 0.394268 0.500000 0.778550
#
# Coordination Sequence:
#
# PCOD9213990 Si02
#       7
#     8   8   8   8   8   8   8
#     4   9  22  41  62  86 116 153 195 241 288 348
#     4  11  24  40  59  87 119 154 194 242 300 352
#     4   9  18  32  56  87 113 146 192 238 286 334
#     4  11  20  39  61  89 123 153 192 240 294 351
#     4   9  17  33  56  80 110 148 192 240 282 329
#     4  11  22  39  58  83 117 156 197 244 289 346
#     4  10  22  39  61  88 117 156 199 238 287 347
#
# _framework density 19.439399999999999
#
# number of rings (size 3 to 8) (size 9 to 14) (size 15 to 20)
#    0.000    2.000    1.429    3.000    0.000    5.143 
#    0.000    8.571    0.000    2.571    0.000    0.000 
#    0.000    0.000    0.000    0.000    0.000    0.000 
#
# Total GULP energy -156073.011611 kJ/mol
# GULP energy per Si atom -5574.036129 kJ/mol
# Density = 1.939515 g / cm^3
# Si number density = 19.439400 Si / 1000 Ang^3
#
#
#
# Elastic Constant Matrix: (Units=GPa)
#
#
# Indices 1 2 3 4 5 6 
#
# 1 57.1828 24.5222 29.6805 0.0000 6.4258 0.0000
# 2 24.5222 119.9732 54.8308 0.0000 6.8326 0.0000
# 3 29.6805 54.8308 123.7249 0.0000 -3.0483 0.0000
# 4 0.0000 0.0000 0.0000 13.2446 0.0000 5.1172
# 5 6.4258 6.8326 -3.0483 0.0000 30.5993 0.0000
# 6 0.0000 0.0000 0.0000 5.1172 0.0000 18.9525
#
#
#
# Elastic Compliance Matrix: (Units=1/GPa)
#
#
# Indices 1 2 3 4 5 6 
#
# 1 0.021084 -0.002131 -0.004221 0.000000 -0.004372 0.000000
# 2 -0.002131 0.010913 -0.004385 0.000000 -0.002426 0.000000
# 3 -0.004221 -0.004385 0.011111 0.000000 0.002972 0.000000
# 4 0.000000 0.000000 0.000000 0.084296 0.000000 -0.022760
# 5 -0.004372 -0.002426 0.002972 0.000000 0.034437 0.000000
# 6 0.000000 0.000000 0.000000 -0.022760 0.000000 0.058909
#
#
# Mechanical properties :
#
#
# Convention : Reuss Voigt Hill
#
# Bulk Modulus (GPa) = 46.22334 57.66088 51.94211
# Shear Modulus (GPa) = 20.04524 25.34909 22.69716
#
# Velocity S-wave (km/s) = 3.21466 3.61502 3.42070
# Velocity P-wave (km/s) = 6.13258 6.86664 6.50996
#
# Compressibility (1/GPa) = 0.02163409
#
# Stress axis : x y z
#
# Youngs Moduli (GPa) = 47.42929 91.63429 89.99732
#
# Poissons Ratio (x) = 0.19531 0.37988
# Poissons Ratio (y) = 0.10109 0.39461
# Poissons Ratio (z) = 0.20020 0.40179
#
# Static dielectric constant tensor:
#      x y z
#    x 1.742150 0.000000 0.005200 
#    y 0.000000 1.696730 0.000000 
#    z 0.005200 0.000000 1.685640 
# 
# From -- ./inp_files/223934.got.cif
#   From: 2010.05.17/outbox.cif.g08.bks.cpg/sg12_112_cif.got.tgz:223934.got - 2010.06.03 13:09:07.
