data_PCOD9213603
_publ_section_title
;
Structure prediction by ZEFSAII (Michael W. Deem and Ramdas Pophale) SiO2 
 PCOD9213603
Probable space group: C 2/M
;
_chemical_formula_sum "Si O2"
_cell_formula_units_Z 64
_cell_length_a 20.442514
_cell_length_b 17.216502
_cell_length_c 17.550904
_cell_angle_alpha 90.000000
_cell_angle_beta 151.418823
_cell_angle_gamma 90.000000
_cell_volume 2955.105323
_symmetry_space_group_name_H-M "C 2/M"
_symmetry_group_IT_number 12
_symmetry_cell_setting 'monoclinic'
loop_
_space_group_symop_operation_xyz
x,y,z
-x,y,-z
-x,-y,-z
x,-y,z
1/2+x,1/2+y,z
1/2-x,1/2+y,-z
1/2-x,1/2-y,-z
1/2+x,1/2-y,z
loop_
_atom_site_type_symbol
_atom_site_label
_atom_site_fract_x
_atom_site_fract_y
_atom_site_fract_z
Si Si1 0.635502 0.417835 0.187654
Si Si2 0.405453 0.408449 0.253296
Si Si3 0.369580 0.411415 0.641029
Si Si4 0.406392 0.707913 0.469442
Si Si5 0.736563 0.283462 0.189451
Si Si6 0.342265 0.795998 0.033178
Si Si7 0.896390 0.327840 0.597233
Si Si8 0.560424 0.914574 0.646987
O O1 0.712305 0.500000 0.256547
O O2 0.598557 0.409891 0.237254
O O3 0.705887 0.343465 0.225285
O O4 0.500000 0.422861 0.000000
O O5 0.391226 0.500000 0.252368
O O6 0.494377 0.395784 0.267407
O O7 0.504768 0.366484 0.416426
O O8 0.259637 0.366196 0.095870
O O9 0.325793 0.500000 0.575878
O O10 0.244441 0.351402 0.505909
O O11 0.500000 0.750109 0.500000
O O12 0.274558 0.707590 0.280455
O O13 0.387384 0.756987 0.527162
O O14 0.635058 0.253732 0.020679
O O15 0.837898 0.340535 0.243410
O O16 0.250000 0.750000 0.000000
O O17 0.483586 0.815618 0.219059
O O18 0.942676 0.398217 0.588674
O O19 0.500000 0.916259 0.500000
O O20 0.622474 0.000000 0.726351
#
# Coordination Sequence:
#
# PCOD9213603 Si02
#       8
#     8   8   8   8   8   8   8   8
#     4  10  22  38  61  95 134 173 208 252 320 398
#     4  11  26  45  66  92 125 170 218 270 325 374
#     4  10  23  43  64  93 133 170 211 255 314 396
#     4  12  20  41  66  90 121 162 214 274 312 370
#     4  12  21  40  60  88 130 165 212 271 319 370
#     4  12  24  42  64  93 133 166 214 268 324 376
#     4  12  21  39  64  94 129 169 207 262 316 380
#     4  11  19  29  56  92 122 160 203 252 319 382
#
# _framework density 21.657433999999999
#
# number of rings (size 3 to 8) (size 9 to 14) (size 15 to 20)
#    0.000    0.750    7.500    0.750    1.750    3.750 
#    2.250    0.000    0.000    0.000    0.000    1.750 
#    0.000    0.000    0.000    0.000    0.000    0.000 
#
# Total GULP energy -178366.417905 kJ/mol
# GULP energy per Si atom -5573.950560 kJ/mol
# Density = 2.160814 g / cm^3
# Si number density = 21.657434 Si / 1000 Ang^3
#
#
#
# Elastic Constant Matrix: (Units=GPa)
#
#
# Indices 1 2 3 4 5 6 
#
# 1 67.0546 16.8565 13.0833 -0.0002 -14.0199 0.0004
# 2 16.8565 95.7043 38.5152 -0.0001 -11.6423 0.0003
# 3 13.0833 38.5152 126.4042 -0.0003 -25.8164 0.0003
# 4 -0.0002 -0.0001 -0.0003 63.2938 -0.0005 18.1296
# 5 -14.0199 -11.6423 -25.8164 -0.0005 31.2247 0.0000
# 6 0.0004 0.0003 0.0003 18.1296 0.0000 32.3134
#
#
#
# Elastic Compliance Matrix: (Units=1/GPa)
#
#
# Indices 1 2 3 4 5 6 
#
# 1 0.016883 -0.002271 0.000385 0.000000 0.007052 0.000000
# 2 -0.002271 0.012293 -0.003348 0.000000 0.000796 0.000000
# 3 0.000385 -0.003348 0.010434 0.000000 0.007551 0.000000
# 4 0.000000 0.000000 0.000000 0.018825 0.000001 -0.010562
# 5 0.007052 0.000796 0.007551 0.000001 0.041732 0.000000
# 6 0.000000 0.000000 0.000000 -0.010562 0.000000 0.036873
#
#
# Mechanical properties :
#
#
# Convention : Reuss Voigt Hill
#
# Bulk Modulus (GPa) = 34.31486 47.34146 40.82816
# Shear Modulus (GPa) = 31.80229 40.08024 35.94127
#
# Velocity S-wave (km/s) = 3.83616 4.30658 4.07816
# Velocity P-wave (km/s) = 5.95821 6.82902 6.40842
#
# Compressibility (1/GPa) = 0.02914190
#
# Stress axis : x y z
#
# Youngs Moduli (GPa) = 59.22971 81.34707 95.84380
#
# Poissons Ratio (x) = 0.18471 -0.03687
# Poissons Ratio (y) = 0.13449 0.32090
# Poissons Ratio (z) = -0.02278 0.27236
#
# Static dielectric constant tensor:
#      x y z
#    x 1.865910 0.000000 0.159800 
#    y 0.000000 1.898500 0.000000 
#    z 0.159800 0.000000 1.963110 
# 
# From -- ./inp_files/290465.got.cif
#   From: 2010.05.17/outbox.cif.g08.bks.cpg/sg12_146_cif.got.tgz:290465.got - 2010.06.03 13:09:07.
