data_PCOD9213382
_publ_section_title
;
Structure prediction by ZEFSAII (Michael W. Deem and Ramdas Pophale) SiO2 
 PCOD9213382
Probable space group: C 2/M
;
_chemical_formula_sum "Si O2"
_cell_formula_units_Z 40
_cell_length_a 17.250175
_cell_length_b 19.270133
_cell_length_c 9.283208
_cell_angle_alpha 90.000000
_cell_angle_beta 46.100455
_cell_angle_gamma 90.000000
_cell_volume 2223.537254
_symmetry_space_group_name_H-M "C 2/M"
_symmetry_group_IT_number 12
_symmetry_cell_setting 'monoclinic'
loop_
_space_group_symop_operation_xyz
x,y,z
-x,y,-z
-x,-y,-z
x,-y,z
1/2+x,1/2+y,z
1/2-x,1/2+y,-z
1/2-x,1/2-y,-z
1/2+x,1/2-y,z
loop_
_atom_site_type_symbol
_atom_site_label
_atom_site_fract_x
_atom_site_fract_y
_atom_site_fract_z
Si Si1 0.120137 0.000000 0.783977
Si Si2 0.447983 0.215221 0.429010
Si Si3 0.812057 0.848091 0.623707
Si Si4 0.891930 0.000000 0.546229
Si Si5 0.723998 0.645827 0.667544
Si Si6 0.162416 0.257711 0.981900
O O1 0.100511 0.000000 0.637079
O O2 0.188436 0.932762 0.741188
O O3 0.000000 0.000000 0.000000
O O4 0.500000 0.178898 0.500000
O O5 0.397161 0.287763 0.552269
O O6 0.348985 0.168264 0.505018
O O7 0.542987 0.231716 0.195689
O O8 0.836888 0.925386 0.644999
O O9 0.812334 0.842086 0.450145
O O10 0.701586 0.822851 0.836869
O O11 0.000000 0.000000 0.500000
O O12 0.671288 0.693451 0.859529
O O13 0.250000 0.250000 0.000000
#
# Coordination Sequence:
#
# PCOD9213382 Si02
#       6
#     4   8   8   4   8   8
#     4  10  24  42  60  88 120 156 194 243 301 357
#     4  11  20  37  60  84 121 154 196 249 290 342
#     4  10  22  38  56  90 118 151 196 242 296 352
#     4  10  22  38  61  82 119 153 190 245 291 346
#     4  10  23  39  58  88 120 153 200 241 296 354
#     4  11  21  35  62  86 118 155 196 242 294 346
#
# _framework density 17.989353999999999
#
# number of rings (size 3 to 8) (size 9 to 14) (size 15 to 20)
#    0.000    1.600    4.000    3.000    5.600    2.400 
#    0.000    1.500    0.000    3.600    0.000    0.000 
#    0.000    0.000    0.000    0.000    0.000    0.000 
#
# Total GULP energy -111418.763701 kJ/mol
# GULP energy per Si atom -5570.938185 kJ/mol
# Density = 1.794841 g / cm^3
# Si number density = 17.989354 Si / 1000 Ang^3
#
#
#
# Elastic Constant Matrix: (Units=GPa)
#
#
# Indices 1 2 3 4 5 6 
#
# 1 78.9205 49.9131 17.1571 0.0000 -7.1752 0.0000
# 2 49.9131 147.1713 57.4847 0.0000 -11.3252 0.0000
# 3 17.1571 57.4847 140.9088 0.0000 -23.4995 0.0000
# 4 0.0000 0.0000 0.0000 11.2948 0.0000 1.6306
# 5 -7.1752 -11.3252 -23.4995 0.0000 33.5868 0.0000
# 6 0.0000 0.0000 0.0000 1.6306 0.0000 12.8032
#
#
#
# Elastic Compliance Matrix: (Units=1/GPa)
#
#
# Indices 1 2 3 4 5 6 
#
# 1 0.016265 -0.005613 0.000649 0.000000 0.002036 0.000000
# 2 -0.005613 0.010027 -0.003445 0.000000 -0.000229 0.000000
# 3 0.000649 -0.003445 0.009343 0.000000 0.005514 0.000000
# 4 0.000000 0.000000 0.000000 0.090195 0.000000 -0.011487
# 5 0.002036 -0.000229 0.005514 0.000000 0.033989 0.000000
# 6 0.000000 0.000000 0.000000 -0.011487 0.000000 0.079568
#
#
# Mechanical properties :
#
#
# Convention : Reuss Voigt Hill
#
# Bulk Modulus (GPa) = 53.14624 68.45671 60.80147
# Shear Modulus (GPa) = 19.04930 27.70002 23.37466
#
# Velocity S-wave (km/s) = 3.25764 3.92829 3.60857
# Velocity P-wave (km/s) = 6.61490 7.66237 7.15782
#
# Compressibility (1/GPa) = 0.01881601
#
# Stress axis : x y z
#
# Youngs Moduli (GPa) = 61.48181 99.73558 107.03496
#
# Poissons Ratio (x) = 0.55982 -0.06947
# Poissons Ratio (y) = 0.34510 0.36874
# Poissons Ratio (z) = -0.03990 0.34360
#
# Static dielectric constant tensor:
#      x y z
#    x 1.671540 0.000000 -0.018560 
#    y 0.000000 1.631870 0.000000 
#    z -0.018560 0.000000 1.647170 
# 
# From -- ./inp_files/62620.got.cif
#   From: 2010.05.17/outbox.cif.g08.bks.cpg/sg12_32_cif.got.tgz:62620.got - 2010.06.03 13:09:07.
