data_PCOD9213145
_publ_section_title
;
Structure prediction by ZEFSAII (Michael W. Deem and Ramdas Pophale) SiO2 
 PCOD9213145
Probable space group: C 2/M
;
_chemical_formula_sum "Si O2"
_cell_formula_units_Z 58
_cell_length_a 29.409225
_cell_length_b 7.339836
_cell_length_c 12.182053
_cell_angle_alpha 90.000000
_cell_angle_beta 80.107043
_cell_angle_gamma 90.000000
_cell_volume 2590.503392
_symmetry_space_group_name_H-M "C 2/M"
_symmetry_group_IT_number 12
_symmetry_cell_setting 'monoclinic'
loop_
_space_group_symop_operation_xyz
x,y,z
-x,y,-z
-x,-y,-z
x,-y,z
1/2+x,1/2+y,z
1/2-x,1/2+y,-z
1/2-x,1/2-y,-z
1/2+x,1/2-y,z
loop_
_atom_site_type_symbol
_atom_site_label
_atom_site_fract_x
_atom_site_fract_y
_atom_site_fract_z
Si Si1 0.383805 0.707448 0.366496
Si Si2 0.564839 0.279815 0.213792
Si Si3 0.127216 0.222262 0.384104
Si Si4 0.351754 0.720131 0.974584
Si Si5 0.711591 0.721915 0.194462
Si Si6 0.000000 0.500000 0.000000
Si Si7 0.536199 0.720896 0.828788
Si Si8 0.688208 0.790123 0.778277
O O1 0.398994 0.500000 0.379922
O O2 0.377055 0.788192 0.489790
O O3 0.423321 0.780619 0.269946
O O4 0.337058 0.706076 0.315444
O O5 0.565241 0.500000 0.212481
O O6 0.584593 0.223416 0.323796
O O7 0.602447 0.218931 0.108498
O O8 0.513125 0.227252 0.205658
O O9 0.173872 0.276383 0.301296
O O10 0.128470 0.000000 0.384697
O O11 0.352905 0.500000 0.975466
O O12 0.308706 0.778340 0.915269
O O13 0.344448 0.779028 0.101627
O O14 0.712666 0.500000 0.191130
O O15 0.762404 0.786642 0.204729
O O16 0.034888 0.338485 0.938737
O O17 0.538663 0.500000 0.846772
O O18 0.695450 0.000000 0.746208
#
# Coordination Sequence:
#
# PCOD9213145 Si02
#       8
#     8   8   8   8   8   2   8   8
#     4  10  22  37  55  82 111 147 189 236 281 341
#     4   8  16  33  59  85 106 141 188 240 287 339
#     4   8  15  33  60  82 106 141 190 240 291 339
#     4   9  17  32  55  78 105 139 182 231 283 336
#     4   8  16  32  53  80 106 139 185 237 285 337
#     4  12  26  40  64  84 124 172 186 236 290 346
#     4  10  23  40  60  91 122 153 200 236 283 349
#     4  11  22  32  49  76 113 150 185 229 285 343
#
# _framework density 22.389469999999999
#
# number of rings (size 3 to 8) (size 9 to 14) (size 15 to 20)
#    0.000    2.759    0.000    2.690    2.897    1.103 
#    0.000    3.448    1.517    2.483    0.000    0.000 
#    0.000    0.000    0.000    0.000    0.000    0.000 
#
# Total GULP energy -161713.836596 kJ/mol
# GULP energy per Si atom -5576.339193 kJ/mol
# Density = 2.233851 g / cm^3
# Si number density = 22.389470 Si / 1000 Ang^3
#
#
#
# Elastic Constant Matrix: (Units=GPa)
#
#
# Indices 1 2 3 4 5 6 
#
# 1 101.1353 -5.0336 31.9159 0.0000 23.8465 0.0000
# 2 -5.0336 94.9824 4.4858 0.0000 -1.5150 0.0000
# 3 31.9159 4.4858 115.4049 0.0000 17.7850 0.0000
# 4 0.0000 0.0000 0.0000 -668.3252 0.0000 217.2736
# 5 23.8465 -1.5150 17.7850 0.0000 24.6536 0.0000
# 6 0.0000 0.0000 0.0000 217.2736 0.0000 -66.5155
#
#
#
# Elastic Compliance Matrix: (Units=1/GPa)
#
#
# Indices 1 2 3 4 5 6 
#
# 1 0.013200 0.000610 -0.001927 0.000000 -0.011341 0.000000
# 2 0.000610 0.010601 -0.000664 0.000000 0.000541 0.000000
# 3 -0.001927 -0.000664 0.010061 0.000000 -0.005436 0.000000
# 4 0.000000 0.000000 0.000000 0.024154 0.000000 0.078898
# 5 -0.011341 0.000541 -0.005436 0.000000 0.055486 0.000000
# 6 0.000000 0.000000 0.000000 0.078898 0.000000 0.242688
#
#
# Mechanical properties :
#
#
# Convention : Reuss Voigt Hill
#
# Bulk Modulus (GPa) = 33.44454 41.58433 37.51443
# Shear Modulus (GPa) = 13.50920 -123.36046 -54.92563
#
# Velocity S-wave (km/s) = 2.45903 -7.43082 -4.95834
# Velocity P-wave (km/s) = 4.79922 7.41683 3.99856
#
# Compressibility (1/GPa) = 0.02990024
#
# Stress axis : x y z
#
# Youngs Moduli (GPa) = 75.75740 94.33461 99.38944
#
# Poissons Ratio (x) = -0.05751 0.19148
# Poissons Ratio (y) = -0.04618 0.06599
# Poissons Ratio (z) = 0.14595 0.06264
#
# Static dielectric constant tensor:
#      x y z
#    x 1.829400 0.000000 0.022820 
#    y 0.000000 1.944510 0.000000 
#    z 0.022820 0.000000 1.811960 
# 
# From -- ./inp_files/186521.got.cif
#   From: 2010.05.17/outbox.cif.g08.bks.cpg/sg12_94_cif.got.tgz:186521.got - 2010.06.03 13:09:07.
