data_PCOD9213340
_publ_section_title
;
Structure prediction by ZEFSAII (Michael W. Deem and Ramdas Pophale) SiO2 
 PCOD9213340
Probable space group: C 2/M
;
_chemical_formula_sum "Si O2"
_cell_formula_units_Z 64
_cell_length_a 30.867193
_cell_length_b 14.165152
_cell_length_c 10.014642
_cell_angle_alpha 90.000000
_cell_angle_beta 60.568572
_cell_angle_gamma 90.000000
_cell_volume 3813.679925
_symmetry_space_group_name_H-M "C 2/M"
_symmetry_group_IT_number 12
_symmetry_cell_setting 'monoclinic'
loop_
_space_group_symop_operation_xyz
x,y,z
-x,y,-z
-x,-y,-z
x,-y,z
1/2+x,1/2+y,z
1/2-x,1/2+y,-z
1/2-x,1/2-y,-z
1/2+x,1/2-y,z
loop_
_atom_site_type_symbol
_atom_site_label
_atom_site_fract_x
_atom_site_fract_y
_atom_site_fract_z
Si Si1 0.937370 0.221668 0.738384
Si Si2 0.133910 0.390621 0.464325
Si Si3 0.789839 0.763205 0.555393
Si Si4 0.136844 0.111775 0.965088
Si Si5 0.054704 0.767715 0.585149
Si Si6 0.719628 0.764954 0.910988
Si Si7 0.878454 0.111663 0.324131
Si Si8 0.864747 0.392336 0.855260
O O1 0.932421 0.201735 0.586969
O O2 0.910421 0.321316 0.806971
O O3 0.995351 0.231228 0.683945
O O4 0.907410 0.145303 0.870227
O O5 0.131222 0.500000 0.509191
O O6 0.176052 0.329786 0.474764
O O7 0.082069 0.333649 0.560457
O O8 0.146257 0.388156 0.287182
O O9 0.750000 0.750000 0.500000
O O10 0.759025 0.782410 0.735416
O O11 0.827466 0.846557 0.460792
O O12 0.185253 0.174247 0.927921
O O13 0.121826 0.131739 0.834098
O O14 0.146371 0.000000 0.963596
O O15 0.078429 0.836144 0.659035
O O16 0.750000 0.750000 0.000000
O O17 0.681480 0.850517 0.993515
O O18 0.881759 0.000000 0.337201
O O19 0.875790 0.500000 0.873430
#
# Coordination Sequence:
#
# PCOD9213340 Si02
#       8
#     8   8   8   8   8   8   8   8
#     4   9  19  36  57  81 110 139 173 221 272 319
#     4   9  18  33  55  80 106 139 178 215 259 317
#     4  11  21  36  55  78 108 144 178 218 265 310
#     4  10  22  38  56  79 107 142 182 220 263 319
#     4   9  19  36  57  82 109 138 174 222 272 315
#     4  11  21  36  55  80 110 142 178 218 266 315
#     4  10  22  38  55  79 108 141 183 222 261 317
#     4   9  18  33  54  81 108 137 176 219 260 312
#
# _framework density 16.781692
#
# number of rings (size 3 to 8) (size 9 to 14) (size 15 to 20)
#    0.000    2.250    2.500    0.000    1.750    4.000 
#    0.000    5.000    0.000    0.000    0.000    3.500 
#    0.000    0.000    0.000    0.000    0.000    0.000 
#
# Total GULP energy -178440.603585 kJ/mol
# GULP energy per Si atom -5576.268862 kJ/mol
# Density = 1.674350 g / cm^3
# Si number density = 16.781692 Si / 1000 Ang^3
#
#
#
# Elastic Constant Matrix: (Units=GPa)
#
#
# Indices 1 2 3 4 5 6 
#
# 1 103.7949 40.0751 39.7340 0.0000 10.5015 0.0000
# 2 40.0751 101.5425 37.6924 0.0000 11.7184 0.0000
# 3 39.7340 37.6924 91.8240 0.0000 0.9795 0.0000
# 4 0.0000 0.0000 0.0000 19.1889 0.0000 7.9910
# 5 10.5015 11.7184 0.9795 0.0000 22.7780 0.0000
# 6 0.0000 0.0000 0.0000 7.9910 0.0000 10.4028
#
#
#
# Elastic Compliance Matrix: (Units=1/GPa)
#
#
# Indices 1 2 3 4 5 6 
#
# 1 0.012859 -0.002998 -0.004289 0.000000 -0.004202 0.000000
# 2 -0.002998 0.013130 -0.004037 0.000000 -0.005199 0.000000
# 3 -0.004289 -0.004037 0.014367 0.000000 0.003436 0.000000
# 4 0.000000 0.000000 0.000000 0.076625 0.000000 -0.058861
# 5 -0.004202 -0.005199 0.003436 0.000000 0.048366 0.000000
# 6 0.000000 0.000000 0.000000 -0.058861 0.000000 0.141343
#
#
# Mechanical properties :
#
#
# Convention : Reuss Voigt Hill
#
# Bulk Modulus (GPa) = 56.47183 59.12938 57.80061
# Shear Modulus (GPa) = 14.91469 22.45126 18.68298
#
# Velocity S-wave (km/s) = 2.98442 3.66162 3.34023
# Velocity P-wave (km/s) = 6.75275 7.29298 7.02806
#
# Compressibility (1/GPa) = 0.01770794
#
# Stress axis : x y z
#
# Youngs Moduli (GPa) = 77.76759 76.16304 69.60575
#
# Poissons Ratio (x) = 0.22834 0.29852
# Poissons Ratio (y) = 0.23315 0.28098
# Poissons Ratio (z) = 0.33353 0.30745
#
# Static dielectric constant tensor:
#      x y z
#    x 1.552450 0.000000 0.002700 
#    y 0.000000 1.545630 0.000000 
#    z 0.002700 0.000000 1.534500 
# 
# From -- ./inp_files/111607.got.cif
#   From: 2010.05.17/outbox.cif.g08.bks.cpg/sg12_56_cif.got.tgz:111607.got - 2010.06.03 13:09:07.
