data_PCOD9213744
_publ_section_title
;
Structure prediction by ZEFSAII (Michael W. Deem and Ramdas Pophale) SiO2 
 PCOD9213744
Probable space group: C 2/M
;
_chemical_formula_sum "Si O2"
_cell_formula_units_Z 48
_cell_length_a 19.351478
_cell_length_b 18.244693
_cell_length_c 14.384667
_cell_angle_alpha 90.000000
_cell_angle_beta 156.144527
_cell_angle_gamma 90.000000
_cell_volume 2053.973830
_symmetry_space_group_name_H-M "C 2/M"
_symmetry_group_IT_number 12
_symmetry_cell_setting 'monoclinic'
loop_
_space_group_symop_operation_xyz
x,y,z
-x,y,-z
-x,-y,-z
x,-y,z
1/2+x,1/2+y,z
1/2-x,1/2+y,-z
1/2-x,1/2-y,-z
1/2+x,1/2-y,z
loop_
_atom_site_type_symbol
_atom_site_label
_atom_site_fract_x
_atom_site_fract_y
_atom_site_fract_z
Si Si1 0.117130 0.626411 0.070569
Si Si2 0.550224 0.919925 0.793250
Si Si3 0.424648 0.332159 0.578802
Si Si4 0.373793 0.209019 0.258364
Si Si5 0.354106 0.419245 0.667427
Si Si6 0.480258 0.273503 0.827756
O O1 0.288382 0.652249 0.331814
O O2 0.997120 0.696522 0.897660
O O3 0.000000 0.583296 0.000000
O O4 0.149564 0.588084 0.012845
O O5 0.590850 0.854040 0.773772
O O6 0.350928 0.918774 0.578956
O O7 0.585156 0.000000 0.793961
O O8 0.500000 0.196316 0.500000
O O9 0.583216 0.290775 0.726777
O O10 0.424569 0.401757 0.648989
O O11 0.617155 0.271792 0.392044
O O12 0.177702 0.207799 0.046622
O O13 0.413029 0.500000 0.769473
O O14 0.411138 0.346263 0.792319
#
# Coordination Sequence:
#
# PCOD9213744 Si02
#       6
#     8   8   8   8   8   8
#     4  12  22  37  68 101 123 161 211 261 318 377
#     4  11  25  43  63  93 134 168 205 259 315 376
#     4  10  22  38  67  95 125 164 209 261 317 369
#     4  12  24  42  66  94 124 169 214 261 311 370
#     4   9  21  41  65  91 127 166 204 255 315 374
#     4  10  23  39  65  90 133 161 210 261 310 365
#
# _framework density 23.369333000000001
#
# number of rings (size 3 to 8) (size 9 to 14) (size 15 to 20)
#    1.000    0.333    5.000    0.500    2.333    4.000 
#    0.000    0.000    0.000    4.000    0.000    0.000 
#    0.000    0.000    0.000    0.000    0.000    0.000 
#
# Total GULP energy -133858.431714 kJ/mol
# GULP energy per Si atom -5577.434655 kJ/mol
# Density = 2.331614 g / cm^3
# Si number density = 23.369333 Si / 1000 Ang^3
#
#
#
# Elastic Constant Matrix: (Units=GPa)
#
#
# Indices 1 2 3 4 5 6 
#
# 1 72.1128 19.7378 12.8274 0.0000 -10.7348 0.0000
# 2 19.7378 133.2082 16.8774 0.0000 10.9659 0.0000
# 3 12.8274 16.8774 72.6999 0.0000 -9.0342 0.0000
# 4 0.0000 0.0000 0.0000 12.5856 0.0000 7.6789
# 5 -10.7348 10.9659 -9.0342 0.0000 41.3977 0.0000
# 6 0.0000 0.0000 0.0000 7.6789 0.0000 12.3727
#
#
#
# Elastic Compliance Matrix: (Units=1/GPa)
#
#
# Indices 1 2 3 4 5 6 
#
# 1 0.015465 -0.002439 -0.001628 0.000000 0.004301 0.000000
# 2 -0.002439 0.008381 -0.001922 0.000000 -0.003272 0.000000
# 3 -0.001628 -0.001922 0.014904 0.000000 0.003339 0.000000
# 4 0.000000 0.000000 0.000000 0.127880 0.000000 -0.079367
# 5 0.004301 -0.003272 0.003339 0.000000 0.026867 0.000000
# 6 0.000000 0.000000 0.000000 -0.079367 0.000000 0.130081
#
#
# Mechanical properties :
#
#
# Convention : Reuss Voigt Hill
#
# Bulk Modulus (GPa) = 37.35334 41.87844 39.61589
# Shear Modulus (GPa) = 14.51465 28.50976 21.51221
#
# Velocity S-wave (km/s) = 2.49489 3.49659 3.03732
# Velocity P-wave (km/s) = 4.93132 5.85326 5.41196
#
# Compressibility (1/GPa) = 0.02677136
#
# Stress axis : x y z
#
# Youngs Moduli (GPa) = 64.66371 119.31256 67.09799
#
# Poissons Ratio (x) = 0.29103 0.10923
# Poissons Ratio (y) = 0.15773 0.12896
# Poissons Ratio (z) = 0.10527 0.22931
#
# Static dielectric constant tensor:
#      x y z
#    x 1.942210 0.000000 -0.005240 
#    y 0.000000 1.876530 0.000000 
#    z -0.005240 0.000000 1.894570 
# 
# From -- ./inp_files/61754.got.cif
#   From: 2010.05.17/outbox.cif.g08.bks.cpg/sg12_31_cif.got.tgz:61754.got - 2010.06.03 13:09:07.
