data_PCOD9213208
_publ_section_title
;
Structure prediction by ZEFSAII (Michael W. Deem and Ramdas Pophale) SiO2 
 PCOD9213208
Probable space group: C 2/M
;
_chemical_formula_sum "Si O2"
_cell_formula_units_Z 44
_cell_length_a 20.759499
_cell_length_b 21.101369
_cell_length_c 15.923112
_cell_angle_alpha 90.000000
_cell_angle_beta 161.725328
_cell_angle_gamma 90.000000
_cell_volume 2187.226356
_symmetry_space_group_name_H-M "C 2/M"
_symmetry_group_IT_number 12
_symmetry_cell_setting 'monoclinic'
loop_
_space_group_symop_operation_xyz
x,y,z
-x,y,-z
-x,-y,-z
x,-y,z
1/2+x,1/2+y,z
1/2-x,1/2+y,-z
1/2-x,1/2-y,-z
1/2+x,1/2-y,z
loop_
_atom_site_type_symbol
_atom_site_label
_atom_site_fract_x
_atom_site_fract_y
_atom_site_fract_z
Si Si1 0.704344 0.000000 0.143377
Si Si2 0.722167 0.131488 0.072649
Si Si3 0.288924 0.500000 0.446576
Si Si4 0.380090 0.689387 0.927588
Si Si5 0.849654 0.699159 0.683651
Si Si6 0.970607 0.125735 0.219939
Si Si7 0.000000 0.759451 0.500000
O O1 0.453892 0.000000 0.832718
O O2 0.770444 0.065206 0.179353
O O3 0.215882 0.000000 0.661747
O O4 0.854896 0.191988 0.269005
O O5 0.779322 0.124746 0.045993
O O6 0.486802 0.148483 0.803329
O O7 0.415093 0.558968 0.638816
O O8 0.144907 0.711527 0.626246
O O9 0.500000 0.655261 0.000000
O O10 0.494956 0.756910 0.075460
O O11 0.411237 0.653017 0.054953
O O12 0.750000 0.750000 0.500000
O O13 0.656229 0.668155 0.489491
#
# Coordination Sequence:
#
# PCOD9213208 Si02
#       7
#     4   8   4   8   8   8   4
#     4  11  23  39  63  91 125 152 189 238 296 372
#     4  11  21  37  59  90 121 159 192 240 297 351
#     4  11  23  41  62  90 118 156 195 238 303 355
#     4  10  22  38  58  85 119 159 201 248 293 341
#     4   9  20  36  57  87 119 157 194 242 289 350
#     4  11  22  38  62  86 121 157 202 243 293 356
#     4  10  22  37  58  89 120 158 198 244 294 356
#
# _framework density 20.116802
#
# number of rings (size 3 to 8) (size 9 to 14) (size 15 to 20)
#    0.000    1.636    1.818    2.727    0.000   12.000 
#    0.000    0.455    0.000    0.545    0.000    0.000 
#    0.000    0.000    0.000    0.000    0.000    0.000 
#
# Total GULP energy -122558.583479 kJ/mol
# GULP energy per Si atom -5570.844704 kJ/mol
# Density = 2.007102 g / cm^3
# Si number density = 20.116802 Si / 1000 Ang^3
#
#
#
# Elastic Constant Matrix: (Units=GPa)
#
#
# Indices 1 2 3 4 5 6 
#
# 1 140.4279 43.9800 36.2875 0.0000 16.3037 0.0000
# 2 43.9800 100.1268 22.9091 0.0000 -5.8674 0.0000
# 3 36.2875 22.9091 70.0541 0.0004 14.2336 -0.0001
# 4 0.0000 0.0000 0.0004 26.0738 0.0002 2.6354
# 5 16.3037 -5.8674 14.2336 0.0002 16.1581 0.0000
# 6 0.0000 0.0000 -0.0001 2.6354 0.0000 17.9537
#
#
#
# Elastic Compliance Matrix: (Units=1/GPa)
#
#
# Indices 1 2 3 4 5 6 
#
# 1 0.010268 -0.004775 -0.001583 0.000000 -0.010700 0.000000
# 2 -0.004775 0.014084 -0.005055 0.000000 0.014386 0.000000
# 3 -0.001583 -0.005055 0.020458 0.000000 -0.018260 0.000000
# 4 0.000000 0.000000 0.000000 0.038930 0.000000 -0.005715
# 5 -0.010700 0.014386 -0.018260 0.000000 0.093993 0.000000
# 6 0.000000 0.000000 0.000000 -0.005715 0.000000 0.056538
#
#
# Mechanical properties :
#
#
# Convention : Reuss Voigt Hill
#
# Bulk Modulus (GPa) = 45.48923 57.44023 51.46473
# Shear Modulus (GPa) = 18.90891 25.86594 22.38742
#
# Velocity S-wave (km/s) = 3.06920 3.58968 3.33959
# Velocity P-wave (km/s) = 5.93478 6.76730 6.36467
#
# Compressibility (1/GPa) = 0.02198322
#
# Stress axis : x y z
#
# Youngs Moduli (GPa) = 97.39148 71.00093 48.88058
#
# Poissons Ratio (x) = 0.33902 0.07739
# Poissons Ratio (y) = 0.46503 0.24711
# Poissons Ratio (z) = 0.15420 0.35894
#
# Static dielectric constant tensor:
#      x y z
#    x 1.738240 0.000000 0.018740 
#    y 0.000000 1.711900 0.000000 
#    z 0.018740 0.000000 1.810940 
# 
# From -- ./inp_files/21549.got.cif
#   From: 2010.05.17/outbox.cif.g08.bks.cpg/sg12_11_cif.got.tgz:21549.got - 2010.06.03 13:09:07.
