data_PCOD9213661
_publ_section_title
;
Structure prediction by ZEFSAII (Michael W. Deem and Ramdas Pophale) SiO2 
 PCOD9213661
Probable space group: C 2/M
;
_chemical_formula_sum "Si O2"
_cell_formula_units_Z 48
_cell_length_a 11.577862
_cell_length_b 21.331591
_cell_length_c 11.752752
_cell_angle_alpha 90.000000
_cell_angle_beta 51.056317
_cell_angle_gamma 90.000000
_cell_volume 2257.559021
_symmetry_space_group_name_H-M "C 2/M"
_symmetry_group_IT_number 12
_symmetry_cell_setting 'monoclinic'
loop_
_space_group_symop_operation_xyz
x,y,z
-x,y,-z
-x,-y,-z
x,-y,z
1/2+x,1/2+y,z
1/2-x,1/2+y,-z
1/2-x,1/2-y,-z
1/2+x,1/2-y,z
loop_
_atom_site_type_symbol
_atom_site_label
_atom_site_fract_x
_atom_site_fract_y
_atom_site_fract_z
Si Si1 0.801543 0.755705 0.699364
Si Si2 0.867807 0.173869 0.008629
Si Si3 0.564334 0.703990 0.681778
Si Si4 0.170946 0.571109 0.013200
Si Si5 0.170084 0.395408 0.763857
Si Si6 0.102992 0.930621 0.548846
O O1 0.725523 0.717591 0.849652
O O2 0.724420 0.725526 0.633266
O O3 0.736150 0.825936 0.734087
O O4 0.974987 0.762975 0.632215
O O5 0.774380 0.118620 0.013834
O O6 0.000000 0.145033 0.000000
O O7 0.949617 0.211651 0.857668
O O8 0.575962 0.630351 0.642068
O O9 0.171011 0.500000 0.055143
O O10 0.006445 0.599801 0.125941
O O11 0.215819 0.570608 0.852349
O O12 0.235047 0.424628 0.608997
O O13 0.000000 0.925871 0.500000
O O14 0.082204 0.000000 0.612984
#
# Coordination Sequence:
#
# PCOD9213661 Si02
#       6
#     8   8   8   8   8   8
#     4  11  22  39  64  93 129 158 214 257 322 374
#     4  10  22  38  63  93 123 170 206 257 318 376
#     4  11  23  39  64  98 125 169 209 262 317 380
#     4  11  22  37  60  95 126 158 212 265 315 370
#     4  11  22  37  64  94 121 164 209 264 318 363
#     4  11  22  41  63  91 129 170 214 258 309 374
#
# _framework density 21.261901000000002
#
# number of rings (size 3 to 8) (size 9 to 14) (size 15 to 20)
#    0.000    1.167    3.333    3.500    7.000    3.000 
#    0.000    2.500    0.000    3.000    0.000   15.167 
#    0.000    0.000    0.000    0.000    0.000    0.000 
#
# Total GULP energy -133989.923494 kJ/mol
# GULP energy per Si atom -5582.913479 kJ/mol
# Density = 2.121351 g / cm^3
# Si number density = 21.261901 Si / 1000 Ang^3
#
#
#
# Elastic Constant Matrix: (Units=GPa)
#
#
# Indices 1 2 3 4 5 6 
#
# 1 144.1252 71.7490 31.8732 0.0000 5.5502 0.0000
# 2 71.7490 108.2037 6.3039 0.0000 -11.0943 0.0000
# 3 31.8732 6.3039 57.0066 0.0000 5.1092 0.0000
# 4 0.0000 0.0000 0.0000 35.9666 0.0000 -101.8141
# 5 5.5502 -11.0943 5.1092 0.0000 28.3682 0.0000
# 6 0.0000 0.0000 0.0000 -101.8141 0.0000 -16.6368
#
#
#
# Elastic Compliance Matrix: (Units=1/GPa)
#
#
# Indices 1 2 3 4 5 6 
#
# 1 0.012628 -0.008533 -0.005688 0.000000 -0.004783 0.000000
# 2 -0.008533 0.015509 0.002401 0.000000 0.007302 0.000000
# 3 -0.005688 0.002401 0.020605 0.000000 -0.001659 0.000000
# 4 0.000000 0.000000 0.000000 0.001517 0.000000 -0.009286
# 5 -0.004783 0.007302 -0.001659 0.000000 0.039341 0.000000
# 6 0.000000 0.000000 0.000000 -0.009286 0.000000 -0.003280
#
#
# Mechanical properties :
#
#
# Convention : Reuss Voigt Hill
#
# Bulk Modulus (GPa) = 39.83627 58.79864 49.31746
# Shear Modulus (GPa) = 42.25535 22.83354 32.54444
#
# Velocity S-wave (km/s) = 4.46283 3.28062 3.91659
# Velocity P-wave (km/s) = 6.73294 6.48571 6.61048
#
# Compressibility (1/GPa) = 0.02510275
#
# Stress axis : x y z
#
# Youngs Moduli (GPa) = 79.18609 64.48001 48.53085
#
# Poissons Ratio (x) = 0.55020 0.27607
# Poissons Ratio (y) = 0.67568 -0.11654
# Poissons Ratio (z) = 0.45045 -0.15484
#
# Static dielectric constant tensor:
#      x y z
#    x 1.782920 0.000000 -0.013460 
#    y 0.000000 1.745510 0.000000 
#    z -0.013460 0.000000 1.839360 
# 
# From -- ./inp_files/133733.got.cif
#   From: 2010.05.17/outbox.cif.g08.bks.cpg/sg12_67_cif.got.tgz:133733.got - 2010.06.03 13:09:07.
