data_PCOD9213064
_publ_section_title
;
Structure prediction by ZEFSAII (Michael W. Deem and Ramdas Pophale) SiO2 
 PCOD9213064
Probable space group: C 2/M
;
_chemical_formula_sum "Si O2"
_cell_formula_units_Z 56
_cell_length_a 19.048370
_cell_length_b 32.557994
_cell_length_c 7.885350
_cell_angle_alpha 90.000000
_cell_angle_beta 145.923885
_cell_angle_gamma 90.000000
_cell_volume 2740.010395
_symmetry_space_group_name_H-M "C 2/M"
_symmetry_group_IT_number 12
_symmetry_cell_setting 'monoclinic'
loop_
_space_group_symop_operation_xyz
x,y,z
-x,y,-z
-x,-y,-z
x,-y,z
1/2+x,1/2+y,z
1/2-x,1/2+y,-z
1/2-x,1/2-y,-z
1/2+x,1/2-y,z
loop_
_atom_site_type_symbol
_atom_site_label
_atom_site_fract_x
_atom_site_fract_y
_atom_site_fract_z
Si Si1 0.272804 0.411451 0.115190
Si Si2 0.765051 0.637567 0.288603
Si Si3 0.536263 0.865130 0.756399
Si Si4 0.436238 0.777770 0.053324
Si Si5 0.356336 0.589885 0.661681
Si Si6 0.145565 0.000000 0.740984
Si Si7 0.202041 0.733987 0.721843
Si Si8 0.852984 0.000000 0.660255
O O1 0.349856 0.405519 0.444399
O O2 0.290978 0.457331 0.081307
O O3 0.298957 0.382167 0.006988
O O4 0.134845 0.400204 0.909486
O O5 0.704224 0.625064 0.344176
O O6 0.776868 0.685786 0.274630
O O7 0.907203 0.620298 0.578714
O O8 0.500000 0.847134 0.500000
O O9 0.586505 0.826143 0.957765
O O10 0.551487 0.760448 0.400543
O O11 0.500000 0.773406 0.000000
O O12 0.301916 0.756614 0.800342
O O13 0.300944 0.544876 0.605307
O O14 0.500000 0.588914 0.000000
O O15 0.000000 0.000000 0.500000
O O16 0.153686 0.000000 0.555068
O O17 0.250000 0.750000 0.000000
O O18 0.000000 0.000000 0.000000
#
# Coordination Sequence:
#
# PCOD9213064 Si02
#       8
#     8   8   8   8   8   4   8   4
#     4  10  22  39  63  88 123 162 205 258 301 371
#     4  10  23  40  64  89 120 167 205 252 320 365
#     4   9  20  42  63  86 118 162 211 247 312 372
#     4  11  23  40  67  93 121 162 215 261 319 379
#     4  10  22  38  57  92 126 155 208 250 306 378
#     4  10  22  36  60  92 124 165 209 245 319 379
#     4  11  23  45  62  90 127 168 210 260 321 389
#     4   8  18  36  57  80 119 163 193 249 298 364
#
# _framework density 20.437878000000001
#
# number of rings (size 3 to 8) (size 9 to 14) (size 15 to 20)
#    0.000    2.000    0.000    3.429   10.000    0.571 
#   10.286    3.929    0.000    2.571    0.000    0.000 
#    0.000    0.000    0.000    0.000    0.000    0.000 
#
# Total GULP energy -156002.314510 kJ/mol
# GULP energy per Si atom -5571.511233 kJ/mol
# Density = 2.039136 g / cm^3
# Si number density = 20.437878 Si / 1000 Ang^3
#
#
#
# Elastic Constant Matrix: (Units=GPa)
#
#
# Indices 1 2 3 4 5 6 
#
# 1 60.9743 24.7329 3.9444 0.0000 12.8480 0.0000
# 2 24.7329 72.5747 24.0195 0.0000 7.7377 0.0000
# 3 3.9444 24.0195 61.7042 0.0000 -0.6588 0.0000
# 4 0.0000 0.0000 0.0000 22.7146 0.0000 8.5965
# 5 12.8480 7.7377 -0.6588 0.0000 32.1896 0.0000
# 6 0.0000 0.0000 0.0000 8.5965 0.0000 -6.6983
#
#
#
# Elastic Compliance Matrix: (Units=1/GPa)
#
#
# Indices 1 2 3 4 5 6 
#
# 1 0.020396 -0.006659 0.001219 0.000000 -0.006515 0.000000
# 2 -0.006659 0.018504 -0.006798 0.000000 -0.001929 0.000000
# 3 0.001219 -0.006798 0.018791 0.000000 0.001532 0.000000
# 4 0.000000 0.000000 0.000000 0.029632 0.000000 0.038030
# 5 -0.006515 -0.001929 0.001532 0.000000 0.034161 0.000000
# 6 0.000000 0.000000 0.000000 0.038030 0.000000 -0.100485
#
#
# Mechanical properties :
#
#
# Convention : Reuss Voigt Hill
#
# Bulk Modulus (GPa) = 30.10808 33.40520 31.75664
# Shear Modulus (GPa) = 88.42338 19.14494 53.78416
#
# Velocity S-wave (km/s) = 6.58471 3.06394 5.13547
# Velocity P-wave (km/s) = 8.51908 5.37561 7.12292
#
# Compressibility (1/GPa) = 0.03321368
#
# Stress axis : x y z
#
# Youngs Moduli (GPa) = 49.03036 54.04259 53.21704
#
# Poissons Ratio (x) = 0.35990 -0.06487
# Poissons Ratio (y) = 0.32652 0.36176
# Poissons Ratio (z) = -0.05977 0.36737
#
# Static dielectric constant tensor:
#      x y z
#    x 1.700510 0.000000 -0.050140 
#    y 0.000000 1.785980 0.000000 
#    z -0.050140 0.000000 1.784020 
# 
# From -- ./inp_files/91696.got.cif
#   From: 2010.05.17/outbox.cif.g08.bks.cpg/sg12_46_cif.got.tgz:91696.got - 2010.06.03 13:09:07.
