data_PCOD9213410
_publ_section_title
;
Structure prediction by ZEFSAII (Michael W. Deem and Ramdas Pophale) SiO2 
 PCOD9213410
Probable space group: C 2/M
;
_chemical_formula_sum "Si O2"
_cell_formula_units_Z 58
_cell_length_a 7.798815
_cell_length_b 17.952881
_cell_length_c 22.143124
_cell_angle_alpha 90.000000
_cell_angle_beta 98.521088
_cell_angle_gamma 90.000000
_cell_volume 3066.062484
_symmetry_space_group_name_H-M "C 2/M"
_symmetry_group_IT_number 12
_symmetry_cell_setting 'monoclinic'
loop_
_space_group_symop_operation_xyz
x,y,z
-x,y,-z
-x,-y,-z
x,-y,z
1/2+x,1/2+y,z
1/2-x,1/2+y,-z
1/2-x,1/2-y,-z
1/2+x,1/2-y,z
loop_
_atom_site_type_symbol
_atom_site_label
_atom_site_fract_x
_atom_site_fract_y
_atom_site_fract_z
Si Si1 0.117894 0.847205 0.302645
Si Si2 0.614416 0.300223 0.065565
Si Si3 0.490557 0.140011 0.065821
Si Si4 0.037927 0.085929 0.169815
Si Si5 0.000000 0.500000 0.500000
Si Si6 0.790524 0.673923 0.695013
Si Si7 0.638801 0.919288 0.189071
Si Si8 0.454276 0.081604 0.373419
O O1 0.123139 0.883787 0.236130
O O2 0.182201 0.762097 0.304294
O O3 0.259552 0.889588 0.350674
O O4 0.915262 0.847344 0.313768
O O5 0.614429 0.212131 0.079815
O O6 0.805539 0.322571 0.058398
O O7 0.563898 0.354600 0.117787
O O8 0.500000 0.311986 0.000000
O O9 0.517048 0.089824 0.125138
O O10 0.500000 0.104268 0.000000
O O11 0.833407 0.083694 0.173412
O O12 0.092076 0.000000 0.159051
O O13 0.982879 0.563953 0.445338
O O14 0.875767 0.643377 0.761331
O O15 0.900473 0.635660 0.647232
O O16 0.613314 0.000000 0.216229
O O17 0.472176 0.000000 0.344232
#
# Coordination Sequence:
#
# PCOD9213410 Si02
#       8
#     8   8   8   8   2   8   8   8
#     4  11  22  39  67 101 133 174 219 276 328 381
#     4  11  22  37  57  78 109 155 206 262 326 387
#     4  11  22  37  57  78 109 155 206 262 326 387
#     4  10  22  38  57  87 121 158 207 262 323 386
#     4   8  24  48  70 104 140 182 210 268 322 384
#     4  11  22  39  67 101 133 174 219 276 328 381
#     4  10  22  38  57  87 121 158 207 262 323 386
#     4  10  22  44  70  96 139 171 217 263 324 381
#
# _framework density 18.916771000000001
#
# number of rings (size 3 to 8) (size 9 to 14) (size 15 to 20)
#    0.414    1.103    1.379    4.966    1.931    4.966 
#    0.000    2.069    0.000    0.000    0.000    0.000 
#    0.000    0.000    0.000    0.000    0.000    0.000 
#
# Total GULP energy -161499.931547 kJ/mol
# GULP energy per Si atom -5568.963157 kJ/mol
# Density = 1.887372 g / cm^3
# Si number density = 18.916771 Si / 1000 Ang^3
#
#
#
# Elastic Constant Matrix: (Units=GPa)
#
#
# Indices 1 2 3 4 5 6 
#
# 1 50.0967 0.5062 28.6604 0.0000 0.4426 0.0000
# 2 0.5062 82.0022 33.8027 0.0000 -2.5892 0.0000
# 3 28.6604 33.8027 119.1597 0.0000 -7.0437 0.0000
# 4 0.0000 0.0000 0.0000 67.9688 0.0000 15.5086
# 5 0.4426 -2.5892 -7.0437 0.0000 8.0699 0.0000
# 6 0.0000 0.0000 0.0000 15.5086 0.0000 22.3179
#
#
#
# Elastic Compliance Matrix: (Units=1/GPa)
#
#
# Indices 1 2 3 4 5 6 
#
# 1 0.023902 0.002464 -0.006831 0.000000 -0.006483 0.000000
# 2 0.002464 0.014072 -0.004561 0.000000 0.000399 0.000000
# 3 -0.006831 -0.004561 0.011877 0.000000 0.009278 0.000000
# 4 0.000000 0.000000 0.000000 0.017485 0.000000 -0.012150
# 5 -0.006483 0.000399 0.009278 0.000000 0.132499 0.000000
# 6 0.000000 0.000000 0.000000 -0.012150 0.000000 0.053250
#
#
# Mechanical properties :
#
#
# Convention : Reuss Voigt Hill
#
# Bulk Modulus (GPa) = 31.25503 41.91078 36.58290
# Shear Modulus (GPa) = 17.75522 32.22395 24.98959
#
# Velocity S-wave (km/s) = 3.06698 4.13178 3.63854
# Velocity P-wave (km/s) = 5.39445 6.70564 6.08546
#
# Compressibility (1/GPa) = 0.03199485
#
# Stress axis : x y z
#
# Youngs Moduli (GPa) = 41.83797 71.06173 84.19388
#
# Poissons Ratio (x) = -0.17507 0.57512
# Poissons Ratio (y) = -0.10307 0.38400
# Poissons Ratio (z) = 0.28579 0.32411
#
# Static dielectric constant tensor:
#      x y z
#    x 1.691440 0.000000 0.003800 
#    y 0.000000 1.697690 0.000000 
#    z 0.003800 0.000000 1.647480 
# 
# From -- ./inp_files/300859.got.cif
#   From: 2010.05.17/outbox.cif.g08.bks.cpg/sg12_151_cif.got.tgz:300859.got - 2010.06.03 13:09:07.
