data_PCOD9213537
_publ_section_title
;
Structure prediction by ZEFSAII (Michael W. Deem and Ramdas Pophale) SiO2 
 PCOD9213537
Probable space group: C 2/M
;
_chemical_formula_sum "Si O2"
_cell_formula_units_Z 32
_cell_length_a 9.245888
_cell_length_b 13.185694
_cell_length_c 19.151726
_cell_angle_alpha 90.000000
_cell_angle_beta 142.292360
_cell_angle_gamma 90.000000
_cell_volume 1428.072062
_symmetry_space_group_name_H-M "C 2/M"
_symmetry_group_IT_number 12
_symmetry_cell_setting 'monoclinic'
loop_
_space_group_symop_operation_xyz
x,y,z
-x,y,-z
-x,-y,-z
x,-y,z
1/2+x,1/2+y,z
1/2-x,1/2+y,-z
1/2-x,1/2-y,-z
1/2+x,1/2-y,z
loop_
_atom_site_type_symbol
_atom_site_label
_atom_site_fract_x
_atom_site_fract_y
_atom_site_fract_z
Si Si1 0.282583 0.821815 0.106820
Si Si2 0.758599 0.604947 0.950653
Si Si3 0.062418 0.118482 0.409088
Si Si4 0.857452 0.686721 0.647818
O O1 0.367887 0.708276 0.119235
O O2 0.400268 0.849426 0.224266
O O3 0.340442 0.888063 0.062027
O O4 0.000000 0.822218 0.000000
O O5 0.625538 0.500000 0.887929
O O6 0.000000 0.603491 0.000000
O O7 0.116876 0.195936 0.366809
O O8 0.274187 0.128676 0.546547
O O9 0.838757 0.163621 0.367384
O O10 0.024874 0.000000 0.376915
#
# Coordination Sequence:
#
# PCOD9213537 Si02
#       4
#     8   8   8   8
#     4  10  22  38  60  88 128 162 196 259 313 367
#     4   9  20  37  56  84 118 163 210 242 300 375
#     4  10  23  45  70  94 126 171 216 266 321 372
#     4  10  22  41  67  96 127 167 217 265 317 382
#
# _framework density 22.407834000000001
#
# number of rings (size 3 to 8) (size 9 to 14) (size 15 to 20)
#    0.000    2.250    0.000    1.500   10.500    3.500 
#    0.000   11.250    0.000    0.000    0.000    0.000 
#    0.000    0.000    0.000    0.000    0.000    0.000 
#
# Total GULP energy -89262.184581 kJ/mol
# GULP energy per Si atom -5578.886536 kJ/mol
# Density = 2.235683 g / cm^3
# Si number density = 22.407834 Si / 1000 Ang^3
#
#
#
# Elastic Constant Matrix: (Units=GPa)
#
#
# Indices 1 2 3 4 5 6 
#
# 1 80.7760 60.3280 36.5533 0.0000 -11.8032 0.0000
# 2 60.3280 142.9399 -12.0437 0.0000 8.4030 0.0000
# 3 36.5533 -12.0437 130.1705 0.0000 -5.2365 0.0000
# 4 0.0000 0.0000 0.0000 -0.9273 0.0000 -6.1054
# 5 -11.8032 8.4030 -5.2365 0.0000 16.4299 0.0000
# 6 0.0000 0.0000 0.0000 -6.1054 0.0000 47.4642
#
#
#
# Elastic Compliance Matrix: (Units=1/GPa)
#
#
# Indices 1 2 3 4 5 6 
#
# 1 0.033711 -0.016801 -0.009827 0.000001 0.029679 0.000000
# 2 -0.016801 0.015621 0.005426 -0.000001 -0.018330 0.000000
# 3 -0.009827 0.005426 0.010685 0.000000 -0.006429 0.000000
# 4 0.000001 -0.000001 0.000000 -0.583898 0.000002 -0.075108
# 5 0.029679 -0.018330 -0.006429 0.000002 0.089511 0.000000
# 6 0.000000 0.000000 0.000000 -0.075108 0.000000 0.011407
#
#
# Mechanical properties :
#
#
# Convention : Reuss Voigt Hill
#
# Bulk Modulus (GPa) = 56.77288 58.17351 57.47319
# Shear Modulus (GPa) = -13.34450 30.52996 8.59273
#
# Velocity S-wave (km/s) = -2.44299 3.69517 1.96036
# Velocity P-wave (km/s) = 4.17535 6.65006 5.55233
#
# Compressibility (1/GPa) = 0.01761404
#
# Stress axis : x y z
#
# Youngs Moduli (GPa) = 29.66375 64.01494 93.58803
#
# Poissons Ratio (x) = 1.07549 0.91969
# Poissons Ratio (y) = 0.49837 -0.50778
# Poissons Ratio (z) = 0.29151 -0.34733
#
# Static dielectric constant tensor:
#      x y z
#    x 1.772740 0.000000 0.041430 
#    y 0.000000 1.901850 0.000000 
#    z 0.041430 0.000000 1.838500 
# 
# From -- ./inp_files/117733.got.cif
#   From: 2010.05.17/outbox.cif.g08.bks.cpg/sg12_59_cif.got.tgz:117733.got - 2010.06.03 13:09:07.
