data_PCOD9213274
_publ_section_title
;
Structure prediction by ZEFSAII (Michael W. Deem and Ramdas Pophale) SiO2 
 PCOD9213274
Probable space group: C 2/M
;
_chemical_formula_sum "Si O2"
_cell_formula_units_Z 48
_cell_length_a 9.877851
_cell_length_b 17.417623
_cell_length_c 14.444765
_cell_angle_alpha 90.000000
_cell_angle_beta 110.680471
_cell_angle_gamma 90.000000
_cell_volume 2325.067426
_symmetry_space_group_name_H-M "C 2/M"
_symmetry_group_IT_number 12
_symmetry_cell_setting 'monoclinic'
loop_
_space_group_symop_operation_xyz
x,y,z
-x,y,-z
-x,-y,-z
x,-y,z
1/2+x,1/2+y,z
1/2-x,1/2+y,-z
1/2-x,1/2-y,-z
1/2+x,1/2-y,z
loop_
_atom_site_type_symbol
_atom_site_label
_atom_site_fract_x
_atom_site_fract_y
_atom_site_fract_z
Si Si1 0.493912 0.415940 0.862037
Si Si2 0.483835 0.618818 0.644470
Si Si3 0.006721 0.296396 0.391233
Si Si4 0.727392 0.825422 0.804233
Si Si5 0.984651 0.748366 0.100953
Si Si6 0.741047 0.584671 0.565631
O O1 0.543762 0.500000 0.903993
O O2 0.494688 0.411436 0.750681
O O3 0.148636 0.240154 0.177197
O O4 0.572128 0.337701 0.915370
O O5 0.479767 0.711034 0.645635
O O6 0.622051 0.594444 0.617120
O O7 0.345876 0.591960 0.551986
O O8 0.142280 0.348848 0.399309
O O9 0.000000 0.289676 0.500000
O O10 0.863577 0.332194 0.311273
O O11 0.826612 0.899092 0.848994
O O12 0.617492 0.800901 0.858272
O O13 0.000000 0.720128 0.000000
O O14 0.807349 0.500000 0.587463
#
# Coordination Sequence:
#
# PCOD9213274 Si02
#       6
#     8   8   8   8   8   8
#     4  10  22  37  62  90 121 155 196 256 310 359
#     4  11  21  37  60  84 124 165 212 245 301 362
#     4  12  23  36  62  90 122 164 209 246 300 363
#     4  10  23  39  64  93 126 157 209 251 303 364
#     4  10  22  41  68  93 120 161 207 256 306 366
#     4  11  24  37  57  86 125 166 209 255 300 353
#
# _framework density 20.644562000000001
#
# number of rings (size 3 to 8) (size 9 to 14) (size 15 to 20)
#    1.000    0.333    3.333    4.000    4.667    1.333 
#    0.000    0.000    0.000    1.500    0.000    0.000 
#    0.000    0.000    0.000    0.000    0.000    0.000 
#
# Total GULP energy -134011.300781 kJ/mol
# GULP energy per Si atom -5583.804199 kJ/mol
# Density = 2.059757 g / cm^3
# Si number density = 20.644562 Si / 1000 Ang^3
#
#
#
# Elastic Constant Matrix: (Units=GPa)
#
#
# Indices 1 2 3 4 5 6 
#
# 1 61.9103 -6.3360 14.5583 0.0000 -12.2061 0.0000
# 2 -6.3360 77.8657 -14.6801 0.0000 -13.7133 0.0000
# 3 14.5583 -14.6801 85.4276 0.0000 -24.1942 0.0000
# 4 0.0000 0.0000 0.0000 -8.7598 0.0000 17.2135
# 5 -12.2061 -13.7133 -24.1942 0.0000 31.0601 0.0000
# 6 0.0000 0.0000 0.0000 17.2135 0.0000 5.5450
#
#
#
# Elastic Compliance Matrix: (Units=1/GPa)
#
#
# Indices 1 2 3 4 5 6 
#
# 1 0.018121 0.002858 -0.000286 0.000000 0.008160 0.000000
# 2 0.002858 0.016541 0.006084 0.000000 0.013165 0.000000
# 3 -0.000286 0.006084 0.017358 0.000000 0.016095 0.000000
# 4 0.000000 0.000000 0.000000 -0.016078 0.000000 0.049912
# 5 0.008160 0.013165 0.016095 0.000000 0.053752 0.000000
# 6 0.000000 0.000000 0.000000 0.049912 0.000000 0.025400
#
#
# Mechanical properties :
#
#
# Convention : Reuss Voigt Hill
#
# Bulk Modulus (GPa) = 14.42351 23.58755 19.00553
# Shear Modulus (GPa) = 41.35897 21.01314 31.18605
#
# Velocity S-wave (km/s) = 4.48077 3.19384 3.89088
# Velocity P-wave (km/s) = 5.81133 5.00512 5.42322
#
# Compressibility (1/GPa) = 0.06933126
#
# Stress axis : x y z
#
# Youngs Moduli (GPa) = 55.18476 60.45687 57.60921
#
# Poissons Ratio (x) = -0.17277 0.01648
# Poissons Ratio (y) = -0.15770 -0.35049
# Poissons Ratio (z) = 0.01578 -0.36781
#
# Static dielectric constant tensor:
#      x y z
#    x 1.719410 0.000000 0.003720 
#    y 0.000000 1.746920 0.000000 
#    z 0.003720 0.000000 1.755930 
# 
# From -- ./inp_files/195977.got.cif
#   From: 2010.05.17/outbox.cif.g08.bks.cpg/sg12_98_cif.got.tgz:195977.got - 2010.06.03 13:09:07.
