data_PCOD9213517
_publ_section_title
;
Structure prediction by ZEFSAII (Michael W. Deem and Ramdas Pophale) SiO2 
 PCOD9213517
Probable space group: C 2/M
;
_chemical_formula_sum "Si O2"
_cell_formula_units_Z 56
_cell_length_a 24.353470
_cell_length_b 8.424030
_cell_length_c 16.060282
_cell_angle_alpha 90.000000
_cell_angle_beta 60.173228
_cell_angle_gamma 90.000000
_cell_volume 2858.380216
_symmetry_space_group_name_H-M "C 2/M"
_symmetry_group_IT_number 12
_symmetry_cell_setting 'monoclinic'
loop_
_space_group_symop_operation_xyz
x,y,z
-x,y,-z
-x,-y,-z
x,-y,z
1/2+x,1/2+y,z
1/2-x,1/2+y,-z
1/2-x,1/2-y,-z
1/2+x,1/2-y,z
loop_
_atom_site_type_symbol
_atom_site_label
_atom_site_fract_x
_atom_site_fract_y
_atom_site_fract_z
Si Si1 0.019720 0.805918 0.077197
Si Si2 0.211297 0.191091 0.151826
Si Si3 0.290397 0.810079 0.391256
Si Si4 0.566395 0.310164 0.703396
Si Si5 0.661414 0.691813 0.010716
Si Si6 0.821273 0.808160 0.643353
Si Si7 0.950298 0.310582 0.466999
O O1 0.091590 0.756595 0.039528
O O2 0.974550 0.752862 0.186676
O O3 0.018059 0.000000 0.078853
O O4 0.000000 0.753526 0.000000
O O5 0.178231 0.246161 0.091740
O O6 0.178453 0.245737 0.261160
O O7 0.209788 0.000000 0.153541
O O8 0.283817 0.245138 0.090555
O O9 0.250000 0.750000 0.500000
O O10 0.360698 0.740965 0.340548
O O11 0.246568 0.766301 0.345507
O O12 0.295371 0.000000 0.391060
O O13 0.563953 0.500000 0.704052
O O14 0.540345 0.252188 0.633767
O O15 0.663600 0.500000 0.007924
O O16 0.879764 0.737696 0.548665
O O17 0.826908 0.000000 0.635413
O O18 0.954827 0.500000 0.460875
O O19 0.000000 0.251687 0.500000
#
# Coordination Sequence:
#
# PCOD9213517 Si02
#       7
#     8   8   8   8   8   8   8
#     4   9  20  37  57  85 117 151 195 240 285 346
#     4   9  19  35  56  84 113 144 188 239 288 340
#     4  11  22  38  59  85 118 152 193 240 290 345
#     4  11  23  39  63  89 115 157 201 243 297 348
#     4   9  18  35  58  81 110 149 191 237 289 340
#     4  10  22  38  60  86 114 153 196 239 290 350
#     4  11  25  42  60  87 122 156 194 242 296 355
#
# _framework density 19.591515999999999
#
# number of rings (size 3 to 8) (size 9 to 14) (size 15 to 20)
#    0.000    2.000    1.429    1.286    4.000    2.286 
#    0.000    1.429    0.000    2.143    0.000    0.000 
#    0.000    0.000    0.000    0.000    0.000    0.000 
#
# Total GULP energy -156343.924988 kJ/mol
# GULP energy per Si atom -5583.711607 kJ/mol
# Density = 1.954692 g / cm^3
# Si number density = 19.591516 Si / 1000 Ang^3
#
#
#
# Elastic Constant Matrix: (Units=GPa)
#
#
# Indices 1 2 3 4 5 6 
#
# 1 134.4405 17.7922 62.3258 0.0000 -1.1203 0.0000
# 2 17.7922 16.3699 15.0765 0.0000 7.2408 -0.0001
# 3 62.3258 15.0765 148.8363 0.0000 10.3108 0.0000
# 4 0.0000 0.0000 0.0000 18.8186 0.0000 -0.7360
# 5 -1.1203 7.2408 10.3108 0.0000 23.3598 0.0000
# 6 0.0000 -0.0001 0.0000 -0.7360 0.0000 23.5333
#
#
#
# Elastic Compliance Matrix: (Units=1/GPa)
#
#
# Indices 1 2 3 4 5 6 
#
# 1 0.010610 -0.010465 -0.003758 0.000000 0.005411 0.000000
# 2 -0.010465 0.086383 -0.002557 0.000000 -0.026149 0.000000
# 3 -0.003758 -0.002557 0.008777 0.000000 -0.003262 0.000000
# 4 0.000000 0.000000 0.000000 0.053204 0.000000 0.001664
# 5 0.005411 -0.026149 -0.003262 0.000000 0.052613 0.000000
# 6 0.000000 0.000000 0.000000 0.001664 0.000000 0.042545
#
#
# Mechanical properties :
#
#
# Convention : Reuss Voigt Hill
#
# Bulk Modulus (GPa) = 13.84812 54.44842 34.14827
# Shear Modulus (GPa) = 16.03786 26.77248 21.40517
#
# Velocity S-wave (km/s) = 2.86424 3.70068 3.30900
# Velocity P-wave (km/s) = 4.24527 6.79059 5.66279
#
# Compressibility (1/GPa) = 0.07221195
#
# Stress axis : x y z
#
# Youngs Moduli (GPa) = 94.24672 11.57639 113.92870
#
# Poissons Ratio (x) = 0.12114 0.42814
# Poissons Ratio (y) = 0.98627 0.29126
# Poissons Ratio (z) = 0.35418 0.02960
#
# Static dielectric constant tensor:
#      x y z
#    x 1.684320 0.000000 0.031740 
#    y 0.000000 1.680190 0.000000 
#    z 0.031740 0.000000 1.667110 
# 
# From -- ./inp_files/238326.got.cif
#   From: 2010.05.17/outbox.cif.g08.bks.cpg/sg12_120_cif.got.tgz:238326.got - 2010.06.03 13:09:07.
