data_PCOD9213776
_publ_section_title
;
Structure prediction by ZEFSAII (Michael W. Deem and Ramdas Pophale) SiO2 
 PCOD9213776
Probable space group: C 2/M
;
_chemical_formula_sum "Si O2"
_cell_formula_units_Z 64
_cell_length_a 24.237413
_cell_length_b 7.512230
_cell_length_c 14.399073
_cell_angle_alpha 90.000000
_cell_angle_beta 94.058333
_cell_angle_gamma 90.000000
_cell_volume 2615.166341
_symmetry_space_group_name_H-M "C 2/M"
_symmetry_group_IT_number 12
_symmetry_cell_setting 'monoclinic'
loop_
_space_group_symop_operation_xyz
x,y,z
-x,y,-z
-x,-y,-z
x,-y,z
1/2+x,1/2+y,z
1/2-x,1/2+y,-z
1/2-x,1/2-y,-z
1/2+x,1/2-y,z
loop_
_atom_site_type_symbol
_atom_site_label
_atom_site_fract_x
_atom_site_fract_y
_atom_site_fract_z
Si Si1 0.053520 0.709778 0.691551
Si Si2 0.644022 0.213164 0.843594
Si Si3 0.613111 0.797266 0.531627
Si Si4 0.880794 0.784549 0.945208
Si Si5 0.652823 0.782311 0.335582
Si Si6 0.549681 0.299396 0.201766
Si Si7 0.229843 0.211289 0.603186
Si Si8 0.262051 0.712821 0.892642
O O1 0.064924 0.500000 0.682866
O O2 0.098684 0.785741 0.768014
O O3 0.065228 0.783845 0.590032
O O4 0.994421 0.720463 0.732932
O O5 0.706588 0.283456 0.837015
O O6 0.647053 0.000000 0.833203
O O7 0.623989 0.243994 0.946770
O O8 0.631379 0.720169 0.435005
O O9 0.669239 0.795322 0.601054
O O10 0.597722 0.000000 0.506543
O O11 0.934778 0.718328 0.896514
O O12 0.824081 0.715531 0.889893
O O13 0.881019 0.000000 0.937370
O O14 0.608674 0.706266 0.259847
O O15 0.717046 0.727079 0.330892
O O16 0.652368 0.000000 0.332869
O O17 0.530151 0.500000 0.184168
O O18 0.250000 0.250000 0.500000
O O19 0.223661 0.000000 0.613600
O O20 0.264133 0.500000 0.879174
O O21 0.250000 0.750000 0.000000
#
# Coordination Sequence:
#
# PCOD9213776 Si02
#       8
#     8   8   8   8   8   8   8   8
#     4  10  22  39  56  76 105 142 183 225 268 317
#     4   9  18  33  56  82 104 133 173 214 260 318
#     4   9  19  36  58  82 109 143 178 216 268 323
#     4   9  19  35  54  77 107 139 168 210 269 320
#     4   9  19  36  56  79 108 141 175 214 264 319
#     4  11  24  38  53  76 104 140 186 229 268 313
#     4   9  17  31  54  84 114 142 174 214 264 321
#     4   8  14  28  50  76 103 128 161 204 252 311
#
# _framework density 24.472629999999999
#
# number of rings (size 3 to 8) (size 9 to 14) (size 15 to 20)
#    0.000    2.750    0.000    1.500    0.000    6.500 
#    0.000    7.500    0.000    6.000    0.000    0.000 
#    0.000    0.000    0.000    0.000    0.000    0.000 
#
# Total GULP energy -178587.936979 kJ/mol
# GULP energy per Si atom -5580.873031 kJ/mol
# Density = 2.441693 g / cm^3
# Si number density = 24.472630 Si / 1000 Ang^3
#
#
#
# Elastic Constant Matrix: (Units=GPa)
#
#
# Indices 1 2 3 4 5 6 
#
# 1 59.3780 -8.0184 32.9220 0.0000 -39.3546 0.0000
# 2 -8.0184 80.1663 -5.6833 0.0000 -5.7772 0.0000
# 3 32.9220 -5.6833 71.2336 0.0000 -30.5869 0.0000
# 4 0.0000 0.0000 0.0000 4.5010 0.0000 8.8406
# 5 -39.3546 -5.7772 -30.5869 0.0000 48.9061 0.0000
# 6 0.0000 0.0000 0.0000 8.8406 0.0000 11.5499
#
#
#
# Elastic Compliance Matrix: (Units=1/GPa)
#
#
# Indices 1 2 3 4 5 6 
#
# 1 0.040360 0.005800 -0.005401 0.000000 0.029785 0.000000
# 2 0.005800 0.013683 0.001516 0.000000 0.007232 0.000000
# 3 -0.005401 0.001516 0.020324 0.000000 0.008544 0.000000
# 4 0.000000 0.000000 0.000000 -0.441334 0.000000 0.337809
# 5 0.029785 0.007232 0.008544 0.000000 0.050613 0.000000
# 6 0.000000 0.000000 0.000000 0.337809 0.000000 -0.171988
#
#
# Mechanical properties :
#
#
# Convention : Reuss Voigt Hill
#
# Bulk Modulus (GPa) = 12.78800 27.69095 20.23947
# Shear Modulus (GPa) = -10.72715 25.76191 7.51738
#
# Velocity S-wave (km/s) = -2.09591 3.24803 1.75454
# Velocity P-wave (km/s) = 0.78762 5.04042 3.52034
#
# Compressibility (1/GPa) = 0.07819833
#
# Stress axis : x y z
#
# Youngs Moduli (GPa) = 24.77715 73.08371 49.20229
#
# Poissons Ratio (x) = -0.42391 0.26575
# Poissons Ratio (y) = -0.14372 -0.07461
# Poissons Ratio (z) = 0.13382 -0.11082
#
# Static dielectric constant tensor:
#      x y z
#    x 1.960170 0.000000 -0.015560 
#    y 0.000000 1.905250 0.000000 
#    z -0.015560 0.000000 1.983350 
# 
# From -- ./inp_files/238777.got.cif
#   From: 2010.05.17/outbox.cif.g08.bks.cpg/sg12_120_cif.got.tgz:238777.got - 2010.06.03 13:09:07.
