data_PCOD9213492
_publ_section_title
;
Structure prediction by ZEFSAII (Michael W. Deem and Ramdas Pophale) SiO2 
 PCOD9213492
Probable space group: C 2/M
;
_chemical_formula_sum "Si O2"
_cell_formula_units_Z 32
_cell_length_a 22.618982
_cell_length_b 13.495620
_cell_length_c 7.872238
_cell_angle_alpha 90.000000
_cell_angle_beta 33.389444
_cell_angle_gamma 90.000000
_cell_volume 1322.467080
_symmetry_space_group_name_H-M "C 2/M"
_symmetry_group_IT_number 12
_symmetry_cell_setting 'monoclinic'
loop_
_space_group_symop_operation_xyz
x,y,z
-x,y,-z
-x,-y,-z
x,-y,z
1/2+x,1/2+y,z
1/2-x,1/2+y,-z
1/2-x,1/2-y,-z
1/2+x,1/2-y,z
loop_
_atom_site_type_symbol
_atom_site_label
_atom_site_fract_x
_atom_site_fract_y
_atom_site_fract_z
Si Si1 0.881825 0.610229 0.366229
Si Si2 0.664356 0.680369 0.370107
Si Si3 0.648075 0.390435 0.772253
Si Si4 0.394041 0.747834 0.825347
O O1 0.874750 0.500000 0.461068
O O2 0.864672 0.704374 0.525770
O O3 0.778038 0.617405 0.489394
O O4 0.000000 0.617465 0.000000
O O5 0.623248 0.623388 0.633255
O O6 0.628174 0.662342 0.264730
O O7 0.793158 0.679947 0.067911
O O8 0.615648 0.500000 0.905560
O O9 0.598257 0.305971 0.011716
O O10 0.500000 0.798128 0.500000
#
# Coordination Sequence:
#
# PCOD9213492 Si02
#       4
#     8   8   8   8
#     4   9  18  33  60  90 116 151 197 250 301 348
#     4  10  22  38  62  90 116 166 200 242 300 362
#     4  10  22  40  60  88 124 160 203 246 292 358
#     4  10  22  38  59  88 120 158 199 252 298 349
#
# _framework density 24.197199000000001
#
# number of rings (size 3 to 8) (size 9 to 14) (size 15 to 20)
#    0.000    2.250    0.000    3.000    7.000    1.500 
#    0.000    5.000    0.000    3.000    0.000    0.000 
#    0.000    0.000    0.000    0.000    0.000    0.000 
#
# Total GULP energy -89367.446988 kJ/mol
# GULP energy per Si atom -5585.465437 kJ/mol
# Density = 2.414212 g / cm^3
# Si number density = 24.197199 Si / 1000 Ang^3
#
#
#
# Elastic Constant Matrix: (Units=GPa)
#
#
# Indices 1 2 3 4 5 6 
#
# 1 88.1952 -4.5163 -5.8229 0.0000 14.4460 0.0000
# 2 -4.5163 69.7827 12.3148 0.0000 -2.8657 0.0000
# 3 -5.8229 12.3148 114.4363 0.0000 -11.3859 0.0000
# 4 0.0000 0.0000 0.0000 9.9351 0.0000 -1.0669
# 5 14.4460 -2.8657 -11.3859 0.0000 41.7686 0.0000
# 6 0.0000 0.0000 0.0000 -1.0669 0.0000 13.3347
#
#
#
# Elastic Compliance Matrix: (Units=1/GPa)
#
#
# Indices 1 2 3 4 5 6 
#
# 1 0.012047 0.000587 0.000143 0.000000 -0.004087 0.000000
# 2 0.000587 0.014650 -0.001508 0.000000 0.000391 0.000000
# 3 0.000143 -0.001508 0.009141 0.000000 0.002339 0.000000
# 4 0.000000 0.000000 0.000000 0.101525 0.000000 0.008123
# 5 -0.004087 0.000391 0.002339 0.000000 0.026019 0.000000
# 6 0.000000 0.000000 0.000000 0.008123 0.000000 0.075642
#
#
# Mechanical properties :
#
#
# Convention : Reuss Voigt Hill
#
# Bulk Modulus (GPa) = 29.16936 30.70724 29.93830
# Shear Modulus (GPa) = 19.84058 31.03694 25.43876
#
# Velocity S-wave (km/s) = 2.86659 3.58532 3.24591
# Velocity P-wave (km/s) = 4.79974 5.46418 5.14270
#
# Compressibility (1/GPa) = 0.03428255
#
# Stress axis : x y z
#
# Youngs Moduli (GPa) = 83.00491 68.25796 109.40050
#
# Poissons Ratio (x) = -0.04004 -0.01567
# Poissons Ratio (y) = -0.04869 0.16495
# Poissons Ratio (z) = -0.01189 0.10292
#
# Static dielectric constant tensor:
#      x y z
#    x 2.067620 0.000000 -0.060360 
#    y 0.000000 1.846510 0.000000 
#    z -0.060360 0.000000 1.974420 
# 
# From -- ./inp_files/57710.got.cif
#   From: 2010.05.17/outbox.cif.g08.bks.cpg/sg12_29_cif.got.tgz:57710.got - 2010.06.03 13:09:07.
