data_PCOD9213198
_publ_section_title
;
Structure prediction by ZEFSAII (Michael W. Deem and Ramdas Pophale) SiO2 
 PCOD9213198
Probable space group: C 2/M
;
_chemical_formula_sum "Si O2"
_cell_formula_units_Z 64
_cell_length_a 18.789382
_cell_length_b 22.207170
_cell_length_c 10.017051
_cell_angle_alpha 90.000000
_cell_angle_beta 126.754781
_cell_angle_gamma 90.000000
_cell_volume 3348.795625
_symmetry_space_group_name_H-M "C 2/M"
_symmetry_group_IT_number 12
_symmetry_cell_setting 'monoclinic'
loop_
_space_group_symop_operation_xyz
x,y,z
-x,y,-z
-x,-y,-z
x,-y,z
1/2+x,1/2+y,z
1/2-x,1/2+y,-z
1/2-x,1/2-y,-z
1/2+x,1/2-y,z
loop_
_atom_site_type_symbol
_atom_site_label
_atom_site_fract_x
_atom_site_fract_y
_atom_site_fract_z
Si Si1 0.289332 0.569355 0.386604
Si Si2 0.772424 0.429932 0.977178
Si Si3 0.337914 0.309315 0.787794
Si Si4 0.154821 0.261513 0.671486
Si Si5 0.901158 0.602349 0.339431
Si Si6 0.250352 0.565550 0.636018
Si Si7 0.632016 0.328372 0.882965
Si Si8 0.569343 0.327297 0.382142
O O1 0.322962 0.500000 0.415794
O O2 0.235158 0.581002 0.190335
O O3 0.231989 0.573043 0.457746
O O4 0.366934 0.618260 0.496685
O O5 0.749249 0.500000 0.975009
O O6 0.700644 0.383932 0.959103
O O7 0.866515 0.417964 0.154875
O O8 0.245954 0.271636 0.689886
O O9 0.311985 0.379721 0.747847
O O10 0.399405 0.302451 0.727797
O O11 0.376189 0.300729 0.978387
O O12 0.119765 0.326645 0.673635
O O13 0.167295 0.220270 0.815935
O O14 0.085559 0.227289 0.500826
O O15 0.836104 0.570350 0.371454
O O16 0.000000 0.590417 0.500000
O O17 0.292679 0.500000 0.701806
O O18 0.532599 0.347189 0.731662
#
# Coordination Sequence:
#
# PCOD9213198 Si02
#       8
#     8   8   8   8   8   8   8   8
#     4   9  20  38  58  83 118 158 195 234 290 354
#     4  11  23  39  61  88 117 153 195 241 299 357
#     4  10  22  37  58  84 118 159 199 238 290 347
#     4  11  22  40  59  83 117 160 199 239 292 344
#     4  11  23  39  61  88 116 149 201 252 294 346
#     4   9  18  36  59  82 113 153 193 240 294 348
#     4  12  22  37  59  89 123 155 193 245 292 348
#     4  11  22  37  59  88 121 157 201 239 284 346
#
# _framework density 19.111348
#
# number of rings (size 3 to 8) (size 9 to 14) (size 15 to 20)
#    0.000    1.500    3.750    2.625    0.000    1.500 
#    0.000    1.875    0.000    6.000    0.000    0.000 
#    0.000    0.000    0.000    0.000    0.000    0.000 
#
# Total GULP energy -178480.014792 kJ/mol
# GULP energy per Si atom -5577.500462 kJ/mol
# Density = 1.906785 g / cm^3
# Si number density = 19.111348 Si / 1000 Ang^3
#
#
#
# Elastic Constant Matrix: (Units=GPa)
#
#
# Indices 1 2 3 4 5 6 
#
# 1 46.0341 15.9005 25.9711 0.0000 -6.5253 0.0000
# 2 15.9005 64.7069 26.8841 0.0000 -9.7383 0.0000
# 3 25.9711 26.8841 101.5128 0.0000 -7.1038 0.0000
# 4 0.0000 0.0000 0.0000 21.2913 0.0000 -7.3337
# 5 -6.5253 -9.7383 -7.1038 0.0000 38.7371 0.0000
# 6 0.0000 0.0000 0.0000 -7.3337 0.0000 7.8186
#
#
#
# Elastic Compliance Matrix: (Units=1/GPa)
#
#
# Indices 1 2 3 4 5 6 
#
# 1 0.026560 -0.003822 -0.005609 0.000000 0.002485 0.000000
# 2 -0.003822 0.018416 -0.003667 0.000000 0.003313 0.000000
# 3 -0.005609 -0.003667 0.012284 0.000000 0.000386 0.000000
# 4 0.000000 0.000000 0.000000 0.069384 0.000000 0.065081
# 5 0.002485 0.003313 0.000386 0.000000 0.027137 0.000000
# 6 0.000000 0.000000 0.000000 0.065081 0.000000 0.188944
#
#
# Mechanical properties :
#
#
# Convention : Reuss Voigt Hill
#
# Bulk Modulus (GPa) = 32.19295 38.86279 35.52787
# Shear Modulus (GPa) = 13.18298 23.13594 18.15946
#
# Velocity S-wave (km/s) = 2.62925 3.48312 3.08586
# Velocity P-wave (km/s) = 5.10870 6.04610 5.59706
#
# Compressibility (1/GPa) = 0.03106270
#
# Stress axis : x y z
#
# Youngs Moduli (GPa) = 37.65078 54.30078 81.40511
#
# Poissons Ratio (x) = 0.20755 0.45660
# Poissons Ratio (y) = 0.14391 0.29855
# Poissons Ratio (z) = 0.21118 0.19914
#
# Static dielectric constant tensor:
#      x y z
#    x 1.668920 0.000000 -0.021760 
#    y 0.000000 1.675310 0.000000 
#    z -0.021760 0.000000 1.699430 
# 
# From -- ./inp_files/90711.got.cif
#   From: 2010.05.17/outbox.cif.g08.bks.cpg/sg12_46_cif.got.tgz:90711.got - 2010.06.03 13:09:07.
