data_PCOD9213389
_publ_section_title
;
Structure prediction by ZEFSAII (Michael W. Deem and Ramdas Pophale) SiO2 
 PCOD9213389
Probable space group: C 2/M
;
_chemical_formula_sum "Si O2"
_cell_formula_units_Z 56
_cell_length_a 24.563815
_cell_length_b 12.869303
_cell_length_c 12.140055
_cell_angle_alpha 90.000000
_cell_angle_beta 122.270520
_cell_angle_gamma 90.000000
_cell_volume 3244.919590
_symmetry_space_group_name_H-M "C 2/M"
_symmetry_group_IT_number 12
_symmetry_cell_setting 'monoclinic'
loop_
_space_group_symop_operation_xyz
x,y,z
-x,y,-z
-x,-y,-z
x,-y,z
1/2+x,1/2+y,z
1/2-x,1/2+y,-z
1/2-x,1/2-y,-z
1/2+x,1/2-y,z
loop_
_atom_site_type_symbol
_atom_site_label
_atom_site_fract_x
_atom_site_fract_y
_atom_site_fract_z
Si Si1 0.270162 0.122877 0.141723
Si Si2 0.309984 0.120380 0.648485
Si Si3 0.851503 0.734546 0.045366
Si Si4 0.798800 0.279220 0.404177
Si Si5 0.057176 0.118307 0.718283
Si Si6 0.589054 0.618160 0.493005
Si Si7 0.425782 0.123636 0.927207
O O1 0.316540 0.154722 0.090771
O O2 0.299636 0.162280 0.288957
O O3 0.259585 0.000000 0.132013
O O4 0.203897 0.185947 0.053515
O O5 0.263249 0.203395 0.656696
O O6 0.300254 0.142787 0.508799
O O7 0.382687 0.138178 0.770607
O O8 0.293672 0.000000 0.656677
O O9 0.903737 0.799799 0.169690
O O10 0.886593 0.678739 0.982327
O O11 0.859236 0.202839 0.483211
O O12 0.078515 0.123652 0.613496
O O13 0.980578 0.135670 0.636288
O O14 0.069857 0.000000 0.769506
O O15 0.609900 0.500000 0.489404
O O16 0.427575 0.000000 0.951303
O O17 0.500000 0.159746 0.000000
#
# Coordination Sequence:
#
# PCOD9213389 Si02
#       7
#     8   8   8   8   8   8   8
#     4  11  23  37  57  89 119 144 184 238 291 339
#     4  10  22  38  57  79 108 149 196 233 273 333
#     4  11  21  38  60  85 114 155 183 230 288 341
#     4  11  20  37  58  82 111 148 183 238 288 329
#     4   9  18  33  55  83 114 142 179 225 276 335
#     4   9  18  33  55  83 111 144 184 228 273 333
#     4  10  22  40  60  83 112 152 197 232 268 334
#
# _framework density 17.257746999999998
#
# number of rings (size 3 to 8) (size 9 to 14) (size 15 to 20)
#    0.000    1.857    2.857    2.571    2.000    0.000 
#    0.000    0.000    0.000    2.571    0.000    0.000 
#    0.000    0.000    0.000    0.000    0.000    0.000 
#
# Total GULP energy -156218.797252 kJ/mol
# GULP energy per Si atom -5579.242759 kJ/mol
# Density = 1.721847 g / cm^3
# Si number density = 17.257747 Si / 1000 Ang^3
#
#
#
# Elastic Constant Matrix: (Units=GPa)
#
#
# Indices 1 2 3 4 5 6 
#
# 1 80.4027 38.8038 27.8029 0.0000 2.7959 0.0000
# 2 38.8038 78.7590 35.0929 0.0000 1.9298 0.0000
# 3 27.8029 35.0929 72.4955 0.0000 1.4799 0.0000
# 4 0.0000 0.0000 0.0000 17.4280 0.0000 5.8374
# 5 2.7959 1.9298 1.4799 0.0000 20.5699 0.0000
# 6 0.0000 0.0000 0.0000 5.8374 0.0000 23.3176
#
#
#
# Elastic Compliance Matrix: (Units=1/GPa)
#
#
# Indices 1 2 3 4 5 6 
#
# 1 0.016893 -0.006903 -0.003108 0.000000 -0.001425 0.000000
# 2 -0.006903 0.019029 -0.006556 0.000000 -0.000375 0.000000
# 3 -0.003108 -0.006556 0.018165 0.000000 -0.000269 0.000000
# 4 0.000000 0.000000 0.000000 0.062630 0.000000 -0.015679
# 5 -0.001425 -0.000375 -0.000269 0.000000 0.048863 0.000000
# 6 0.000000 0.000000 0.000000 -0.015679 0.000000 0.046811
#
#
# Mechanical properties :
#
#
# Convention : Reuss Voigt Hill
#
# Bulk Modulus (GPa) = 47.72780 48.33960 48.03370
# Shear Modulus (GPa) = 19.80115 20.92694 20.36404
#
# Velocity S-wave (km/s) = 3.39097 3.48603 3.43883
# Velocity P-wave (km/s) = 6.56106 6.65390 6.60764
#
# Compressibility (1/GPa) = 0.02095215
#
# Stress axis : x y z
#
# Youngs Moduli (GPa) = 59.19464 52.55242 55.05108
#
# Poissons Ratio (x) = 0.36280 0.17110
# Poissons Ratio (y) = 0.40865 0.36091
# Poissons Ratio (z) = 0.18397 0.34453
#
# Static dielectric constant tensor:
#      x y z
#    x 1.577180 0.000000 0.003330 
#    y 0.000000 1.562250 0.000000 
#    z 0.003330 0.000000 1.577270 
# 
# From -- ./inp_files/165620.got.cif
#   From: 2010.05.17/outbox.cif.g08.bks.cpg/sg12_83_cif.got.tgz:165620.got - 2010.06.03 13:09:07.
