data_PCOD9213459
_publ_section_title
;
Structure prediction by ZEFSAII (Michael W. Deem and Ramdas Pophale) SiO2 
 PCOD9213459
Probable space group: C 2/M
;
_chemical_formula_sum "Si O2"
_cell_formula_units_Z 48
_cell_length_a 29.173824
_cell_length_b 14.907020
_cell_length_c 12.753152
_cell_angle_alpha 90.000000
_cell_angle_beta 25.572078
_cell_angle_gamma 90.000000
_cell_volume 2394.030381
_symmetry_space_group_name_H-M "C 2/M"
_symmetry_group_IT_number 12
_symmetry_cell_setting 'monoclinic'
loop_
_space_group_symop_operation_xyz
x,y,z
-x,y,-z
-x,-y,-z
x,-y,z
1/2+x,1/2+y,z
1/2-x,1/2+y,-z
1/2-x,1/2-y,-z
1/2+x,1/2-y,z
loop_
_atom_site_type_symbol
_atom_site_label
_atom_site_fract_x
_atom_site_fract_y
_atom_site_fract_z
Si Si1 0.683523 0.310685 0.556616
Si Si2 0.127827 0.345042 0.993489
Si Si3 0.221355 0.832918 0.133918
Si Si4 0.036398 0.191658 0.685500
Si Si5 0.575487 0.500000 0.078410
Si Si6 0.124406 0.000000 0.214639
Si Si7 0.191453 0.000000 0.629257
Si Si8 0.428500 0.000000 0.042447
O O1 0.750000 0.250000 0.500000
O O2 0.768888 0.330547 0.290737
O O3 0.584292 0.272340 0.697085
O O4 0.646882 0.405218 0.680848
O O5 0.178658 0.366570 0.001885
O O6 0.063301 0.416741 0.056041
O O7 0.060992 0.254758 0.142991
O O8 0.126031 0.806392 0.410542
O O9 0.178167 0.913246 0.152892
O O10 0.250000 0.750000 0.000000
O O11 0.996786 0.089275 0.780776
O O12 0.629586 0.500000 0.079542
O O13 0.666676 0.500000 0.802794
O O14 0.000000 0.000000 0.500000
O O15 0.310995 0.000000 0.337656
O O16 0.500000 0.000000 0.000000
#
# Coordination Sequence:
#
# PCOD9213459 Si02
#       8
#     8   8   8   8   4   4   4   4
#     4  10  22  38  58  88 127 167 207 261 322 389
#     4  10  23  40  63  91 124 173 221 260 332 403
#     4  11  24  43  68  98 135 173 223 287 342 397
#     4  11  23  40  65  95 132 170 221 272 333 403
#     4  12  23  39  67  99 124 162 221 281 337 393
#     4  12  23  44  74  94 130 178 226 278 344 397
#     4  10  23  39  60  91 129 158 220 270 326 381
#     4  10  23  44  65  86 131 184 217 268 330 406
#
# _framework density 20.049871
#
# number of rings (size 3 to 8) (size 9 to 14) (size 15 to 20)
#    0.000    1.333    1.667    3.000    4.667    6.667 
#    0.000    0.000    0.000    2.000    0.000    0.000 
#    0.000    0.000    0.000    0.000    0.000    0.000 
#
# Total GULP energy -133886.301824 kJ/mol
# GULP energy per Si atom -5578.595909 kJ/mol
# Density = 2.000424 g / cm^3
# Si number density = 20.049871 Si / 1000 Ang^3
#
#
#
# Elastic Constant Matrix: (Units=GPa)
#
#
# Indices 1 2 3 4 5 6 
#
# 1 184.1346 66.1737 37.2180 0.0000 -0.0737 0.0000
# 2 66.1737 122.5666 42.3758 0.0000 1.5698 0.0000
# 3 37.2180 42.3758 54.4298 0.0000 17.1521 0.0000
# 4 0.0000 0.0000 0.0000 25.2694 0.0000 0.2004
# 5 -0.0737 1.5698 17.1521 0.0000 34.1042 0.0000
# 6 0.0000 0.0000 0.0000 0.2004 0.0000 26.7322
#
#
#
# Elastic Compliance Matrix: (Units=1/GPa)
#
#
# Indices 1 2 3 4 5 6 
#
# 1 0.007068 -0.002699 -0.003299 0.000000 0.001799 0.000000
# 2 -0.002699 0.012832 -0.009455 0.000000 0.004159 0.000000
# 3 -0.003299 -0.009455 0.033100 0.000000 -0.016219 0.000000
# 4 0.000000 0.000000 0.000000 0.039576 0.000000 -0.000297
# 5 0.001799 0.004159 -0.016219 0.000000 0.037292 0.000000
# 6 0.000000 0.000000 0.000000 -0.000297 0.000000 0.037410
#
#
# Mechanical properties :
#
#
# Convention : Reuss Voigt Hill
#
# Bulk Modulus (GPa) = 45.25986 72.51844 58.88915
# Shear Modulus (GPa) = 24.32523 31.57871 27.95197
#
# Velocity S-wave (km/s) = 3.48693 3.97294 3.73785
# Velocity P-wave (km/s) = 6.23171 7.56923 6.93280
#
# Compressibility (1/GPa) = 0.02209463
#
# Stress axis : x y z
#
# Youngs Moduli (GPa) = 141.48043 77.93300 30.21124
#
# Poissons Ratio (x) = 0.21031 0.09966
# Poissons Ratio (y) = 0.38179 0.28565
# Poissons Ratio (z) = 0.46673 0.73687
#
# Static dielectric constant tensor:
#      x y z
#    x 1.750170 0.000000 -0.013270 
#    y 0.000000 1.815280 0.000000 
#    z -0.013270 0.000000 1.679420 
# 
# From -- ./inp_files/183724.got.cif
#   From: 2010.05.17/outbox.cif.g08.bks.cpg/sg12_92_cif.got.tgz:183724.got - 2010.06.03 13:09:07.
