data_PCOD9213891
_publ_section_title
;
Structure prediction by ZEFSAII (Michael W. Deem and Ramdas Pophale) SiO2 
 PCOD9213891
Probable space group: C 2/M
;
_chemical_formula_sum "Si O2"
_cell_formula_units_Z 64
_cell_length_a 33.166142
_cell_length_b 8.736622
_cell_length_c 15.481399
_cell_angle_alpha 90.000000
_cell_angle_beta 47.091418
_cell_angle_gamma 90.000000
_cell_volume 3285.650088
_symmetry_space_group_name_H-M "C 2/M"
_symmetry_group_IT_number 12
_symmetry_cell_setting 'monoclinic'
loop_
_space_group_symop_operation_xyz
x,y,z
-x,y,-z
-x,-y,-z
x,-y,z
1/2+x,1/2+y,z
1/2-x,1/2+y,-z
1/2-x,1/2-y,-z
1/2+x,1/2-y,z
loop_
_atom_site_type_symbol
_atom_site_label
_atom_site_fract_x
_atom_site_fract_y
_atom_site_fract_z
Si Si1 0.063877 0.815500 0.913848
Si Si2 0.279483 0.182406 0.540700
Si Si3 0.579134 0.184580 0.245959
Si Si4 0.124094 0.684307 0.993840
Si Si5 0.746277 0.184528 0.769226
Si Si6 0.602130 0.683754 0.668255
Si Si7 0.135578 0.183240 0.329814
Si Si8 0.454102 0.183332 0.407543
O O1 0.093332 0.749110 0.954909
O O2 0.092872 0.771535 0.781348
O O3 0.065388 0.000000 0.917389
O O4 0.000000 0.768458 0.000000
O O5 0.250000 0.250000 0.500000
O O6 0.249823 0.240769 0.669944
O O7 0.341434 0.245732 0.449113
O O8 0.279392 0.000000 0.537924
O O9 0.616429 0.260470 0.264302
O O10 0.514853 0.222468 0.353110
O O11 0.584543 0.000000 0.244390
O O12 0.596837 0.232221 0.123828
O O13 0.120777 0.500000 0.994532
O O14 0.188571 0.727510 0.896922
O O15 0.801731 0.229002 0.739225
O O16 0.747101 0.000000 0.758447
O O17 0.604356 0.500000 0.659896
O O18 0.554829 0.745799 0.674248
O O19 0.093304 0.253913 0.460819
O O20 0.132160 0.000000 0.340511
O O21 0.449917 0.000000 0.408259
#
# Coordination Sequence:
#
# PCOD9213891 Si02
#       8
#     8   8   8   8   8   8   8   8
#     4  10  22  39  59  87 123 160 199 247 300 355
#     4  12  24  38  59  86 118 157 199 244 298 354
#     4  10  23  41  61  88 122 158 203 255 306 362
#     4  10  22  41  63  87 119 161 204 250 301 356
#     4  10  22  41  62  87 122 158 200 252 301 357
#     4  11  22  37  59  88 121 156 197 246 299 359
#     4  11  23  39  62  90 121 158 203 254 308 362
#     4  11  22  38  61  90 123 159 200 251 307 364
#
# _framework density 19.478641
#
# number of rings (size 3 to 8) (size 9 to 14) (size 15 to 20)
#    0.000    1.375    1.250    4.125    0.000    7.750 
#    0.000    0.000    0.000    0.000    0.000    0.000 
#    0.000    0.000    0.000    0.000    0.000    0.000 
#
# Total GULP energy -178934.694001 kJ/mol
# GULP energy per Si atom -5591.709188 kJ/mol
# Density = 1.943431 g / cm^3
# Si number density = 19.478641 Si / 1000 Ang^3
#
#
#
# Elastic Constant Matrix: (Units=GPa)
#
#
# Indices 1 2 3 4 5 6 
#
# 1 140.6272 33.4036 45.1551 0.0000 2.7246 0.0000
# 2 33.4036 30.9968 23.3184 0.0000 -4.3589 -0.0001
# 3 45.1551 23.3184 100.6202 0.0000 -3.3374 0.0000
# 4 0.0000 0.0000 0.0000 17.5247 0.0000 9.3250
# 5 2.7246 -4.3589 -3.3374 0.0000 37.0188 0.0000
# 6 0.0000 -0.0001 0.0000 9.3250 0.0000 34.9930
#
#
#
# Elastic Compliance Matrix: (Units=1/GPa)
#
#
# Indices 1 2 3 4 5 6 
#
# 1 0.010175 -0.009411 -0.002454 0.000000 -0.002078 0.000000
# 2 -0.009411 0.048317 -0.006783 0.000000 0.005770 0.000000
# 3 -0.002454 -0.006783 0.012629 0.000000 0.000521 0.000000
# 4 0.000000 0.000000 0.000000 0.066490 0.000000 -0.017718
# 5 -0.002078 0.005770 0.000521 0.000000 0.027893 0.000000
# 6 0.000000 0.000000 0.000000 -0.017718 0.000000 0.033299
#
#
# Mechanical properties :
#
#
# Convention : Reuss Voigt Hill
#
# Bulk Modulus (GPa) = 29.56365 52.88871 41.22618
# Shear Modulus (GPa) = 20.21251 29.26512 24.73882
#
# Velocity S-wave (km/s) = 3.22479 3.88031 3.56764
# Velocity P-wave (km/s) = 5.39223 6.87655 6.17912
#
# Compressibility (1/GPa) = 0.03382533
#
# Stress axis : x y z
#
# Youngs Moduli (GPa) = 98.28382 20.69676 79.18428
#
# Poissons Ratio (x) = 0.19477 0.19432
# Poissons Ratio (y) = 0.92492 0.53708
# Poissons Ratio (z) = 0.24119 0.14038
#
# Static dielectric constant tensor:
#      x y z
#    x 1.665030 0.000000 -0.016310 
#    y 0.000000 1.656160 0.000000 
#    z -0.016310 0.000000 1.673640 
# 
# From -- ./inp_files/249681.got.cif
#   From: 2010.05.17/outbox.cif.g08.bks.cpg/sg12_125_cif.got.tgz:249681.got - 2010.06.03 13:09:07.
