data_PCOD9213440
_publ_section_title
;
Structure prediction by ZEFSAII (Michael W. Deem and Ramdas Pophale) SiO2 
 PCOD9213440
Probable space group: C 2/M
;
_chemical_formula_sum "Si O2"
_cell_formula_units_Z 40
_cell_length_a 8.397049
_cell_length_b 13.871256
_cell_length_c 15.312811
_cell_angle_alpha 90.000000
_cell_angle_beta 68.405963
_cell_angle_gamma 90.000000
_cell_volume 1658.417409
_symmetry_space_group_name_H-M "C 2/M"
_symmetry_group_IT_number 12
_symmetry_cell_setting 'monoclinic'
loop_
_space_group_symop_operation_xyz
x,y,z
-x,y,-z
-x,-y,-z
x,-y,z
1/2+x,1/2+y,z
1/2-x,1/2+y,-z
1/2-x,1/2-y,-z
1/2+x,1/2-y,z
loop_
_atom_site_type_symbol
_atom_site_label
_atom_site_fract_x
_atom_site_fract_y
_atom_site_fract_z
Si Si1 0.726994 0.185592 0.285219
Si Si2 0.156941 0.601371 0.032909
Si Si3 0.536599 0.302357 0.095966
Si Si4 0.798668 0.356046 0.520654
Si Si5 0.341004 0.107911 0.322602
O O1 0.778460 0.133820 0.366932
O O2 0.537218 0.147711 0.297848
O O3 0.737351 0.302816 0.299200
O O4 0.876278 0.169374 0.185313
O O5 0.187036 0.500000 0.074348
O O6 0.112385 0.695667 0.099035
O O7 0.310377 0.622798 0.934892
O O8 0.000000 0.592590 0.000000
O O9 0.500000 0.300234 0.000000
O O10 0.750000 0.250000 0.500000
O O11 0.764652 0.406038 0.435627
O O12 0.000000 0.367268 0.500000
O O13 0.342515 0.000000 0.280871
#
# Coordination Sequence:
#
# PCOD9213440 Si02
#       5
#     8   8   8   8   8
#     4  10  22  38  63  94 127 164 210 262 309 372
#     4   9  20  38  58  79 112 156 201 251 308 361
#     4  10  22  38  58  85 119 158 202 254 303 358
#     4   8  16  34  58  86 119 156 196 247 307 363
#     4  10  22  41  67  95 126 167 208 254 319 379
#
# _framework density 24.11938
#
# number of rings (size 3 to 8) (size 9 to 14) (size 15 to 20)
#    0.000    2.600    0.000    0.000    8.400    5.600 
#    0.000    1.000    0.000   54.000    0.000    0.000 
#    0.000    0.000    0.000    0.000    0.000    0.000 
#
# Total GULP energy -111404.123832 kJ/mol
# GULP energy per Si atom -5570.206192 kJ/mol
# Density = 2.406448 g / cm^3
# Si number density = 24.119380 Si / 1000 Ang^3
#
#
#
# Elastic Constant Matrix: (Units=GPa)
#
#
# Indices 1 2 3 4 5 6 
#
# 1 42.1840 23.1090 17.3282 0.0000 -7.0902 0.0000
# 2 23.1090 131.7702 12.8316 0.0000 -23.8604 0.0000
# 3 17.3282 12.8316 180.3462 0.0000 -10.3570 0.0000
# 4 0.0000 0.0000 0.0000 137.3132 0.0000 -219.4773
# 5 -7.0902 -23.8604 -10.3570 0.0000 20.6743 0.0000
# 6 0.0000 0.0000 0.0000 -219.4773 0.0000 350.1814
#
#
#
# Elastic Compliance Matrix: (Units=1/GPa)
#
#
# Indices 1 2 3 4 5 6 
#
# 1 0.027359 -0.003900 -0.002132 0.000000 0.003814 0.000000
# 2 -0.003900 0.010150 0.000256 0.000000 0.010505 0.000000
# 3 -0.002132 0.000256 0.005876 0.000000 0.002507 0.000000
# 4 0.000000 0.000000 0.000000 -4.084383 0.000000 -2.559900
# 5 0.003814 0.010505 0.002507 0.000000 0.063057 0.000000
# 6 0.000000 0.000000 0.000000 -2.559900 0.000000 -1.601569
#
#
# Mechanical properties :
#
#
# Convention : Reuss Voigt Hill
#
# Bulk Modulus (GPa) = 31.41478 51.20421 41.30950
# Shear Modulus (GPa) = -0.89971 121.70255 60.40142
#
# Velocity S-wave (km/s) = -0.61142 7.11111 5.00970
# Velocity P-wave (km/s) = 3.54324 9.41804 7.11527
#
# Compressibility (1/GPa) = 0.03183215
#
# Stress axis : x y z
#
# Youngs Moduli (GPa) = 36.55118 98.51997 170.19656
#
# Poissons Ratio (x) = 0.38421 0.36290
# Poissons Ratio (y) = 0.14254 -0.04354
# Poissons Ratio (z) = 0.07794 -0.02520
#
# Static dielectric constant tensor:
#      x y z
#    x 2.021440 0.000000 0.046000 
#    y 0.000000 2.050220 0.000000 
#    z 0.046000 0.000000 1.969380 
# 
# From -- ./inp_files/299530.got.cif
#   From: 2010.05.17/outbox.cif.g08.bks.cpg/sg12_150_cif.got.tgz:299530.got - 2010.06.03 13:09:07.
