data_PCOD9213588
_publ_section_title
;
Structure prediction by ZEFSAII (Michael W. Deem and Ramdas Pophale) SiO2 
 PCOD9213588
Probable space group: C 2/M
;
_chemical_formula_sum "Si O2"
_cell_formula_units_Z 34
_cell_length_a 12.952741
_cell_length_b 12.389954
_cell_length_c 14.988704
_cell_angle_alpha 90.000000
_cell_angle_beta 41.951899
_cell_angle_gamma 90.000000
_cell_volume 1608.055683
_symmetry_space_group_name_H-M "C 2/M"
_symmetry_group_IT_number 12
_symmetry_cell_setting 'monoclinic'
loop_
_space_group_symop_operation_xyz
x,y,z
-x,y,-z
-x,-y,-z
x,-y,z
1/2+x,1/2+y,z
1/2-x,1/2+y,-z
1/2-x,1/2-y,-z
1/2+x,1/2-y,z
loop_
_atom_site_type_symbol
_atom_site_label
_atom_site_fract_x
_atom_site_fract_y
_atom_site_fract_z
Si Si1 0.038247 0.311721 0.567622
Si Si2 0.223916 0.622061 0.618967
Si Si3 0.266593 0.687984 0.128939
Si Si4 0.500000 0.500000 0.000000
Si Si5 0.577366 0.875605 0.075753
O O1 0.136064 0.373641 0.579769
O O2 0.139895 0.207778 0.475342
O O3 0.000000 0.370854 0.500000
O O4 0.877502 0.281206 0.717346
O O5 0.275904 0.500000 0.603046
O O6 0.092266 0.651602 0.776233
O O7 0.193677 0.636259 0.085353
O O8 0.372304 0.595879 0.103351
O O9 0.359642 0.792709 0.037107
O O10 0.578483 0.000000 0.046067
#
# Coordination Sequence:
#
# PCOD9213588 Si02
#       5
#     8   8   8   2   8
#     4  10  22  39  59  89 123 160 200 251 301 366
#     4   9  20  40  62  88 121 159 202 252 309 358
#     4  10  22  38  61  90 126 154 207 249 308 361
#     4  12  24  40  60  96 124 158 194 274 296 364
#     4   9  18  40  65  87 118 164 201 254 302 366
#
# _framework density 21.143547000000002
#
# number of rings (size 3 to 8) (size 9 to 14) (size 15 to 20)
#    0.000    2.353    1.176    0.000    4.941    1.882 
#    0.000    0.588    0.000    0.000    0.000    0.000 
#    0.000    0.000    0.000    0.000    0.000    0.000 
#
# Total GULP energy -94708.070529 kJ/mol
# GULP energy per Si atom -5571.062972 kJ/mol
# Density = 2.109542 g / cm^3
# Si number density = 21.143547 Si / 1000 Ang^3
#
#
#
# Elastic Constant Matrix: (Units=GPa)
#
#
# Indices 1 2 3 4 5 6 
#
# 1 61.3664 8.7089 26.6041 0.0000 0.0297 0.0000
# 2 8.7089 151.9280 96.1406 0.0000 -27.3803 0.0000
# 3 26.6041 96.1406 124.2503 0.0000 -15.3259 0.0000
# 4 0.0000 0.0000 0.0000 18.3319 0.0000 -8.5789
# 5 0.0297 -27.3803 -15.3259 0.0000 41.1575 0.0000
# 6 0.0000 0.0000 0.0000 -8.5789 0.0000 2.7089
#
#
#
# Elastic Compliance Matrix: (Units=1/GPa)
#
#
# Indices 1 2 3 4 5 6 
#
# 1 0.018578 0.002750 -0.006165 0.000000 -0.000480 0.000000
# 2 0.002750 0.014412 -0.011066 0.000000 0.005465 0.000000
# 3 -0.006165 -0.011066 0.017843 0.000000 -0.000713 0.000000
# 4 0.000000 0.000000 0.000000 -0.113171 0.000000 -0.358396
# 5 -0.000480 0.005465 -0.000713 0.000000 0.027667 0.000000
# 6 0.000000 0.000000 0.000000 -0.358396 0.000000 -0.765843
#
#
# Mechanical properties :
#
#
# Convention : Reuss Voigt Hill
#
# Bulk Modulus (GPa) = 45.72341 66.71687 56.22014
# Shear Modulus (GPa) = -6.54227 26.17907 9.81840
#
# Velocity S-wave (km/s) = -1.76095 3.52257 2.15726
# Velocity P-wave (km/s) = 4.18779 6.94027 5.73171
#
# Compressibility (1/GPa) = 0.02187064
#
# Stress axis : x y z
#
# Youngs Moduli (GPa) = 53.82679 69.38618 56.04473
#
# Poissons Ratio (x) = -0.19078 0.34549
# Poissons Ratio (y) = -0.14800 0.62020
# Poissons Ratio (z) = 0.33182 0.76784
#
# Static dielectric constant tensor:
#      x y z
#    x 1.830500 0.000000 0.020780 
#    y 0.000000 1.716410 0.000000 
#    z 0.020780 0.000000 1.717350 
# 
# From -- ./inp_files/58673.got.cif
#   From: 2010.05.17/outbox.cif.g08.bks.cpg/sg12_30_cif.got.tgz:58673.got - 2010.06.03 13:09:07.
