data_PCOD9213939
_publ_section_title
;
Structure prediction by ZEFSAII (Michael W. Deem and Ramdas Pophale) SiO2 
 PCOD9213939
Probable space group: C 2/M
;
_chemical_formula_sum "Si O2"
_cell_formula_units_Z 64
_cell_length_a 11.433730
_cell_length_b 19.402171
_cell_length_c 25.799954
_cell_angle_alpha 90.000000
_cell_angle_beta 147.331655
_cell_angle_gamma 90.000000
_cell_volume 3089.372049
_symmetry_space_group_name_H-M "C 2/M"
_symmetry_group_IT_number 12
_symmetry_cell_setting 'monoclinic'
loop_
_space_group_symop_operation_xyz
x,y,z
-x,y,-z
-x,-y,-z
x,-y,z
1/2+x,1/2+y,z
1/2-x,1/2+y,-z
1/2-x,1/2-y,-z
1/2+x,1/2-y,z
loop_
_atom_site_type_symbol
_atom_site_label
_atom_site_fract_x
_atom_site_fract_y
_atom_site_fract_z
Si Si1 0.260937 0.917799 0.451252
Si Si2 0.460975 0.348188 0.252471
Si Si3 0.190728 0.579471 0.667949
Si Si4 0.371657 0.079312 0.236379
Si Si5 0.514020 0.172744 0.942214
Si Si6 0.458929 0.337709 0.046859
Si Si7 0.591930 0.660612 0.483182
Si Si8 0.844855 0.295837 0.666161
O O1 0.108251 0.881299 0.352317
O O2 0.511747 0.898137 0.558420
O O3 0.150874 0.893012 0.462954
O O4 0.258988 0.000000 0.443998
O O5 0.586792 0.378624 0.249904
O O6 0.500505 0.266836 0.265231
O O7 0.207500 0.361080 0.161569
O O8 0.242182 0.500000 0.675907
O O9 0.090645 0.581408 0.687638
O O10 0.545446 0.132306 0.277885
O O11 0.138516 0.113068 0.139200
O O12 0.384707 0.000000 0.224061
O O13 0.503380 0.255791 0.930470
O O14 0.500000 0.161526 0.000000
O O15 0.725733 0.148937 0.988236
O O16 0.500000 0.347948 0.000000
O O17 0.500000 0.622278 0.500000
O O18 0.389067 0.709475 0.393377
O O19 0.782466 0.704388 0.581282
#
# Coordination Sequence:
#
# PCOD9213939 Si02
#       8
#     8   8   8   8   8   8   8   8
#     4  11  23  38  58  88 126 167 203 250 314 376
#     4  12  23  37  62  91 123 158 207 268 312 373
#     4  10  22  39  60  88 127 174 209 246 310 391
#     4  11  21  40  65  90 123 167 213 254 314 391
#     4  10  22  43  66  90 125 168 211 264 329 393
#     4  10  22  42  65  96 127 159 212 274 331 380
#     4   8  20  38  52  82 122 163 202 250 295 363
#     4   9  21  37  55  91 117 159 209 249 306 363
#
# _framework density 20.716183999999998
#
# number of rings (size 3 to 8) (size 9 to 14) (size 15 to 20)
#    0.750    1.000    2.500    1.500    3.500    4.500 
#    2.250    1.250    0.000    3.375    0.000    0.000 
#    0.000    0.000    0.000    0.000    0.000    0.000 
#
# Total GULP energy -178138.405451 kJ/mol
# GULP energy per Si atom -5566.825170 kJ/mol
# Density = 2.066903 g / cm^3
# Si number density = 20.716184 Si / 1000 Ang^3
#
#
#
# Elastic Constant Matrix: (Units=GPa)
#
#
# Indices 1 2 3 4 5 6 
#
# 1 70.3197 5.0852 26.5962 -0.0001 9.6336 0.0000
# 2 5.0852 32.9990 28.6231 -0.0001 2.0742 -0.0001
# 3 26.5962 28.6231 106.6465 0.0013 24.9069 0.0001
# 4 -0.0001 -0.0001 0.0013 25.3217 0.0003 5.5614
# 5 9.6336 2.0742 24.9069 0.0003 31.6099 0.0000
# 6 0.0000 -0.0001 0.0001 5.5614 0.0000 24.9078
#
#
#
# Elastic Compliance Matrix: (Units=1/GPa)
#
#
# Indices 1 2 3 4 5 6 
#
# 1 0.015836 0.000932 -0.003748 0.000000 -0.001934 0.000000
# 2 0.000932 0.040884 -0.012883 0.000001 0.007185 0.000000
# 3 -0.003748 -0.012883 0.016306 -0.000001 -0.010860 0.000000
# 4 0.000000 0.000001 -0.000001 0.041528 0.000000 -0.009272
# 5 -0.001934 0.007185 -0.010860 0.000000 0.040311 0.000000
# 6 0.000000 0.000000 0.000000 -0.009272 0.000000 0.042218
#
#
# Mechanical properties :
#
#
# Convention : Reuss Voigt Hill
#
# Bulk Modulus (GPa) = 24.02277 36.73046 30.37661
# Shear Modulus (GPa) = 20.63079 26.34525 23.48802
#
# Velocity S-wave (km/s) = 3.15918 3.56999 3.37085
# Velocity P-wave (km/s) = 4.99285 5.89593 5.46308
#
# Compressibility (1/GPa) = 0.04162718
#
# Stress axis : x y z
#
# Youngs Moduli (GPa) = 63.14809 24.45974 61.32895
#
# Poissons Ratio (x) = -0.02279 0.22983
# Poissons Ratio (y) = -0.05885 0.79011
# Poissons Ratio (z) = 0.23665 0.31512
#
# Static dielectric constant tensor:
#      x y z
#    x 1.472000 0.000000 -0.029830 
#    y 0.000000 1.715540 0.000000 
#    z -0.029830 0.000000 1.791560 
# 
# From -- ./inp_files/359022.got.cif
#   From: 2010.05.17/outbox.cif.g08.bks.cpg/sg12_180_cif.got.tgz:359022.got - 2010.06.03 13:09:07.
