data_PCOD9213446
_publ_section_title
;
Structure prediction by ZEFSAII (Michael W. Deem and Ramdas Pophale) SiO2 
 PCOD9213446
Probable space group: C 2/M
;
_chemical_formula_sum "Si O2"
_cell_formula_units_Z 56
_cell_length_a 10.388850
_cell_length_b 14.657727
_cell_length_c 22.823377
_cell_angle_alpha 90.000000
_cell_angle_beta 57.030591
_cell_angle_gamma 90.000000
_cell_volume 2915.787734
_symmetry_space_group_name_H-M "C 2/M"
_symmetry_group_IT_number 12
_symmetry_cell_setting 'monoclinic'
loop_
_space_group_symop_operation_xyz
x,y,z
-x,y,-z
-x,-y,-z
x,-y,z
1/2+x,1/2+y,z
1/2-x,1/2+y,-z
1/2-x,1/2-y,-z
1/2+x,1/2-y,z
loop_
_atom_site_type_symbol
_atom_site_label
_atom_site_fract_x
_atom_site_fract_y
_atom_site_fract_z
Si Si1 0.755368 0.759707 0.201573
Si Si2 0.604556 0.731026 0.112337
Si Si3 0.097451 0.898659 0.620558
Si Si4 0.108726 0.606285 0.528411
Si Si5 0.642294 0.107575 0.010154
Si Si6 0.952443 0.703164 0.335838
Si Si7 0.257449 0.101751 0.288243
O O1 0.677715 0.753406 0.157305
O O2 0.631042 0.805571 0.275206
O O3 0.770370 0.659547 0.226125
O O4 0.926690 0.798600 0.159338
O O5 0.610415 0.823536 0.071920
O O6 0.708158 0.652291 0.057411
O O7 0.217574 0.887461 0.538261
O O8 0.104665 0.807893 0.657842
O O9 0.919297 0.898067 0.646787
O O10 0.128633 0.000000 0.638999
O O11 0.079528 0.500000 0.551725
O O12 0.077321 0.670629 0.590923
O O13 0.000000 0.628241 0.500000
O O14 0.661512 0.000000 0.020118
O O15 0.500000 0.114572 0.000000
O O16 0.858386 0.643786 0.313896
O O17 0.306232 0.000000 0.263829
#
# Coordination Sequence:
#
# PCOD9213446 Si02
#       7
#     8   8   8   8   8   8   8
#     4  11  23  40  63  92 133 173 208 253 320 375
#     4  11  22  43  66  98 134 170 207 263 307 373
#     4   9  21  39  58  83 115 156 207 264 323 383
#     4  10  22  38  58  86 120 159 209 272 336 386
#     4  10  22  41  71 101 129 171 217 257 307 370
#     4  11  22  38  63  88 123 162 216 262 325 378
#     4  10  22  39  62  91 122 162 217 268 314 385
#
# _framework density 19.205787999999998
#
# number of rings (size 3 to 8) (size 9 to 14) (size 15 to 20)
#    0.000    1.714    2.857    0.857    4.000    1.714 
#    0.000    5.000    0.000    0.857    0.000    0.000 
#    0.000    0.000    0.000    0.000    0.000    0.000 
#
# Total GULP energy -156221.281774 kJ/mol
# GULP energy per Si atom -5579.331492 kJ/mol
# Density = 1.916207 g / cm^3
# Si number density = 19.205788 Si / 1000 Ang^3
#
#
#
# Elastic Constant Matrix: (Units=GPa)
#
#
# Indices 1 2 3 4 5 6 
#
# 1 87.7514 33.8609 39.3895 0.0000 4.1961 0.0000
# 2 33.8609 70.4552 22.1333 0.0000 3.9013 0.0000
# 3 39.3895 22.1333 88.4512 0.0000 -15.0024 0.0000
# 4 0.0000 0.0000 0.0000 0.2466 0.0000 -2.0229
# 5 4.1961 3.9013 -15.0024 0.0000 34.9168 0.0000
# 6 0.0000 0.0000 0.0000 -2.0229 0.0000 26.6968
#
#
#
# Elastic Compliance Matrix: (Units=1/GPa)
#
#
# Indices 1 2 3 4 5 6 
#
# 1 0.016870 -0.005729 -0.006811 0.000001 -0.004313 0.000000
# 2 -0.005729 0.017792 -0.002288 0.000001 -0.002282 0.000000
# 3 -0.006811 -0.002288 0.016280 -0.000001 0.008069 0.000000
# 4 0.000001 0.000001 -0.000001 10.719217 -0.000002 0.812209
# 5 -0.004313 -0.002282 0.008069 -0.000002 0.032880 0.000000
# 6 0.000000 0.000000 0.000000 0.812209 0.000000 0.099000
#
#
# Mechanical properties :
#
#
# Convention : Reuss Voigt Hill
#
# Bulk Modulus (GPa) = 46.97890 48.60280 47.79085
# Shear Modulus (GPa) = 0.45709 22.45696 11.45702
#
# Velocity S-wave (km/s) = 0.48838 3.42318 2.44507
# Velocity P-wave (km/s) = 4.98316 6.40199 5.73661
#
# Compressibility (1/GPa) = 0.02128615
#
# Stress axis : x y z
#
# Youngs Moduli (GPa) = 59.27680 56.20487 61.42634
#
# Poissons Ratio (x) = 0.32202 0.41835
# Poissons Ratio (y) = 0.33962 0.14053
# Poissons Ratio (z) = 0.40371 0.12859
#
# Static dielectric constant tensor:
#      x y z
#    x 1.651400 0.000000 -0.030550 
#    y 0.000000 1.688410 0.000000 
#    z -0.030550 0.000000 1.680910 
# 
# From -- ./inp_files/332839.got.cif
#   From: 2010.05.17/outbox.cif.g08.bks.cpg/sg12_167_cif.got.tgz:332839.got - 2010.06.03 13:09:07.
