data_PCOD9213936
_publ_section_title
;
Structure prediction by ZEFSAII (Michael W. Deem and Ramdas Pophale) SiO2 
 PCOD9213936
Probable space group: C 2/M
;
_chemical_formula_sum "Si O2"
_cell_formula_units_Z 32
_cell_length_a 13.739918
_cell_length_b 10.548278
_cell_length_c 20.477827
_cell_angle_alpha 90.000000
_cell_angle_beta 151.955435
_cell_angle_gamma 90.000000
_cell_volume 1395.383479
_symmetry_space_group_name_H-M "C 2/M"
_symmetry_group_IT_number 12
_symmetry_cell_setting 'monoclinic'
loop_
_space_group_symop_operation_xyz
x,y,z
-x,y,-z
-x,-y,-z
x,-y,z
1/2+x,1/2+y,z
1/2-x,1/2+y,-z
1/2-x,1/2-y,-z
1/2+x,1/2-y,z
loop_
_atom_site_type_symbol
_atom_site_label
_atom_site_fract_x
_atom_site_fract_y
_atom_site_fract_z
Si Si1 0.711301 0.741538 0.592772
Si Si2 0.730964 0.860580 0.157254
Si Si3 0.089395 0.856930 0.879701
Si Si4 0.014861 0.635619 0.358931
O O1 0.500000 0.690860 0.500000
O O2 0.646431 0.851733 0.503086
O O3 0.862329 0.795989 0.738003
O O4 0.838592 0.650854 0.618456
O O5 0.847482 0.873774 0.157988
O O6 0.857308 0.751886 0.266962
O O7 0.722564 0.000000 0.184945
O O8 0.500000 0.822772 0.000000
O O9 0.097487 0.000000 0.914511
O O10 0.250000 0.750000 0.000000
O O11 0.909034 0.500000 0.292994
#
# Coordination Sequence:
#
# PCOD9213936 Si02
#       4
#     8   8   8   8
#     4  10  23  42  64  91 130 172 206 252 326 383
#     4   9  20  40  62  85 123 170 203 244 319 384
#     4  10  22  39  60  88 124 161 204 255 308 374
#     4  10  22  40  65  97 125 156 215 273 307 363
#
# _framework density 22.932763000000001
#
# number of rings (size 3 to 8) (size 9 to 14) (size 15 to 20)
#    0.000    2.250    0.000    0.750    3.500   13.000 
#    0.000    0.000    0.000    0.000    0.000    0.000 
#    0.000    0.000    0.000    0.000    0.000    0.000 
#
# Total GULP energy -89233.516225 kJ/mol
# GULP energy per Si atom -5577.094764 kJ/mol
# Density = 2.288057 g / cm^3
# Si number density = 22.932763 Si / 1000 Ang^3
#
#
#
# Elastic Constant Matrix: (Units=GPa)
#
#
# Indices 1 2 3 4 5 6 
#
# 1 88.7330 7.8947 23.1166 -0.0009 10.2226 -0.0002
# 2 7.8947 152.8201 94.1300 0.0006 -18.0084 0.0001
# 3 23.1166 94.1300 161.4300 0.0055 13.2205 0.0011
# 4 -0.0009 0.0006 0.0055 222.8208 0.0003 68.3096
# 5 10.2226 -18.0084 13.2205 0.0003 34.0492 0.0000
# 6 -0.0002 0.0001 0.0011 68.3096 0.0000 21.6494
#
#
#
# Elastic Compliance Matrix: (Units=1/GPa)
#
#
# Indices 1 2 3 4 5 6 
#
# 1 0.012004 -0.000141 -0.001379 0.000001 -0.003143 -0.000003
# 2 -0.000141 0.012843 -0.008292 0.000002 0.010055 -0.000005
# 3 -0.001379 -0.008292 0.011932 -0.000003 -0.008605 0.000009
# 4 0.000001 0.000002 -0.000003 0.137240 0.000001 -0.433028
# 5 -0.003143 0.010055 -0.008605 0.000001 0.038972 -0.000002
# 6 -0.000003 -0.000005 0.000009 -0.433028 -0.000002 1.412504
#
#
# Mechanical properties :
#
#
# Convention : Reuss Voigt Hill
#
# Bulk Modulus (GPa) = 58.29483 72.58509 65.43996
# Shear Modulus (GPa) = 3.02876 74.22665 38.62771
#
# Velocity S-wave (km/s) = 1.15047 5.69538 4.10858
# Velocity P-wave (km/s) = 5.21918 8.65851 7.14876
#
# Compressibility (1/GPa) = 0.01715418
#
# Stress axis : x y z
#
# Youngs Moduli (GPa) = 83.30750 77.86062 83.80739
#
# Poissons Ratio (x) = 0.01096 0.11561
# Poissons Ratio (y) = 0.01173 0.69496
# Poissons Ratio (z) = 0.11492 0.64565
#
# Static dielectric constant tensor:
#      x y z
#    x 1.903020 0.000000 0.032290 
#    y 0.000000 1.930060 0.000000 
#    z 0.032290 0.000000 1.916460 
# 
# From -- ./inp_files/338356.got.cif
#   From: 2010.05.17/outbox.cif.g08.bks.cpg/sg12_170_cif.got.tgz:338356.got - 2010.06.03 13:09:07.
