data_PCOD9213989
_publ_section_title
;
Structure prediction by ZEFSAII (Michael W. Deem and Ramdas Pophale) SiO2 
 PCOD9213989
Probable space group: C 2/M
;
_chemical_formula_sum "Si O2"
_cell_formula_units_Z 48
_cell_length_a 16.153888
_cell_length_b 23.305179
_cell_length_c 9.936917
_cell_angle_alpha 90.000000
_cell_angle_beta 35.504618
_cell_angle_gamma 90.000000
_cell_volume 2172.622529
_symmetry_space_group_name_H-M "C 2/M"
_symmetry_group_IT_number 12
_symmetry_cell_setting 'monoclinic'
loop_
_space_group_symop_operation_xyz
x,y,z
-x,y,-z
-x,-y,-z
x,-y,z
1/2+x,1/2+y,z
1/2-x,1/2+y,-z
1/2-x,1/2-y,-z
1/2+x,1/2-y,z
loop_
_atom_site_type_symbol
_atom_site_label
_atom_site_fract_x
_atom_site_fract_y
_atom_site_fract_z
Si Si1 0.926600 0.911261 0.460954
Si Si2 0.256489 0.745318 0.780665
Si Si3 0.594315 0.435946 0.989038
Si Si4 0.628997 0.117807 0.931776
Si Si5 0.017406 0.220659 0.283845
Si Si6 0.629285 0.931967 0.226582
O O1 0.760059 0.918233 0.700333
O O2 0.000000 0.930792 0.500000
O O3 0.974058 0.844566 0.376269
O O4 0.986869 0.941868 0.253368
O O5 0.188751 0.682309 0.855291
O O6 0.365525 0.754744 0.508365
O O7 0.370931 0.743970 0.751998
O O8 0.113789 0.778855 0.020118
O O9 0.637031 0.500000 0.881467
O O10 0.733832 0.409102 0.872298
O O11 0.500000 0.405855 0.000000
O O12 0.500000 0.113197 0.000000
O O13 0.602862 0.098937 0.120117
O O14 0.500000 0.926009 0.500000
O O15 0.653133 0.000000 0.167988
#
# Coordination Sequence:
#
# PCOD9213989 Si02
#       6
#     8   8   8   8   8   8
#     4  11  19  39  61  85 118 153 196 248 289 340
#     4   9  17  34  54  85 113 151 193 241 289 349
#     4  10  22  39  61  88 117 153 196 241 293 355
#     4  11  23  39  59  88 120 154 198 245 291 345
#     4   9  16  33  58  81 115 150 193 240 293 344
#     4  10  22  41  59  84 122 156 192 241 296 352
#
# _framework density 22.093115000000001
#
# number of rings (size 3 to 8) (size 9 to 14) (size 15 to 20)
#    0.000    2.000    5.000    0.000    2.333    1.333 
#    9.000    4.167    0.000    0.000    0.000    0.000 
#    0.000    0.000    0.000    0.000    0.000    0.000 
#
# Total GULP energy -133723.293776 kJ/mol
# GULP energy per Si atom -5571.803907 kJ/mol
# Density = 2.204283 g / cm^3
# Si number density = 22.093115 Si / 1000 Ang^3
#
#
#
# Elastic Constant Matrix: (Units=GPa)
#
#
# Indices 1 2 3 4 5 6 
#
# 1 160.0887 17.1117 72.4800 0.0010 -9.1176 -0.0016
# 2 17.1117 31.8846 33.3981 0.0002 -0.6096 -0.0003
# 3 72.4800 33.3981 165.2755 0.0011 -15.9189 -0.0018
# 4 0.0010 0.0002 0.0011 -73.9365 -0.0009 177.7909
# 5 -9.1176 -0.6096 -15.9189 -0.0009 21.2965 0.0014
# 6 -0.0016 -0.0003 -0.0018 177.7909 0.0014 -299.2100
#
#
#
# Elastic Compliance Matrix: (Units=1/GPa)
#
#
# Indices 1 2 3 4 5 6 
#
# 1 0.007827 -0.000867 -0.003165 0.000000 0.000961 0.000000
# 2 -0.000867 0.040432 -0.008313 0.000000 -0.005428 0.000000
# 3 -0.003165 -0.008313 0.009660 0.000000 0.005628 0.000000
# 4 0.000000 0.000000 0.000000 0.031539 0.000000 0.018740
# 5 0.000961 -0.005428 0.005628 0.000000 0.051419 0.000000
# 6 0.000000 0.000000 0.000000 0.018740 0.000000 0.007793
#
#
# Mechanical properties :
#
#
# Convention : Reuss Voigt Hill
#
# Bulk Modulus (GPa) = 30.09344 67.02539 48.55942
# Shear Modulus (GPa) = 27.10968 -54.75272 -13.82152
#
# Velocity S-wave (km/s) = 3.50675 -4.98362 -2.50392
# Velocity P-wave (km/s) = 5.48153 1.64676 3.69698
#
# Compressibility (1/GPa) = 0.03322983
#
# Stress axis : x y z
#
# Youngs Moduli (GPa) = 127.76788 24.73276 103.51764
#
# Poissons Ratio (x) = 0.02145 0.32759
# Poissons Ratio (y) = 0.11081 0.86052
# Poissons Ratio (z) = 0.40433 0.20560
#
# Static dielectric constant tensor:
#      x y z
#    x 1.712000 0.000000 0.010340 
#    y 0.000000 1.874680 0.000000 
#    z 0.010340 0.000000 1.858800 
# 
# From -- ./inp_files/67285.got.cif
#   From: 2010.05.17/outbox.cif.g08.bks.cpg/sg12_34_cif.got.tgz:67285.got - 2010.06.03 13:09:07.
