data_PCOD9213807
_publ_section_title
;
Structure prediction by ZEFSAII (Michael W. Deem and Ramdas Pophale) SiO2 
 PCOD9213807
Probable space group: C 2/M
;
_chemical_formula_sum "Si O2"
_cell_formula_units_Z 48
_cell_length_a 29.787183
_cell_length_b 11.858717
_cell_length_c 16.054021
_cell_angle_alpha 90.000000
_cell_angle_beta 24.785950
_cell_angle_gamma 90.000000
_cell_volume 2377.402773
_symmetry_space_group_name_H-M "C 2/M"
_symmetry_group_IT_number 12
_symmetry_cell_setting 'monoclinic'
loop_
_space_group_symop_operation_xyz
x,y,z
-x,y,-z
-x,-y,-z
x,-y,z
1/2+x,1/2+y,z
1/2-x,1/2+y,-z
1/2-x,1/2-y,-z
1/2+x,1/2-y,z
loop_
_atom_site_type_symbol
_atom_site_label
_atom_site_fract_x
_atom_site_fract_y
_atom_site_fract_z
Si Si1 0.466879 0.737767 0.291159
Si Si2 0.829674 0.000000 0.267169
Si Si3 0.187849 0.799187 0.988043
Si Si4 0.051355 0.633058 0.002238
Si Si5 0.373674 0.372023 0.728430
Si Si6 0.537395 0.500000 0.796550
Si Si7 0.242957 0.197280 0.716732
O O1 0.466671 0.612145 0.252413
O O2 0.361325 0.754592 0.521673
O O3 0.574565 0.761533 0.161110
O O4 0.469978 0.824407 0.209468
O O5 0.861676 0.000000 0.309961
O O6 0.767667 0.890596 0.340256
O O7 0.936882 0.000000 0.029063
O O8 0.287522 0.715356 0.835877
O O9 0.213041 0.856458 0.856605
O O10 0.159999 0.870079 0.116972
O O11 0.070411 0.500000 0.973908
O O12 0.158543 0.703867 0.839210
O O13 0.000000 0.662295 0.000000
O O14 0.500000 0.342579 0.500000
O O15 0.360056 0.500000 0.719072
#
# Coordination Sequence:
#
# PCOD9213807 Si02
#       7
#     8   4   8   8   8   4   8
#     4  11  24  40  62  92 123 167 211 262 309 375
#     4  11  22  40  62  89 125 169 216 268 314 357
#     4  10  22  41  63  91 130 154 199 251 312 366
#     4  10  22  39  57  83 123 166 208 262 316 361
#     4  10  22  41  69  96 119 159 199 250 305 381
#     4  11  22  40  64  89 121 171 220 266 310 357
#     4  11  24  40  61  91 123 169 211 263 307 376
#
# _framework density 20.190100000000001
#
# number of rings (size 3 to 8) (size 9 to 14) (size 15 to 20)
#    0.000    1.500    3.333    2.000    4.667    5.333 
#    0.000    0.000    0.000    3.000    0.000    0.000 
#    0.000    0.000    0.000    0.000    0.000    0.000 
#
# Total GULP energy -133886.169439 kJ/mol
# GULP energy per Si atom -5578.590393 kJ/mol
# Density = 2.014415 g / cm^3
# Si number density = 20.190100 Si / 1000 Ang^3
#
#
#
# Elastic Constant Matrix: (Units=GPa)
#
#
# Indices 1 2 3 4 5 6 
#
# 1 88.1101 31.9944 32.5764 0.0000 -9.1818 0.0000
# 2 31.9944 54.8228 33.9121 0.0000 -15.7658 0.0000
# 3 32.5764 33.9121 135.1634 0.0000 -19.6241 0.0000
# 4 0.0000 0.0000 0.0000 17.1820 0.0000 -27.2734
# 5 -9.1818 -15.7658 -19.6241 0.0000 24.4048 0.0000
# 6 0.0000 0.0000 0.0000 -27.2734 0.0000 -12.7489
#
#
#
# Elastic Compliance Matrix: (Units=1/GPa)
#
#
# Indices 1 2 3 4 5 6 
#
# 1 0.014719 -0.007774 -0.001723 0.000000 -0.000870 0.000000
# 2 -0.007774 0.028579 -0.003443 0.000000 0.012769 0.000000
# 3 -0.001723 -0.003443 0.009352 0.000000 0.004648 0.000000
# 4 0.000000 0.000000 0.000000 0.013240 0.000000 -0.028325
# 5 -0.000870 0.012769 0.004648 0.000000 0.052635 0.000000
# 6 0.000000 0.000000 0.000000 -0.028325 0.000000 -0.017844
#
#
# Mechanical properties :
#
#
# Convention : Reuss Voigt Hill
#
# Bulk Modulus (GPa) = 37.35512 52.78466 45.06989
# Shear Modulus (GPa) = 36.90441 17.74181 27.32311
#
# Velocity S-wave (km/s) = 4.27997 2.96757 3.68270
# Velocity P-wave (km/s) = 6.55485 6.15975 6.36037
#
# Compressibility (1/GPa) = 0.02677009
#
# Stress axis : x y z
#
# Youngs Moduli (GPa) = 67.94024 34.99026 106.92427
#
# Poissons Ratio (x) = 0.27202 0.18426
# Poissons Ratio (y) = 0.52818 0.36812
# Poissons Ratio (z) = 0.11708 0.12047
#
# Static dielectric constant tensor:
#      x y z
#    x 1.746360 0.000000 0.013780 
#    y 0.000000 1.688370 0.000000 
#    z 0.013780 0.000000 1.730490 
# 
# From -- ./inp_files/245869.got.cif
#   From: 2010.05.17/outbox.cif.g08.bks.cpg/sg12_123_cif.got.tgz:245869.got - 2010.06.03 13:09:07.
