data_PCOD9213961
_publ_section_title
;
Structure prediction by ZEFSAII (Michael W. Deem and Ramdas Pophale) SiO2 
 PCOD9213961
Probable space group: C 2/M
;
_chemical_formula_sum "Si O2"
_cell_formula_units_Z 56
_cell_length_a 17.345584
_cell_length_b 30.446966
_cell_length_c 5.980857
_cell_angle_alpha 90.000000
_cell_angle_beta 57.756546
_cell_angle_gamma 90.000000
_cell_volume 2671.519126
_symmetry_space_group_name_H-M "C 2/M"
_symmetry_group_IT_number 12
_symmetry_cell_setting 'monoclinic'
loop_
_space_group_symop_operation_xyz
x,y,z
-x,y,-z
-x,-y,-z
x,-y,z
1/2+x,1/2+y,z
1/2-x,1/2+y,-z
1/2-x,1/2-y,-z
1/2+x,1/2-y,z
loop_
_atom_site_type_symbol
_atom_site_label
_atom_site_fract_x
_atom_site_fract_y
_atom_site_fract_z
Si Si1 0.217530 0.178446 0.041205
Si Si2 0.595511 0.082555 0.734887
Si Si3 0.775683 0.000000 0.748500
Si Si4 0.087797 0.229192 0.525115
Si Si5 0.676483 0.000000 0.395403
Si Si6 0.091657 0.323651 0.503348
Si Si7 0.716890 0.592144 0.338371
Si Si8 0.401854 0.646549 0.171372
O O1 0.319199 0.180553 0.789801
O O2 0.143706 0.171624 0.962506
O O3 0.181411 0.218573 0.246989
O O4 0.210090 0.132983 0.186393
O O5 0.619033 0.044938 0.517450
O O6 0.596776 0.131822 0.635456
O O7 0.676909 0.081840 0.788677
O O8 0.500000 0.073291 0.000000
O O9 0.735606 0.000000 0.544770
O O10 0.826211 0.046726 0.675989
O O11 0.719572 0.000000 0.076626
O O12 0.091240 0.277014 0.634876
O O13 0.078605 0.186390 0.689194
O O14 0.000000 0.230653 0.500000
O O15 0.000000 0.326398 0.500000
O O16 0.670782 0.610725 0.633382
O O17 0.500000 0.624256 0.000000
#
# Coordination Sequence:
#
# PCOD9213961 Si02
#       8
#     8   8   4   8   4   8   8   8
#     4  11  21  41  64  88 125 169 219 269 328 398
#     4  11  22  41  61  97 133 177 221 271 329 397
#     4  10  22  42  70  99 140 171 221 279 340 395
#     4  10  22  39  60  92 125 167 221 269 333 390
#     4  10  23  42  70  98 133 184 230 270 323 403
#     4  11  23  39  59  91 134 171 210 274 332 395
#     4  10  23  40  64  95 125 169 215 270 332 399
#     4  11  22  40  67  91 122 167 220 273 325 399
#
# _framework density 20.961856999999998
#
# number of rings (size 3 to 8) (size 9 to 14) (size 15 to 20)
#    0.000    1.429    2.857    2.357    2.000    2.286 
#    2.571    3.571    0.000    0.857    0.000    0.000 
#    0.000    0.000    0.000    0.000    0.000    0.000 
#
# Total GULP energy -156019.130090 kJ/mol
# GULP energy per Si atom -5572.111789 kJ/mol
# Density = 2.091415 g / cm^3
# Si number density = 20.961857 Si / 1000 Ang^3
#
#
#
# Elastic Constant Matrix: (Units=GPa)
#
#
# Indices 1 2 3 4 5 6 
#
# 1 60.2720 -16.8844 4.3286 0.0000 -11.6667 0.0000
# 2 -16.8844 129.4719 -0.8942 0.0000 12.7774 0.0000
# 3 4.3286 -0.8942 52.9535 0.0000 -4.0411 0.0000
# 4 0.0000 0.0000 0.0000-1166.0874 0.0000 333.5976
# 5 -11.6667 12.7774 -4.0411 0.0000 24.6764 0.0000
# 6 0.0000 0.0000 0.0000 333.5976 0.0000 -76.0942
#
#
#
# Elastic Compliance Matrix: (Units=1/GPa)
#
#
# Indices 1 2 3 4 5 6 
#
# 1 0.018630 0.001653 -0.000899 0.000000 0.007805 0.000000
# 2 0.001653 0.008288 -0.000266 0.000000 -0.003554 0.000000
# 3 -0.000899 -0.000266 0.019171 0.000000 0.002852 0.000000
# 4 0.000000 0.000000 0.000000 0.003374 0.000000 0.014790
# 5 0.007805 -0.003554 0.002852 0.000000 0.046522 0.000000
# 6 0.000000 0.000000 0.000000 0.014790 0.000000 0.051700
#
#
# Mechanical properties :
#
#
# Convention : Reuss Voigt Hill
#
# Bulk Modulus (GPa) = 21.24770 23.97749 22.61260
# Shear Modulus (GPa) = 30.78856 -226.42456 -97.81800
#
# Velocity S-wave (km/s) = 3.83664 -10.40442 -6.83857
# Velocity P-wave (km/s) = 5.45754 11.52703 7.17940
#
# Compressibility (1/GPa) = 0.04706391
#
# Stress axis : x y z
#
# Youngs Moduli (GPa) = 53.67715 120.65458 52.16161
#
# Poissons Ratio (x) = -0.19945 0.04691
# Poissons Ratio (y) = -0.08873 0.01389
# Poissons Ratio (z) = 0.04827 0.03214
#
# Static dielectric constant tensor:
#      x y z
#    x 1.730880 0.000000 0.002190 
#    y 0.000000 1.756540 0.000000 
#    z 0.002190 0.000000 1.818490 
# 
# From -- ./inp_files/18277.got.cif
#   From: 2010.05.17/outbox.cif.g08.bks.cpg/sg12_10_cif.got.tgz:18277.got - 2010.06.03 13:09:07.
