data_PCOD9213932
_publ_section_title
;
Structure prediction by ZEFSAII (Michael W. Deem and Ramdas Pophale) SiO2 
 PCOD9213932
Probable space group: C 2/M
;
_chemical_formula_sum "Si O2"
_cell_formula_units_Z 56
_cell_length_a 16.389566
_cell_length_b 15.504461
_cell_length_c 13.937166
_cell_angle_alpha 90.000000
_cell_angle_beta 128.157980
_cell_angle_gamma 90.000000
_cell_volume 2784.790423
_symmetry_space_group_name_H-M "C 2/M"
_symmetry_group_IT_number 12
_symmetry_cell_setting 'monoclinic'
loop_
_space_group_symop_operation_xyz
x,y,z
-x,y,-z
-x,-y,-z
x,-y,z
1/2+x,1/2+y,z
1/2-x,1/2+y,-z
1/2-x,1/2-y,-z
1/2+x,1/2-y,z
loop_
_atom_site_type_symbol
_atom_site_label
_atom_site_fract_x
_atom_site_fract_y
_atom_site_fract_z
Si Si1 0.762872 0.748347 0.234898
Si Si2 0.820234 0.190274 0.483425
Si Si3 0.338922 0.500000 0.455461
Si Si4 0.882501 0.399984 0.953660
Si Si5 0.142976 0.293255 0.888858
Si Si6 0.081772 0.000000 0.699078
Si Si7 0.496014 0.648993 0.250218
Si Si8 0.600649 0.405219 0.140593
O O1 0.816209 0.772511 0.373647
O O2 0.696224 0.831863 0.152241
O O3 0.844601 0.712233 0.216439
O O4 0.680466 0.671547 0.185863
O O5 0.750000 0.250000 0.500000
O O6 0.787631 0.089141 0.452149
O O7 0.933346 0.185858 0.613618
O O8 0.458527 0.500000 0.581006
O O9 0.354041 0.500000 0.351540
O O10 0.855394 0.500000 0.917068
O O11 0.876384 0.377772 0.062981
O O12 0.000000 0.386342 0.000000
O O13 0.051844 0.226419 0.845240
O O14 0.250000 0.250000 0.000000
O O15 0.091459 0.913847 0.769300
O O16 0.564694 0.596488 0.225008
O O17 0.644604 0.500000 0.149271
O O18 0.500000 0.393782 0.000000
#
# Coordination Sequence:
#
# PCOD9213932 Si02
#       8
#     8   8   4   8   8   4   8   8
#     4  11  22  39  60  93 127 158 204 252 313 366
#     4  11  23  37  62  93 125 169 204 247 313 368
#     4   9  20  36  56  86 128 149 203 253 299 361
#     4  10  22  41  65  88 117 164 212 255 301 357
#     4  10  22  39  60  88 121 159 197 250 308 360
#     4   9  18  34  59  90 115 155 192 258 318 352
#     4  11  20  39  61  87 128 157 203 254 305 374
#     4  11  22  37  61  89 122 163 206 255 316 368
#
# _framework density 20.109231999999999
#
# number of rings (size 3 to 8) (size 9 to 14) (size 15 to 20)
#    0.000    1.571    2.143    3.857    1.000    2.286 
#    5.143    0.000    0.000    0.000    0.000    2.000 
#    0.000    0.000    0.000    0.000    0.000    0.000 
#
# Total GULP energy -156313.848458 kJ/mol
# GULP energy per Si atom -5582.637445 kJ/mol
# Density = 2.006346 g / cm^3
# Si number density = 20.109232 Si / 1000 Ang^3
#
#
#
# Elastic Constant Matrix: (Units=GPa)
#
#
# Indices 1 2 3 4 5 6 
#
# 1 85.0147 48.4724 18.6343 0.0000 -19.1535 0.0000
# 2 48.4724 133.7787 36.0818 0.0000 0.6667 0.0000
# 3 18.6343 36.0818 93.5753 0.0000 -14.8192 0.0000
# 4 0.0000 0.0000 0.0000 24.6981 0.0000 -9.1780
# 5 -19.1535 0.6667 -14.8192 0.0000 31.0390 0.0000
# 6 0.0000 0.0000 0.0000 -9.1780 0.0000 28.2424
#
#
#
# Elastic Compliance Matrix: (Units=1/GPa)
#
#
# Indices 1 2 3 4 5 6 
#
# 1 0.018135 -0.006873 0.000903 0.000000 0.011769 0.000000
# 2 -0.006873 0.011047 -0.003895 0.000000 -0.006338 0.000000
# 3 0.000903 -0.003895 0.013101 0.000000 0.006895 0.000000
# 4 0.000000 0.000000 0.000000 0.046050 0.000000 0.014965
# 5 0.011769 -0.006338 0.006895 0.000000 0.042909 0.000000
# 6 0.000000 0.000000 0.000000 0.014965 0.000000 0.040271
#
#
# Mechanical properties :
#
#
# Convention : Reuss Voigt Hill
#
# Bulk Modulus (GPa) = 44.34034 57.63842 50.98938
# Shear Modulus (GPa) = 25.15583 30.74123 27.94853
#
# Velocity S-wave (km/s) = 3.54073 3.91412 3.73209
# Velocity P-wave (km/s) = 6.23003 7.01085 6.63194
#
# Compressibility (1/GPa) = 0.02255283
#
# Stress axis : x y z
#
# Youngs Moduli (GPa) = 55.14125 90.51848 76.33201
#
# Poissons Ratio (x) = 0.62214 -0.06891
# Poissons Ratio (y) = 0.37899 0.29730
# Poissons Ratio (z) = -0.04978 0.35256
#
# Static dielectric constant tensor:
#      x y z
#    x 1.749440 0.000000 -0.015020 
#    y 0.000000 1.774470 0.000000 
#    z -0.015020 0.000000 1.736200 
# 
# From -- ./inp_files/225416.got.cif
#   From: 2010.05.17/outbox.cif.g08.bks.cpg/sg12_113_cif.got.tgz:225416.got - 2010.06.03 13:09:07.
