data_PCOD9213261
_publ_section_title
;
Structure prediction by ZEFSAII (Michael W. Deem and Ramdas Pophale) SiO2 
 PCOD9213261
Probable space group: C 2/M
;
_chemical_formula_sum "Si O2"
_cell_formula_units_Z 48
_cell_length_a 20.023578
_cell_length_b 22.597829
_cell_length_c 10.863875
_cell_angle_alpha 90.000000
_cell_angle_beta 31.300804
_cell_angle_gamma 90.000000
_cell_volume 2553.904855
_symmetry_space_group_name_H-M "C 2/M"
_symmetry_group_IT_number 12
_symmetry_cell_setting 'monoclinic'
loop_
_space_group_symop_operation_xyz
x,y,z
-x,y,-z
-x,-y,-z
x,-y,z
1/2+x,1/2+y,z
1/2-x,1/2+y,-z
1/2-x,1/2-y,-z
1/2+x,1/2-y,z
loop_
_atom_site_type_symbol
_atom_site_label
_atom_site_fract_x
_atom_site_fract_y
_atom_site_fract_z
Si Si1 0.185885 0.213190 0.487898
Si Si2 0.675799 0.000000 0.087309
Si Si3 0.551777 0.500000 0.208137
Si Si4 0.146883 0.613221 0.737534
Si Si5 0.738618 0.500000 0.319575
Si Si6 0.324859 0.836789 0.584860
Si Si7 0.039153 0.877389 0.077231
Si Si8 0.500000 0.905184 0.500000
O O1 0.250000 0.250000 0.500000
O O2 0.299101 0.168893 0.269350
O O3 0.145034 0.266959 0.466765
O O4 0.068698 0.169474 0.706637
O O5 0.598609 0.055075 0.265703
O O6 0.676900 0.000000 0.937553
O O7 0.821978 0.000000 0.906311
O O8 0.409299 0.500000 0.489951
O O9 0.552970 0.438792 0.128788
O O10 0.229817 0.556802 0.646493
O O11 0.160566 0.632135 0.572987
O O12 0.000000 0.601319 0.000000
O O13 0.417455 0.867867 0.534633
O O14 0.177085 0.845774 0.856061
O O15 0.000000 0.892749 0.000000
#
# Coordination Sequence:
#
# PCOD9213261 Si02
#       8
#     8   4   4   8   4   8   8   4
#     4  10  22  37  61  92 128 167 204 265 317 377
#     4  11  25  43  67  88 133 175 208 263 324 399
#     4  12  23  42  65  97 131 167 218 268 325 391
#     4  11  23  38  63  96 127 167 210 265 329 378
#     4  12  23  43  62  98 130 159 218 269 329 382
#     4  11  24  41  68  92 130 171 216 266 314 387
#     4  12  21  41  66 101 129 166 220 271 325 375
#     4  11  24  48  64  94 126 175 222 252 324 383
#
# _framework density 18.794747999999998
#
# number of rings (size 3 to 8) (size 9 to 14) (size 15 to 20)
#    0.000    0.833    6.667    1.750    4.667    2.000 
#    0.000    2.500    0.000    0.000    0.000    0.000 
#    0.000    0.000    0.000    0.000    0.000    0.000 
#
# Total GULP energy -133920.679406 kJ/mol
# GULP energy per Si atom -5580.028309 kJ/mol
# Density = 1.875197 g / cm^3
# Si number density = 18.794748 Si / 1000 Ang^3
#
#
#
# Elastic Constant Matrix: (Units=GPa)
#
#
# Indices 1 2 3 4 5 6 
#
# 1 93.7689 43.1923 21.4214 -0.0009 -10.6872 0.0012
# 2 43.1923 125.1747 12.0813 -0.0010 0.9407 0.0009
# 3 21.4214 12.0813 79.4662 -0.0025 -17.1339 0.0018
# 4 -0.0009 -0.0010 -0.0025 21.1508 0.0003 -20.2864
# 5 -10.6872 0.9407 -17.1339 0.0003 33.6702 -0.0004
# 6 0.0012 0.0009 0.0018 -20.2864 -0.0004 67.7374
#
#
#
# Elastic Compliance Matrix: (Units=1/GPa)
#
#
# Indices 1 2 3 4 5 6 
#
# 1 0.013639 -0.004511 -0.002280 0.000000 0.003295 0.000000
# 2 -0.004511 0.009627 -0.000690 0.000000 -0.002052 0.000000
# 3 -0.002280 -0.000690 0.014773 0.000002 0.006813 0.000000
# 4 0.000000 0.000000 0.000002 0.066334 0.000001 0.019866
# 5 0.003295 -0.002052 0.006813 0.000001 0.034270 0.000000
# 6 0.000000 0.000000 0.000000 0.019866 0.000000 0.020713
#
#
# Mechanical properties :
#
#
# Convention : Reuss Voigt Hill
#
# Bulk Modulus (GPa) = 43.33506 50.19996 46.76751
# Shear Modulus (GPa) = 27.47112 39.29267 33.38189
#
# Velocity S-wave (km/s) = 3.82728 4.57729 4.21899
# Velocity P-wave (km/s) = 6.52977 7.39615 6.97642
#
# Compressibility (1/GPa) = 0.02307600
#
# Stress axis : x y z
#
# Youngs Moduli (GPa) = 73.32036 103.87076 67.69322
#
# Poissons Ratio (x) = 0.46854 0.15437
# Poissons Ratio (y) = 0.33073 0.04672
# Poissons Ratio (z) = 0.16720 0.07168
#
# Static dielectric constant tensor:
#      x y z
#    x 1.637570 0.000000 0.002100 
#    y 0.000000 1.665480 0.000000 
#    z 0.002100 0.000000 1.661570 
# 
# From -- ./inp_files/133047.got.cif
#   From: 2010.05.17/outbox.cif.g08.bks.cpg/sg12_67_cif.got.tgz:133047.got - 2010.06.03 13:09:07.
