data_PCOD9213053
_publ_section_title
;
Structure prediction by ZEFSAII (Michael W. Deem and Ramdas Pophale) SiO2 
 PCOD9213053
Probable space group: C 2/M
;
_chemical_formula_sum "Si O2"
_cell_formula_units_Z 44
_cell_length_a 9.800799
_cell_length_b 21.354488
_cell_length_c 11.164786
_cell_angle_alpha 90.000000
_cell_angle_beta 108.379854
_cell_angle_gamma 90.000000
_cell_volume 2217.488031
_symmetry_space_group_name_H-M "C 2/M"
_symmetry_group_IT_number 12
_symmetry_cell_setting 'monoclinic'
loop_
_space_group_symop_operation_xyz
x,y,z
-x,y,-z
-x,-y,-z
x,-y,z
1/2+x,1/2+y,z
1/2-x,1/2+y,-z
1/2-x,1/2-y,-z
1/2+x,1/2-y,z
loop_
_atom_site_type_symbol
_atom_site_label
_atom_site_fract_x
_atom_site_fract_y
_atom_site_fract_z
Si Si1 0.827393 0.000000 0.813259
Si Si2 0.802021 0.630720 0.841369
Si Si3 0.902565 0.680072 0.122743
Si Si4 0.745170 0.632330 0.306704
Si Si5 0.175407 0.000000 0.900836
Si Si6 0.532902 0.292695 0.721931
Si Si7 0.000000 0.695753 0.500000
O O1 0.763155 0.939433 0.731757
O O2 0.001380 0.000000 0.845911
O O3 0.793592 0.000000 0.946898
O O4 0.742316 0.561964 0.857387
O O5 0.682882 0.671975 0.740793
O O6 0.957735 0.635155 0.822095
O O7 0.833419 0.664438 0.977148
O O8 0.791216 0.667770 0.197786
O O9 0.953702 0.751324 0.153635
O O10 0.589937 0.656300 0.301572
O O11 0.861898 0.652722 0.437265
O O12 0.489754 0.242274 0.609901
#
# Coordination Sequence:
#
# PCOD9213053 Si02
#       7
#     4   8   8   8   4   8   4
#     4  11  22  40  64  93 122 161 207 251 300 370
#     4  11  22  38  60  91 129 165 199 243 307 369
#     4  10  22  36  58  97 128 160 198 249 310 360
#     4  11  22  40  65  90 122 162 209 252 304 360
#     4  11  22  40  63  90 129 165 200 245 302 377
#     4  11  22  41  64  89 124 162 206 254 306 369
#     4  10  24  41  64  91 118 160 208 266 310 346
#
# _framework density 19.842271
#
# number of rings (size 3 to 8) (size 9 to 14) (size 15 to 20)
#    0.000    1.273    3.636    3.273    0.000    6.182 
#    0.000    0.000    0.000    6.545    0.000    0.000 
#    0.000    0.000    0.000    0.000    0.000    0.000 
#
# Total GULP energy -122870.097846 kJ/mol
# GULP energy per Si atom -5585.004448 kJ/mol
# Density = 1.979711 g / cm^3
# Si number density = 19.842271 Si / 1000 Ang^3
#
#
#
# Elastic Constant Matrix: (Units=GPa)
#
#
# Indices 1 2 3 4 5 6 
#
# 1 63.5327 -2.2747 6.8367 0.0000 15.9683 0.0000
# 2 -2.2747 111.7932 27.2365 0.0000 14.0638 0.0000
# 3 6.8367 27.2365 61.0208 0.0000 16.8857 0.0000
# 4 0.0000 0.0000 0.0000 17.8255 0.0000 -0.1015
# 5 15.9683 14.0638 16.8857 0.0000 22.9623 0.0000
# 6 0.0000 0.0000 0.0000 -0.1015 0.0000 20.5426
#
#
#
# Elastic Compliance Matrix: (Units=1/GPa)
#
#
# Indices 1 2 3 4 5 6 
#
# 1 0.019673 0.002092 0.001258 0.000000 -0.015887 0.000000
# 2 0.002092 0.010499 -0.003438 0.000000 -0.005357 0.000000
# 3 0.001258 -0.003438 0.021897 0.000000 -0.014871 0.000000
# 4 0.000000 0.000000 0.000000 0.056101 0.000000 0.000277
# 5 -0.015887 -0.005357 -0.014871 0.000000 0.068815 0.000000
# 6 0.000000 0.000000 0.000000 0.000277 0.000000 0.048681
#
#
# Mechanical properties :
#
#
# Convention : Reuss Voigt Hill
#
# Bulk Modulus (GPa) = 19.27024 33.32706 26.29865
# Shear Modulus (GPa) = 20.56443 25.90263 23.23353
#
# Velocity S-wave (km/s) = 3.22280 3.61699 3.42557
# Velocity P-wave (km/s) = 4.85607 5.85457 5.37854
#
# Compressibility (1/GPa) = 0.05189350
#
# Stress axis : x y z
#
# Youngs Moduli (GPa) = 50.83218 95.24446 45.66884
#
# Poissons Ratio (x) = -0.19929 -0.05747
# Poissons Ratio (y) = -0.10636 0.15702
# Poissons Ratio (z) = -0.06397 0.32748
#
# Static dielectric constant tensor:
#      x y z
#    x 1.702660 0.000000 0.004360 
#    y 0.000000 1.694820 0.000000 
#    z 0.004360 0.000000 1.714810 
# 
# From -- ./inp_files/122152.got.cif
#   From: 2010.05.17/outbox.cif.g08.bks.cpg/sg12_62_cif.got.tgz:122152.got - 2010.06.03 13:09:07.
