data_PCOD9213267
_publ_section_title
;
Structure prediction by ZEFSAII (Michael W. Deem and Ramdas Pophale) SiO2 
 PCOD9213267
Probable space group: C 2/M
;
_chemical_formula_sum "Si O2"
_cell_formula_units_Z 36
_cell_length_a 12.320631
_cell_length_b 19.956536
_cell_length_c 17.713105
_cell_angle_alpha 90.000000
_cell_angle_beta 153.723022
_cell_angle_gamma 90.000000
_cell_volume 1928.115562
_symmetry_space_group_name_H-M "C 2/M"
_symmetry_group_IT_number 12
_symmetry_cell_setting 'monoclinic'
loop_
_space_group_symop_operation_xyz
x,y,z
-x,y,-z
-x,-y,-z
x,-y,z
1/2+x,1/2+y,z
1/2-x,1/2+y,-z
1/2-x,1/2-y,-z
1/2+x,1/2-y,z
loop_
_atom_site_type_symbol
_atom_site_label
_atom_site_fract_x
_atom_site_fract_y
_atom_site_fract_z
Si Si1 0.661394 0.077368 0.462123
Si Si2 0.500000 0.231967 0.000000
Si Si3 0.197777 0.316284 0.687399
Si Si4 0.096641 0.863382 0.819019
Si Si5 0.275468 0.000000 0.642086
Si Si6 0.631184 0.000000 0.001050
O O1 0.441495 0.120253 0.360885
O O2 0.658759 0.062787 0.371167
O O3 0.905751 0.119081 0.633046
O O4 0.671389 0.000000 0.499807
O O5 0.316842 0.272233 0.829016
O O6 0.314108 0.186003 0.932027
O O7 0.430278 0.337275 0.782837
O O8 0.000000 0.289205 0.500000
O O9 0.210360 0.934304 0.909702
O O10 0.000000 0.000000 0.500000
O O11 0.430754 0.000000 0.812708
O O12 0.500000 0.000000 0.000000
#
# Coordination Sequence:
#
# PCOD9213267 Si02
#       6
#     8   4   8   8   4   4
#     4   9  21  42  65  98 127 166 219 276 338 385
#     4  12  26  45  63  94 140 180 234 258 332 404
#     4  10  25  44  66  97 132 181 221 273 331 396
#     4  11  23  42  68  94 134 171 222 282 328 396
#     4  10  22  37  62 103 131 164 210 273 348 393
#     4  12  22  39  64 101 127 167 217 277 342 375
#
# _framework density 18.67108
#
# number of rings (size 3 to 8) (size 9 to 14) (size 15 to 20)
#    0.667    0.889    2.222    2.000    4.667    4.889 
#    4.000    1.667    0.000    0.000    0.000    0.000 
#    0.000    0.000    0.000    0.000    0.000    0.000 
#
# Total GULP energy -100231.492527 kJ/mol
# GULP energy per Si atom -5568.416252 kJ/mol
# Density = 1.862858 g / cm^3
# Si number density = 18.671080 Si / 1000 Ang^3
#
#
#
# Elastic Constant Matrix: (Units=GPa)
#
#
# Indices 1 2 3 4 5 6 
#
# 1 103.4136 33.3909 68.5826 0.0004 3.4263 0.0157
# 2 33.3909 84.6112 56.3223 0.0025 3.5696 -0.0047
# 3 68.5826 56.3223 116.0719 0.0156 4.3537 0.0095
# 4 0.0004 0.0025 0.0156 44.3984 0.0030 14.1459
# 5 3.4263 3.5696 4.3537 0.0030 44.8032 0.0107
# 6 0.0157 -0.0047 0.0095 14.1459 0.0107 -45.9552
#
#
#
# Elastic Compliance Matrix: (Units=1/GPa)
#
#
# Indices 1 2 3 4 5 6 
#
# 1 0.015905 -0.000023 -0.009375 0.000002 -0.000303 0.000004
# 2 -0.000023 0.017472 -0.008443 0.000003 -0.000570 -0.000003
# 3 -0.009375 -0.008443 0.018266 -0.000006 -0.000385 0.000000
# 4 0.000002 0.000003 -0.000006 0.020512 -0.000003 0.006314
# 5 -0.000303 -0.000570 -0.000385 -0.000003 0.022426 0.000004
# 6 0.000004 -0.000003 0.000000 0.006314 0.000004 -0.019817
#
#
# Mechanical properties :
#
#
# Convention : Reuss Voigt Hill
#
# Bulk Modulus (GPa) = 62.65463 68.96535 65.80999
# Shear Modulus (GPa) = 43.19055 18.36933 30.77994
#
# Velocity S-wave (km/s) = 4.81483 3.14002 4.06462
# Velocity P-wave (km/s) = 8.03368 7.08262 7.57309
#
# Compressibility (1/GPa) = 0.01596051
#
# Stress axis : x y z
#
# Youngs Moduli (GPa) = 62.87414 57.23388 54.74694
#
# Poissons Ratio (x) = 0.00134 0.51324
# Poissons Ratio (y) = 0.00147 0.46222
# Poissons Ratio (z) = 0.58943 0.48322
#
# Static dielectric constant tensor:
#      x y z
#    x 1.656000 0.000000 0.067590 
#    y 0.000000 1.657850 0.000000 
#    z 0.067590 0.000000 1.963140 
# 
# From -- ./inp_files/312087.got.cif
#   From: 2010.05.17/outbox.cif.g08.bks.cpg/sg12_157_cif.got.tgz:312087.got - 2010.06.03 13:09:07.
