data_PCOD9213482
_publ_section_title
;
Structure prediction by ZEFSAII (Michael W. Deem and Ramdas Pophale) SiO2 
 PCOD9213482
Probable space group: C 2/M
;
_chemical_formula_sum "Si O2"
_cell_formula_units_Z 64
_cell_length_a 15.123343
_cell_length_b 24.706006
_cell_length_c 12.801137
_cell_angle_alpha 90.000000
_cell_angle_beta 35.384796
_cell_angle_gamma 90.000000
_cell_volume 2769.657670
_symmetry_space_group_name_H-M "C 2/M"
_symmetry_group_IT_number 12
_symmetry_cell_setting 'monoclinic'
loop_
_space_group_symop_operation_xyz
x,y,z
-x,y,-z
-x,-y,-z
x,-y,z
1/2+x,1/2+y,z
1/2-x,1/2+y,-z
1/2-x,1/2-y,-z
1/2+x,1/2-y,z
loop_
_atom_site_type_symbol
_atom_site_label
_atom_site_fract_x
_atom_site_fract_y
_atom_site_fract_z
Si Si1 0.431450 0.314269 0.766395
Si Si2 0.314524 0.871790 0.689146
Si Si3 0.379665 0.399478 0.541016
Si Si4 0.720311 0.252266 0.831851
Si Si5 0.692790 0.901982 0.083420
Si Si6 0.333245 0.119529 0.435285
Si Si7 0.590656 0.230963 0.748772
Si Si8 0.670488 0.941306 0.880618
O O1 0.519097 0.352361 0.602548
O O2 0.356988 0.265790 0.773456
O O3 0.554116 0.286857 0.724785
O O4 0.298273 0.349755 0.950649
O O5 0.500000 0.863218 0.500000
O O6 0.231585 0.816566 0.804090
O O7 0.277152 0.912078 0.822003
O O8 0.270542 0.886073 0.613189
O O9 0.500000 0.431618 0.500000
O O10 0.276519 0.413370 0.538678
O O11 0.248659 0.389792 0.752074
O O12 0.718183 0.232830 0.714981
O O13 0.571097 0.227457 0.033045
O O14 0.508740 0.898840 0.260590
O O15 0.711295 0.939253 0.963336
O O16 0.362478 0.181763 0.370406
O O17 0.724403 0.000000 0.787828
O O18 0.500000 0.938120 0.000000
#
# Coordination Sequence:
#
# PCOD9213482 Si02
#       8
#     8   8   8   8   8   8   8   8
#     4  12  22  38  60  92 125 176 225 265 324 373
#     4  10  22  38  59  85 124 176 222 271 308 370
#     4  12  25  39  64  99 132 164 209 267 332 398
#     4  11  22  36  53  84 126 176 233 280 310 357
#     4  11  21  42  67  89 124 166 215 262 331 398
#     4  11  23  40  59  91 134 177 226 269 316 370
#     4  11  23  35  58  83 129 184 233 279 303 363
#     4  11  25  48  77 102 127 159 204 272 349 420
#
# _framework density 23.107548999999999
#
# number of rings (size 3 to 8) (size 9 to 14) (size 15 to 20)
#    0.000    0.875    5.000    3.375    0.000    4.750 
#    0.000    0.000    0.000    4.125    0.000    0.875 
#    0.000    0.000    0.000    0.000    0.000    0.000 
#
# Total GULP energy -178136.642619 kJ/mol
# GULP energy per Si atom -5566.770082 kJ/mol
# Density = 2.305496 g / cm^3
# Si number density = 23.107549 Si / 1000 Ang^3
#
#
#
# Elastic Constant Matrix: (Units=GPa)
#
#
# Indices 1 2 3 4 5 6 
#
# 1 137.6536 29.5887 60.3061 -0.0003 32.6148 0.0002
# 2 29.5887 23.5997 13.4125 -0.0001 15.5615 0.0004
# 3 60.3061 13.4125 86.8103 0.0001 31.2315 0.0006
# 4 -0.0003 -0.0001 0.0001 9.0480 0.0001 -1.9097
# 5 32.6148 15.5615 31.2315 0.0001 43.7175 -0.0004
# 6 0.0002 0.0004 0.0006 -1.9097 -0.0004 -4.5643
#
#
#
# Elastic Compliance Matrix: (Units=1/GPa)
#
#
# Indices 1 2 3 4 5 6 
#
# 1 0.013047 -0.012091 -0.007055 0.000000 -0.000389 -0.000001
# 2 -0.012091 0.066827 0.004559 0.000002 -0.018024 0.000007
# 3 -0.007055 0.004559 0.019390 0.000000 -0.010211 0.000003
# 4 0.000000 0.000002 0.000000 0.101553 -0.000001 -0.042491
# 5 -0.000389 -0.018024 -0.010211 -0.000001 0.036875 -0.000005
# 6 -0.000001 0.000007 0.000003 -0.042491 -0.000005 -0.201313
#
#
# Mechanical properties :
#
#
# Convention : Reuss Voigt Hill
#
# Bulk Modulus (GPa) = 14.26765 50.51982 32.39373
# Shear Modulus (GPa) = 56.23234 19.29065 37.76150
#
# Velocity S-wave (km/s) = 4.93841 2.89246 4.04686
# Velocity P-wave (km/s) = 6.22134 5.75026 5.99043
#
# Compressibility (1/GPa) = 0.07008863
#
# Stress axis : x y z
#
# Youngs Moduli (GPa) = 76.64729 14.96401 51.57318
#
# Poissons Ratio (x) = 0.18094 0.36386
# Poissons Ratio (y) = 0.92677 -0.23513
# Poissons Ratio (z) = 0.54077 -0.06822
#
# Static dielectric constant tensor:
#      x y z
#    x 1.962770 0.000000 0.020810 
#    y 0.000000 1.883720 0.000000 
#    z 0.020810 0.000000 1.938110 
# 
# From -- ./inp_files/149754.got.cif
#   From: 2010.05.17/outbox.cif.g08.bks.cpg/sg12_75_cif.got.tgz:149754.got - 2010.06.03 13:09:07.
