data_PCOD9213332
_publ_section_title
;
Structure prediction by ZEFSAII (Michael W. Deem and Ramdas Pophale) SiO2 
 PCOD9213332
Probable space group: C 2/M
;
_chemical_formula_sum "Si O2"
_cell_formula_units_Z 56
_cell_length_a 13.811319
_cell_length_b 7.335392
_cell_length_c 22.007039
_cell_angle_alpha 90.000000
_cell_angle_beta 103.117078
_cell_angle_gamma 90.000000
_cell_volume 2171.391800
_symmetry_space_group_name_H-M "C 2/M"
_symmetry_group_IT_number 12
_symmetry_cell_setting 'monoclinic'
loop_
_space_group_symop_operation_xyz
x,y,z
-x,y,-z
-x,-y,-z
x,-y,z
1/2+x,1/2+y,z
1/2-x,1/2+y,-z
1/2-x,1/2-y,-z
1/2+x,1/2-y,z
loop_
_atom_site_type_symbol
_atom_site_label
_atom_site_fract_x
_atom_site_fract_y
_atom_site_fract_z
Si Si1 0.388186 0.220792 0.344476
Si Si2 0.191955 0.220276 0.081014
Si Si3 0.761323 0.282502 0.430708
Si Si4 0.408340 0.284201 0.050269
Si Si5 0.781772 0.715766 0.213455
Si Si6 0.998254 0.780579 0.183396
Si Si7 0.597740 0.290152 0.315630
O O1 0.360003 0.276926 0.408564
O O2 0.300820 0.279345 0.284897
O O3 0.491248 0.291705 0.333849
O O4 0.394304 0.000000 0.342055
O O5 0.299111 0.262396 0.065624
O O6 0.204081 0.286573 0.152109
O O7 0.182372 0.000000 0.081945
O O8 0.109904 0.285977 0.020769
O O9 0.759598 0.500000 0.425269
O O10 0.750000 0.250000 0.500000
O O11 0.672119 0.209717 0.375902
O O12 0.428505 0.500000 0.047918
O O13 0.484287 0.213129 0.112331
O O14 0.763601 0.500000 0.214207
O O15 0.890498 0.744473 0.198597
O O16 0.076278 0.712465 0.245120
O O17 0.011141 0.000000 0.181680
O O18 0.628322 0.500000 0.309660
#
# Coordination Sequence:
#
# PCOD9213332 Si02
#       7
#     8   8   8   8   8   8   8
#     4   9  18  33  52  73  97 126 159 194 233 278
#     4   8  12  17  27  47  76 108 141 178 218 257
#     4  10  22  38  54  74  99 125 155 191 234 286
#     4   8  12  17  27  47  76 108 141 178 218 257
#     4   8  13  22  37  57  82 113 148 184 221 263
#     4   8  13  22  37  57  82 113 148 184 221 263
#     4   9  18  33  52  73  97 126 159 194 233 278
#
# _framework density 25.789911
#
# number of rings (size 3 to 8) (size 9 to 14) (size 15 to 20)
#    0.000    3.429    0.000    0.000    0.000    1.714 
#    0.000    2.857    0.000    0.000    0.000    1.000 
#    0.000    8.000    0.000    0.000    0.000  481.714 
#
# Total GULP energy -156323.787104 kJ/mol
# GULP energy per Si atom -5582.992397 kJ/mol
# Density = 2.573121 g / cm^3
# Si number density = 25.789911 Si / 1000 Ang^3
#
#
#
# Elastic Constant Matrix: (Units=GPa)
#
#
# Indices 1 2 3 4 5 6 
#
# 1 104.1012 0.6835 66.0376 0.0000 -15.8013 0.0000
# 2 0.6835 109.1610 6.8549 0.0000 -0.6300 0.0000
# 3 66.0376 6.8549 226.2977 0.0000 -36.4505 0.0000
# 4 0.0000 0.0000 0.0000 0.6817 0.0000 2.8484
# 5 -15.8013 -0.6300 -36.4505 0.0000 57.6393 0.0000
# 6 0.0000 0.0000 0.0000 2.8484 0.0000 -9.3894
#
#
#
# Elastic Compliance Matrix: (Units=1/GPa)
#
#
# Indices 1 2 3 4 5 6 
#
# 1 0.011862 0.000138 -0.003275 0.000000 0.001182 0.000000
# 2 0.000138 0.009180 -0.000330 0.000000 -0.000070 0.000000
# 3 -0.003275 -0.000330 0.005834 0.000000 0.002788 0.000000
# 4 0.000000 0.000000 0.000000 0.646911 0.000000 0.196246
# 5 0.001182 -0.000070 0.002788 0.000000 0.019435 0.000000
# 6 0.000000 0.000000 0.000000 0.196246 0.000000 -0.046970
#
#
# Mechanical properties :
#
#
# Convention : Reuss Voigt Hill
#
# Bulk Modulus (GPa) = 50.14415 65.19021 57.66718
# Shear Modulus (GPa) = 7.57766 34.18526 20.88146
#
# Velocity S-wave (km/s) = 1.71599 3.64473 2.84857
# Velocity P-wave (km/s) = 4.83856 6.56082 5.76437
#
# Compressibility (1/GPa) = 0.01994250
#
# Stress axis : x y z
#
# Youngs Moduli (GPa) = 84.30032 108.92993 171.41513
#
# Poissons Ratio (x) = -0.01506 0.56146
# Poissons Ratio (y) = -0.01165 0.05652
# Poissons Ratio (z) = 0.27612 0.03592
#
# Static dielectric constant tensor:
#      x y z
#    x 2.071660 0.000000 -0.004660 
#    y 0.000000 1.739060 0.000000 
#    z -0.004660 0.000000 2.051090 
# 
# From -- ./inp_files/338171.got.cif
#   From: 2010.05.17/outbox.cif.g08.bks.cpg/sg12_170_cif.got.tgz:338171.got - 2010.06.03 13:09:07.
