data_PCOD9213219
_publ_section_title
;
Structure prediction by ZEFSAII (Michael W. Deem and Ramdas Pophale) SiO2 
 PCOD9213219
Probable space group: C 2/M
;
_chemical_formula_sum "Si O2"
_cell_formula_units_Z 42
_cell_length_a 9.007703
_cell_length_b 19.755833
_cell_length_c 12.278451
_cell_angle_alpha 90.000000
_cell_angle_beta 75.810826
_cell_angle_gamma 90.000000
_cell_volume 2118.346863
_symmetry_space_group_name_H-M "C 2/M"
_symmetry_group_IT_number 12
_symmetry_cell_setting 'monoclinic'
loop_
_space_group_symop_operation_xyz
x,y,z
-x,y,-z
-x,-y,-z
x,-y,z
1/2+x,1/2+y,z
1/2-x,1/2+y,-z
1/2-x,1/2-y,-z
1/2+x,1/2-y,z
loop_
_atom_site_type_symbol
_atom_site_label
_atom_site_fract_x
_atom_site_fract_y
_atom_site_fract_z
Si Si1 0.967372 0.577196 0.172925
Si Si2 0.295470 0.318036 0.798325
Si Si3 0.500000 0.500000 0.000000
Si Si4 0.121298 0.576740 0.382794
Si Si5 0.218843 0.871116 0.970393
Si Si6 0.646033 0.317739 0.744108
O O1 0.950213 0.500000 0.140395
O O2 0.807356 0.615879 0.201923
O O3 0.032584 0.577592 0.284043
O O4 0.101590 0.613264 0.080188
O O5 0.472639 0.319036 0.734205
O O6 0.212747 0.257095 0.750440
O O7 0.299388 0.316882 0.929910
O O8 0.626125 0.440154 0.009441
O O9 0.185661 0.500000 0.383894
O O10 0.249356 0.634151 0.349316
O O11 0.000000 0.588659 0.500000
O O12 0.155781 0.847310 0.864971
#
# Coordination Sequence:
#
# PCOD9213219 Si02
#       6
#     8   8   2   8   8   8
#     4  10  22  37  59  87 121 153 199 249 297 349
#     4  12  24  38  56  87 122 163 200 239 293 353
#     4  12  20  36  58  92 118 162 208 236 294 348
#     4   9  20  42  69  91 114 149 194 248 304 356
#     4  11  22  36  59  85 124 159 200 239 290 352
#     4  11  23  39  58  84 119 160 199 243 292 354
#
# _framework density 19.826782999999999
#
# number of rings (size 3 to 8) (size 9 to 14) (size 15 to 20)
#    0.000    1.333    2.857    3.429    2.667    3.048 
#    0.000    4.762    0.000    3.429    0.000    0.000 
#    0.000    0.000    0.000    0.000    0.000    0.000 
#
# Total GULP energy -116990.866117 kJ/mol
# GULP energy per Si atom -5570.993625 kJ/mol
# Density = 1.978166 g / cm^3
# Si number density = 19.826783 Si / 1000 Ang^3
#
#
#
# Elastic Constant Matrix: (Units=GPa)
#
#
# Indices 1 2 3 4 5 6 
#
# 1 151.5878 54.5314 16.1443 0.0000 -26.6528 0.0000
# 2 54.5314 80.6581 19.6381 0.0000 -25.0437 0.0000
# 3 16.1443 19.6381 62.6449 0.0000 -22.8656 0.0000
# 4 0.0000 0.0000 0.0000 7.4047 0.0000 -4.1484
# 5 -26.6528 -25.0437 -22.8656 0.0000 15.9257 0.0000
# 6 0.0000 0.0000 0.0000 -4.1484 0.0000 37.8754
#
#
#
# Elastic Compliance Matrix: (Units=1/GPa)
#
#
# Indices 1 2 3 4 5 6 
#
# 1 0.011043 -0.000174 0.008098 0.000000 0.029833 0.000000
# 2 -0.000174 0.030920 0.016794 0.000000 0.072444 0.000000
# 3 0.008098 0.016794 0.048741 0.000000 0.109942 0.000000
# 4 0.000000 0.000000 0.000000 0.143878 0.000000 0.015758
# 5 0.029833 0.072444 0.109942 0.000000 0.384492 0.000000
# 6 0.000000 0.000000 0.000000 0.015758 0.000000 0.028128
#
#
# Mechanical properties :
#
#
# Convention : Reuss Voigt Hill
#
# Bulk Modulus (GPa) = 7.13576 52.83540 29.98558
# Shear Modulus (GPa) = 7.75822 25.87963 16.81893
#
# Velocity S-wave (km/s) = 1.98028 3.61679 2.91571
# Velocity P-wave (km/s) = 2.97246 6.64439 5.14701
#
# Compressibility (1/GPa) = 0.14013931
#
# Stress axis : x y z
#
# Youngs Moduli (GPa) = 90.55920 32.34143 20.51676
#
# Poissons Ratio (x) = 0.00564 -0.16615
# Poissons Ratio (y) = 0.01578 -0.34456
# Poissons Ratio (z) = -0.73336 -0.54315
#
# Static dielectric constant tensor:
#      x y z
#    x 1.707990 0.000000 0.009340 
#    y 0.000000 1.710140 0.000000 
#    z 0.009340 0.000000 1.710050 
# 
# From -- ./inp_files/120653.got.cif
#   From: 2010.05.17/outbox.cif.g08.bks.cpg/sg12_61_cif.got.tgz:120653.got - 2010.06.03 13:09:07.
