data_PCOD9213386
_publ_section_title
;
Structure prediction by ZEFSAII (Michael W. Deem and Ramdas Pophale) SiO2 
 PCOD9213386
Probable space group: C 2/M
;
_chemical_formula_sum "Si O2"
_cell_formula_units_Z 48
_cell_length_a 11.572867
_cell_length_b 30.302546
_cell_length_c 14.580750
_cell_angle_alpha 90.000000
_cell_angle_beta 151.042199
_cell_angle_gamma 90.000000
_cell_volume 2475.674963
_symmetry_space_group_name_H-M "C 2/M"
_symmetry_group_IT_number 12
_symmetry_cell_setting 'monoclinic'
loop_
_space_group_symop_operation_xyz
x,y,z
-x,y,-z
-x,-y,-z
x,-y,z
1/2+x,1/2+y,z
1/2-x,1/2+y,-z
1/2-x,1/2-y,-z
1/2+x,1/2-y,z
loop_
_atom_site_type_symbol
_atom_site_label
_atom_site_fract_x
_atom_site_fract_y
_atom_site_fract_z
Si Si1 0.892070 0.000000 0.249152
Si Si2 0.528425 0.000000 0.169559
Si Si3 0.059236 0.336617 0.324896
Si Si4 0.515833 0.708476 0.610807
Si Si5 0.688540 0.300924 0.926633
Si Si6 0.319153 0.425619 0.460594
Si Si7 0.215628 0.800317 0.221729
O O1 0.045617 0.044058 0.371154
O O2 0.706098 0.000000 0.205208
O O3 0.738923 0.000000 0.051459
O O4 0.602020 0.956352 0.275328
O O5 0.241153 0.295223 0.451108
O O6 0.218804 0.379857 0.427290
O O7 0.894117 0.335138 0.300173
O O8 0.884375 0.329864 0.116013
O O9 0.500000 0.685108 0.500000
O O10 0.672301 0.692161 0.806289
O O11 0.639034 0.755019 0.674602
O O12 0.424451 0.310716 0.783045
O O13 0.750000 0.250000 0.000000
O O14 0.500000 0.419870 0.500000
O O15 0.000000 0.794088 0.000000
#
# Coordination Sequence:
#
# PCOD9213386 Si02
#       7
#     4   4   8   8   8   8   8
#     4   8  15  31  58  81 111 147 192 224 284 356
#     4   8  15  31  58  75 109 160 178 225 288 356
#     4  11  23  36  55  84 119 152 192 249 295 342
#     4  12  25  36  58  81 108 155 203 248 296 344
#     4  11  23  41  56  78 109 153 206 251 287 348
#     4   9  18  33  50  86 118 146 189 234 288 354
#     4  10  22  38  57  76 107 152 203 244 288 343
#
# _framework density 19.388649999999998
#
# number of rings (size 3 to 8) (size 9 to 14) (size 15 to 20)
#    0.000    1.833    3.333    3.000    2.333    1.333 
#    0.000    3.333    0.000    0.000    0.000   21.000 
#    0.000   17.333    0.000    0.000    0.000    0.000 
#
# Total GULP energy -133838.290298 kJ/mol
# GULP energy per Si atom -5576.595429 kJ/mol
# Density = 1.934452 g / cm^3
# Si number density = 19.388650 Si / 1000 Ang^3
#
#
#
# Elastic Constant Matrix: (Units=GPa)
#
#
# Indices 1 2 3 4 5 6 
#
# 1 68.3519 31.8772 36.9452 0.0000 2.6697 0.0000
# 2 31.8772 102.6750 47.0082 0.0000 12.7902 0.0000
# 3 36.9452 47.0082 127.4495 0.0000 2.1974 0.0000
# 4 0.0000 0.0000 0.0000 2.4800 0.0000 7.2931
# 5 2.6697 12.7902 2.1974 0.0000 34.8783 0.0000
# 6 0.0000 0.0000 0.0000 7.2931 0.0000 16.8566
#
#
#
# Elastic Compliance Matrix: (Units=1/GPa)
#
#
# Indices 1 2 3 4 5 6 
#
# 1 0.018611 -0.004022 -0.003917 0.000000 0.000297 0.000000
# 2 -0.004022 0.013182 -0.003622 0.000000 -0.004298 0.000000
# 3 -0.003917 -0.003622 0.010301 0.000000 0.000979 0.000000
# 4 0.000000 0.000000 0.000000 -1.480658 0.000000 0.640614
# 5 0.000297 -0.004298 0.000979 0.000000 0.030163 0.000000
# 6 0.000000 0.000000 0.000000 0.640614 0.000000 -0.217841
#
#
# Mechanical properties :
#
#
# Convention : Reuss Voigt Hill
#
# Bulk Modulus (GPa) = 52.70799 58.90418 55.80608
# Shear Modulus (GPa) = -3.13127 23.01937 9.94405
#
# Velocity S-wave (km/s) = -1.27221 3.44940 2.26714
# Velocity P-wave (km/s) = 5.00859 6.80523 5.97483
#
# Compressibility (1/GPa) = 0.01897246
#
# Stress axis : x y z
#
# Youngs Moduli (GPa) = 53.73063 75.86216 97.08114
#
# Poissons Ratio (x) = 0.30512 0.38024
# Poissons Ratio (y) = 0.21610 0.35162
# Poissons Ratio (z) = 0.21045 0.27477
#
# Static dielectric constant tensor:
#      x y z
#    x 1.748480 0.000000 -0.020470 
#    y 0.000000 1.677860 0.000000 
#    z -0.020470 0.000000 1.721930 
# 
# From -- ./inp_files/209930.got.cif
#   From: 2010.05.17/outbox.cif.g08.bks.cpg/sg12_105_cif.got.tgz:209930.got - 2010.06.03 13:09:07.
