data_PCOD9213926
_publ_section_title
;
Structure prediction by ZEFSAII (Michael W. Deem and Ramdas Pophale) SiO2 
 PCOD9213926
Probable space group: C 2/M
;
_chemical_formula_sum "Si O2"
_cell_formula_units_Z 56
_cell_length_a 11.582510
_cell_length_b 16.319634
_cell_length_c 29.162012
_cell_angle_alpha 90.000000
_cell_angle_beta 31.155264
_cell_angle_gamma 90.000000
_cell_volume 2851.823109
_symmetry_space_group_name_H-M "C 2/M"
_symmetry_group_IT_number 12
_symmetry_cell_setting 'monoclinic'
loop_
_space_group_symop_operation_xyz
x,y,z
-x,y,-z
-x,-y,-z
x,-y,z
1/2+x,1/2+y,z
1/2-x,1/2+y,-z
1/2-x,1/2-y,-z
1/2+x,1/2-y,z
loop_
_atom_site_type_symbol
_atom_site_label
_atom_site_fract_x
_atom_site_fract_y
_atom_site_fract_z
Si Si1 0.362367 0.657599 0.789032
Si Si2 0.013454 0.597475 0.333777
Si Si3 0.781580 0.707033 0.340772
Si Si4 0.394870 0.795584 0.989123
Si Si5 0.604658 0.174351 0.530220
Si Si6 0.009611 0.907013 0.161456
Si Si7 0.464765 0.402798 0.652580
O O1 0.495473 0.743620 0.748905
O O2 0.468826 0.598637 0.790995
O O3 0.392185 0.623629 0.728033
O O4 0.106007 0.668248 0.890364
O O5 0.997406 0.500000 0.332991
O O6 0.837882 0.646253 0.362873
O O7 0.973882 0.620745 0.399815
O O8 0.262525 0.626054 0.234620
O O9 0.612625 0.778561 0.414196
O O10 0.673883 0.653335 0.336487
O O11 0.218046 0.859740 0.069857
O O12 0.500000 0.754024 0.000000
O O13 0.250000 0.750000 0.000000
O O14 0.750000 0.250000 0.500000
O O15 0.774419 0.120375 0.442961
O O16 0.017764 0.000000 0.143008
O O17 0.430956 0.500000 0.656493
#
# Coordination Sequence:
#
# PCOD9213926 Si02
#       7
#     8   8   8   8   8   8   8
#     4  11  23  39  66  91 126 162 210 255 312 374
#     4  11  22  40  64  90 125 164 209 262 317 376
#     4  11  22  40  65  90 123 163 213 261 314 375
#     4  10  23  39  67  96 127 166 213 262 315 384
#     4  10  22  39  60  87 121 161 208 254 311 373
#     4  10  22  42  65  94 125 165 209 258 316 378
#     4  11  25  41  60  91 127 163 207 260 320 373
#
# _framework density 19.636562000000001
#
# number of rings (size 3 to 8) (size 9 to 14) (size 15 to 20)
#    0.000    1.429    1.429    3.857    4.000    8.286 
#    0.000    4.286    0.000    0.429    0.000    0.000 
#    0.000    0.000    0.000    0.000    0.000    0.000 
#
# Total GULP energy -156288.517463 kJ/mol
# GULP energy per Si atom -5581.732767 kJ/mol
# Density = 1.959187 g / cm^3
# Si number density = 19.636562 Si / 1000 Ang^3
#
#
#
# Elastic Constant Matrix: (Units=GPa)
#
#
# Indices 1 2 3 4 5 6 
#
# 1 115.4306 45.9065 56.0518 -0.0041 -1.9327 0.0040
# 2 45.9065 81.8479 35.0054 -0.0045 9.6114 0.0045
# 3 56.0518 35.0054 131.1036 -0.0175 16.9701 0.0112
# 4 -0.0041 -0.0045 -0.0175 19.5517 0.0086 1.2369
# 5 -1.9327 9.6114 16.9701 0.0086 20.0779 -0.0066
# 6 0.0040 0.0045 0.0112 1.2369 -0.0066 29.7941
#
#
#
# Elastic Compliance Matrix: (Units=1/GPa)
#
#
# Indices 1 2 3 4 5 6 
#
# 1 0.014104 -0.006659 -0.005435 -0.000008 0.009139 0.000003
# 2 -0.006659 0.017217 -0.000674 0.000006 -0.008313 -0.000004
# 3 -0.005435 -0.000674 0.011405 0.000014 -0.009840 -0.000006
# 4 -0.000008 0.000006 0.000014 0.051281 -0.000038 -0.002129
# 5 0.009139 -0.008313 -0.009840 -0.000038 0.062982 0.000019
# 6 0.000003 -0.000004 -0.000006 -0.002129 0.000019 0.033652
#
#
# Mechanical properties :
#
#
# Convention : Reuss Voigt Hill
#
# Bulk Modulus (GPa) = 58.17385 66.92329 62.54857
# Shear Modulus (GPa) = 22.53197 26.64596 24.58896
#
# Velocity S-wave (km/s) = 3.39108 3.68769 3.54249
# Velocity P-wave (km/s) = 6.70985 7.23097 6.97528
#
# Compressibility (1/GPa) = 0.01718985
#
# Stress axis : x y z
#
# Youngs Moduli (GPa) = 70.90380 58.08131 87.68271
#
# Poissons Ratio (x) = 0.38677 0.47653
# Poissons Ratio (y) = 0.47216 0.05909
# Poissons Ratio (z) = 0.38534 0.03914
#
# Static dielectric constant tensor:
#      x y z
#    x 1.733930 -0.000020 -0.022990 
#    y -0.000020 1.682250 0.000010 
#    z -0.022990 0.000010 1.697210 
# 
# From -- ./inp_files/263409.got.cif
#   From: 2010.05.17/outbox.cif.g08.bks.cpg/sg12_132_cif.got.tgz:263409.got - 2010.06.03 13:09:07.
