data_PCOD9213195
_publ_section_title
;
Structure prediction by ZEFSAII (Michael W. Deem and Ramdas Pophale) SiO2 
 PCOD9213195
Probable space group: C 2/M
;
_chemical_formula_sum "Si O2"
_cell_formula_units_Z 50
_cell_length_a 5.481285
_cell_length_b 23.989906
_cell_length_c 17.402239
_cell_angle_alpha 90.000000
_cell_angle_beta 70.743669
_cell_angle_gamma 90.000000
_cell_volume 2160.290942
_symmetry_space_group_name_H-M "C 2/M"
_symmetry_group_IT_number 12
_symmetry_cell_setting 'monoclinic'
loop_
_space_group_symop_operation_xyz
x,y,z
-x,y,-z
-x,-y,-z
x,-y,z
1/2+x,1/2+y,z
1/2-x,1/2+y,-z
1/2-x,1/2-y,-z
1/2+x,1/2-y,z
loop_
_atom_site_type_symbol
_atom_site_label
_atom_site_fract_x
_atom_site_fract_y
_atom_site_fract_z
Si Si1 0.597209 0.380485 0.184290
Si Si2 0.866950 0.194802 0.088078
Si Si3 0.935440 0.067674 0.592668
Si Si4 0.154320 0.433025 0.316607
Si Si5 0.826545 0.231847 0.746214
Si Si6 0.584187 0.914168 0.078103
Si Si7 0.000000 0.000000 0.000000
O O1 0.573803 0.345552 0.108067
O O2 0.316472 0.404660 0.231779
O O3 0.667975 0.333362 0.238555
O O4 0.827110 0.424662 0.154759
O O5 0.761990 0.234891 0.165947
O O6 0.653157 0.150658 0.082575
O O7 0.000000 0.221914 0.000000
O O8 0.643477 0.084904 0.645538
O O9 0.000000 0.087103 0.500000
O O10 0.166724 0.081259 0.627651
O O11 0.927498 0.000000 0.591763
O O12 0.159217 0.500000 0.307468
O O13 0.618623 0.248410 0.704899
O O14 0.833820 0.951725 0.063203
O O15 0.500000 0.928057 0.000000
#
# Coordination Sequence:
#
# PCOD9213195 Si02
#       7
#     8   8   8   8   8   8   2
#     4  11  24  38  57  83 124 155 201 263 317 373
#     4  11  22  40  59  83 108 152 213 273 320 370
#     4   9  18  37  63  91 124 159 199 239 287 362
#     4  10  22  37  58  92 124 166 197 239 305 366
#     4  10  22  37  58  83 112 149 198 258 326 368
#     4  12  23  42  57  80 108 160 211 265 312 366
#     4  12  26  40  60  78 108 156 224 246 326 364
#
# _framework density 23.145032
#
# number of rings (size 3 to 8) (size 9 to 14) (size 15 to 20)
#    0.000    1.440    4.000    0.720    3.360    5.120 
#    1.440    0.000    0.000    0.000    0.000    0.000 
#    0.000   51.200    0.000    0.000    0.000    0.000 
#
# Total GULP energy -139496.306392 kJ/mol
# GULP energy per Si atom -5579.852256 kJ/mol
# Density = 2.309235 g / cm^3
# Si number density = 23.145032 Si / 1000 Ang^3
#
#
#
# Elastic Constant Matrix: (Units=GPa)
#
#
# Indices 1 2 3 4 5 6 
#
# 1 138.4606 17.2350 27.8048 0.0000 -21.7038 0.0000
# 2 17.2350 64.6912 18.3257 0.0000 -11.0335 0.0000
# 3 27.8048 18.3257 63.5013 0.0000 -15.2712 0.0000
# 4 0.0000 0.0000 0.0000 11.6848 0.0000 -4.2653
# 5 -21.7038 -11.0335 -15.2712 0.0000 37.1538 0.0000
# 6 0.0000 0.0000 0.0000 -4.2653 0.0000 -18.5472
#
#
#
# Elastic Compliance Matrix: (Units=1/GPa)
#
#
# Indices 1 2 3 4 5 6 
#
# 1 0.008412 -0.000903 -0.002558 0.000000 0.003594 0.000000
# 2 -0.000903 0.017311 -0.003874 0.000000 0.003021 0.000000
# 3 -0.002558 -0.003874 0.019253 0.000000 0.005269 0.000000
# 4 0.000000 0.000000 0.000000 0.078954 0.000000 -0.018157
# 5 0.003594 0.003021 0.005269 0.000000 0.032077 0.000000
# 6 0.000000 0.000000 0.000000 -0.018157 0.000000 -0.049741
#
#
# Mechanical properties :
#
#
# Convention : Reuss Voigt Hill
#
# Bulk Modulus (GPa) = 32.99757 43.70935 38.35346
# Shear Modulus (GPa) = 38.15671 19.61077 28.88374
#
# Velocity S-wave (km/s) = 4.06469 2.91400 3.53646
# Velocity P-wave (km/s) = 6.02634 5.49980 5.76908
#
# Compressibility (1/GPa) = 0.03030527
#
# Stress axis : x y z
#
# Youngs Moduli (GPa) = 118.88032 57.76560 51.94055
#
# Poissons Ratio (x) = 0.05219 0.13287
# Poissons Ratio (y) = 0.10740 0.20121
# Poissons Ratio (z) = 0.30412 0.22377
#
# Static dielectric constant tensor:
#      x y z
#    x 2.026890 0.000000 0.006460 
#    y 0.000000 1.865240 0.000000 
#    z 0.006460 0.000000 1.891910 
# 
# From -- ./inp_files/253566.got.cif
#   From: 2010.05.17/outbox.cif.g08.bks.cpg/sg12_127_cif.got.tgz:253566.got - 2010.06.03 13:09:07.
