data_PCOD9213203
_publ_section_title
;
Structure prediction by ZEFSAII (Michael W. Deem and Ramdas Pophale) SiO2 
 PCOD9213203
Probable space group: C 2/M
;
_chemical_formula_sum "Si O2"
_cell_formula_units_Z 32
_cell_length_a 19.242643
_cell_length_b 13.082309
_cell_length_c 4.766747
_cell_angle_alpha 90.000000
_cell_angle_beta 92.878811
_cell_angle_gamma 90.000000
_cell_volume 1198.457952
_symmetry_space_group_name_H-M "C 2/M"
_symmetry_group_IT_number 12
_symmetry_cell_setting 'monoclinic'
loop_
_space_group_symop_operation_xyz
x,y,z
-x,y,-z
-x,-y,-z
x,-y,z
1/2+x,1/2+y,z
1/2-x,1/2+y,-z
1/2-x,1/2-y,-z
1/2+x,1/2-y,z
loop_
_atom_site_type_symbol
_atom_site_label
_atom_site_fract_x
_atom_site_fract_y
_atom_site_fract_z
Si Si1 0.063068 0.890008 0.788736
Si Si2 0.666504 0.166434 0.193888
Si Si3 0.572833 0.167728 0.641589
Si Si4 0.206198 0.108253 0.155638
O O1 0.068013 0.790743 0.596262
O O2 0.059305 0.000000 0.641734
O O3 0.134936 0.893722 0.968248
O O4 0.000000 0.880142 0.000000
O O5 0.636082 0.123323 0.473941
O O6 0.697297 0.278723 0.279834
O O7 0.598846 0.162943 0.969321
O O8 0.728816 0.114097 0.042225
O O9 0.500000 0.127138 0.500000
O O10 0.210162 0.000000 0.318768
#
# Coordination Sequence:
#
# PCOD9213203 Si02
#       4
#     8   8   8   8
#     4   9  18  33  55  86 119 150 185 225 280 349
#     4  10  22  37  58  87 113 147 193 230 277 342
#     4  11  21  37  58  81 113 150 188 235 284 328
#     4   9  19  37  59  84 117 151 185 232 282 332
#
# _framework density 26.700977999999999
#
# number of rings (size 3 to 8) (size 9 to 14) (size 15 to 20)
#    0.000    2.250    0.000    3.750    0.000   10.500 
#    0.000    6.250    0.000    4.500    0.000    0.000 
#    0.000    0.000    0.000    0.000    0.000    0.000 
#
# Total GULP energy -89341.816188 kJ/mol
# GULP energy per Si atom -5583.863512 kJ/mol
# Density = 2.664021 g / cm^3
# Si number density = 26.700978 Si / 1000 Ang^3
#
#
#
# Elastic Constant Matrix: (Units=GPa)
#
#
# Indices 1 2 3 4 5 6 
#
# 1 168.7831 24.0824 33.9507 0.0000 -2.7917 0.0000
# 2 24.0824 100.2366 12.1695 0.0000 7.4501 0.0000
# 3 33.9507 12.1695 88.9906 0.0000 8.2156 0.0000
# 4 0.0000 0.0000 0.0000 1.7376 0.0000 0.5768
# 5 -2.7917 7.4501 8.2156 0.0000 60.7216 0.0000
# 6 0.0000 0.0000 0.0000 0.5768 0.0000 33.8938
#
#
#
# Elastic Compliance Matrix: (Units=1/GPa)
#
#
# Indices 1 2 3 4 5 6 
#
# 1 0.006617 -0.001356 -0.002412 0.000000 0.000797 0.000000
# 2 -0.001356 0.010492 -0.000803 0.000000 -0.001241 0.000000
# 3 -0.002412 -0.000803 0.012424 0.000000 -0.001693 0.000000
# 4 0.000000 0.000000 0.000000 0.578763 0.000000 -0.009849
# 5 0.000797 -0.001241 -0.001693 0.000000 0.016887 0.000000
# 6 0.000000 0.000000 0.000000 -0.009849 0.000000 0.029672
#
#
# Mechanical properties :
#
#
# Convention : Reuss Voigt Hill
#
# Bulk Modulus (GPa) = 49.04489 55.37952 52.21221
# Shear Modulus (GPa) = 7.45387 38.45778 22.95582
#
# Velocity S-wave (km/s) = 1.67262 3.79926 2.93531
# Velocity P-wave (km/s) = 4.70514 6.32705 5.57538
#
# Compressibility (1/GPa) = 0.02038948
#
# Stress axis : x y z
#
# Youngs Moduli (GPa) = 151.13276 95.31158 80.49176
#
# Poissons Ratio (x) = 0.12925 0.19418
# Poissons Ratio (y) = 0.20494 0.06462
# Poissons Ratio (z) = 0.36460 0.07652
#
# Static dielectric constant tensor:
#      x y z
#    x 2.070730 0.000000 0.039410 
#    y 0.000000 2.154000 0.000000 
#    z 0.039410 0.000000 1.989260 
# 
# From -- ./inp_files/14548.got.cif
#   From: 2010.05.17/outbox.cif.g08.bks.cpg/sg12_8_cif.got.tgz:14548.got - 2010.06.03 13:09:07.
