data_PCOD9213997
_publ_section_title
;
Structure prediction by ZEFSAII (Michael W. Deem and Ramdas Pophale) SiO2 
 PCOD9213997
Probable space group: C 2/M
;
_chemical_formula_sum "Si O2"
_cell_formula_units_Z 58
_cell_length_a 9.497731
_cell_length_b 14.131914
_cell_length_c 22.659910
_cell_angle_alpha 90.000000
_cell_angle_beta 92.069548
_cell_angle_gamma 90.000000
_cell_volume 3039.454603
_symmetry_space_group_name_H-M "C 2/M"
_symmetry_group_IT_number 12
_symmetry_cell_setting 'monoclinic'
loop_
_space_group_symop_operation_xyz
x,y,z
-x,y,-z
-x,-y,-z
x,-y,z
1/2+x,1/2+y,z
1/2-x,1/2+y,-z
1/2-x,1/2-y,-z
1/2+x,1/2-y,z
loop_
_atom_site_type_symbol
_atom_site_label
_atom_site_fract_x
_atom_site_fract_y
_atom_site_fract_z
Si Si1 0.567354 0.271511 0.376600
Si Si2 0.719084 0.259563 0.098418
Si Si3 0.169439 0.611645 0.002268
Si Si4 0.896329 0.608522 0.720178
Si Si5 0.476715 0.239081 0.180955
Si Si6 0.333202 0.812973 0.453274
Si Si7 0.560814 0.606772 0.725685
Si Si8 0.500000 0.000000 0.500000
O O1 0.581618 0.178532 0.334976
O O2 0.469728 0.240964 0.429623
O O3 0.717643 0.313106 0.398666
O O4 0.486847 0.348755 0.336555
O O5 0.759379 0.344033 0.054855
O O6 0.563666 0.253837 0.122526
O O7 0.817093 0.265768 0.157128
O O8 0.736126 0.165517 0.059148
O O9 0.189868 0.500000 0.005526
O O10 0.000000 0.630268 0.000000
O O11 0.937762 0.500000 0.707647
O O12 0.976168 0.650097 0.778625
O O13 0.730043 0.609575 0.731166
O O14 0.498586 0.328122 0.223641
O O15 0.250000 0.750000 0.500000
O O16 0.387172 0.914637 0.477268
O O17 0.512232 0.500000 0.730694
#
# Coordination Sequence:
#
# PCOD9213997 Si02
#       8
#     8   8   8   8   8   8   8   2
#     4  11  23  44  67  95 136 175 212 278 330 384
#     4  11  22  39  61  87 124 160 203 260 320 376
#     4  10  22  39  61  89 116 161 212 256 314 389
#     4  10  22  39  66  95 125 169 219 260 323 398
#     4  11  22  39  61  91 125 164 201 262 321 377
#     4  12  25  47  69 102 140 177 228 281 331 403
#     4  10  22  40  62  95 127 165 215 259 323 390
#     4  12  28  44  74 106 136 184 234 276 344 398
#
# _framework density 19.082370999999998
#
# number of rings (size 3 to 8) (size 9 to 14) (size 15 to 20)
#    0.000    1.241    5.517    0.000    1.931    2.207 
#    1.241    2.759    0.000    0.000    0.000    0.000 
#    0.000    0.000    0.000    0.000    0.000    0.000 
#
# Total GULP energy -161559.002879 kJ/mol
# GULP energy per Si atom -5571.000099 kJ/mol
# Density = 1.903894 g / cm^3
# Si number density = 19.082371 Si / 1000 Ang^3
#
#
#
# Elastic Constant Matrix: (Units=GPa)
#
#
# Indices 1 2 3 4 5 6 
#
# 1 52.2895 26.7443 11.6229 0.0000 11.4889 0.0000
# 2 26.7443 134.3720 44.0411 0.0000 15.0627 0.0000
# 3 11.6229 44.0411 74.2701 0.0000 7.3624 0.0000
# 4 0.0000 0.0000 0.0000 6.6388 0.0000 4.5963
# 5 11.4889 15.0627 7.3624 0.0000 47.3360 0.0000
# 6 0.0000 0.0000 0.0000 4.5963 0.0000 25.1251
#
#
#
# Elastic Compliance Matrix: (Units=1/GPa)
#
#
# Indices 1 2 3 4 5 6 
#
# 1 0.022080 -0.003648 -0.000890 0.000000 -0.004060 0.000000
# 2 -0.003648 0.010054 -0.005243 0.000000 -0.001499 0.000000
# 3 -0.000890 -0.005243 0.016784 0.000000 -0.000726 0.000000
# 4 0.000000 0.000000 0.000000 0.172474 0.000000 -0.031552
# 5 -0.004060 -0.001499 -0.000726 0.000000 0.022701 0.000000
# 6 0.000000 0.000000 0.000000 -0.031552 0.000000 0.045573
#
#
# Mechanical properties :
#
#
# Convention : Reuss Voigt Hill
#
# Bulk Modulus (GPa) = 34.06226 47.30536 40.68381
# Shear Modulus (GPa) = 15.67335 27.72153 21.69744
#
# Velocity S-wave (km/s) = 2.86903 3.81560 3.37566
# Velocity P-wave (km/s) = 5.37252 6.65249 6.04647
#
# Compressibility (1/GPa) = 0.02935800
#
# Stress axis : x y z
#
# Youngs Moduli (GPa) = 45.29013 99.45935 59.57899
#
# Poissons Ratio (x) = 0.36281 0.05301
# Poissons Ratio (y) = 0.16521 0.31235
# Poissons Ratio (z) = 0.04030 0.52143
#
# Static dielectric constant tensor:
#      x y z
#    x 1.648620 0.000000 0.013740 
#    y 0.000000 1.627030 0.000000 
#    z 0.013740 0.000000 1.704010 
# 
# From -- ./inp_files/332630.got.cif
#   From: 2010.05.17/outbox.cif.g08.bks.cpg/sg12_167_cif.got.tgz:332630.got - 2010.06.03 13:09:07.
