data_PCOD9213028
_publ_section_title
;
Structure prediction by ZEFSAII (Michael W. Deem and Ramdas Pophale) SiO2 
 PCOD9213028
Probable space group: C 2/M
;
_chemical_formula_sum "Si O2"
_cell_formula_units_Z 48
_cell_length_a 13.748367
_cell_length_b 20.021722
_cell_length_c 21.326546
_cell_angle_alpha 90.000000
_cell_angle_beta 23.281008
_cell_angle_gamma 90.000000
_cell_volume 2320.251711
_symmetry_space_group_name_H-M "C 2/M"
_symmetry_group_IT_number 12
_symmetry_cell_setting 'monoclinic'
loop_
_space_group_symop_operation_xyz
x,y,z
-x,y,-z
-x,-y,-z
x,-y,z
1/2+x,1/2+y,z
1/2-x,1/2+y,-z
1/2-x,1/2-y,-z
1/2+x,1/2-y,z
loop_
_atom_site_type_symbol
_atom_site_label
_atom_site_fract_x
_atom_site_fract_y
_atom_site_fract_z
Si Si1 0.500616 0.229617 0.817350
Si Si2 0.791737 0.075519 0.824889
Si Si3 0.365360 0.192767 0.388487
Si Si4 0.954949 0.422666 0.628556
Si Si5 0.891446 0.878351 0.625019
Si Si6 0.652121 0.371790 0.706969
O O1 0.449323 0.217432 0.774265
O O2 0.642417 0.164755 0.760988
O O3 0.677941 0.294724 0.711669
O O4 0.250000 0.250000 0.000000
O O5 0.871454 0.088548 0.705653
O O6 0.905366 0.120857 0.812392
O O7 0.867666 0.000000 0.796090
O O8 0.500000 0.080784 0.000000
O O9 0.250000 0.250000 0.500000
O O10 0.489245 0.130761 0.350631
O O11 0.121142 0.170910 0.496571
O O12 0.986237 0.500000 0.627845
O O13 0.697067 0.412348 0.744436
O O14 0.154525 0.400495 0.458030
O O15 0.000000 0.918771 0.500000
#
# Coordination Sequence:
#
# PCOD9213028 Si02
#       6
#     8   8   8   8   8   8
#     4  11  23  39  62  92 127 168 211 265 326 384
#     4  11  22  38  60  87 121 162 205 252 312 381
#     4  11  20  38  63  93 123 161 212 269 315 373
#     4  11  22  37  65  97 126 164 214 271 327 380
#     4  10  22  36  57  86 121 156 201 257 317 368
#     4  11  21  37  63  90 128 157 217 264 317 378
#
# _framework density 20.68741
#
# number of rings (size 3 to 8) (size 9 to 14) (size 15 to 20)
#    0.000    1.167    3.333    4.000    4.667    0.333 
#    0.000    6.667    0.000    4.000    0.000    0.000 
#    0.000    0.000    0.000    0.000    0.000    0.000 
#
# Total GULP energy -133660.588489 kJ/mol
# GULP energy per Si atom -5569.191187 kJ/mol
# Density = 2.064032 g / cm^3
# Si number density = 20.687410 Si / 1000 Ang^3
#
#
#
# Elastic Constant Matrix: (Units=GPa)
#
#
# Indices 1 2 3 4 5 6 
#
# 1 96.4140 42.9409 44.8444 0.0117 5.8891 -0.0684
# 2 42.9409 108.3743 15.7831 -0.0326 7.1315 -0.0453
# 3 44.8444 15.7831 78.8948 0.1328 19.7087 -0.1893
# 4 0.0117 -0.0326 0.1328 14.2423 -0.0765 4.6938
# 5 5.8891 7.1315 19.7087 -0.0765 31.1194 0.0327
# 6 -0.0684 -0.0453 -0.1893 4.6938 0.0327 26.5744
#
#
#
# Elastic Compliance Matrix: (Units=1/GPa)
#
#
# Indices 1 2 3 4 5 6 
#
# 1 0.017119 -0.005653 -0.009639 0.000104 0.004161 -0.000058
# 2 -0.005653 0.011406 0.001565 -0.000004 -0.002535 0.000020
# 3 -0.009639 0.001565 0.020761 -0.000309 -0.011684 0.000195
# 4 0.000104 -0.000004 -0.000309 0.074559 0.000374 -0.013172
# 5 0.004161 -0.002535 -0.011684 0.000374 0.039329 -0.000191
# 6 -0.000058 0.000020 0.000195 -0.013172 -0.000191 0.039958
#
#
# Mechanical properties :
#
#
# Convention : Reuss Voigt Hill
#
# Bulk Modulus (GPa) = 45.80726 54.53554 50.17140
# Shear Modulus (GPa) = 21.02038 26.39487 23.70763
#
# Velocity S-wave (km/s) = 3.19108 3.57584 3.38892
# Velocity P-wave (km/s) = 5.98064 6.59301 6.29427
#
# Compressibility (1/GPa) = 0.02183060
#
# Stress axis : x y z
#
# Youngs Moduli (GPa) = 58.41467 87.67243 48.16735
#
# Poissons Ratio (x) = 0.49561 0.46431
# Poissons Ratio (y) = 0.33022 -0.07537
# Poissons Ratio (z) = 0.56309 -0.13718
#
# Static dielectric constant tensor:
#      x y z
#    x 1.906050 0.002260 0.015190 
#    y 0.002260 1.697520 0.000940 
#    z 0.015190 0.000940 1.855020 
# 
# From -- ./inp_files/77668.got.cif
#   From: 2010.05.17/outbox.cif.g08.bks.cpg/sg12_39_cif.got.tgz:77668.got - 2010.06.03 13:09:07.
