data_PCOD9213851
_publ_section_title
;
Structure prediction by ZEFSAII (Michael W. Deem and Ramdas Pophale) SiO2 
 PCOD9213851
Probable space group: C 2/M
;
_chemical_formula_sum "Si O2"
_cell_formula_units_Z 50
_cell_length_a 31.764220
_cell_length_b 10.444278
_cell_length_c 12.701195
_cell_angle_alpha 90.000000
_cell_angle_beta 39.643954
_cell_angle_gamma 90.000000
_cell_volume 2688.388445
_symmetry_space_group_name_H-M "C 2/M"
_symmetry_group_IT_number 12
_symmetry_cell_setting 'monoclinic'
loop_
_space_group_symop_operation_xyz
x,y,z
-x,y,-z
-x,-y,-z
x,-y,z
1/2+x,1/2+y,z
1/2-x,1/2+y,-z
1/2-x,1/2-y,-z
1/2+x,1/2-y,z
loop_
_atom_site_type_symbol
_atom_site_label
_atom_site_fract_x
_atom_site_fract_y
_atom_site_fract_z
Si Si1 0.368626 0.353406 0.910470
Si Si2 0.780329 0.352963 0.745578
Si Si3 0.552001 0.153573 0.814473
Si Si4 0.702213 0.148352 0.538522
Si Si5 0.499882 0.779759 0.316967
Si Si6 0.881239 0.858302 0.635039
Si Si7 0.000000 0.500000 0.500000
O O1 0.375596 0.500000 0.935222
O O2 0.425235 0.263946 0.847445
O O3 0.380126 0.352477 0.763131
O O4 0.293329 0.314646 0.077795
O O5 0.793040 0.500000 0.758218
O O6 0.784026 0.353686 0.612726
O O7 0.834214 0.254775 0.684902
O O8 0.626567 0.192972 0.696688
O O9 0.532111 0.183296 0.733006
O O10 0.552413 0.000000 0.821517
O O11 0.500000 0.204676 0.000000
O O12 0.750000 0.250000 0.500000
O O13 0.709477 0.000000 0.562260
O O14 0.454499 0.666598 0.451123
O O15 0.498286 0.888883 0.409429
O O16 0.857992 0.000000 0.647414
#
# Coordination Sequence:
#
# PCOD9213851 Si02
#       7
#     8   8   8   8   8   8   2
#     4  10  22  39  58  88 123 163 198 250 311 373
#     4  10  22  40  63  85 121 163 202 250 310 374
#     4  10  22  40  62  88 121 162 205 257 309 356
#     4  10  22  41  63  87 116 157 201 257 310 361
#     4  12  22  39  62  90 129 160 210 253 308 367
#     4  11  22  38  60  90 123 162 202 251 313 370
#     4  12  24  36  64 104 120 172 206 256 304 384
#
# _framework density 18.598503000000001
#
# number of rings (size 3 to 8) (size 9 to 14) (size 15 to 20)
#    0.000    1.440    4.000    0.960    3.360    1.920 
#    1.440    0.000    0.000    2.400    0.000    0.000 
#    0.000    0.000    0.000    0.000    0.000    0.000 
#
# Total GULP energy -139264.593155 kJ/mol
# GULP energy per Si atom -5570.583726 kJ/mol
# Density = 1.855617 g / cm^3
# Si number density = 18.598503 Si / 1000 Ang^3
#
#
#
# Elastic Constant Matrix: (Units=GPa)
#
#
# Indices 1 2 3 4 5 6 
#
# 1 80.0911 48.3812 13.0626 0.0000 -3.0477 0.0000
# 2 48.3812 81.1586 6.6024 0.0000 -16.7981 0.0000
# 3 13.0626 6.6024 77.9286 0.0000 5.1391 0.0000
# 4 0.0000 0.0000 0.0000 15.1716 0.0000 0.3879
# 5 -3.0477 -16.7981 5.1391 0.0000 16.6455 0.0000
# 6 0.0000 0.0000 0.0000 0.3879 0.0000 22.6993
#
#
#
# Elastic Compliance Matrix: (Units=1/GPa)
#
#
# Indices 1 2 3 4 5 6 
#
# 1 0.021218 -0.014674 -0.001626 0.000000 -0.010421 0.000000
# 2 -0.014674 0.026177 -0.001351 0.000000 0.024147 0.000000
# 3 -0.001626 -0.001351 0.013606 0.000000 -0.005861 0.000000
# 4 0.000000 0.000000 0.000000 0.065942 0.000000 -0.001127
# 5 -0.010421 0.024147 -0.005861 0.000000 0.084346 0.000000
# 6 0.000000 0.000000 0.000000 -0.001127 0.000000 0.044073
#
#
# Mechanical properties :
#
#
# Convention : Reuss Voigt Hill
#
# Bulk Modulus (GPa) = 38.91030 41.69672 40.30351
# Shear Modulus (GPa) = 16.70956 22.31209 19.51083
#
# Velocity S-wave (km/s) = 3.00064 3.46738 3.24242
# Velocity P-wave (km/s) = 5.74211 6.20471 5.97788
#
# Compressibility (1/GPa) = 0.02570014
#
# Stress axis : x y z
#
# Youngs Moduli (GPa) = 47.12869 38.20180 73.49807
#
# Poissons Ratio (x) = 0.56056 0.11953
# Poissons Ratio (y) = 0.69155 0.09926
# Poissons Ratio (z) = 0.07664 0.05159
#
# Static dielectric constant tensor:
#      x y z
#    x 1.627300 0.000000 -0.020480 
#    y 0.000000 1.645330 0.000000 
#    z -0.020480 0.000000 1.656490 
# 
# From -- ./inp_files/188626.got.cif
#   From: 2010.05.17/outbox.cif.g08.bks.cpg/sg12_95_cif.got.tgz:188626.got - 2010.06.03 13:09:07.
