data_PCOD9213011
_publ_section_title
;
Structure prediction by ZEFSAII (Michael W. Deem and Ramdas Pophale) SiO2 
 PCOD9213011
Probable space group: C 2/M
;
_chemical_formula_sum "Si O2"
_cell_formula_units_Z 48
_cell_length_a 13.897877
_cell_length_b 24.361263
_cell_length_c 7.990873
_cell_angle_alpha 90.000000
_cell_angle_beta 100.831485
_cell_angle_gamma 90.000000
_cell_volume 2657.268299
_symmetry_space_group_name_H-M "C 2/M"
_symmetry_group_IT_number 12
_symmetry_cell_setting 'monoclinic'
loop_
_space_group_symop_operation_xyz
x,y,z
-x,y,-z
-x,-y,-z
x,-y,z
1/2+x,1/2+y,z
1/2-x,1/2+y,-z
1/2-x,1/2-y,-z
1/2+x,1/2-y,z
loop_
_atom_site_type_symbol
_atom_site_label
_atom_site_fract_x
_atom_site_fract_y
_atom_site_fract_z
Si Si1 0.108845 0.388209 0.951012
Si Si2 0.615044 0.228455 0.853457
Si Si3 0.719171 0.883250 0.320962
Si Si4 0.644467 0.000000 0.411676
Si Si5 0.379245 0.232082 0.757874
Si Si6 0.617676 0.306458 0.546969
Si Si7 0.932577 0.500000 0.238425
O O1 0.132797 0.336505 0.841383
O O2 0.104216 0.444823 0.855608
O O3 0.191950 0.392014 0.118548
O O4 0.000000 0.378735 0.000000
O O5 0.497109 0.233545 0.806133
O O6 0.648542 0.267074 0.713063
O O7 0.649797 0.240869 0.056079
O O8 0.696011 0.941291 0.399839
O O9 0.653714 0.827357 0.327486
O O10 0.827285 0.863092 0.400712
O O11 0.550069 0.000000 0.259632
O O12 0.601491 0.000000 0.582780
O O13 0.349745 0.278544 0.616259
O O14 0.500000 0.311497 0.500000
#
# Coordination Sequence:
#
# PCOD9213011 Si02
#       7
#     8   8   8   4   8   8   4
#     4  11  18  34  56  79 117 146 179 220 274 332
#     4   9  17  33  53  82 108 151 179 216 277 328
#     4  11  21  37  55  81 108 150 180 228 278 326
#     4  11  23  36  56  81 116 140 187 224 279 335
#     4   9  17  33  55  79 114 141 178 229 274 322
#     4  10  22  36  56  80 113 147 191 228 271 324
#     4  11  22  35  56  86 110 150 175 224 277 348
#
# _framework density 18.063662999999998
#
# number of rings (size 3 to 8) (size 9 to 14) (size 15 to 20)
#    0.000    1.833    5.000    1.250    2.333    2.667 
#    3.000    0.417    0.000    0.000    0.000    1.167 
#    0.000    0.000    0.000    0.000    0.000    0.000 
#
# Total GULP energy -133743.575375 kJ/mol
# GULP energy per Si atom -5572.648974 kJ/mol
# Density = 1.802255 g / cm^3
# Si number density = 18.063663 Si / 1000 Ang^3
#
#
#
# Elastic Constant Matrix: (Units=GPa)
#
#
# Indices 1 2 3 4 5 6 
#
# 1 55.4159 42.1395 37.5706 0.0000 11.6004 0.0000
# 2 42.1395 143.7002 67.6357 0.0000 -1.2150 0.0000
# 3 37.5706 67.6357 93.2527 0.0000 15.8055 0.0000
# 4 0.0000 0.0000 0.0000 20.0744 0.0000 6.8767
# 5 11.6004 -1.2150 15.8055 0.0000 23.7481 0.0000
# 6 0.0000 0.0000 0.0000 6.8767 0.0000 17.9957
#
#
#
# Elastic Compliance Matrix: (Units=1/GPa)
#
#
# Indices 1 2 3 4 5 6 
#
# 1 0.028377 -0.005883 -0.005372 0.000000 -0.010587 0.000000
# 2 -0.005883 0.012712 -0.008394 0.000000 0.009110 0.000000
# 3 -0.005372 -0.008394 0.020969 0.000000 -0.011762 0.000000
# 4 0.000000 0.000000 0.000000 0.057318 0.000000 -0.021903
# 5 -0.010587 0.009110 -0.011762 0.000000 0.055574 0.000000
# 6 0.000000 0.000000 0.000000 -0.021903 0.000000 0.063938
#
#
# Mechanical properties :
#
#
# Convention : Reuss Voigt Hill
#
# Bulk Modulus (GPa) = 43.93375 65.22893 54.58134
# Shear Modulus (GPa) = 17.49649 22.03184 19.76416
#
# Velocity S-wave (km/s) = 3.11561 3.49618 3.31137
# Velocity P-wave (km/s) = 6.10878 7.24477 6.70089
#
# Compressibility (1/GPa) = 0.02276154
#
# Stress axis : x y z
#
# Youngs Moduli (GPa) = 35.24007 78.66711 47.68882
#
# Poissons Ratio (x) = 0.46277 0.25617
# Poissons Ratio (y) = 0.20730 0.40029
# Poissons Ratio (z) = 0.18930 0.66032
#
# Static dielectric constant tensor:
#      x y z
#    x 1.660270 0.000000 -0.000140 
#    y 0.000000 1.599390 0.000000 
#    z -0.000140 0.000000 1.643150 
# 
# From -- ./inp_files/63646.got.cif
#   From: 2010.05.17/outbox.cif.g08.bks.cpg/sg12_32_cif.got.tgz:63646.got - 2010.06.03 13:09:07.
