data_PCOD9213258
_publ_section_title
;
Structure prediction by ZEFSAII (Michael W. Deem and Ramdas Pophale) SiO2 
 PCOD9213258
Probable space group: C 2/M
;
_chemical_formula_sum "Si O2"
_cell_formula_units_Z 42
_cell_length_a 12.918374
_cell_length_b 18.554408
_cell_length_c 9.071039
_cell_angle_alpha 90.000000
_cell_angle_beta 108.190584
_cell_angle_gamma 90.000000
_cell_volume 2065.600252
_symmetry_space_group_name_H-M "C 2/M"
_symmetry_group_IT_number 12
_symmetry_cell_setting 'monoclinic'
loop_
_space_group_symop_operation_xyz
x,y,z
-x,y,-z
-x,-y,-z
x,-y,z
1/2+x,1/2+y,z
1/2-x,1/2+y,-z
1/2-x,1/2-y,-z
1/2+x,1/2-y,z
loop_
_atom_site_type_symbol
_atom_site_label
_atom_site_fract_x
_atom_site_fract_y
_atom_site_fract_z
Si Si1 0.387824 0.704520 0.381258
Si Si2 0.500000 0.500000 0.000000
Si Si3 0.793392 0.654832 0.235978
Si Si4 0.256535 0.584354 0.487274
Si Si5 0.511845 0.081935 0.327314
Si Si6 0.092003 0.851371 0.938344
O O1 0.500000 0.732600 0.500000
O O2 0.304845 0.770666 0.329661
O O3 0.343127 0.638883 0.458476
O O4 0.409181 0.677164 0.226248
O O5 0.439312 0.435581 0.068034
O O6 0.753353 0.597249 0.340809
O O7 0.913438 0.632302 0.232643
O O8 0.707796 0.659493 0.067553
O O9 0.279793 0.500000 0.472209
O O10 0.138100 0.601820 0.362413
O O11 0.500000 0.080240 0.500000
O O12 0.495125 0.000000 0.265991
O O13 0.000000 0.814445 0.000000
#
# Coordination Sequence:
#
# PCOD9213258 Si02
#       6
#     8   2   8   8   8   8
#     4  12  25  40  61  92 127 162 203 260 315 362
#     4   8  24  44  66  88 124 164 210 246 314 360
#     4  11  21  39  64  89 122 162 206 252 310 369
#     4  10  22  37  61  92 124 162 210 256 306 368
#     4   8  16  32  56  85 113 150 199 245 292 357
#     4  10  24  41  64  91 122 163 211 247 304 370
#
# _framework density 20.333072000000001
#
# number of rings (size 3 to 8) (size 9 to 14) (size 15 to 20)
#    0.571    1.333    0.000    5.714    4.000    1.905 
#    0.000    0.952    0.000    2.286    0.000    0.000 
#    0.000    0.000    0.000    0.000    0.000    0.000 
#
# Total GULP energy -116954.148724 kJ/mol
# GULP energy per Si atom -5569.245177 kJ/mol
# Density = 2.028679 g / cm^3
# Si number density = 20.333072 Si / 1000 Ang^3
#
#
#
# Elastic Constant Matrix: (Units=GPa)
#
#
# Indices 1 2 3 4 5 6 
#
# 1 24.7265 -4.0194 10.4843 0.0000 2.0918 0.0000
# 2 -4.0194 67.4356 2.5711 0.0000 -0.2242 0.0000
# 3 10.4843 2.5711 81.7090 0.0000 17.9392 0.0000
# 4 0.0000 0.0000 0.0000 -2.1236 0.0000 1.5244
# 5 2.0918 -0.2242 17.9392 0.0000 24.3887 0.0000
# 6 0.0000 0.0000 0.0000 1.5244 0.0000 26.5922
#
#
#
# Elastic Compliance Matrix: (Units=1/GPa)
#
#
# Indices 1 2 3 4 5 6 
#
# 1 0.043296 0.002802 -0.005765 0.000000 0.000553 0.000000
# 2 0.002802 0.015035 -0.000966 0.000000 0.000609 0.000000
# 3 -0.005765 -0.000966 0.015387 0.000000 -0.010832 0.000000
# 4 0.000000 0.000000 0.000000 -0.452296 0.000000 0.025927
# 5 0.000553 0.000609 -0.010832 0.000000 0.048929 0.000000
# 6 0.000000 0.000000 0.000000 0.025927 0.000000 0.036119
#
#
# Mechanical properties :
#
#
# Convention : Reuss Voigt Hill
#
# Bulk Modulus (GPa) = 15.18386 21.32700 18.25543
# Shear Modulus (GPa) = -18.95949 20.76047 0.90049
#
# Velocity S-wave (km/s) = -3.05691 3.19881 0.66621
# Velocity P-wave (km/s) = 2.23066 4.91475 3.09669
#
# Compressibility (1/GPa) = 0.06585941
#
# Stress axis : x y z
#
# Youngs Moduli (GPa) = 23.09704 66.51211 64.99032
#
# Poissons Ratio (x) = -0.18638 0.37466
# Poissons Ratio (y) = -0.06472 0.06280
# Poissons Ratio (z) = 0.13315 0.06427
#
# Static dielectric constant tensor:
#      x y z
#    x 1.811170 0.000000 0.036260 
#    y 0.000000 1.709370 0.000000 
#    z 0.036260 0.000000 1.701580 
# 
# From -- ./inp_files/61315.got.cif
#   From: 2010.05.17/outbox.cif.g08.bks.cpg/sg12_31_cif.got.tgz:61315.got - 2010.06.03 13:09:07.
