data_PCOD9213910
_publ_section_title
;
Structure prediction by ZEFSAII (Michael W. Deem and Ramdas Pophale) SiO2 
 PCOD9213910
Probable space group: C 2/M
;
_chemical_formula_sum "Si O2"
_cell_formula_units_Z 64
_cell_length_a 15.064936
_cell_length_b 8.474576
_cell_length_c 30.366599
_cell_angle_alpha 90.000000
_cell_angle_beta 60.487044
_cell_angle_gamma 90.000000
_cell_volume 3373.825559
_symmetry_space_group_name_H-M "C 2/M"
_symmetry_group_IT_number 12
_symmetry_cell_setting 'monoclinic'
loop_
_space_group_symop_operation_xyz
x,y,z
-x,y,-z
-x,-y,-z
x,-y,z
1/2+x,1/2+y,z
1/2-x,1/2+y,-z
1/2-x,1/2-y,-z
1/2+x,1/2-y,z
loop_
_atom_site_type_symbol
_atom_site_label
_atom_site_fract_x
_atom_site_fract_y
_atom_site_fract_z
Si Si1 0.420735 0.307589 0.579108
Si Si2 0.147395 0.809519 0.501698
Si Si3 0.453818 0.188109 0.245117
Si Si4 0.501121 0.308576 0.137022
Si Si5 0.227076 0.812495 0.053960
Si Si6 0.774106 0.807582 0.692695
Si Si7 0.676285 0.312704 0.885086
Si Si8 0.335179 0.312447 0.775414
O O1 0.421288 0.500000 0.579233
O O2 0.539697 0.258918 0.550259
O O3 0.367437 0.261303 0.545939
O O4 0.354981 0.252789 0.636720
O O5 0.250000 0.750000 0.500000
O O6 0.150392 0.000000 0.501915
O O7 0.462460 0.231415 0.191448
O O8 0.342216 0.237409 0.289065
O O9 0.546864 0.273173 0.246195
O O10 0.464398 0.000000 0.247592
O O11 0.499061 0.500000 0.142876
O O12 0.615932 0.257704 0.098082
O O13 0.426109 0.265319 0.115523
O O14 0.307593 0.761857 0.071234
O O15 0.223253 0.000000 0.052893
O O16 0.250000 0.750000 0.000000
O O17 0.800522 0.755936 0.735753
O O18 0.777234 0.000000 0.692298
O O19 0.675555 0.500000 0.890393
O O20 0.769085 0.265159 0.830219
O O21 0.319077 0.500000 0.782245
#
# Coordination Sequence:
#
# PCOD9213910 Si02
#       8
#     8   8   8   8   8   8   8   8
#     4   8  16  33  52  75 108 149 187 224 277 340
#     4   9  17  31  56  80 104 143 190 232 279 335
#     4  11  21  34  55  82 108 144 188 227 271 330
#     4  10  22  39  60  83 113 147 181 225 278 328
#     4  11  24  42  62  86 116 150 185 232 283 330
#     4   9  19  34  53  78 112 147 186 231 275 332
#     4  11  22  38  61  86 111 145 185 229 276 332
#     4  11  21  35  54  80 110 146 184 225 277 332
#
# _framework density 18.969564999999999
#
# number of rings (size 3 to 8) (size 9 to 14) (size 15 to 20)
#    0.000    2.000    2.500    2.250    0.000    2.500 
#    0.000    3.750    0.000    4.500    0.000    0.000 
#    0.000    0.000    0.000    0.000    0.000    0.000 
#
# Total GULP energy -178647.447693 kJ/mol
# GULP energy per Si atom -5582.732740 kJ/mol
# Density = 1.892639 g / cm^3
# Si number density = 18.969565 Si / 1000 Ang^3
#
#
#
# Elastic Constant Matrix: (Units=GPa)
#
#
# Indices 1 2 3 4 5 6 
#
# 1 82.6206 4.3355 -9.7150 0.0000 -4.7015 0.0000
# 2 4.3355 8.8421 4.1745 0.0000 -1.9155 0.0000
# 3 -9.7150 4.1745 48.7815 0.0000 1.3662 0.0000
# 4 0.0000 0.0000 0.0000 14.6230 0.0000 -1.7802
# 5 -4.7015 -1.9155 1.3662 0.0000 19.0681 0.0000
# 6 0.0000 0.0000 0.0000 -1.7802 0.0000 28.9127
#
#
#
# Elastic Compliance Matrix: (Units=1/GPa)
#
#
# Indices 1 2 3 4 5 6 
#
# 1 0.012989 -0.007374 0.003155 0.000000 0.002236 0.000000
# 2 -0.007374 0.125138 -0.012504 0.000000 0.011649 0.000000
# 3 0.003155 -0.012504 0.022256 0.000000 -0.002073 0.000000
# 4 0.000000 0.000000 0.000000 0.068902 0.000000 0.004242
# 5 0.002236 0.011649 -0.002073 0.000000 0.054314 0.000000
# 6 0.000000 0.000000 0.000000 0.004242 0.000000 0.034848
#
#
# Mechanical properties :
#
#
# Convention : Reuss Voigt Hill
#
# Bulk Modulus (GPa) = 7.87785 15.31489 11.59637
# Shear Modulus (GPa) = 12.68378 21.95071 17.31725
#
# Velocity S-wave (km/s) = 2.58861 3.40539 3.02470
# Velocity P-wave (km/s) = 3.61890 4.85316 4.28075
#
# Compressibility (1/GPa) = 0.12693814
#
# Stress axis : x y z
#
# Youngs Moduli (GPa) = 76.99006 7.99115 44.93164
#
# Poissons Ratio (x) = 0.05893 -0.14177
# Poissons Ratio (y) = 0.56772 0.56181
# Poissons Ratio (z) = -0.24292 0.09992
#
# Static dielectric constant tensor:
#      x y z
#    x 1.666380 0.000000 -0.003210 
#    y 0.000000 1.650080 0.000000 
#    z -0.003210 0.000000 1.648070 
# 
# From -- ./inp_files/375450.got.cif
#   From: 2010.05.17/outbox.cif.g08.bks.cpg/sg12_188_cif.got.tgz:375450.got - 2010.06.03 13:09:07.
