data_PCOD9213746
_publ_section_title
;
Structure prediction by ZEFSAII (Michael W. Deem and Ramdas Pophale) SiO2 
 PCOD9213746
Probable space group: C 2/M
;
_chemical_formula_sum "Si O2"
_cell_formula_units_Z 52
_cell_length_a 24.627728
_cell_length_b 20.855536
_cell_length_c 5.991452
_cell_angle_alpha 90.000000
_cell_angle_beta 51.157985
_cell_angle_gamma 90.000000
_cell_volume 2396.885977
_symmetry_space_group_name_H-M "C 2/M"
_symmetry_group_IT_number 12
_symmetry_cell_setting 'monoclinic'
loop_
_space_group_symop_operation_xyz
x,y,z
-x,y,-z
-x,-y,-z
x,-y,z
1/2+x,1/2+y,z
1/2-x,1/2+y,-z
1/2-x,1/2-y,-z
1/2+x,1/2-y,z
loop_
_atom_site_type_symbol
_atom_site_label
_atom_site_fract_x
_atom_site_fract_y
_atom_site_fract_z
Si Si1 0.474141 0.424099 0.819347
Si Si2 0.674476 0.373748 0.674544
Si Si3 0.244374 0.320686 0.907456
Si Si4 0.000000 0.701013 0.500000
Si Si5 0.371045 0.235742 0.098856
Si Si6 0.425376 0.858652 0.303624
Si Si7 0.206342 0.571307 0.358895
O O1 0.500000 0.401517 0.500000
O O2 0.491416 0.500000 0.776011
O O3 0.500000 0.397580 0.000000
O O4 0.391873 0.412601 0.066208
O O5 0.686815 0.350464 0.388060
O O6 0.665794 0.304074 0.808993
O O7 0.742169 0.413431 0.570930
O O8 0.183365 0.311075 0.882065
O O9 0.250000 0.250000 0.000000
O O10 0.222135 0.373391 0.141246
O O11 0.946518 0.657142 0.500193
O O12 0.947366 0.741010 0.789345
O O13 0.388008 0.204187 0.294109
O O14 0.374735 0.917111 0.383337
O O15 0.500000 0.867726 0.000000
O O16 0.219136 0.500000 0.242017
#
# Coordination Sequence:
#
# PCOD9213746 Si02
#       7
#     8   8   8   4   8   8   8
#     4  10  25  48  71 100 149 202 250 310 384 460
#     4  12  26  42  72 104 140 185 244 308 373 453
#     4  12  24  44  71 101 142 190 235 303 377 446
#     4  10  22  38  67  96 135 176 234 290 340 432
#     4  11  22  40  68  97 133 178 227 289 360 430
#     4  10  22  43  65  97 136 182 232 290 359 429
#     4  12  26  44  70 104 141 188 245 300 367 446
#
# _framework density 21.694814000000001
#
# number of rings (size 3 to 8) (size 9 to 14) (size 15 to 20)
#    0.000    0.923    4.615    1.846    3.231    3.385 
#    0.000    0.385    0.000    0.000    0.000    0.000 
#    0.000    0.000    0.000    0.000    0.000    0.000 
#
# Total GULP energy -144897.894745 kJ/mol
# GULP energy per Si atom -5572.995952 kJ/mol
# Density = 2.164544 g / cm^3
# Si number density = 21.694814 Si / 1000 Ang^3
#
#
#
# Elastic Constant Matrix: (Units=GPa)
#
#
# Indices 1 2 3 4 5 6 
#
# 1 108.5157 23.8876 25.2212 0.0000 7.6717 0.0000
# 2 23.8876 82.2937 4.3588 0.0000 -1.5345 0.0000
# 3 25.2212 4.3588 83.8694 0.0000 -12.3048 0.0000
# 4 0.0000 0.0000 0.0000 25.5720 0.0000 -5.6841
# 5 7.6717 -1.5345 -12.3048 0.0000 30.4381 0.0000
# 6 0.0000 0.0000 0.0000 -5.6841 0.0000 20.0564
#
#
#
# Elastic Compliance Matrix: (Units=1/GPa)
#
#
# Indices 1 2 3 4 5 6 
#
# 1 0.011111 -0.003106 -0.003841 0.000000 -0.004510 0.000000
# 2 -0.003106 0.013057 0.000496 0.000000 0.001642 0.000000
# 3 -0.003841 0.000496 0.014031 0.000000 0.006665 0.000000
# 4 0.000000 0.000000 0.000000 0.041734 0.000000 0.011828
# 5 -0.004510 0.001642 0.006665 0.000000 0.036768 0.000000
# 6 0.000000 0.000000 0.000000 0.011828 0.000000 0.053211
#
#
# Mechanical properties :
#
#
# Convention : Reuss Voigt Hill
#
# Bulk Modulus (GPa) = 39.53086 42.40155 40.96620
# Shear Modulus (GPa) = 26.14433 29.96070 28.05252
#
# Velocity S-wave (km/s) = 3.47521 3.72022 3.59980
# Velocity P-wave (km/s) = 5.86206 6.16769 6.01681
#
# Compressibility (1/GPa) = 0.02529669
#
# Stress axis : x y z
#
# Youngs Moduli (GPa) = 90.00429 76.58468 71.27288
#
# Poissons Ratio (x) = 0.23785 0.27379
# Poissons Ratio (y) = 0.27953 -0.03537
# Poissons Ratio (z) = 0.34574 -0.03800
#
# Static dielectric constant tensor:
#      x y z
#    x 1.845520 0.000000 0.034040 
#    y 0.000000 1.765130 0.000000 
#    z 0.034040 0.000000 1.946200 
# 
# From -- ./inp_files/29290.got.cif
#   From: 2010.05.17/outbox.cif.g08.bks.cpg/sg12_15_cif.got.tgz:29290.got - 2010.06.03 13:09:07.
