data_PCOD9213430
_publ_section_title
;
Structure prediction by ZEFSAII (Michael W. Deem and Ramdas Pophale) SiO2 
 PCOD9213430
Probable space group: C 2/M
;
_chemical_formula_sum "Si O2"
_cell_formula_units_Z 64
_cell_length_a 8.719904
_cell_length_b 26.830206
_cell_length_c 15.124630
_cell_angle_alpha 90.000000
_cell_angle_beta 109.153454
_cell_angle_gamma 90.000000
_cell_volume 3342.629822
_symmetry_space_group_name_H-M "C 2/M"
_symmetry_group_IT_number 12
_symmetry_cell_setting 'monoclinic'
loop_
_space_group_symop_operation_xyz
x,y,z
-x,y,-z
-x,-y,-z
x,-y,z
1/2+x,1/2+y,z
1/2-x,1/2+y,-z
1/2-x,1/2-y,-z
1/2+x,1/2-y,z
loop_
_atom_site_type_symbol
_atom_site_label
_atom_site_fract_x
_atom_site_fract_y
_atom_site_fract_z
Si Si1 0.730366 0.349065 0.177614
Si Si2 0.557357 0.691865 0.302404
Si Si3 0.510524 0.444192 0.107371
Si Si4 0.364394 0.056411 0.898680
Si Si5 0.686161 0.194154 0.999458
Si Si6 0.259592 0.848312 0.807606
Si Si7 0.548714 0.806938 0.300826
Si Si8 0.685542 0.805613 0.502478
O O1 0.624610 0.310140 0.215038
O O2 0.631956 0.400823 0.161500
O O3 0.898795 0.343990 0.262378
O O4 0.772205 0.333492 0.084723
O O5 0.409612 0.653316 0.275046
O O6 0.502293 0.749106 0.311355
O O7 0.692910 0.675515 0.399098
O O8 0.570327 0.500000 0.141691
O O9 0.322712 0.441608 0.103334
O O10 0.500000 0.440169 0.000000
O O11 0.361490 0.100778 0.827921
O O12 0.397020 0.000000 0.874004
O O13 0.500000 0.066963 0.000000
O O14 0.773317 0.167073 0.097729
O O15 0.500000 0.193626 0.000000
O O16 0.750000 0.250000 0.000000
O O17 0.365177 0.807322 0.777472
O O18 0.670604 0.825908 0.400001
O O19 0.500000 0.805904 0.500000
O O20 0.750000 0.750000 0.500000
#
# Coordination Sequence:
#
# PCOD9213430 Si02
#       8
#     8   8   8   8   8   8   8   8
#     4  12  23  39  59  86 120 161 196 246 297 352
#     4  11  23  39  60  85 120 160 199 245 293 356
#     4  10  22  40  61  86 114 154 204 251 298 349
#     4  10  22  41  62  84 115 154 200 256 299 344
#     4  12  26  38  53  81 124 166 201 233 282 353
#     4  12  24  38  57  88 119 159 200 237 296 358
#     4  11  23  38  59  85 124 157 199 243 292 357
#     4  10  22  38  58  84 114 155 202 253 297 339
#
# _framework density 19.146602000000001
#
# number of rings (size 3 to 8) (size 9 to 14) (size 15 to 20)
#    0.000    1.000    3.750    3.375    8.750    0.000 
#    0.000    0.000    0.000    0.375    0.000    5.250 
#    0.000    0.000    0.000    0.000    0.000    0.000 
#
# Total GULP energy -178362.690915 kJ/mol
# GULP energy per Si atom -5573.834091 kJ/mol
# Density = 1.910302 g / cm^3
# Si number density = 19.146602 Si / 1000 Ang^3
#
#
#
# Elastic Constant Matrix: (Units=GPa)
#
#
# Indices 1 2 3 4 5 6 
#
# 1 62.0622 35.9680 40.2616 0.0000 24.5440 0.0000
# 2 35.9680 118.8773 48.5800 0.0000 22.3231 0.0000
# 3 40.2616 48.5800 117.7653 0.0000 23.5899 0.0000
# 4 0.0000 0.0000 0.0000 12.1032 0.0000 11.8323
# 5 24.5440 22.3231 23.5899 0.0000 43.2297 0.0000
# 6 0.0000 0.0000 0.0000 11.8323 0.0000 27.5322
#
#
#
# Elastic Compliance Matrix: (Units=1/GPa)
#
#
# Indices 1 2 3 4 5 6 
#
# 1 0.025520 -0.003764 -0.005231 0.000000 -0.009691 0.000000
# 2 -0.003764 0.011113 -0.002892 0.000000 -0.002023 0.000000
# 3 -0.005231 -0.002892 0.011877 0.000000 -0.002018 0.000000
# 4 0.000000 0.000000 0.000000 0.142488 0.000000 -0.061236
# 5 -0.009691 -0.002023 -0.002018 0.000000 0.030780 0.000000
# 6 0.000000 0.000000 0.000000 -0.061236 0.000000 0.062638
#
#
# Mechanical properties :
#
#
# Convention : Reuss Voigt Hill
#
# Bulk Modulus (GPa) = 40.42664 60.92487 50.67575
# Shear Modulus (GPa) = 15.80099 28.16603 21.98351
#
# Velocity S-wave (km/s) = 2.87586 3.83962 3.39214
# Velocity P-wave (km/s) = 5.67340 7.17956 6.47046
#
# Compressibility (1/GPa) = 0.02473616
#
# Stress axis : x y z
#
# Youngs Moduli (GPa) = 39.18426 89.98737 84.19631
#
# Poissons Ratio (x) = 0.33872 0.44042
# Poissons Ratio (y) = 0.14749 0.24350
# Poissons Ratio (z) = 0.20497 0.26024
#
# Static dielectric constant tensor:
#      x y z
#    x 1.630110 0.000000 -0.351370 
#    y 0.000000 1.668590 0.000000 
#    z -0.351370 0.000000 0.950220 
# 
# From -- ./inp_files/199901.got.cif
#   From: 2010.05.17/outbox.cif.g08.bks.cpg/sg12_100_cif.got.tgz:199901.got - 2010.06.03 13:09:07.
