data_PCOD9213399
_publ_section_title
;
Structure prediction by ZEFSAII (Michael W. Deem and Ramdas Pophale) SiO2 
 PCOD9213399
Probable space group: C 2/M
;
_chemical_formula_sum "Si O2"
_cell_formula_units_Z 48
_cell_length_a 19.255294
_cell_length_b 14.934914
_cell_length_c 12.555776
_cell_angle_alpha 90.000000
_cell_angle_beta 143.080063
_cell_angle_gamma 90.000000
_cell_volume 2168.967039
_symmetry_space_group_name_H-M "C 2/M"
_symmetry_group_IT_number 12
_symmetry_cell_setting 'monoclinic'
loop_
_space_group_symop_operation_xyz
x,y,z
-x,y,-z
-x,-y,-z
x,-y,z
1/2+x,1/2+y,z
1/2-x,1/2+y,-z
1/2-x,1/2-y,-z
1/2+x,1/2-y,z
loop_
_atom_site_type_symbol
_atom_site_label
_atom_site_fract_x
_atom_site_fract_y
_atom_site_fract_z
Si Si1 0.694364 0.224289 0.074295
Si Si2 0.862919 0.401389 0.817990
Si Si3 0.030528 0.104262 0.911882
Si Si4 0.396023 0.169910 0.244040
Si Si5 0.725533 0.646324 0.448703
Si Si6 0.367923 0.098691 0.429631
O O1 0.697639 0.177402 0.191481
O O2 0.822439 0.243660 0.187977
O O3 0.618715 0.316007 0.987395
O O4 0.635105 0.157560 0.916802
O O5 0.838397 0.500000 0.832737
O O6 0.814689 0.399927 0.639284
O O7 0.000000 0.385623 0.000000
O O8 0.908323 0.120612 0.701332
O O9 0.068276 0.000000 0.942061
O O10 0.000000 0.114623 0.000000
O O11 0.354221 0.102841 0.285811
O O12 0.533261 0.170338 0.422331
O O13 0.750000 0.750000 0.500000
O O14 0.759461 0.619002 0.369895
O O15 0.411486 0.000000 0.511454
#
# Coordination Sequence:
#
# PCOD9213399 Si02
#       6
#     8   8   8   8   8   8
#     4  11  23  40  60  86 125 167 200 244 308 371
#     4  11  23  39  62  93 126 160 204 256 313 375
#     4  11  23  39  62  93 126 160 204 256 313 375
#     4  10  22  38  57  84 117 159 206 244 295 362
#     4  12  23  39  65  92 125 162 200 257 321 373
#     4  11  22  38  62  89 116 151 206 265 305 348
#
# _framework density 22.130348999999999
#
# number of rings (size 3 to 8) (size 9 to 14) (size 15 to 20)
#    0.000    1.000    0.000    9.000    0.000    6.667 
#    0.000    2.500    0.000    0.000    0.000   16.333 
#    0.000    0.000    0.000    0.000    0.000    0.000 
#
# Total GULP energy -133985.729095 kJ/mol
# GULP energy per Si atom -5582.738712 kJ/mol
# Density = 2.207998 g / cm^3
# Si number density = 22.130349 Si / 1000 Ang^3
#
#
#
# Elastic Constant Matrix: (Units=GPa)
#
#
# Indices 1 2 3 4 5 6 
#
# 1 76.7845 19.4860 19.7903 0.0000 0.1795 0.0000
# 2 19.4860 82.9904 21.6854 0.0000 -3.1139 0.0000
# 3 19.7903 21.6854 103.5676 0.0000 3.4220 0.0000
# 4 0.0000 0.0000 0.0000 21.6211 0.0000 -2.3259
# 5 0.1795 -3.1139 3.4220 0.0000 39.9349 0.0000
# 6 0.0000 0.0000 0.0000 -2.3259 0.0000 16.6347
#
#
#
# Elastic Compliance Matrix: (Units=1/GPa)
#
#
# Indices 1 2 3 4 5 6 
#
# 1 0.014286 -0.002799 -0.002141 0.000000 -0.000099 0.000000
# 2 -0.002799 0.013355 -0.002303 0.000000 0.001251 0.000000
# 3 -0.002141 -0.002303 0.010582 0.000000 -0.001077 0.000000
# 4 0.000000 0.000000 0.000000 0.046957 0.000000 0.006566
# 5 -0.000099 0.001251 -0.001077 0.000000 0.025231 0.000000
# 6 0.000000 0.000000 0.000000 0.006566 0.000000 0.061033
#
#
# Mechanical properties :
#
#
# Convention : Reuss Voigt Hill
#
# Bulk Modulus (GPa) = 42.12456 42.80730 42.46593
# Shear Modulus (GPa) = 25.79415 29.13019 27.46217
#
# Velocity S-wave (km/s) = 3.41773 3.63202 3.52650
# Velocity P-wave (km/s) = 5.88647 6.08063 5.98434
#
# Compressibility (1/GPa) = 0.02373912
#
# Stress axis : x y z
#
# Youngs Moduli (GPa) = 70.00050 74.87597 94.49706
#
# Poissons Ratio (x) = 0.20955 0.20227
# Poissons Ratio (y) = 0.19591 0.21762
# Poissons Ratio (z) = 0.14984 0.17244
#
# Static dielectric constant tensor:
#      x y z
#    x 1.817360 0.000000 -0.020730 
#    y 0.000000 1.826520 0.000000 
#    z -0.020730 0.000000 1.865960 
# 
# From -- ./inp_files/167632.got.cif
#   From: 2010.05.17/outbox.cif.g08.bks.cpg/sg12_84_cif.got.tgz:167632.got - 2010.06.03 13:09:07.
