data_PCOD9213731
_publ_section_title
;
Structure prediction by ZEFSAII (Michael W. Deem and Ramdas Pophale) SiO2 
 PCOD9213731
Probable space group: C 2/M
;
_chemical_formula_sum "Si O2"
_cell_formula_units_Z 48
_cell_length_a 28.309806
_cell_length_b 17.564821
_cell_length_c 8.144425
_cell_angle_alpha 90.000000
_cell_angle_beta 33.556799
_cell_angle_gamma 90.000000
_cell_volume 2238.619619
_symmetry_space_group_name_H-M "C 2/M"
_symmetry_group_IT_number 12
_symmetry_cell_setting 'monoclinic'
loop_
_space_group_symop_operation_xyz
x,y,z
-x,y,-z
-x,-y,-z
x,-y,z
1/2+x,1/2+y,z
1/2-x,1/2+y,-z
1/2-x,1/2-y,-z
1/2+x,1/2-y,z
loop_
_atom_site_type_symbol
_atom_site_label
_atom_site_fract_x
_atom_site_fract_y
_atom_site_fract_z
Si Si1 0.064200 0.268108 0.178885
Si Si2 0.399757 0.627787 0.133231
Si Si3 0.536619 0.085005 0.077721
Si Si4 0.268321 0.084516 0.578673
Si Si5 0.414460 0.413545 0.472384
Si Si6 0.701231 0.706340 0.000859
O O1 0.153832 0.265620 0.016939
O O2 0.000000 0.233877 0.500000
O O3 0.082387 0.215295 0.968455
O O4 0.019479 0.345363 0.248376
O O5 0.311895 0.599957 0.307669
O O6 0.398558 0.611456 0.329442
O O7 0.482564 0.587908 0.812529
O O8 0.639654 0.085035 0.771926
O O9 0.507502 0.000000 0.212806
O O10 0.500000 0.097755 0.000000
O O11 0.258030 0.000000 0.682250
O O12 0.265586 0.153048 0.714411
O O13 0.384732 0.500000 0.584249
O O14 0.366399 0.353704 0.726633
O O15 0.750000 0.750000 0.000000
#
# Coordination Sequence:
#
# PCOD9213731 Si02
#       6
#     8   8   8   8   8   8
#     4  11  24  42  65  93 125 167 210 262 325 383
#     4  10  22  38  66  96 127 162 210 259 319 388
#     4  10  25  45  68  92 122 169 223 274 324 374
#     4  10  22  42  64  90 124 164 210 265 322 378
#     4  11  22  40  65  96 130 169 208 256 317 384
#     4  11  26  40  61  96 131 168 210 256 317 386
#
# _framework density 21.441784999999999
#
# number of rings (size 3 to 8) (size 9 to 14) (size 15 to 20)
#    0.000    1.500    1.667    2.500    9.333    1.667 
#    0.000    3.333    0.000    0.000    0.000    0.000 
#    0.000    0.000    0.000    0.000    0.000    0.000 
#
# Total GULP energy -133998.635302 kJ/mol
# GULP energy per Si atom -5583.276471 kJ/mol
# Density = 2.139298 g / cm^3
# Si number density = 21.441785 Si / 1000 Ang^3
#
#
#
# Elastic Constant Matrix: (Units=GPa)
#
#
# Indices 1 2 3 4 5 6 
#
# 1 67.7542 53.3823 -6.1745 0.0000 -12.8820 0.0000
# 2 53.3823 102.2026 -6.4929 0.0000 3.1461 0.0000
# 3 -6.1745 -6.4929 33.0823 0.0000 -3.2166 0.0000
# 4 0.0000 0.0000 0.0000 24.8104 0.0000 2.2247
# 5 -12.8820 3.1461 -3.2166 0.0000 21.8052 0.0000
# 6 0.0000 0.0000 0.0000 2.2247 0.0000 91.0888
#
#
#
# Elastic Compliance Matrix: (Units=1/GPa)
#
#
# Indices 1 2 3 4 5 6 
#
# 1 0.033970 -0.018143 0.005058 0.000000 0.023432 0.000000
# 2 -0.018143 0.019627 -0.000864 0.000000 -0.013678 0.000000
# 3 0.005058 -0.000864 0.031760 0.000000 0.007798 0.000000
# 4 0.000000 0.000000 0.000000 0.040394 0.000000 -0.000987
# 5 0.023432 -0.013678 0.007798 0.000000 0.062828 0.000000
# 6 0.000000 0.000000 0.000000 -0.000987 0.000000 0.011002
#
#
# Mechanical properties :
#
#
# Convention : Reuss Voigt Hill
#
# Bulk Modulus (GPa) = 17.40390 31.60764 24.50577
# Shear Modulus (GPa) = 20.27300 38.36249 29.31774
#
# Velocity S-wave (km/s) = 3.07822 4.23442 3.70174
# Velocity P-wave (km/s) = 4.55723 6.21934 5.45200
#
# Compressibility (1/GPa) = 0.05745840
#
# Stress axis : x y z
#
# Youngs Moduli (GPa) = 29.43773 50.94982 31.48590
#
# Poissons Ratio (x) = 0.92439 -0.15925
# Poissons Ratio (y) = 0.53409 0.02720
# Poissons Ratio (z) = -0.14889 0.04402
#
# Static dielectric constant tensor:
#      x y z
#    x 1.759870 0.000000 -0.014690 
#    y 0.000000 1.833480 0.000000 
#    z -0.014690 0.000000 1.781540 
# 
# From -- ./inp_files/112727.got.cif
#   From: 2010.05.17/outbox.cif.g08.bks.cpg/sg12_57_cif.got.tgz:112727.got - 2010.06.03 13:09:07.
