data_PCOD9213953
_publ_section_title
;
Structure prediction by ZEFSAII (Michael W. Deem and Ramdas Pophale) SiO2 
 PCOD9213953
Probable space group: C 2/M
;
_chemical_formula_sum "Si O2"
_cell_formula_units_Z 56
_cell_length_a 7.875374
_cell_length_b 17.855309
_cell_length_c 20.072876
_cell_angle_alpha 90.000000
_cell_angle_beta 65.055711
_cell_angle_gamma 90.000000
_cell_volume 2559.296099
_symmetry_space_group_name_H-M "C 2/M"
_symmetry_group_IT_number 12
_symmetry_cell_setting 'monoclinic'
loop_
_space_group_symop_operation_xyz
x,y,z
-x,y,-z
-x,-y,-z
x,-y,z
1/2+x,1/2+y,z
1/2-x,1/2+y,-z
1/2-x,1/2-y,-z
1/2+x,1/2-y,z
loop_
_atom_site_type_symbol
_atom_site_label
_atom_site_fract_x
_atom_site_fract_y
_atom_site_fract_z
Si Si1 0.399944 0.689613 0.193462
Si Si2 0.339167 0.832120 0.470879
Si Si3 0.466222 0.634563 0.396948
Si Si4 0.086691 0.699156 0.054440
Si Si5 0.329257 0.779279 0.646722
Si Si6 0.616013 0.087708 0.161358
Si Si7 0.670017 0.415533 0.237161
O O1 0.470980 0.745642 0.123839
O O2 0.272956 0.735074 0.267225
O O3 0.252537 0.629103 0.190074
O O4 0.564915 0.644725 0.206059
O O5 0.500000 0.845392 0.500000
O O6 0.250000 0.750000 0.500000
O O7 0.168655 0.887537 0.518980
O O8 0.476360 0.826753 0.384176
O O9 0.608275 0.700309 0.395267
O O10 0.320302 0.674787 0.370598
O O11 0.579241 0.584473 0.326465
O O12 0.154930 0.629377 0.085729
O O13 0.250000 0.750000 0.000000
O O14 0.000000 0.670606 0.000000
O O15 0.392120 0.098004 0.208339
O O16 0.654049 0.000000 0.154528
O O17 0.645711 0.500000 0.213261
#
# Coordination Sequence:
#
# PCOD9213953 Si02
#       7
#     8   8   8   8   8   8   8
#     4  11  23  40  66  91 124 162 209 257 309 369
#     4   8  14  27  43  73 115 145 190 245 306 354
#     4   9  17  29  50  79 117 153 194 251 307 354
#     4  12  24  43  66  96 126 157 204 258 307 373
#     4   9  18  28  52  84 111 149 197 254 302 358
#     4  11  25  44  67  94 128 167 205 251 315 376
#     4  10  22  39  60  90 126 166 210 255 306 369
#
# _framework density 21.881017
#
# number of rings (size 3 to 8) (size 9 to 14) (size 15 to 20)
#    0.000    2.000    1.429    2.143    6.000    0.286 
#    0.000    2.143    0.000   11.571    0.000    2.000 
#    0.000    0.000    0.000    0.000    0.000    0.000 
#
# Total GULP energy -155967.885941 kJ/mol
# GULP energy per Si atom -5570.281641 kJ/mol
# Density = 2.183121 g / cm^3
# Si number density = 21.881017 Si / 1000 Ang^3
#
#
#
# Elastic Constant Matrix: (Units=GPa)
#
#
# Indices 1 2 3 4 5 6 
#
# 1 88.2315 9.1655 -0.1217 0.0000 -8.0644 0.0000
# 2 9.1655 69.2062 11.5602 0.0000 -0.0684 0.0000
# 3 -0.1217 11.5602 126.5953 0.0000 -20.0920 0.0000
# 4 0.0000 0.0000 0.0000 17.9651 0.0000 5.5007
# 5 -8.0644 -0.0684 -20.0920 0.0000 24.5371 0.0000
# 6 0.0000 0.0000 0.0000 5.5007 0.0000 20.7451
#
#
#
# Elastic Compliance Matrix: (Units=1/GPa)
#
#
# Indices 1 2 3 4 5 6 
#
# 1 0.011941 -0.001729 0.000910 0.000000 0.004665 0.000000
# 2 -0.001729 0.014955 -0.001668 0.000000 -0.001892 0.000000
# 3 0.000910 -0.001668 0.009309 0.000000 0.007917 0.000000
# 4 0.000000 0.000000 0.000000 0.060582 0.000000 -0.016064
# 5 0.004665 -0.001892 0.007917 0.000000 0.048765 0.000000
# 6 0.000000 0.000000 0.000000 -0.016064 0.000000 0.052464
#
#
# Mechanical properties :
#
#
# Convention : Reuss Voigt Hill
#
# Bulk Modulus (GPa) = 32.01883 36.13789 34.07836
# Shear Modulus (GPa) = 23.43021 30.21139 26.82080
#
# Velocity S-wave (km/s) = 3.27586 3.71982 3.50488
# Velocity P-wave (km/s) = 5.38268 5.91616 5.65571
#
# Compressibility (1/GPa) = 0.03123163
#
# Stress axis : x y z
#
# Youngs Moduli (GPa) = 83.74502 66.86632 107.42498
#
# Poissons Ratio (x) = 0.11560 -0.09772
# Poissons Ratio (y) = 0.14478 0.17914
# Poissons Ratio (z) = -0.07618 0.11151
#
# Static dielectric constant tensor:
#      x y z
#    x 1.863820 0.000000 0.017250 
#    y 0.000000 1.797390 0.000000 
#    z 0.017250 0.000000 1.901090 
# 
# From -- ./inp_files/332861.got.cif
#   From: 2010.05.17/outbox.cif.g08.bks.cpg/sg12_167_cif.got.tgz:332861.got - 2010.06.03 13:09:07.
