data_PCOD9213511
_publ_section_title
;
Structure prediction by ZEFSAII (Michael W. Deem and Ramdas Pophale) SiO2 
 PCOD9213511
Probable space group: C 2/M
;
_chemical_formula_sum "Si O2"
_cell_formula_units_Z 40
_cell_length_a 5.431121
_cell_length_b 29.637641
_cell_length_c 10.757906
_cell_angle_alpha 90.000000
_cell_angle_beta 66.316755
_cell_angle_gamma 90.000000
_cell_volume 1585.813304
_symmetry_space_group_name_H-M "C 2/M"
_symmetry_group_IT_number 12
_symmetry_cell_setting 'monoclinic'
loop_
_space_group_symop_operation_xyz
x,y,z
-x,y,-z
-x,-y,-z
x,-y,z
1/2+x,1/2+y,z
1/2-x,1/2+y,-z
1/2-x,1/2-y,-z
1/2+x,1/2-y,z
loop_
_atom_site_type_symbol
_atom_site_label
_atom_site_fract_x
_atom_site_fract_y
_atom_site_fract_z
Si Si1 0.527973 0.448169 0.350148
Si Si2 0.085293 0.231780 0.655578
Si Si3 0.107054 0.547595 0.116286
Si Si4 0.786047 0.637560 0.653586
Si Si5 0.698504 0.849969 0.075870
O O1 0.500000 0.436251 0.500000
O O2 0.432523 0.500000 0.353496
O O3 0.841621 0.447186 0.254036
O O4 0.365562 0.410438 0.307243
O O5 0.250000 0.250000 0.500000
O O6 0.285997 0.249621 0.720695
O O7 0.086357 0.177793 0.654591
O O8 0.246407 0.500000 0.124501
O O9 0.236837 0.595927 0.074063
O O10 0.000000 0.541192 0.000000
O O11 0.904810 0.655245 0.760853
O O12 0.000000 0.633932 0.500000
O O13 0.500000 0.839459 0.000000
O O14 0.000000 0.829951 0.000000
#
# Coordination Sequence:
#
# PCOD9213511 Si02
#       5
#     8   8   8   8   8
#     4  10  22  38  60 100 148 185 228 287 349 414
#     4  10  22  42  66 106 135 162 221 305 339 394
#     4   9  18  36  60  85 123 180 236 278 319 385
#     4  12  24  39  73 103 134 189 236 286 348 413
#     4  11  25  44  63  99 143 182 228 288 353 415
#
# _framework density 25.223649000000002
#
# number of rings (size 3 to 8) (size 9 to 14) (size 15 to 20)
#    0.000    1.600    2.000    3.600    2.800    4.800 
#    0.000    0.000    0.000    3.600    0.000    0.000 
#    0.000    0.000    0.000    0.000    0.000    0.000 
#
# Total GULP energy -111656.453747 kJ/mol
# GULP energy per Si atom -5582.822687 kJ/mol
# Density = 2.516624 g / cm^3
# Si number density = 25.223649 Si / 1000 Ang^3
#
#
#
# Elastic Constant Matrix: (Units=GPa)
#
#
# Indices 1 2 3 4 5 6 
#
# 1 152.3526 22.0999 52.9418 0.0000 6.6182 0.0000
# 2 22.0999 107.8333 -33.4416 0.0000 3.8345 0.0000
# 3 52.9418 -33.4416 128.6908 0.0000 7.2041 0.0000
# 4 0.0000 0.0000 0.0000 -1.9933 0.0000 1.0471
# 5 6.6182 3.8345 7.2041 0.0000 43.5366 0.0000
# 6 0.0000 0.0000 0.0000 1.0471 0.0000 30.0934
#
#
#
# Elastic Compliance Matrix: (Units=1/GPa)
#
#
# Indices 1 2 3 4 5 6 
#
# 1 0.008507 -0.003059 -0.004277 0.000000 -0.000316 0.000000
# 2 -0.003059 0.011264 0.004254 0.000000 -0.001231 0.000000
# 3 -0.004277 0.004254 0.010719 0.000000 -0.001498 0.000000
# 4 0.000000 0.000000 0.000000 -0.492672 0.000000 0.017142
# 5 -0.000316 -0.001231 -0.001498 0.000000 0.023374 0.000000
# 6 0.000000 0.000000 0.000000 0.017142 0.000000 0.032633
#
#
# Mechanical properties :
#
#
# Convention : Reuss Voigt Hill
#
# Bulk Modulus (GPa) = 41.10601 52.45298 46.77950
# Shear Modulus (GPa) = -12.75827 37.47911 12.36042
#
# Velocity S-wave (km/s) = -2.25145 3.85888 2.21607
# Velocity P-wave (km/s) = 3.09407 6.37926 5.01339
#
# Compressibility (1/GPa) = 0.02432734
#
# Stress axis : x y z
#
# Youngs Moduli (GPa) = 117.54522 88.78211 93.28867
#
# Poissons Ratio (x) = 0.27156 0.39899
# Poissons Ratio (y) = 0.35953 -0.39687
# Poissons Ratio (z) = 0.50274 -0.37769
#
# Static dielectric constant tensor:
#      x y z
#    x 2.010050 0.000000 0.058670 
#    y 0.000000 2.158300 0.000000 
#    z 0.058670 0.000000 2.002780 
# 
# From -- ./inp_files/116018.got.cif
#   From: 2010.05.17/outbox.cif.g08.bks.cpg/sg12_59_cif.got.tgz:116018.got - 2010.06.03 13:09:07.
