data_PCOD9213014
_publ_section_title
;
Structure prediction by ZEFSAII (Michael W. Deem and Ramdas Pophale) SiO2 
 PCOD9213014
Probable space group: C 2/M
;
_chemical_formula_sum "Si O2"
_cell_formula_units_Z 44
_cell_length_a 13.666255
_cell_length_b 11.860313
_cell_length_c 15.730832
_cell_angle_alpha 90.000000
_cell_angle_beta 49.876115
_cell_angle_gamma 90.000000
_cell_volume 1949.672457
_symmetry_space_group_name_H-M "C 2/M"
_symmetry_group_IT_number 12
_symmetry_cell_setting 'monoclinic'
loop_
_space_group_symop_operation_xyz
x,y,z
-x,y,-z
-x,-y,-z
x,-y,z
1/2+x,1/2+y,z
1/2-x,1/2+y,-z
1/2-x,1/2-y,-z
1/2+x,1/2-y,z
loop_
_atom_site_type_symbol
_atom_site_label
_atom_site_fract_x
_atom_site_fract_y
_atom_site_fract_z
Si Si1 0.842540 0.500000 0.075059
Si Si2 0.045937 0.219287 0.756237
Si Si3 0.198177 0.635550 0.345412
Si Si4 0.376346 0.252556 0.008120
Si Si5 0.626362 0.500000 0.989449
Si Si6 0.561173 0.134354 0.594851
Si Si7 0.071635 0.000000 0.225652
O O1 0.704936 0.500000 0.202977
O O2 0.821870 0.626605 0.049224
O O3 0.000000 0.500000 0.000000
O O4 0.165121 0.187513 0.748991
O O5 0.927624 0.245375 0.882825
O O6 0.087429 0.319293 0.672401
O O7 0.011297 0.112326 0.716780
O O8 0.208823 0.500000 0.333934
O O9 0.081385 0.672594 0.352233
O O10 0.156898 0.665796 0.465123
O O11 0.310927 0.376073 0.061148
O O12 0.500000 0.253979 0.000000
O O13 0.593435 0.500000 0.109096
O O14 0.500000 0.500000 0.000000
O O15 0.559252 0.000000 0.596110
#
# Coordination Sequence:
#
# PCOD9213014 Si02
#       7
#     4   8   8   8   4   8   4
#     4  10  22  40  54  71 113 159 187 236 310 345
#     4  11  20  35  64  87 116 151 205 237 289 357
#     4   9  18  38  60  87 122 157 188 242 300 348
#     4   9  20  36  57  79 114 153 194 241 295 342
#     4   8  16  34  54  78 103 136 190 242 275 333
#     4   9  20  35  60  92 122 150 194 242 295 352
#     4  10  22  36  56  81 108 151 195 238 290 350
#
# _framework density 22.567895
#
# number of rings (size 3 to 8) (size 9 to 14) (size 15 to 20)
#    0.000    2.545    0.909    1.636    1.273    5.818 
#    0.000    3.636    4.000    1.091    0.000    0.000 
#    0.000    0.000    0.000    0.000    0.000    0.000 
#
# Total GULP energy -122485.641527 kJ/mol
# GULP energy per Si atom -5567.529160 kJ/mol
# Density = 2.251653 g / cm^3
# Si number density = 22.567895 Si / 1000 Ang^3
#
#
#
# Elastic Constant Matrix: (Units=GPa)
#
#
# Indices 1 2 3 4 5 6 
#
# 1 72.8283 4.6834 6.3256 0.0000 -10.5430 0.0000
# 2 4.6834 134.4134 23.6424 0.0000 -4.7053 0.0000
# 3 6.3256 23.6424 26.9939 0.0000 -3.4488 0.0000
# 4 0.0000 0.0000 0.0000 20.7243 0.0000 -2.0612
# 5 -10.5430 -4.7053 -3.4488 0.0000 34.0423 0.0000
# 6 0.0000 0.0000 0.0000 -2.0612 0.0000 23.0531
#
#
#
# Elastic Compliance Matrix: (Units=1/GPa)
#
#
# Indices 1 2 3 4 5 6 
#
# 1 0.014596 0.000173 -0.003030 0.000000 0.004237 0.000000
# 2 0.000173 0.008803 -0.007688 0.000000 0.000491 0.000000
# 3 -0.003030 -0.007688 0.044813 0.000000 0.002539 0.000000
# 4 0.000000 0.000000 0.000000 0.048686 0.000000 0.004353
# 5 0.004237 0.000491 0.002539 0.000000 0.031013 0.000000
# 6 0.000000 0.000000 0.000000 0.004353 0.000000 0.043767
#
#
# Mechanical properties :
#
#
# Convention : Reuss Voigt Hill
#
# Bulk Modulus (GPa) = 21.22156 33.72650 27.47403
# Shear Modulus (GPa) = 21.88405 28.86953 25.37679
#
# Velocity S-wave (km/s) = 3.11738 3.58051 3.35694
# Velocity P-wave (km/s) = 4.73088 5.66307 5.21783
#
# Compressibility (1/GPa) = 0.04712188
#
# Stress axis : x y z
#
# Youngs Moduli (GPa) = 68.50980 113.59546 22.31483
#
# Poissons Ratio (x) = -0.01963 0.06762
# Poissons Ratio (y) = -0.01184 0.17155
# Poissons Ratio (z) = 0.20761 0.87331
#
# Static dielectric constant tensor:
#      x y z
#    x 1.852200 0.000000 -0.012010 
#    y 0.000000 1.850200 0.000000 
#    z -0.012010 0.000000 1.835690 
# 
# From -- ./inp_files/268499.got.cif
#   From: 2010.05.17/outbox.cif.g08.bks.cpg/sg12_135_cif.got.tgz:268499.got - 2010.06.03 13:09:07.
