data_PCOD9213186
_publ_section_title
;
Structure prediction by ZEFSAII (Michael W. Deem and Ramdas Pophale) SiO2 
 PCOD9213186
Probable space group: C 2/M
;
_chemical_formula_sum "Si O2"
_cell_formula_units_Z 64
_cell_length_a 12.539909
_cell_length_b 23.602463
_cell_length_c 11.786357
_cell_angle_alpha 90.000000
_cell_angle_beta 115.345001
_cell_angle_gamma 90.000000
_cell_volume 3152.666170
_symmetry_space_group_name_H-M "C 2/M"
_symmetry_group_IT_number 12
_symmetry_cell_setting 'monoclinic'
loop_
_space_group_symop_operation_xyz
x,y,z
-x,y,-z
-x,-y,-z
x,-y,z
1/2+x,1/2+y,z
1/2-x,1/2+y,-z
1/2-x,1/2-y,-z
1/2+x,1/2-y,z
loop_
_atom_site_type_symbol
_atom_site_label
_atom_site_fract_x
_atom_site_fract_y
_atom_site_fract_z
Si Si1 0.825588 0.719171 0.681846
Si Si2 0.558547 0.567561 0.352833
Si Si3 0.057929 0.723103 0.902564
Si Si4 0.675636 0.650215 0.234090
Si Si5 0.879862 0.659654 0.487411
Si Si6 0.687920 0.621335 0.736970
Si Si7 0.190257 0.162720 0.979130
Si Si8 0.192036 0.436130 0.399876
O O1 0.834101 0.783736 0.730462
O O2 0.813423 0.701672 0.544479
O O3 0.726275 0.683839 0.706719
O O4 0.959140 0.700007 0.773209
O O5 0.536385 0.500000 0.324268
O O6 0.590855 0.605873 0.258392
O O7 0.442376 0.597731 0.350723
O O8 0.677979 0.571093 0.482418
O O9 0.179749 0.689709 0.953701
O O10 0.097156 0.788218 0.902278
O O11 0.000000 0.719204 0.000000
O O12 0.805462 0.639764 0.344935
O O13 0.661608 0.644235 0.093591
O O14 0.894869 0.604431 0.571836
O O15 0.000000 0.686577 0.500000
O O16 0.783823 0.582738 0.717329
O O17 0.694287 0.620454 0.875589
O O18 0.154927 0.500000 0.391543
#
# Coordination Sequence:
#
# PCOD9213186 Si02
#       8
#     8   8   8   8   8   8   8   8
#     4  11  21  37  58  87 121 154 201 247 301 358
#     4  10  22  40  62  85 117 162 207 251 299 356
#     4  11  19  36  55  79 119 163 200 237 279 363
#     4  11  22  39  57  84 123 161 197 245 302 361
#     4  10  22  37  57  88 117 151 193 250 310 358
#     4  11  21  33  57  89 114 148 196 249 298 350
#     4  11  22  34  56  87 118 164 205 235 295 365
#     4   9  20  40  62  83 112 152 206 255 296 354
#
# _framework density 20.300277000000001
#
# number of rings (size 3 to 8) (size 9 to 14) (size 15 to 20)
#    0.000    1.500    2.500    3.375    0.000    2.250 
#    0.000    3.125    0.000    0.000    0.000   17.500 
#    0.000    0.000    0.000    0.000    0.000    0.000 
#
# Total GULP energy -178394.901922 kJ/mol
# GULP energy per Si atom -5574.840685 kJ/mol
# Density = 2.025407 g / cm^3
# Si number density = 20.300277 Si / 1000 Ang^3
#
#
#
# Elastic Constant Matrix: (Units=GPa)
#
#
# Indices 1 2 3 4 5 6 
#
# 1 74.1865 28.9060 13.0934 0.0000 -10.2769 0.0000
# 2 28.9060 104.1114 26.7602 0.0000 -15.3297 0.0000
# 3 13.0934 26.7602 85.2661 0.0000 -19.2368 0.0000
# 4 0.0000 0.0000 0.0000 10.3689 0.0000 -12.9032
# 5 -10.2769 -15.3297 -19.2368 0.0000 33.6233 0.0000
# 6 0.0000 0.0000 0.0000 -12.9032 0.0000 -24.3054
#
#
#
# Elastic Compliance Matrix: (Units=1/GPa)
#
#
# Indices 1 2 3 4 5 6 
#
# 1 0.015408 -0.003733 -0.000592 0.000000 0.002669 0.000000
# 2 -0.003733 0.011684 -0.002468 0.000000 0.002774 0.000000
# 3 -0.000592 -0.002468 0.014122 0.000000 0.006773 0.000000
# 4 0.000000 0.000000 0.000000 0.058075 0.000000 -0.030831
# 5 0.002669 0.002774 0.006773 0.000000 0.035697 0.000000
# 6 0.000000 0.000000 0.000000 -0.030831 0.000000 -0.024776
#
#
# Mechanical properties :
#
#
# Convention : Reuss Voigt Hill
#
# Bulk Modulus (GPa) = 36.19557 44.56479 40.38018
# Shear Modulus (GPa) = 37.59215 16.92434 27.25824
#
# Velocity S-wave (km/s) = 4.30793 2.89052 3.66833
# Velocity P-wave (km/s) = 6.52787 5.75679 6.15442
#
# Compressibility (1/GPa) = 0.02762769
#
# Stress axis : x y z
#
# Youngs Moduli (GPa) = 64.90036 85.58483 70.81362
#
# Poissons Ratio (x) = 0.31947 0.04196
# Poissons Ratio (y) = 0.24226 0.17476
# Poissons Ratio (z) = 0.03845 0.21122
#
# Static dielectric constant tensor:
#      x y z
#    x 1.755900 0.000000 0.007780 
#    y 0.000000 1.735350 0.000000 
#    z 0.007780 0.000000 1.787200 
# 
# From -- ./inp_files/135999.got.cif
#   From: 2010.05.17/outbox.cif.g08.bks.cpg/sg12_68_cif.got.tgz:135999.got - 2010.06.03 13:09:07.
