data_PCOD9213592
_publ_section_title
;
Structure prediction by ZEFSAII (Michael W. Deem and Ramdas Pophale) SiO2 
 PCOD9213592
Probable space group: C 2/M
;
_chemical_formula_sum "Si O2"
_cell_formula_units_Z 50
_cell_length_a 14.538505
_cell_length_b 7.830964
_cell_length_c 21.614913
_cell_angle_alpha 90.000000
_cell_angle_beta 53.230483
_cell_angle_gamma 90.000000
_cell_volume 1971.278885
_symmetry_space_group_name_H-M "C 2/M"
_symmetry_group_IT_number 12
_symmetry_cell_setting 'monoclinic'
loop_
_space_group_symop_operation_xyz
x,y,z
-x,y,-z
-x,-y,-z
x,-y,z
1/2+x,1/2+y,z
1/2-x,1/2+y,-z
1/2-x,1/2-y,-z
1/2+x,1/2-y,z
loop_
_atom_site_type_symbol
_atom_site_label
_atom_site_fract_x
_atom_site_fract_y
_atom_site_fract_z
Si Si1 0.452808 0.197227 0.829526
Si Si2 0.877631 0.706049 0.136981
Si Si3 0.343445 0.803523 0.693504
Si Si4 0.572875 0.303950 0.661753
Si Si5 0.216612 0.310321 0.945490
Si Si6 0.500000 0.500000 0.500000
Si Si7 0.175750 0.701077 0.446987
O O1 0.513152 0.262777 0.867497
O O2 0.540793 0.207026 0.737633
O O3 0.340152 0.305686 0.861504
O O4 0.417163 0.000000 0.851145
O O5 0.884810 0.500000 0.130587
O O6 0.766144 0.746211 0.223124
O O7 0.863814 0.776755 0.073205
O O8 0.459810 0.708343 0.665361
O O9 0.318570 0.790479 0.630884
O O10 0.365603 0.000000 0.700344
O O11 0.591169 0.500000 0.672475
O O12 0.694654 0.249441 0.584439
O O13 0.171161 0.500000 0.972114
O O14 0.250000 0.250000 0.000000
O O15 0.583066 0.347507 0.497028
O O16 0.147892 0.500000 0.473989
#
# Coordination Sequence:
#
# PCOD9213592 Si02
#       7
#     8   8   8   8   8   2   8
#     4  11  22  37  62  94 124 163 216 269 322 389
#     4  10  22  38  61  91 126 165 213 267 325 389
#     4  11  22  37  65  98 130 162 217 275 321 376
#     4  11  22  38  64  96 132 164 213 273 324 377
#     4  11  24  42  60  85 126 174 215 267 329 387
#     4  12  26  44  80  90 140 182 216 260 336 398
#     4  10  25  45  68 100 134 176 220 268 322 395
#
# _framework density 25.364246000000001
#
# number of rings (size 3 to 8) (size 9 to 14) (size 15 to 20)
#    0.000    1.280    3.200    2.160    4.480    1.920 
#    0.000    4.000    0.000    0.000    0.000    0.000 
#    0.000    0.000    0.000    0.000    0.000    0.000 
#
# Total GULP energy -139618.062246 kJ/mol
# GULP energy per Si atom -5584.722490 kJ/mol
# Density = 2.530652 g / cm^3
# Si number density = 25.364246 Si / 1000 Ang^3
#
#
#
# Elastic Constant Matrix: (Units=GPa)
#
#
# Indices 1 2 3 4 5 6 
#
# 1 91.1730 1.8447 20.8743 0.0000 -3.0335 0.0001
# 2 1.8447 78.9288 17.9391 0.0000 -7.2704 0.0001
# 3 20.8743 17.9391 80.3611 0.0000 -5.5803 0.0000
# 4 0.0000 0.0000 0.0000 19.6148 0.0000 -9.3771
# 5 -3.0335 -7.2704 -5.5803 0.0000 44.4510 0.0000
# 6 0.0001 0.0001 0.0000 -9.3771 0.0000 21.8990
#
#
#
# Elastic Compliance Matrix: (Units=1/GPa)
#
#
# Indices 1 2 3 4 5 6 
#
# 1 0.011686 0.000478 -0.003109 0.000000 0.000485 0.000000
# 2 0.000478 0.013515 -0.003012 0.000000 0.001865 0.000000
# 3 -0.003109 -0.003012 0.013997 0.000000 0.001052 0.000000
# 4 0.000000 0.000000 0.000000 0.064104 0.000000 0.027449
# 5 0.000485 0.001865 0.001052 0.000000 0.022967 0.000000
# 6 0.000000 0.000000 0.000000 0.027449 0.000000 0.057418
#
#
# Mechanical properties :
#
#
# Convention : Reuss Voigt Hill
#
# Bulk Modulus (GPa) = 35.82486 36.86435 36.34461
# Shear Modulus (GPa) = 24.47672 31.17996 27.82834
#
# Velocity S-wave (km/s) = 3.10983 3.50992 3.31592
# Velocity P-wave (km/s) = 5.20092 5.56701 5.38708
#
# Compressibility (1/GPa) = 0.02791358
#
# Stress axis : x y z
#
# Youngs Moduli (GPa) = 85.56980 73.99320 71.44556
#
# Poissons Ratio (x) = -0.03538 0.22210
# Poissons Ratio (y) = -0.04091 0.21517
# Poissons Ratio (z) = 0.26600 0.22284
#
# Static dielectric constant tensor:
#      x y z
#    x 2.031640 0.000000 0.042520 
#    y 0.000000 1.965920 0.000000 
#    z 0.042520 0.000000 2.054270 
# 
# From -- ./inp_files/337811.got.cif
#   From: 2010.05.17/outbox.cif.g08.bks.cpg/sg12_169_cif.got.tgz:337811.got - 2010.06.03 13:09:07.
