data_PCOD9213159
_publ_section_title
;
Structure prediction by ZEFSAII (Michael W. Deem and Ramdas Pophale) SiO2 
 PCOD9213159
Probable space group: C 2/M
;
_chemical_formula_sum "Si O2"
_cell_formula_units_Z 48
_cell_length_a 14.913070
_cell_length_b 20.253589
_cell_length_c 9.243414
_cell_angle_alpha 90.000000
_cell_angle_beta 51.195245
_cell_angle_gamma 90.000000
_cell_volume 2175.696464
_symmetry_space_group_name_H-M "C 2/M"
_symmetry_group_IT_number 12
_symmetry_cell_setting 'monoclinic'
loop_
_space_group_symop_operation_xyz
x,y,z
-x,y,-z
-x,-y,-z
x,-y,z
1/2+x,1/2+y,z
1/2-x,1/2+y,-z
1/2-x,1/2-y,-z
1/2+x,1/2-y,z
loop_
_atom_site_type_symbol
_atom_site_label
_atom_site_fract_x
_atom_site_fract_y
_atom_site_fract_z
Si Si1 0.307990 0.288618 0.116152
Si Si2 0.938401 0.805727 0.272784
Si Si3 0.631683 0.923608 0.891899
Si Si4 0.325412 0.329479 0.671307
Si Si5 0.036912 0.072526 0.258646
Si Si6 0.776769 0.427484 0.872112
O O1 0.355218 0.281462 0.232665
O O2 0.233730 0.223375 0.163599
O O3 0.227627 0.354226 0.191894
O O4 0.429210 0.290441 0.904404
O O5 0.894067 0.790021 0.478226
O O6 0.937787 0.885825 0.283283
O O7 0.719955 0.874938 0.723695
O O8 0.647481 0.000000 0.830861
O O9 0.500000 0.904405 0.000000
O O10 0.661440 0.921531 0.033457
O O11 0.404703 0.381850 0.676750
O O12 0.001448 0.000000 0.341395
O O13 0.141138 0.065676 0.041861
O O14 0.813718 0.500000 0.772016
#
# Coordination Sequence:
#
# PCOD9213159 Si02
#       6
#     8   8   8   8   8   8
#     4  10  22  38  55  85 118 153 190 230 289 352
#     4  10  22  37  56  83 118 149 193 232 289 349
#     4   9  19  35  57  86 112 148 195 238 286 334
#     4  11  21  36  58  85 116 150 189 244 289 336
#     4   9  19  36  59  88 116 145 190 244 292 339
#     4   8  16  34  57  81 113 150 187 232 283 340
#
# _framework density 22.061900999999999
#
# number of rings (size 3 to 8) (size 9 to 14) (size 15 to 20)
#    0.000    2.500    0.000    2.500    2.333    8.667 
#    0.000    3.333    0.000    0.000    0.000    3.500 
#    0.000    0.167    0.000    0.000    0.000    0.000 
#
# Total GULP energy -133631.434840 kJ/mol
# GULP energy per Si atom -5567.976452 kJ/mol
# Density = 2.201169 g / cm^3
# Si number density = 22.061901 Si / 1000 Ang^3
#
#
#
# Elastic Constant Matrix: (Units=GPa)
#
#
# Indices 1 2 3 4 5 6 
#
# 1 53.9133 16.6870 -8.3977 0.0000 -11.3034 0.0000
# 2 16.6870 116.5556 30.4552 0.0000 -19.2960 0.0000
# 3 -8.3977 30.4552 70.2070 0.0000 0.5399 0.0000
# 4 0.0000 0.0000 0.0000 42.9172 0.0000 26.8681
# 5 -11.3034 -19.2960 0.5399 0.0000 15.1904 0.0000
# 6 0.0000 0.0000 0.0000 26.8681 0.0000 64.9337
#
#
#
# Elastic Compliance Matrix: (Units=1/GPa)
#
#
# Indices 1 2 3 4 5 6 
#
# 1 0.022650 -0.001701 0.003335 0.000000 0.014574 0.000000
# 2 -0.001701 0.012911 -0.005922 0.000000 0.015345 0.000000
# 3 0.003335 -0.005922 0.017255 0.000000 -0.005654 0.000000
# 4 0.000000 0.000000 0.000000 0.031447 0.000000 -0.013012
# 5 0.014574 0.015345 -0.005654 0.000000 0.096369 0.000000
# 6 0.000000 0.000000 0.000000 -0.013012 0.000000 0.020784
#
#
# Mechanical properties :
#
#
# Convention : Reuss Voigt Hill
#
# Bulk Modulus (GPa) = 22.60431 35.35164 28.97798
# Shear Modulus (GPa) = 22.24795 38.07037 30.15916
#
# Velocity S-wave (km/s) = 3.17903 4.15856 3.70134
# Velocity P-wave (km/s) = 4.87269 6.25434 5.60624
#
# Compressibility (1/GPa) = 0.04423936
#
# Stress axis : x y z
#
# Youngs Moduli (GPa) = 44.14999 77.45321 57.95410
#
# Poissons Ratio (x) = 0.13178 -0.19329
# Poissons Ratio (y) = 0.07512 0.34322
# Poissons Ratio (z) = -0.14725 0.45869
#
# Static dielectric constant tensor:
#      x y z
#    x 1.827490 0.000000 0.034910 
#    y 0.000000 1.918430 0.000000 
#    z 0.034910 0.000000 1.872350 
# 
# From -- ./inp_files/157646.got.cif
#   From: 2010.05.17/outbox.cif.g08.bks.cpg/sg12_79_cif.got.tgz:157646.got - 2010.06.03 13:09:07.
