data_PCOD9213569
_publ_section_title
;
Structure prediction by ZEFSAII (Michael W. Deem and Ramdas Pophale) SiO2 
 PCOD9213569
Probable space group: C 2/M
;
_chemical_formula_sum "Si O2"
_cell_formula_units_Z 56
_cell_length_a 8.171712
_cell_length_b 18.385534
_cell_length_c 18.789758
_cell_angle_alpha 90.000000
_cell_angle_beta 119.535416
_cell_angle_gamma 90.000000
_cell_volume 2456.152185
_symmetry_space_group_name_H-M "C 2/M"
_symmetry_group_IT_number 12
_symmetry_cell_setting 'monoclinic'
loop_
_space_group_symop_operation_xyz
x,y,z
-x,y,-z
-x,-y,-z
x,-y,z
1/2+x,1/2+y,z
1/2-x,1/2+y,-z
1/2-x,1/2-y,-z
1/2+x,1/2-y,z
loop_
_atom_site_type_symbol
_atom_site_label
_atom_site_fract_x
_atom_site_fract_y
_atom_site_fract_z
Si Si1 0.725385 0.338984 0.190991
Si Si2 0.355369 0.326500 0.034373
Si Si3 0.928783 0.585856 0.102163
Si Si4 0.268617 0.325642 0.230373
Si Si5 0.721462 0.344759 0.459046
Si Si6 0.652977 0.583038 0.311981
Si Si7 0.714635 0.692578 0.605003
O O1 0.498090 0.333729 0.130416
O O2 0.812955 0.387510 0.147236
O O3 0.793079 0.255797 0.206388
O O4 0.766145 0.376608 0.274522
O O5 0.500000 0.331950 0.000000
O O6 0.250000 0.250000 0.000000
O O7 0.199037 0.388416 0.991390
O O8 0.959679 0.500000 0.109103
O O9 0.118178 0.632144 0.150312
O O10 0.457002 0.372887 0.274455
O O11 0.198072 0.316032 0.297896
O O12 0.743558 0.410159 0.409454
O O13 0.500294 0.331324 0.427658
O O14 0.803310 0.349727 0.556250
O O15 0.783439 0.274475 0.426021
O O16 0.620296 0.500000 0.285420
#
# Coordination Sequence:
#
# PCOD9213569 Si02
#       7
#     8   8   8   8   8   8   8
#     4  11  22  38  63  83 111 154 196 232 279 344
#     4  10  22  38  61  84 112 148 193 232 279 344
#     4  11  24  40  59  86 119 150 187 239 292 339
#     4  11  21  37  60  87 113 151 195 236 279 339
#     4   9  18  34  53  83 110 147 187 234 277 331
#     4  11  23  37  56  87 122 149 185 240 295 335
#     4   9  18  32  56  83 108 144 194 234 270 331
#
# _framework density 22.799890000000001
#
# number of rings (size 3 to 8) (size 9 to 14) (size 15 to 20)
#    0.000    1.714    2.857    1.714    4.000    3.143 
#    0.000    6.429    0.000    2.143    0.000    5.000 
#    0.000    0.000    0.000    0.000    0.000    0.000 
#
# Total GULP energy -156429.730847 kJ/mol
# GULP energy per Si atom -5586.776102 kJ/mol
# Density = 2.274800 g / cm^3
# Si number density = 22.799890 Si / 1000 Ang^3
#
#
#
# Elastic Constant Matrix: (Units=GPa)
#
#
# Indices 1 2 3 4 5 6 
#
# 1 46.9282 9.6423 8.4259 0.0000 -1.8111 0.0000
# 2 9.6423 135.9518 14.5552 0.0000 -3.7284 0.0000
# 3 8.4259 14.5552 85.9081 0.0000 -6.9298 0.0000
# 4 0.0000 0.0000 0.0000 29.4892 0.0000 1.1679
# 5 -1.8111 -3.7284 -6.9298 0.0000 30.9138 0.0000
# 6 0.0000 0.0000 0.0000 1.1679 0.0000 10.6080
#
#
#
# Elastic Compliance Matrix: (Units=1/GPa)
#
#
# Indices 1 2 3 4 5 6 
#
# 1 0.021947 -0.001337 -0.001869 0.000000 0.000706 0.000000
# 2 -0.001337 0.007585 -0.001106 0.000000 0.000588 0.000000
# 3 -0.001869 -0.001106 0.012212 0.000000 0.002495 0.000000
# 4 0.000000 0.000000 0.000000 0.034059 0.000000 -0.003750
# 5 0.000706 0.000588 0.002495 0.000000 0.033020 0.000000
# 6 0.000000 0.000000 0.000000 -0.003750 0.000000 0.094682
#
#
# Mechanical properties :
#
#
# Convention : Reuss Voigt Hill
#
# Bulk Modulus (GPa) = 30.19442 37.11496 33.65469
# Shear Modulus (GPa) = 22.40452 29.94651 26.17551
#
# Velocity S-wave (km/s) = 3.13814 3.62809 3.39197
# Velocity P-wave (km/s) = 5.13834 5.81933 5.48941
#
# Compressibility (1/GPa) = 0.03311870
#
# Stress axis : x y z
#
# Youngs Moduli (GPa) = 45.56493 131.83947 81.88418
#
# Poissons Ratio (x) = 0.17628 0.15305
# Poissons Ratio (y) = 0.06092 0.09060
# Poissons Ratio (z) = 0.08516 0.14588
#
# Static dielectric constant tensor:
#      x y z
#    x 1.870390 0.000000 -0.024700 
#    y 0.000000 1.781590 0.000000 
#    z -0.024700 0.000000 2.145300 
# 
# From -- ./inp_files/257206.got.cif
#   From: 2010.05.17/outbox.cif.g08.bks.cpg/sg12_129_cif.got.tgz:257206.got - 2010.06.03 13:09:07.
