data_PCOD9213293
_publ_section_title
;
Structure prediction by ZEFSAII (Michael W. Deem and Ramdas Pophale) SiO2 
 PCOD9213293
Probable space group: C 2/M
;
_chemical_formula_sum "Si O2"
_cell_formula_units_Z 40
_cell_length_a 21.957716
_cell_length_b 9.523366
_cell_length_c 25.741547
_cell_angle_alpha 90.000000
_cell_angle_beta 20.090891
_cell_angle_gamma 90.000000
_cell_volume 1849.064928
_symmetry_space_group_name_H-M "C 2/M"
_symmetry_group_IT_number 12
_symmetry_cell_setting 'monoclinic'
loop_
_space_group_symop_operation_xyz
x,y,z
-x,y,-z
-x,-y,-z
x,-y,z
1/2+x,1/2+y,z
1/2-x,1/2+y,-z
1/2-x,1/2-y,-z
1/2+x,1/2-y,z
loop_
_atom_site_type_symbol
_atom_site_label
_atom_site_fract_x
_atom_site_fract_y
_atom_site_fract_z
Si Si1 0.226271 0.332068 0.964342
Si Si2 0.305763 0.759502 0.542788
Si Si3 0.108781 0.838512 0.805003
Si Si4 0.528665 0.147716 0.691810
Si Si5 0.372577 0.654741 0.652578
O O1 0.215355 0.500000 0.978714
O O2 0.401387 0.281533 0.793807
O O3 0.250000 0.250000 0.000000
O O4 0.056265 0.264283 0.072739
O O5 0.224131 0.832565 0.659053
O O6 0.352956 0.850583 0.454657
O O7 0.154840 0.657897 0.640960
O O8 0.489489 0.689319 0.412770
O O9 0.228942 0.773088 0.754543
O O10 0.059232 0.000000 0.854361
O O11 0.426687 0.000000 0.775617
O O12 0.500000 0.649131 0.500000
O O13 0.291597 0.500000 0.724227
#
# Coordination Sequence:
#
# PCOD9213293 Si02
#       5
#     8   8   8   8   8
#     4  12  25  41  62  88 121 161 204 251 303 365
#     4  10  22  37  63  93 127 159 203 246 304 360
#     4  11  22  39  64  92 122 159 204 253 301 359
#     4  11  23  39  62  92 127 163 201 250 304 362
#     4   9  19  36  59  88 122 162 203 246 298 358
#
# _framework density 21.632556000000001
#
# number of rings (size 3 to 8) (size 9 to 14) (size 15 to 20)
#    0.000    1.400    2.000    3.600    0.000   10.000 
#    0.000    1.000    0.000    4.800    0.000    0.000 
#    0.000    0.000    0.000    0.000    0.000    0.000 
#
# Total GULP energy -111637.579065 kJ/mol
# GULP energy per Si atom -5581.878953 kJ/mol
# Density = 2.158332 g / cm^3
# Si number density = 21.632556 Si / 1000 Ang^3
#
#
#
# Elastic Constant Matrix: (Units=GPa)
#
#
# Indices 1 2 3 4 5 6 
#
# 1 76.8529 30.2066 26.7209 -0.0031 -23.8113 -0.0001
# 2 30.2066 203.4019 48.6591 -0.0024 -26.1586 -0.0013
# 3 26.7209 48.6591 76.8549 -0.0064 -25.6216 -0.0024
# 4 -0.0031 -0.0024 -0.0064 21.9283 -0.0001 -9.5200
# 5 -23.8113 -26.1586 -25.6216 -0.0001 32.5540 -0.0003
# 6 -0.0001 -0.0013 -0.0024 -9.5200 -0.0003 -1.9335
#
#
#
# Elastic Compliance Matrix: (Units=1/GPa)
#
#
# Indices 1 2 3 4 5 6 
#
# 1 0.017238 -0.000729 -0.002066 0.000001 0.010397 -0.000003
# 2 -0.000729 0.005966 -0.002852 0.000000 0.002017 0.000000
# 3 -0.002066 -0.002852 0.019343 -0.000002 0.011421 -0.000015
# 4 0.000001 0.000000 -0.000002 0.014534 -0.000002 -0.071564
# 5 0.010397 0.002017 0.011421 -0.000002 0.048933 -0.000016
# 6 -0.000003 0.000000 -0.000015 -0.071564 -0.000016 -0.164840
#
#
# Mechanical properties :
#
#
# Convention : Reuss Voigt Hill
#
# Bulk Modulus (GPa) = 31.99529 63.14255 47.56892
# Shear Modulus (GPa) = -134.71395 27.27797 -53.71799
#
# Velocity S-wave (km/s) = -7.89993 3.55486 -4.98858
# Velocity P-wave (km/s) = 8.26979 6.78980 3.33826
#
# Compressibility (1/GPa) = 0.03125460
#
# Stress axis : x y z
#
# Youngs Moduli (GPa) = 58.01195 167.61258 51.69870
#
# Poissons Ratio (x) = 0.12213 0.10680
# Poissons Ratio (y) = 0.04227 0.14743
# Poissons Ratio (z) = 0.11984 0.47798
#
# Static dielectric constant tensor:
#      x y z
#    x 1.794870 0.000000 0.021910 
#    y 0.000000 1.814810 0.000010 
#    z 0.021910 0.000010 1.808230 
# 
# From -- ./inp_files/381968.got.cif
#   From: 2010.05.17/outbox.cif.g08.bks.cpg/sg12_191_cif.got.tgz:381968.got - 2010.06.03 13:09:07.
