data_PCOD9213655
_publ_section_title
;
Structure prediction by ZEFSAII (Michael W. Deem and Ramdas Pophale) SiO2 
 PCOD9213655
Probable space group: C 2/M
;
_chemical_formula_sum "Si O2"
_cell_formula_units_Z 60
_cell_length_a 8.550677
_cell_length_b 24.109688
_cell_length_c 26.024206
_cell_angle_alpha 90.000000
_cell_angle_beta 149.060270
_cell_angle_gamma 90.000000
_cell_volume 2758.339392
_symmetry_space_group_name_H-M "C 2/M"
_symmetry_group_IT_number 12
_symmetry_cell_setting 'monoclinic'
loop_
_space_group_symop_operation_xyz
x,y,z
-x,y,-z
-x,-y,-z
x,-y,z
1/2+x,1/2+y,z
1/2-x,1/2+y,-z
1/2-x,1/2-y,-z
1/2+x,1/2-y,z
loop_
_atom_site_type_symbol
_atom_site_label
_atom_site_fract_x
_atom_site_fract_y
_atom_site_fract_z
Si Si1 0.730943 0.583273 0.105805
Si Si2 0.337711 0.821691 0.617070
Si Si3 0.202632 0.903269 0.386940
Si Si4 0.152746 0.934254 0.909475
Si Si5 0.829267 0.326048 0.800688
Si Si6 0.633529 0.936806 0.682443
Si Si7 0.106914 0.241962 0.268255
Si Si8 0.230270 0.000000 0.707357
O O1 0.530169 0.598850 0.098727
O O2 0.898958 0.631105 0.121117
O O3 0.004888 0.546883 0.205426
O O4 0.500000 0.557103 0.000000
O O5 0.424210 0.887100 0.644736
O O6 0.585878 0.794224 0.648930
O O7 0.370100 0.786238 0.678631
O O8 0.000000 0.816556 0.500000
O O9 0.500000 0.882977 0.500000
O O10 0.304048 0.928335 0.360263
O O11 0.959860 0.855264 0.308285
O O12 0.030863 0.951281 0.369677
O O13 0.957676 0.931778 0.802465
O O14 0.153378 0.000000 0.925448
O O15 0.500000 0.917422 0.000000
O O16 0.930102 0.276181 0.793487
O O17 0.676244 0.299585 0.806956
O O18 0.518834 0.000000 0.660991
#
# Coordination Sequence:
#
# PCOD9213655 Si02
#       8
#     8   8   8   8   8   8   8   4
#     4  11  23  40  68 102 129 171 225 275 333 400
#     4  11  23  39  63  93 126 172 222 277 332 395
#     4  11  23  39  63  95 131 180 225 272 333 400
#     4  10  23  39  63  93 132 174 219 271 330 389
#     4  10  23  41  66  94 130 165 222 281 341 400
#     4  11  24  42  62  93 140 176 221 266 345 409
#     4  10  22  42  65  90 126 173 224 282 340 390
#     4  10  22  38  63  90 139 168 222 267 319 394
#
# _framework density 21.752217000000002
#
# number of rings (size 3 to 8) (size 9 to 14) (size 15 to 20)
#    0.000    1.467    2.667    1.600    5.600    2.400 
#    0.000    0.667    0.000    3.200    0.000    0.000 
#    0.000    0.000    0.000    0.000    0.000    0.000 
#
# Total GULP energy -167061.562891 kJ/mol
# GULP energy per Si atom -5568.718763 kJ/mol
# Density = 2.170271 g / cm^3
# Si number density = 21.752217 Si / 1000 Ang^3
#
#
#
# Elastic Constant Matrix: (Units=GPa)
#
#
# Indices 1 2 3 4 5 6 
#
# 1 67.7278 26.2212 20.7639 0.0061 17.3266 0.0044
# 2 26.2212 99.4085 0.8471 0.0014 20.0024 -0.0025
# 3 20.7639 0.8471 64.0769 0.0067 7.1044 -0.0004
# 4 0.0061 0.0014 0.0067 -11.1617 0.0065 6.1320
# 5 17.3266 20.0024 7.1044 0.0065 27.6488 0.0019
# 6 0.0044 -0.0025 -0.0004 6.1320 0.0019 13.3116
#
#
#
# Elastic Compliance Matrix: (Units=1/GPa)
#
#
# Indices 1 2 3 4 5 6 
#
# 1 0.019998 -0.003499 -0.005482 -0.000001 -0.008592 -0.000006
# 2 -0.003499 0.012427 0.001774 -0.000001 -0.007253 0.000005
# 3 -0.005482 0.001774 0.017623 0.000006 -0.002376 0.000000
# 4 -0.000001 -0.000001 0.000006 -0.071498 0.000014 0.032936
# 5 -0.008592 -0.007253 -0.002376 0.000014 0.047410 -0.000012
# 6 -0.000006 0.000005 0.000000 0.032936 -0.000012 0.059950
#
#
# Mechanical properties :
#
#
# Convention : Reuss Voigt Hill
#
# Bulk Modulus (GPa) = 28.06341 36.31972 32.19156
# Shear Modulus (GPa) = 44.56231 18.18516 31.37373
#
# Velocity S-wave (km/s) = 4.53109 2.89453 3.80191
# Velocity P-wave (km/s) = 6.34853 5.28245 5.83987
#
# Compressibility (1/GPa) = 0.03563359
#
# Stress axis : x y z
#
# Youngs Moduli (GPa) = 50.00384 80.47109 56.74551
#
# Poissons Ratio (x) = 0.28160 0.31105
# Poissons Ratio (y) = 0.17499 -0.10066
# Poissons Ratio (z) = 0.27410 -0.14274
#
# Static dielectric constant tensor:
#      x y z
#    x 1.850030 0.000000 -0.009450 
#    y 0.000000 1.828250 0.000000 
#    z -0.009450 0.000000 1.743500 
# 
# From -- ./inp_files/357085.got.cif
#   From: 2010.05.17/outbox.cif.g08.bks.cpg/sg12_179_cif.got.tgz:357085.got - 2010.06.03 13:09:07.
