data_PCOD9213363
_publ_section_title
;
Structure prediction by ZEFSAII (Michael W. Deem and Ramdas Pophale) SiO2 
 PCOD9213363
Probable space group: C 2/M
;
_chemical_formula_sum "Si O2"
_cell_formula_units_Z 48
_cell_length_a 25.555620
_cell_length_b 7.475872
_cell_length_c 11.524003
_cell_angle_alpha 90.000000
_cell_angle_beta 103.207456
_cell_angle_gamma 90.000000
_cell_volume 2143.431141
_symmetry_space_group_name_H-M "C 2/M"
_symmetry_group_IT_number 12
_symmetry_cell_setting 'monoclinic'
loop_
_space_group_symop_operation_xyz
x,y,z
-x,y,-z
-x,-y,-z
x,-y,z
1/2+x,1/2+y,z
1/2-x,1/2+y,-z
1/2-x,1/2-y,-z
1/2+x,1/2-y,z
loop_
_atom_site_type_symbol
_atom_site_label
_atom_site_fract_x
_atom_site_fract_y
_atom_site_fract_z
Si Si1 0.186422 0.787193 0.459604
Si Si2 0.018925 0.218408 0.640001
Si Si3 0.858863 0.217753 0.316815
Si Si4 0.855274 0.702162 0.806523
Si Si5 0.976077 0.795657 0.868042
Si Si6 0.747374 0.286451 0.864259
O O1 0.250000 0.750000 0.500000
O O2 0.156500 0.730033 0.560725
O O3 0.160090 0.698014 0.335880
O O4 0.179498 0.000000 0.443859
O O5 0.081267 0.272498 0.685086
O O6 0.000000 0.275845 0.500000
O O7 0.989340 0.277845 0.744777
O O8 0.014531 0.000000 0.634912
O O9 0.808947 0.281502 0.214427
O O10 0.859300 0.000000 0.312727
O O11 0.862133 0.500000 0.855061
O O12 0.911970 0.795686 0.850042
O O13 0.802232 0.786095 0.836906
O O14 0.997009 0.000000 0.875197
O O15 0.000000 0.714691 0.000000
O O16 0.747944 0.500000 0.840202
O O17 0.750000 0.250000 0.000000
#
# Coordination Sequence:
#
# PCOD9213363 Si02
#       6
#     8   8   8   8   8   8
#     4  11  20  35  59  88 120 152 192 238 292 351
#     4   9  17  32  56  84 113 147 189 239 295 348
#     4   9  18  34  57  83 115 149 185 238 293 344
#     4  11  23  40  59  84 120 157 194 238 295 357
#     4  10  22  38  60  90 114 146 202 252 292 351
#     4  10  22  38  56  82 114 152 196 237 288 348
#
# _framework density 22.394000999999999
#
# number of rings (size 3 to 8) (size 9 to 14) (size 15 to 20)
#    0.000    2.000    1.667    2.000    2.333    4.333 
#    0.000    0.000    0.000    5.500    0.000    0.000 
#    0.000    0.000    0.000    0.000    0.000    0.000 
#
# Total GULP energy -133988.520755 kJ/mol
# GULP energy per Si atom -5582.855031 kJ/mol
# Density = 2.234303 g / cm^3
# Si number density = 22.394001 Si / 1000 Ang^3
#
#
#
# Elastic Constant Matrix: (Units=GPa)
#
#
# Indices 1 2 3 4 5 6 
#
# 1 162.2328 2.2863 89.1268 0.0000 16.9980 0.0000
# 2 2.2863 65.5875 -2.2305 0.0000 -2.9446 0.0000
# 3 89.1268 -2.2305 179.8506 0.0000 1.5095 0.0000
# 4 0.0000 0.0000 0.0000 10.2562 0.0000 2.3672
# 5 16.9980 -2.9446 1.5095 0.0000 26.9766 0.0000
# 6 0.0000 0.0000 0.0000 2.3672 0.0000 10.5071
#
#
#
# Elastic Compliance Matrix: (Units=1/GPa)
#
#
# Indices 1 2 3 4 5 6 
#
# 1 0.009271 -0.000733 -0.004556 0.000000 -0.005667 0.000000
# 2 -0.000733 0.015385 0.000536 0.000000 0.002111 0.000000
# 3 -0.004556 0.000536 0.007804 0.000000 0.002492 0.000000
# 4 0.000000 0.000000 0.000000 0.102850 0.000000 -0.023172
# 5 -0.005667 0.002111 0.002492 0.000000 0.040731 0.000000
# 6 0.000000 0.000000 0.000000 -0.023172 0.000000 0.100394
#
#
# Mechanical properties :
#
#
# Convention : Reuss Voigt Hill
#
# Bulk Modulus (GPa) = 43.56281 65.11513 54.33897
# Shear Modulus (GPa) = 17.03048 30.78054 23.90551
#
# Velocity S-wave (km/s) = 2.76070 3.71145 3.27080
# Velocity P-wave (km/s) = 5.44583 6.89250 6.21143
#
# Compressibility (1/GPa) = 0.02295536
#
# Stress axis : x y z
#
# Youngs Moduli (GPa) = 107.86472 64.99687 128.14650
#
# Poissons Ratio (x) = 0.04761 0.58381
# Poissons Ratio (y) = 0.07901 -0.06870
# Poissons Ratio (z) = 0.49141 -0.03484
#
# Static dielectric constant tensor:
#      x y z
#    x 1.815670 0.000000 -0.003350 
#    y 0.000000 1.866640 0.000000 
#    z -0.003350 0.000000 1.779970 
# 
# From -- ./inp_files/172087.got.cif
#   From: 2010.05.17/outbox.cif.g08.bks.cpg/sg12_87_cif.got.tgz:172087.got - 2010.06.03 13:09:07.
