data_PCOD9213809
_publ_section_title
;
Structure prediction by ZEFSAII (Michael W. Deem and Ramdas Pophale) SiO2 
 PCOD9213809
Probable space group: C 2/M
;
_chemical_formula_sum "Si O2"
_cell_formula_units_Z 42
_cell_length_a 8.051829
_cell_length_b 18.935666
_cell_length_c 11.596417
_cell_angle_alpha 90.000000
_cell_angle_beta 81.648783
_cell_angle_gamma 90.000000
_cell_volume 1749.319981
_symmetry_space_group_name_H-M "C 2/M"
_symmetry_group_IT_number 12
_symmetry_cell_setting 'monoclinic'
loop_
_space_group_symop_operation_xyz
x,y,z
-x,y,-z
-x,-y,-z
x,-y,z
1/2+x,1/2+y,z
1/2-x,1/2+y,-z
1/2-x,1/2-y,-z
1/2+x,1/2-y,z
loop_
_atom_site_type_symbol
_atom_site_label
_atom_site_fract_x
_atom_site_fract_y
_atom_site_fract_z
Si Si1 0.974177 0.810651 0.307472
Si Si2 0.022294 0.649932 0.733315
Si Si3 0.813904 0.420200 0.076220
Si Si4 0.000000 0.000000 0.500000
Si Si5 0.324824 0.416177 0.151694
Si Si6 0.273946 0.638149 0.521413
O O1 0.002722 0.733648 0.253674
O O2 0.954770 0.869807 0.211162
O O3 0.804214 0.816243 0.403300
O O4 0.113939 0.827831 0.387679
O O5 0.159225 0.627570 0.815832
O O6 0.094618 0.634064 0.599847
O O7 0.856712 0.605184 0.777878
O O8 0.769972 0.500000 0.117565
O O9 0.693349 0.399677 0.982740
O O10 0.000000 0.422846 0.000000
O O11 0.142142 0.062189 0.508866
O O12 0.353152 0.500000 0.160641
#
# Coordination Sequence:
#
# PCOD9213809 Si02
#       6
#     8   8   8   2   8   8
#     4  10  22  39  57  84 123 157 185 244 300 345
#     4  11  20  36  63  87 110 155 205 234 284 361
#     4   8  17  35  56  85 121 150 183 245 304 334
#     4   8  20  36  52  74 108 152 184 222 282 340
#     4  10  22  39  61  89 120 151 196 253 291 334
#     4  10  23  38  59  79 120 158 188 234 302 349
#
# _framework density 24.009331
#
# number of rings (size 3 to 8) (size 9 to 14) (size 15 to 20)
#    0.000    2.476    0.000    3.429    8.000    3.048 
#    0.000    3.810    0.000    2.286    0.000    0.000 
#    0.000    0.000    0.000    0.000    0.000    0.000 
#
# Total GULP energy -117225.826860 kJ/mol
# GULP energy per Si atom -5582.182231 kJ/mol
# Density = 2.395468 g / cm^3
# Si number density = 24.009331 Si / 1000 Ang^3
#
#
#
# Elastic Constant Matrix: (Units=GPa)
#
#
# Indices 1 2 3 4 5 6 
#
# 1 74.7056 20.2988 27.3009 0.0000 9.4163 0.0000
# 2 20.2988 131.7088 54.6510 0.0000 24.2228 0.0000
# 3 27.3009 54.6510 133.5654 0.0000 27.8483 0.0000
# 4 0.0000 0.0000 0.0000 12.2585 0.0000 -0.1200
# 5 9.4163 24.2228 27.8483 0.0000 55.8246 0.0000
# 6 0.0000 0.0000 0.0000 -0.1200 0.0000 21.3335
#
#
#
# Elastic Compliance Matrix: (Units=1/GPa)
#
#
# Indices 1 2 3 4 5 6 
#
# 1 0.014659 -0.001130 -0.002367 0.000000 -0.000802 0.000000
# 2 -0.001130 0.009516 -0.003171 0.000000 -0.002356 0.000000
# 3 -0.002367 -0.003171 0.009931 0.000000 -0.003179 0.000000
# 4 0.000000 0.000000 0.000000 0.081580 0.000000 0.000459
# 5 -0.000802 -0.002356 -0.003179 0.000000 0.020657 0.000000
# 6 0.000000 0.000000 0.000000 0.000459 0.000000 0.046877
#
#
# Mechanical properties :
#
#
# Convention : Reuss Voigt Hill
#
# Bulk Modulus (GPa) = 48.14631 60.49792 54.32211
# Shear Modulus (GPa) = 24.57247 33.73192 29.15220
#
# Velocity S-wave (km/s) = 3.20262 3.75233 3.48832
# Velocity P-wave (km/s) = 5.81140 6.63519 6.23691
#
# Compressibility (1/GPa) = 0.02077002
#
# Stress axis : x y z
#
# Youngs Moduli (GPa) = 68.21816 105.08700 100.69259
#
# Poissons Ratio (x) = 0.11871 0.23833
# Poissons Ratio (y) = 0.07706 0.31934
# Poissons Ratio (z) = 0.16147 0.33328
#
# Static dielectric constant tensor:
#      x y z
#    x 2.074020 0.000000 -0.039410 
#    y 0.000000 1.823410 0.000000 
#    z -0.039410 0.000000 1.928240 
# 
# From -- ./inp_files/130458.got.cif
#   From: 2010.05.17/outbox.cif.g08.bks.cpg/sg12_66_cif.got.tgz:130458.got - 2010.06.03 13:09:07.
