data_PCOD9213120
_publ_section_title
;
Structure prediction by ZEFSAII (Michael W. Deem and Ramdas Pophale) SiO2 
 PCOD9213120
Probable space group: C 2/M
;
_chemical_formula_sum "Si O2"
_cell_formula_units_Z 48
_cell_length_a 12.322933
_cell_length_b 13.532421
_cell_length_c 14.918113
_cell_angle_alpha 90.000000
_cell_angle_beta 124.920770
_cell_angle_gamma 90.000000
_cell_volume 2039.801435
_symmetry_space_group_name_H-M "C 2/M"
_symmetry_group_IT_number 12
_symmetry_cell_setting 'monoclinic'
loop_
_space_group_symop_operation_xyz
x,y,z
-x,y,-z
-x,-y,-z
x,-y,z
1/2+x,1/2+y,z
1/2-x,1/2+y,-z
1/2-x,1/2-y,-z
1/2+x,1/2-y,z
loop_
_atom_site_type_symbol
_atom_site_label
_atom_site_fract_x
_atom_site_fract_y
_atom_site_fract_z
Si Si1 0.695647 0.880565 0.030163
Si Si2 0.857326 0.391354 0.477610
Si Si3 0.466212 0.778376 0.686804
Si Si4 0.239543 0.615745 0.764609
Si Si5 0.404333 0.118226 0.828650
Si Si6 0.016828 0.881138 0.848103
O O1 0.688042 0.854307 0.131747
O O2 0.834428 0.851576 0.051789
O O3 0.692393 0.000000 0.025047
O O4 0.555615 0.851132 0.922684
O O5 0.824916 0.500000 0.503979
O O6 0.768819 0.376173 0.348050
O O7 0.000000 0.402482 0.500000
O O8 0.883163 0.302119 0.558265
O O9 0.611086 0.829643 0.742534
O O10 0.380482 0.832665 0.722950
O O11 0.496495 0.671353 0.742027
O O12 0.224425 0.500000 0.782366
O O13 0.392623 0.645036 0.853377
O O14 0.400670 0.000000 0.819247
O O15 0.013656 0.000000 0.838004
#
# Coordination Sequence:
#
# PCOD9213120 Si02
#       6
#     8   8   8   8   8   8
#     4   8  17  35  54  74 111 149 171 210 278 324
#     4   8  15  31  54  81 109 136 170 221 274 313
#     4  11  20  30  59  84 103 135 189 228 252 310
#     4   9  19  37  57  80 111 141 171 219 279 321
#     4   9  17  32  57  85 106 134 181 230 262 308
#     4  10  22  37  53  74 113 153 173 209 276 330
#
# _framework density 23.531704000000001
#
# number of rings (size 3 to 8) (size 9 to 14) (size 15 to 20)
#    0.000    2.833    0.000    3.500    2.333    1.333 
#    0.000    0.833    0.000    8.500    0.000    0.000 
#    0.000    0.000    0.000    0.000    0.000    0.000 
#
# Total GULP energy -133874.374580 kJ/mol
# GULP energy per Si atom -5578.098941 kJ/mol
# Density = 2.347814 g / cm^3
# Si number density = 23.531704 Si / 1000 Ang^3
#
#
#
# Elastic Constant Matrix: (Units=GPa)
#
#
# Indices 1 2 3 4 5 6 
#
# 1 116.8344 25.5828 19.4674 0.0000 26.5916 0.0000
# 2 25.5828 80.1369 -9.3174 0.0000 6.9058 0.0000
# 3 19.4674 -9.3174 18.9970 0.0000 -6.4650 0.0000
# 4 0.0000 0.0000 0.0000 9.2539 0.0000 17.2870
# 5 26.5916 6.9058 -6.4650 0.0000 39.0491 0.0000
# 6 0.0000 0.0000 0.0000 17.2870 0.0000 3.1080
#
#
#
# Elastic Compliance Matrix: (Units=1/GPa)
#
#
# Indices 1 2 3 4 5 6 
#
# 1 0.018683 -0.007893 -0.028477 0.000000 -0.016042 0.000000
# 2 -0.007893 0.016634 0.018095 0.000000 0.005429 0.000000
# 3 -0.028477 0.018095 0.101951 0.000000 0.033071 0.000000
# 4 0.000000 0.000000 0.000000 -0.011508 0.000000 0.064007
# 5 -0.016042 0.005429 0.033071 0.000000 0.041048 0.000000
# 6 0.000000 0.000000 0.000000 0.064007 0.000000 -0.034264
#
#
# Mechanical properties :
#
#
# Convention : Reuss Voigt Hill
#
# Bulk Modulus (GPa) = 9.92860 31.93710 20.93285
# Shear Modulus (GPa) = 24.67078 22.29789 23.48434
#
# Velocity S-wave (km/s) = 3.24142 3.08160 3.16252
# Velocity P-wave (km/s) = 4.27054 5.12475 4.71702
#
# Compressibility (1/GPa) = 0.10071912
#
# Stress axis : x y z
#
# Youngs Moduli (GPa) = 53.52335 60.11635 9.80861
#
# Poissons Ratio (x) = 0.47450 0.27932
# Poissons Ratio (y) = 0.42246 -0.17748
# Poissons Ratio (z) = 1.52417 -1.08779
#
# Static dielectric constant tensor:
#      x y z
#    x 1.894440 0.000000 0.056190 
#    y 0.000000 1.953480 0.000000 
#    z 0.056190 0.000000 1.962910 
# 
# From -- ./inp_files/205121.got.cif
#   From: 2010.05.17/outbox.cif.g08.bks.cpg/sg12_103_cif.got.tgz:205121.got - 2010.06.03 13:09:07.
