data_PCOD9213992
_publ_section_title
;
Structure prediction by ZEFSAII (Michael W. Deem and Ramdas Pophale) SiO2 
 PCOD9213992
Probable space group: C 2/M
;
_chemical_formula_sum "Si O2"
_cell_formula_units_Z 64
_cell_length_a 12.075389
_cell_length_b 14.220538
_cell_length_c 28.332266
_cell_angle_alpha 90.000000
_cell_angle_beta 140.625636
_cell_angle_gamma 90.000000
_cell_volume 3086.392610
_symmetry_space_group_name_H-M "C 2/M"
_symmetry_group_IT_number 12
_symmetry_cell_setting 'monoclinic'
loop_
_space_group_symop_operation_xyz
x,y,z
-x,y,-z
-x,-y,-z
x,-y,z
1/2+x,1/2+y,z
1/2-x,1/2+y,-z
1/2-x,1/2-y,-z
1/2+x,1/2-y,z
loop_
_atom_site_type_symbol
_atom_site_label
_atom_site_fract_x
_atom_site_fract_y
_atom_site_fract_z
Si Si1 0.338116 0.391331 0.231925
Si Si2 0.880531 0.269615 0.676316
Si Si3 0.751067 0.613522 0.542819
Si Si4 0.676982 0.892995 0.077933
Si Si5 0.133911 0.900445 0.087063
Si Si6 0.098538 0.802290 0.920021
Si Si7 0.997841 0.715023 0.445132
Si Si8 0.015667 0.349388 0.190956
O O1 0.404665 0.500000 0.250192
O O2 0.482745 0.312590 0.292668
O O3 0.262455 0.361231 0.155358
O O4 0.180467 0.392742 0.217971
O O5 0.825654 0.339066 0.615532
O O6 0.702032 0.221632 0.635418
O O7 0.948090 0.328785 0.742667
O O8 0.722814 0.500000 0.536410
O O9 0.891154 0.643805 0.549528
O O10 0.583761 0.679361 0.473999
O O11 0.807122 0.886758 0.076598
O O12 0.629917 0.000000 0.074153
O O13 0.500000 0.844692 0.000000
O O14 0.326298 0.896918 0.129316
O O15 0.064281 0.825395 0.100780
O O16 0.114506 0.000000 0.105912
O O17 0.000000 0.896425 0.000000
O O18 0.025127 0.742274 0.852906
O O19 0.250000 0.750000 0.000000
O O20 0.000000 0.683403 0.500000
#
# Coordination Sequence:
#
# PCOD9213992 Si02
#       8
#     8   8   8   8   8   8   8   8
#     4  11  24  43  64  91 129 177 225 281 346 402
#     4  11  23  43  64  96 139 174 222 274 329 403
#     4  10  22  43  72 104 140 182 223 267 327 396
#     4  10  22  39  61  88 119 163 224 283 341 410
#     4  11  25  42  58  84 120 161 211 276 344 408
#     4  12  23  37  63  87 119 161 219 274 347 405
#     4   9  21  42  69 104 139 175 220 274 322 388
#     4  12  24  41  64  91 127 168 222 281 336 406
#
# _framework density 20.736183
#
# number of rings (size 3 to 8) (size 9 to 14) (size 15 to 20)
#    0.000    1.250    2.500    3.000    1.750    4.000 
#    0.000    8.750    0.000    0.000    0.000    0.000 
#    0.000    0.000    0.000    0.000    0.000    0.000 
#
# Total GULP energy -178432.430146 kJ/mol
# GULP energy per Si atom -5576.013442 kJ/mol
# Density = 2.068899 g / cm^3
# Si number density = 20.736183 Si / 1000 Ang^3
#
#
#
# Elastic Constant Matrix: (Units=GPa)
#
#
# Indices 1 2 3 4 5 6 
#
# 1 122.1635 36.6921 20.6777 0.0000 14.8177 0.0000
# 2 36.6921 97.0591 26.9428 0.0000 4.0990 0.0000
# 3 20.6777 26.9428 68.6816 0.0000 20.6540 0.0000
# 4 0.0000 0.0000 0.0000 13.8138 0.0000 -3.9156
# 5 14.8177 4.0990 20.6540 0.0000 33.3157 0.0000
# 6 0.0000 0.0000 0.0000 -3.9156 0.0000 28.9099
#
#
#
# Elastic Compliance Matrix: (Units=1/GPa)
#
#
# Indices 1 2 3 4 5 6 
#
# 1 0.009724 -0.003379 -0.000524 0.000000 -0.003584 0.000000
# 2 -0.003379 0.012816 -0.004902 0.000000 0.002965 0.000000
# 3 -0.000524 -0.004902 0.020145 0.000000 -0.011653 0.000000
# 4 0.000000 0.000000 0.000000 0.075281 0.000000 0.010196
# 5 -0.003584 0.002965 -0.011653 0.000000 0.038469 0.000000
# 6 0.000000 0.000000 0.000000 0.010196 0.000000 0.035971
#
#
# Mechanical properties :
#
#
# Convention : Reuss Voigt Hill
#
# Bulk Modulus (GPa) = 39.88091 50.72548 45.30319
# Shear Modulus (GPa) = 22.89636 28.78066 25.83851
#
# Velocity S-wave (km/s) = 3.32652 3.72955 3.53379
# Velocity P-wave (km/s) = 5.83340 6.56213 6.20846
#
# Compressibility (1/GPa) = 0.02507466
#
# Stress axis : x y z
#
# Youngs Moduli (GPa) = 102.83636 78.02767 49.64059
#
# Poissons Ratio (x) = 0.26368 0.02602
# Poissons Ratio (y) = 0.34751 0.24333
# Poissons Ratio (z) = 0.05390 0.38247
#
# Static dielectric constant tensor:
#      x y z
#    x 1.766960 0.000000 0.019160 
#    y 0.000000 1.790550 0.000000 
#    z 0.019160 0.000000 1.743520 
# 
# From -- ./inp_files/358458.got.cif
#   From: 2010.05.17/outbox.cif.g08.bks.cpg/sg12_180_cif.got.tgz:358458.got - 2010.06.03 13:09:07.
