data_PCOD9213993
_publ_section_title
;
Structure prediction by ZEFSAII (Michael W. Deem and Ramdas Pophale) SiO2 
 PCOD9213993
Probable space group: C 2/M
;
_chemical_formula_sum "Si O2"
_cell_formula_units_Z 48
_cell_length_a 10.416960
_cell_length_b 13.609065
_cell_length_c 13.182992
_cell_angle_alpha 90.000000
_cell_angle_beta 83.758914
_cell_angle_gamma 90.000000
_cell_volume 1857.811585
_symmetry_space_group_name_H-M "C 2/M"
_symmetry_group_IT_number 12
_symmetry_cell_setting 'monoclinic'
loop_
_space_group_symop_operation_xyz
x,y,z
-x,y,-z
-x,-y,-z
x,-y,z
1/2+x,1/2+y,z
1/2-x,1/2+y,-z
1/2-x,1/2-y,-z
1/2+x,1/2-y,z
loop_
_atom_site_type_symbol
_atom_site_label
_atom_site_fract_x
_atom_site_fract_y
_atom_site_fract_z
Si Si1 0.584636 0.268520 0.628784
Si Si2 0.037383 0.389761 0.261697
Si Si3 0.801463 0.890081 0.562899
Si Si4 0.670800 0.820479 0.888964
Si Si5 0.934821 0.890120 0.768016
Si Si6 0.737338 0.607675 0.915825
O O1 0.461729 0.193982 0.651281
O O2 0.691244 0.184428 0.606563
O O3 0.621868 0.341928 0.536263
O O4 0.566908 0.331946 0.733163
O O5 0.011676 0.500000 0.301912
O O6 0.926967 0.362013 0.187273
O O7 0.170544 0.390241 0.189819
O O8 0.887262 0.898694 0.655804
O O9 0.757566 0.000000 0.538840
O O10 0.819292 0.835645 0.836398
O O11 0.652220 0.706467 0.921741
O O12 0.670208 0.880345 0.993670
O O13 0.949784 0.000000 0.807025
O O14 0.674903 0.500000 0.928165
#
# Coordination Sequence:
#
# PCOD9213993 Si02
#       6
#     8   8   8   8   8   8
#     4  11  21  35  59  89 115 145 192 246 290 334
#     4  11  21  38  62  87 116 154 198 238 283 344
#     4  10  22  40  61  82 114 154 195 240 288 348
#     4  11  21  37  64  88 118 153 198 236 284 343
#     4  11  21  37  61  87 115 153 198 240 286 344
#     4  10  22  39  61  88 120 154 193 240 288 338
#
# _framework density 25.836850999999999
#
# number of rings (size 3 to 8) (size 9 to 14) (size 15 to 20)
#    0.000    1.333    3.333    3.500    0.000    2.667 
#    0.000    1.667    0.000   23.000    0.000    0.000 
#    0.000    0.000    0.000    0.000    0.000    0.000 
#
# Total GULP energy -134104.830865 kJ/mol
# GULP energy per Si atom -5587.701286 kJ/mol
# Density = 2.577804 g / cm^3
# Si number density = 25.836851 Si / 1000 Ang^3
#
#
#
# Elastic Constant Matrix: (Units=GPa)
#
#
# Indices 1 2 3 4 5 6 
#
# 1 58.1040 29.3669 18.2444 0.0000 -10.1246 0.0000
# 2 29.3669 224.4085 19.1683 0.0000 -9.1518 0.0000
# 3 18.2444 19.1683 83.7430 0.0000 -25.0813 0.0000
# 4 0.0000 0.0000 0.0000 32.7201 0.0000 -2.6011
# 5 -10.1246 -9.1518 -25.0813 0.0000 38.0572 0.0000
# 6 0.0000 0.0000 0.0000 -2.6011 0.0000 17.0192
#
#
#
# Elastic Compliance Matrix: (Units=1/GPa)
#
#
# Indices 1 2 3 4 5 6 
#
# 1 0.019744 -0.002218 -0.002966 0.000000 0.002765 0.000000
# 2 -0.002218 0.004802 -0.000557 0.000000 0.000198 0.000000
# 3 -0.002966 -0.000557 0.015497 0.000000 0.009291 0.000000
# 4 0.000000 0.000000 0.000000 0.030938 0.000000 0.004728
# 5 0.002765 0.000198 0.009291 0.000000 0.033182 0.000000
# 6 0.000000 0.000000 0.000000 0.004728 0.000000 0.059480
#
#
# Mechanical properties :
#
#
# Convention : Reuss Voigt Hill
#
# Bulk Modulus (GPa) = 35.01013 55.53497 45.27255
# Shear Modulus (GPa) = 27.07886 37.52435 32.30161
#
# Velocity S-wave (km/s) = 3.24091 3.81512 3.53967
# Velocity P-wave (km/s) = 5.25209 6.39906 5.85374
#
# Compressibility (1/GPa) = 0.02856316
#
# Stress axis : x y z
#
# Youngs Moduli (GPa) = 50.64720 208.24641 64.52680
#
# Poissons Ratio (x) = 0.46183 0.19138
# Poissons Ratio (y) = 0.11232 0.03592
# Poissons Ratio (z) = 0.15021 0.11594
#
# Static dielectric constant tensor:
#      x y z
#    x 2.108280 0.000000 0.016230 
#    y 0.000000 2.152210 0.000000 
#    z 0.016230 0.000000 1.994330 
# 
# From -- ./inp_files/212520.got.cif
#   From: 2010.05.17/outbox.cif.g08.bks.cpg/sg12_107_cif.got.tgz:212520.got - 2010.06.03 13:09:07.
