data_PCOD9213905
_publ_section_title
;
Structure prediction by ZEFSAII (Michael W. Deem and Ramdas Pophale) SiO2 
 PCOD9213905
Probable space group: C 2/M
;
_chemical_formula_sum "Si O2"
_cell_formula_units_Z 48
_cell_length_a 19.384690
_cell_length_b 30.024908
_cell_length_c 9.075145
_cell_angle_alpha 90.000000
_cell_angle_beta 152.149507
_cell_angle_gamma 90.000000
_cell_volume 2467.546571
_symmetry_space_group_name_H-M "C 2/M"
_symmetry_group_IT_number 12
_symmetry_cell_setting 'monoclinic'
loop_
_space_group_symop_operation_xyz
x,y,z
-x,y,-z
-x,-y,-z
x,-y,z
1/2+x,1/2+y,z
1/2-x,1/2+y,-z
1/2-x,1/2-y,-z
1/2+x,1/2-y,z
loop_
_atom_site_type_symbol
_atom_site_label
_atom_site_fract_x
_atom_site_fract_y
_atom_site_fract_z
Si Si1 0.205738 0.791297 0.235527
Si Si2 0.059021 0.946978 0.770637
Si Si3 0.122636 0.111935 0.351373
Si Si4 0.125583 0.205493 0.432041
Si Si5 0.907330 0.551779 0.474926
Si Si6 0.389197 0.124189 0.666190
O O1 0.160125 0.787381 0.322538
O O2 0.289952 0.747236 0.340392
O O3 0.309602 0.835017 0.430846
O O4 0.047764 0.794428 0.859419
O O5 0.000000 0.932213 0.500000
O O6 0.959631 0.923902 0.706367
O O7 0.040065 0.000000 0.744704
O O8 0.233538 0.938119 0.118802
O O9 0.173100 0.154390 0.543615
O O10 0.261721 0.098184 0.516643
O O11 0.000000 0.127734 0.000000
O O12 0.919018 0.500000 0.546739
O O13 0.960677 0.588338 0.692765
O O14 0.000000 0.555436 0.500000
O O15 0.500000 0.142423 0.000000
#
# Coordination Sequence:
#
# PCOD9213905 Si02
#       6
#     8   8   8   8   8   8
#     4   9  17  28  46  75 109 140 175 215 266 320
#     4  10  22  39  60  81 105 144 184 219 270 334
#     4  11  19  36  55  82 112 139 180 232 271 308
#     4   9  16  28  47  74 109 142 171 217 269 316
#     4  10  22  41  58  77 111 147 178 219 274 330
#     4  11  23  34  54  85 112 142 182 228 271 314
#
# _framework density 19.452521000000001
#
# number of rings (size 3 to 8) (size 9 to 14) (size 15 to 20)
#    0.000    2.000    5.000    0.000    9.333    1.333 
#    0.000    0.000    0.000    1.000    0.000    4.667 
#    0.000    0.000    0.000    0.000    0.000    0.000 
#
# Total GULP energy -133698.643143 kJ/mol
# GULP energy per Si atom -5570.776798 kJ/mol
# Density = 1.940825 g / cm^3
# Si number density = 19.452521 Si / 1000 Ang^3
#
#
#
# Elastic Constant Matrix: (Units=GPa)
#
#
# Indices 1 2 3 4 5 6 
#
# 1 46.8662 28.4006 6.0959 0.0000 12.8930 0.0000
# 2 28.4006 63.4200 12.3068 0.0000 -1.1825 0.0000
# 3 6.0959 12.3068 28.4993 0.0000 5.6028 0.0000
# 4 0.0000 0.0000 0.0000 26.2150 0.0000 7.9140
# 5 12.8930 -1.1825 5.6028 0.0000 18.8789 0.0000
# 6 0.0000 0.0000 0.0000 7.9140 0.0000 -22.5286
#
#
#
# Elastic Compliance Matrix: (Units=1/GPa)
#
#
# Indices 1 2 3 4 5 6 
#
# 1 0.041545 -0.020374 0.006096 0.000000 -0.031458 0.000000
# 2 -0.020374 0.027421 -0.011210 0.000000 0.018958 0.000000
# 3 0.006096 -0.011210 0.042035 0.000000 -0.017340 0.000000
# 4 0.000000 0.000000 0.000000 0.034489 0.000000 0.012115
# 5 -0.031458 0.018958 -0.017340 0.000000 0.080786 0.000000
# 6 0.000000 0.000000 0.000000 0.012115 0.000000 -0.040132
#
#
# Mechanical properties :
#
#
# Convention : Reuss Voigt Hill
#
# Bulk Modulus (GPa) = 16.66005 25.82135 21.24070
# Shear Modulus (GPa) = 19.44568 10.64521 15.04545
#
# Velocity S-wave (km/s) = 3.16515 2.34186 2.78410
# Velocity P-wave (km/s) = 4.68408 4.54040 4.61280
#
# Compressibility (1/GPa) = 0.06002383
#
# Stress axis : x y z
#
# Youngs Moduli (GPa) = 24.07034 36.46896 23.78997
#
# Poissons Ratio (x) = 0.74302 -0.14503
# Poissons Ratio (y) = 0.49041 0.26669
# Poissons Ratio (z) = -0.14674 0.40882
#
# Static dielectric constant tensor:
#      x y z
#    x 1.675270 0.000000 -0.009550 
#    y 0.000000 1.705560 0.000000 
#    z -0.009550 0.000000 1.743730 
# 
# From -- ./inp_files/80864.got.cif
#   From: 2010.05.17/outbox.cif.g08.bks.cpg/sg12_41_cif.got.tgz:80864.got - 2010.06.03 13:09:07.
