data_PCOD9213604
_publ_section_title
;
Structure prediction by ZEFSAII (Michael W. Deem and Ramdas Pophale) SiO2 
 PCOD9213604
Probable space group: C 2/M
;
_chemical_formula_sum "Si O2"
_cell_formula_units_Z 48
_cell_length_a 23.062174
_cell_length_b 17.907609
_cell_length_c 5.611930
_cell_angle_alpha 90.000000
_cell_angle_beta 70.265918
_cell_angle_gamma 90.000000
_cell_volume 2181.545349
_symmetry_space_group_name_H-M "C 2/M"
_symmetry_group_IT_number 12
_symmetry_cell_setting 'monoclinic'
loop_
_space_group_symop_operation_xyz
x,y,z
-x,y,-z
-x,-y,-z
x,-y,z
1/2+x,1/2+y,z
1/2-x,1/2+y,-z
1/2-x,1/2-y,-z
1/2+x,1/2-y,z
loop_
_atom_site_type_symbol
_atom_site_label
_atom_site_fract_x
_atom_site_fract_y
_atom_site_fract_z
Si Si1 0.244899 0.835834 0.434305
Si Si2 0.336164 0.581517 0.128745
Si Si3 0.426248 0.854149 0.583107
Si Si4 0.880056 0.185638 0.681940
Si Si5 0.044078 0.916670 0.731230
Si Si6 0.629193 0.912038 0.845706
O O1 0.250000 0.750000 0.500000
O O2 0.228364 0.892271 0.673017
O O3 0.183781 0.835003 0.359871
O O4 0.307330 0.865183 0.232851
O O5 0.331476 0.500000 0.008671
O O6 0.388479 0.571483 0.252573
O O7 0.364146 0.653154 0.959273
O O8 0.500000 0.848295 0.500000
O O9 0.395692 0.771976 0.639231
O O10 0.405942 0.887963 0.352534
O O11 0.404969 0.896443 0.854896
O O12 0.938178 0.138431 0.504820
O O13 0.019568 0.000000 0.708599
O O14 0.000000 0.885507 0.000000
O O15 0.641847 0.000000 0.810973
#
# Coordination Sequence:
#
# PCOD9213604 Si02
#       6
#     8   8   8   8   8   8
#     4  11  23  45  68 100 141 180 233 295 365 436
#     4  10  22  38  61  95 135 182 232 290 358 433
#     4  12  29  49  77 110 146 194 249 304 368 434
#     4  11  24  40  68  99 141 184 237 299 363 432
#     4   9  20  37  58  90 136 186 235 286 347 421
#     4  12  28  51  79 111 145 192 244 305 370 435
#
# _framework density 22.002751
#
# number of rings (size 3 to 8) (size 9 to 14) (size 15 to 20)
#    0.000    1.167    1.667    3.000    7.000    5.333 
#    0.000    2.500    0.000    0.000    0.000    0.000 
#    0.000    0.000    0.000    0.000    0.000    0.000 
#
# Total GULP energy -133848.421364 kJ/mol
# GULP energy per Si atom -5577.017557 kJ/mol
# Density = 2.195267 g / cm^3
# Si number density = 22.002751 Si / 1000 Ang^3
#
#
#
# Elastic Constant Matrix: (Units=GPa)
#
#
# Indices 1 2 3 4 5 6 
#
# 1 122.0181 17.5695 32.8826 0.0000 -5.6283 0.0000
# 2 17.5695 94.0940 11.1732 0.0000 5.0174 0.0000
# 3 32.8826 11.1732 92.9213 0.0000 -6.6719 0.0000
# 4 0.0000 0.0000 0.0000 -10.1129 0.0000 -10.1966
# 5 -5.6283 5.0174 -6.6719 0.0000 31.1226 0.0000
# 6 0.0000 0.0000 0.0000 -10.1966 0.0000 52.4595
#
#
#
# Elastic Compliance Matrix: (Units=1/GPa)
#
#
# Indices 1 2 3 4 5 6 
#
# 1 0.009275 -0.001441 -0.003018 0.000000 0.001262 0.000000
# 2 -0.001441 0.011135 -0.000992 0.000000 -0.002268 0.000000
# 3 -0.003018 -0.000992 0.012108 0.000000 0.002210 0.000000
# 4 0.000000 0.000000 0.000000 -0.082680 0.000000 -0.016071
# 5 0.001262 -0.002268 0.002210 0.000000 0.033199 0.000000
# 6 0.000000 0.000000 0.000000 -0.016071 0.000000 0.015939
#
#
# Mechanical properties :
#
#
# Convention : Reuss Voigt Hill
#
# Bulk Modulus (GPa) = 46.26192 48.03155 47.14673
# Shear Modulus (GPa) = 292.70439 31.18772 161.94606
#
# Velocity S-wave (km/s) = 11.54641 3.76898 8.58851
# Velocity P-wave (km/s) = 14.10073 6.38886 10.94642
#
# Compressibility (1/GPa) = 0.02161605
#
# Stress axis : x y z
#
# Youngs Moduli (GPa) = 107.82200 89.80337 82.59147
#
# Poissons Ratio (x) = 0.12938 0.24927
# Poissons Ratio (y) = 0.15534 0.08193
# Poissons Ratio (z) = 0.32542 0.08909
#
# Static dielectric constant tensor:
#      x y z
#    x 1.818560 0.000000 0.050260 
#    y 0.000000 1.756310 0.000000 
#    z 0.050260 0.000000 1.856170 
# 
# From -- ./inp_files/24964.got.cif
#   From: 2010.05.17/outbox.cif.g08.bks.cpg/sg12_13_cif.got.tgz:24964.got - 2010.06.03 13:09:07.
