data_PCOD9213131
_publ_section_title
;
Structure prediction by ZEFSAII (Michael W. Deem and Ramdas Pophale) SiO2 
 PCOD9213131
Probable space group: C 2/M
;
_chemical_formula_sum "Si O2"
_cell_formula_units_Z 64
_cell_length_a 14.881974
_cell_length_b 7.590999
_cell_length_c 31.351856
_cell_angle_alpha 90.000000
_cell_angle_beta 130.134670
_cell_angle_gamma 90.000000
_cell_volume 2707.809541
_symmetry_space_group_name_H-M "C 2/M"
_symmetry_group_IT_number 12
_symmetry_cell_setting 'monoclinic'
loop_
_space_group_symop_operation_xyz
x,y,z
-x,y,-z
-x,-y,-z
x,-y,z
1/2+x,1/2+y,z
1/2-x,1/2+y,-z
1/2-x,1/2-y,-z
1/2+x,1/2-y,z
loop_
_atom_site_type_symbol
_atom_site_label
_atom_site_fract_x
_atom_site_fract_y
_atom_site_fract_z
Si Si1 0.255454 0.792103 0.394261
Si Si2 0.176403 0.289969 0.020244
Si Si3 0.128167 0.289263 0.487407
Si Si4 0.985910 0.286472 0.631770
Si Si5 0.760330 0.287284 0.299329
Si Si6 0.491375 0.789101 0.816173
Si Si7 0.771746 0.699699 0.140428
Si Si8 0.473001 0.796461 0.903749
O O1 0.348076 0.719640 0.457681
O O2 0.258043 0.720264 0.347434
O O3 0.124425 0.775144 0.374029
O O4 0.281694 0.000000 0.398871
O O5 0.175835 0.500000 0.029571
O O6 0.232194 0.201731 0.078648
O O7 0.250000 0.250000 0.000000
O O8 0.046247 0.226839 0.966319
O O9 0.112643 0.500000 0.486516
O O10 0.250000 0.250000 0.500000
O O11 0.033486 0.228791 0.423685
O O12 0.979968 0.500000 0.630702
O O13 0.116953 0.230621 0.684686
O O14 0.763110 0.500000 0.301226
O O15 0.639532 0.238373 0.240026
O O16 0.597412 0.722037 0.819080
O O17 0.503573 0.714274 0.867631
O O18 0.509943 0.000000 0.823827
O O19 0.774536 0.500000 0.157636
O O20 0.665694 0.790879 0.132168
O O21 0.509734 0.000000 0.912910
#
# Coordination Sequence:
#
# PCOD9213131 Si02
#       8
#     8   8   8   8   8   8   8   8
#     4   9  18  33  53  78 108 140 177 221 271 331
#     4  11  21  37  62  90 123 155 184 225 278 332
#     4   8  14  27  49  75 104 138 171 212 270 327
#     4   9  18  33  53  78 108 139 176 223 272 326
#     4  10  22  37  54  79 107 139 186 232 271 324
#     4  10  23  43  59  76 111 150 187 232 279 326
#     4  11  23  40  61  89 117 147 189 232 277 334
#     4  10  22  41  61  85 116 150 185 226 278 333
#
# _framework density 23.635341
#
# number of rings (size 3 to 8) (size 9 to 14) (size 15 to 20)
#    0.000    2.250    1.250    1.125    0.000    6.500 
#    0.000    7.500    0.000    0.000    0.000    9.625 
#    0.000    0.000    0.000    0.000    0.000    0.000 
#
# Total GULP energy -178662.437911 kJ/mol
# GULP energy per Si atom -5583.201185 kJ/mol
# Density = 2.358155 g / cm^3
# Si number density = 23.635341 Si / 1000 Ang^3
#
#
#
# Elastic Constant Matrix: (Units=GPa)
#
#
# Indices 1 2 3 4 5 6 
#
# 1 70.7575 -7.9409 12.1707 0.0000 21.5561 0.0000
# 2 -7.9409 59.3532 -4.2169 0.0000 1.0449 0.0000
# 3 12.1707 -4.2169 53.5061 0.0000 29.3961 0.0000
# 4 0.0000 0.0000 0.0000 17.1935 0.0000 3.0692
# 5 21.5561 1.0449 29.3961 0.0000 43.7193 0.0000
# 6 0.0000 0.0000 0.0000 3.0692 0.0000 14.5939
#
#
#
# Elastic Compliance Matrix: (Units=1/GPa)
#
#
# Indices 1 2 3 4 5 6 
#
# 1 0.017050 0.002558 0.001547 0.000000 -0.009508 0.000000
# 2 0.002558 0.017446 0.002720 0.000000 -0.003507 0.000000
# 3 0.001547 0.002720 0.030141 0.000000 -0.021094 0.000000
# 4 0.000000 0.000000 0.000000 0.060430 0.000000 -0.012709
# 5 -0.009508 -0.003507 -0.021094 0.000000 0.041828 0.000000
# 6 0.000000 0.000000 0.000000 -0.012709 0.000000 0.071195
#
#
# Mechanical properties :
#
#
# Convention : Reuss Voigt Hill
#
# Bulk Modulus (GPa) = 12.77339 20.40472 16.58906
# Shear Modulus (GPa) = 19.95728 27.34160 23.64944
#
# Velocity S-wave (km/s) = 2.90898 3.40488 3.16665
# Velocity P-wave (km/s) = 4.08644 4.91014 4.51710
#
# Compressibility (1/GPa) = 0.07828775
#
# Stress axis : x y z
#
# Youngs Moduli (GPa) = 58.64937 57.32117 33.17748
#
# Poissons Ratio (x) = -0.14666 -0.05133
# Poissons Ratio (y) = -0.15005 -0.09024
# Poissons Ratio (z) = -0.09074 -0.15590
#
# Static dielectric constant tensor:
#      x y z
#    x 1.918250 0.000000 0.014880 
#    y 0.000000 1.955230 0.000000 
#    z 0.014880 0.000000 1.914960 
# 
# From -- ./inp_files/375659.got.cif
#   From: 2010.05.17/outbox.cif.g08.bks.cpg/sg12_188_cif.got.tgz:375659.got - 2010.06.03 13:09:07.
