data_PCOD9213388
_publ_section_title
;
Structure prediction by ZEFSAII (Michael W. Deem and Ramdas Pophale) SiO2 
 PCOD9213388
Probable space group: C 2/M
;
_chemical_formula_sum "Si O2"
_cell_formula_units_Z 56
_cell_length_a 13.386381
_cell_length_b 11.807633
_cell_length_c 25.049205
_cell_angle_alpha 90.000000
_cell_angle_beta 46.333411
_cell_angle_gamma 90.000000
_cell_volume 2864.048759
_symmetry_space_group_name_H-M "C 2/M"
_symmetry_group_IT_number 12
_symmetry_cell_setting 'monoclinic'
loop_
_space_group_symop_operation_xyz
x,y,z
-x,y,-z
-x,-y,-z
x,-y,z
1/2+x,1/2+y,z
1/2-x,1/2+y,-z
1/2-x,1/2-y,-z
1/2+x,1/2-y,z
loop_
_atom_site_type_symbol
_atom_site_label
_atom_site_fract_x
_atom_site_fract_y
_atom_site_fract_z
Si Si1 0.661487 0.628545 0.837755
Si Si2 0.931195 0.128756 0.307573
Si Si3 0.113410 0.369654 0.413887
Si Si4 0.942235 0.625823 0.242977
Si Si5 0.852581 0.875705 0.925983
Si Si6 0.336882 0.293898 0.703141
Si Si7 0.735616 0.160123 0.085899
O O1 0.683872 0.500000 0.810721
O O2 0.509606 0.665069 0.875593
O O3 0.774611 0.709412 0.770812
O O4 0.672519 0.627946 0.897616
O O5 0.768369 0.133406 0.380778
O O6 0.952399 0.248901 0.267718
O O7 0.037554 0.138467 0.317100
O O8 0.950535 0.000000 0.276010
O O9 0.088535 0.500000 0.405478
O O10 0.113313 0.283688 0.364478
O O11 0.000000 0.340780 0.500000
O O12 0.944362 0.500000 0.270741
O O13 0.795300 0.634034 0.267342
O O14 0.079760 0.622794 0.156100
O O15 0.768502 0.794900 0.918854
O O16 0.856158 0.000000 0.902236
O O17 0.787948 0.878436 0.009026
#
# Coordination Sequence:
#
# PCOD9213388 Si02
#       7
#     8   8   8   8   8   8   8
#     4  11  21  36  57  84 113 151 199 244 289 348
#     4  10  22  39  62  88 120 156 192 237 295 350
#     4   9  20  39  62  90 123 157 195 237 283 347
#     4  11  22  37  58  86 119 154 198 245 292 346
#     4  10  22  38  57  78 112 156 198 246 301 352
#     4  11  21  36  58  89 118 155 191 238 295 345
#     4  11  21  36  58  82 113 148 201 248 295 344
#
# _framework density 19.552738999999999
#
# number of rings (size 3 to 8) (size 9 to 14) (size 15 to 20)
#    0.000    1.571    2.857    2.571    0.000    3.429 
#    0.000    0.000    0.000   12.429    0.000    0.000 
#    0.000    0.000    0.000    0.000    0.000    0.000 
#
# Total GULP energy -156011.595262 kJ/mol
# GULP energy per Si atom -5571.842688 kJ/mol
# Density = 1.950824 g / cm^3
# Si number density = 19.552739 Si / 1000 Ang^3
#
#
#
# Elastic Constant Matrix: (Units=GPa)
#
#
# Indices 1 2 3 4 5 6 
#
# 1 64.6303 31.2625 -0.0773 0.0000 -9.7041 0.0000
# 2 31.2625 117.0911 22.2572 0.0000 -2.8552 0.0000
# 3 -0.0773 22.2572 77.2424 0.0000 -10.6809 0.0000
# 4 0.0000 0.0000 0.0000 23.3425 0.0000 17.1502
# 5 -9.7041 -2.8552 -10.6809 0.0000 19.0400 0.0000
# 6 0.0000 0.0000 0.0000 17.1502 0.0000 44.4695
#
#
#
# Elastic Compliance Matrix: (Units=1/GPa)
#
#
# Indices 1 2 3 4 5 6 
#
# 1 0.019863 -0.005637 0.003173 0.000000 0.011059 0.000000
# 2 -0.005637 0.010635 -0.003520 0.000000 -0.003253 0.000000
# 3 0.003173 -0.003520 0.015301 0.000000 0.009673 0.000000
# 4 0.000000 0.000000 0.000000 0.059779 0.000000 -0.023055
# 5 0.011059 -0.003253 0.009673 0.000000 0.063096 0.000000
# 6 0.000000 0.000000 0.000000 -0.023055 0.000000 0.031379
#
#
# Mechanical properties :
#
#
# Convention : Reuss Voigt Hill
#
# Bulk Modulus (GPa) = 29.55708 40.64985 35.10346
# Shear Modulus (GPa) = 22.39159 31.07183 26.73171
#
# Velocity S-wave (km/s) = 3.38774 3.99071 3.70152
# Velocity P-wave (km/s) = 5.51831 6.48609 6.02167
#
# Compressibility (1/GPa) = 0.03383284
#
# Stress axis : x y z
#
# Youngs Moduli (GPa) = 50.34361 94.02788 65.35409
#
# Poissons Ratio (x) = 0.53003 -0.20739
# Poissons Ratio (y) = 0.28378 0.23004
# Poissons Ratio (z) = -0.15976 0.33097
#
# Static dielectric constant tensor:
#      x y z
#    x 1.677430 0.000000 0.005990 
#    y 0.000000 1.761400 0.000000 
#    z 0.005990 0.000000 1.663440 
# 
# From -- ./inp_files/360749.got.cif
#   From: 2010.05.17/outbox.cif.g08.bks.cpg/sg12_181_cif.got.tgz:360749.got - 2010.06.03 13:09:07.
