data_PCOD9213061
_publ_section_title
;
Structure prediction by ZEFSAII (Michael W. Deem and Ramdas Pophale) SiO2 
 PCOD9213061
Probable space group: C 2/M
;
_chemical_formula_sum "Si O2"
_cell_formula_units_Z 38
_cell_length_a 16.155719
_cell_length_b 9.512577
_cell_length_c 11.068957
_cell_angle_alpha 90.000000
_cell_angle_beta 94.435190
_cell_angle_gamma 90.000000
_cell_volume 1696.011163
_symmetry_space_group_name_H-M "C 2/M"
_symmetry_group_IT_number 12
_symmetry_cell_setting 'monoclinic'
loop_
_space_group_symop_operation_xyz
x,y,z
-x,y,-z
-x,-y,-z
x,-y,z
1/2+x,1/2+y,z
1/2-x,1/2+y,-z
1/2-x,1/2-y,-z
1/2+x,1/2-y,z
loop_
_atom_site_type_symbol
_atom_site_label
_atom_site_fract_x
_atom_site_fract_y
_atom_site_fract_z
Si Si1 0.942582 0.708669 0.278654
Si Si2 0.299358 0.000000 0.230877
Si Si3 0.400700 0.741635 0.839790
Si Si4 0.854106 0.000000 0.647028
Si Si5 0.273769 0.000000 0.804257
Si Si6 0.000000 0.500000 0.500000
Si Si7 0.876513 0.000000 0.369285
Si Si8 0.156551 0.000000 0.014550
O O1 0.857136 0.634764 0.231473
O O2 0.008576 0.700404 0.177942
O O3 0.978704 0.621255 0.395274
O O4 0.920460 0.864446 0.318080
O O5 0.245920 0.000000 0.348083
O O6 0.233973 0.000000 0.116153
O O7 0.383797 0.636755 0.724256
O O8 0.331962 0.863959 0.829476
O O9 0.392827 0.640596 0.955071
O O10 0.883419 0.000000 0.514317
O O11 0.222424 0.000000 0.673587
O O12 0.197964 0.000000 0.890186
#
# Coordination Sequence:
#
# PCOD9213061 Si02
#       8
#     8   4   8   4   4   2   4   4
#     4  11  22  39  60  93 123 159 201 248 299 353
#     4   9  21  40  61  84 121 160 204 245 291 359
#     4  10  22  40  62  86 120 159 201 245 306 365
#     4  10  22  40  58  85 124 166 191 235 306 374
#     4  12  24  40  64  91 117 159 206 254 303 355
#     4  10  22  36  60  86 130 164 186 232 300 370
#     4  12  24  37  62  94 125 154 204 254 297 352
#     4  10  22  45  63  82 120 166 203 247 305 364
#
# _framework density 22.405512000000002
#
# number of rings (size 3 to 8) (size 9 to 14) (size 15 to 20)
#    0.000    1.684    0.000    6.947    0.000    8.000 
#    0.000    6.316    0.000    0.000    0.000    0.000 
#    0.000    0.000    0.000    0.000    0.000    0.000 
#
# Total GULP energy -106075.701321 kJ/mol
# GULP energy per Si atom -5582.931648 kJ/mol
# Density = 2.235452 g / cm^3
# Si number density = 22.405512 Si / 1000 Ang^3
#
#
#
# Elastic Constant Matrix: (Units=GPa)
#
#
# Indices 1 2 3 4 5 6 
#
# 1 93.1575 23.6677 17.0382 0.0000 -24.9083 0.0000
# 2 23.6677 149.8594 10.7320 0.0000 -5.4007 0.0000
# 3 17.0382 10.7320 63.1631 0.0000 -5.9707 0.0000
# 4 0.0000 0.0000 0.0000 -5.0279 0.0000 21.0447
# 5 -24.9083 -5.4007 -5.9707 0.0000 28.5873 0.0000
# 6 0.0000 0.0000 0.0000 21.0447 0.0000 5.2692
#
#
#
# Elastic Compliance Matrix: (Units=1/GPa)
#
#
# Indices 1 2 3 4 5 6 
#
# 1 0.014881 -0.001730 -0.002576 0.000000 0.012101 0.000000
# 2 -0.001730 0.006988 -0.000753 0.000000 -0.000344 0.000000
# 3 -0.002576 -0.000753 0.016760 0.000000 0.001113 0.000000
# 4 0.000000 0.000000 0.000000 -0.011226 0.000000 0.044836
# 5 0.012101 -0.000344 0.001113 0.000000 0.045692 0.000000
# 6 0.000000 0.000000 0.000000 0.044836 0.000000 0.010712
#
#
# Mechanical properties :
#
#
# Convention : Reuss Voigt Hill
#
# Bulk Modulus (GPa) = 35.07513 45.45063 40.26288
# Shear Modulus (GPa) = 48.34299 22.74852 35.54576
#
# Velocity S-wave (km/s) = 4.65008 3.18985 3.98738
# Velocity P-wave (km/s) = 6.67230 5.82206 6.26163
#
# Compressibility (1/GPa) = 0.02851023
#
# Stress axis : x y z
#
# Youngs Moduli (GPa) = 67.20152 143.11040 59.66511
#
# Poissons Ratio (x) = 0.24752 0.15372
# Poissons Ratio (y) = 0.11623 0.04494
# Poissons Ratio (z) = 0.17313 0.10780
#
# Static dielectric constant tensor:
#      x y z
#    x 1.857580 0.000000 0.000030 
#    y 0.000000 1.734140 0.000000 
#    z 0.000030 0.000000 1.832310 
# 
# From -- ./inp_files/151821.got.cif
#   From: 2010.05.17/outbox.cif.g08.bks.cpg/sg12_76_cif.got.tgz:151821.got - 2010.06.03 13:09:07.
