data_PCOD9213228
_publ_section_title
;
Structure prediction by ZEFSAII (Michael W. Deem and Ramdas Pophale) SiO2 
 PCOD9213228
Probable space group: C 2/M
;
_chemical_formula_sum "Si O2"
_cell_formula_units_Z 56
_cell_length_a 22.653279
_cell_length_b 19.043110
_cell_length_c 15.017042
_cell_angle_alpha 90.000000
_cell_angle_beta 153.332685
_cell_angle_gamma 90.000000
_cell_volume 2907.469618
_symmetry_space_group_name_H-M "C 2/M"
_symmetry_group_IT_number 12
_symmetry_cell_setting 'monoclinic'
loop_
_space_group_symop_operation_xyz
x,y,z
-x,y,-z
-x,-y,-z
x,-y,z
1/2+x,1/2+y,z
1/2-x,1/2+y,-z
1/2-x,1/2-y,-z
1/2+x,1/2-y,z
loop_
_atom_site_type_symbol
_atom_site_label
_atom_site_fract_x
_atom_site_fract_y
_atom_site_fract_z
Si Si1 0.372289 0.577329 0.764628
Si Si2 0.064009 0.314739 0.781848
Si Si3 0.268316 0.796892 0.335443
Si Si4 0.199340 0.639423 0.273323
Si Si5 0.996487 0.583557 0.139546
Si Si6 0.969778 0.919612 0.693029
Si Si7 0.789748 0.820900 0.947705
O O1 0.310376 0.500000 0.695361
O O2 0.280862 0.642021 0.665729
O O3 0.421678 0.581211 0.730593
O O4 0.500000 0.581663 0.000000
O O5 0.034952 0.378356 0.810168
O O6 0.155859 0.331860 0.821750
O O7 0.923455 0.286732 0.559187
O O8 0.144816 0.254632 0.943030
O O9 0.196097 0.723404 0.258124
O O10 0.236524 0.822413 0.192811
O O11 0.350197 0.615078 0.478209
O O12 0.125341 0.615104 0.263788
O O13 0.120678 0.602735 0.087164
O O14 0.010252 0.500000 0.166283
O O15 0.988361 0.000000 0.690197
O O16 0.104370 0.876873 0.874691
#
# Coordination Sequence:
#
# PCOD9213228 Si02
#       7
#     8   8   8   8   8   8   8
#     4  10  22  37  59  93 133 165 199 258 318 372
#     4  11  25  43  64  88 125 171 210 255 312 370
#     4  12  23  39  69  95 125 164 214 258 320 381
#     4  11  23  38  67  98 128 165 205 261 323 382
#     4  11  24  43  64  94 133 166 206 262 318 378
#     4  11  22  40  64  93 128 166 208 257 316 373
#     4  11  24  43  62  90 127 165 212 262 303 368
#
# _framework density 19.260735
#
# number of rings (size 3 to 8) (size 9 to 14) (size 15 to 20)
#    0.000    1.000    4.286    3.000    4.000    3.429 
#    0.000    0.714    0.000    4.286    0.000    0.000 
#    0.000    0.000    0.000    0.000    0.000    0.000 
#
# Total GULP energy -156522.601166 kJ/mol
# GULP energy per Si atom -5590.092899 kJ/mol
# Density = 1.921690 g / cm^3
# Si number density = 19.260735 Si / 1000 Ang^3
#
#
#
# Elastic Constant Matrix: (Units=GPa)
#
#
# Indices 1 2 3 4 5 6 
#
# 1 42.4528 44.8148 7.9569 0.0000 16.0891 0.0000
# 2 44.8148 127.7905 14.6472 0.0000 21.1346 0.0000
# 3 7.9569 14.6472 70.0875 0.0000 8.9918 0.0000
# 4 0.0000 0.0000 0.0000 5.0045 0.0000 -13.2808
# 5 16.0891 21.1346 8.9918 0.0000 27.7607 0.0000
# 6 0.0000 0.0000 0.0000 -13.2808 0.0000 10.5733
#
#
#
# Elastic Compliance Matrix: (Units=1/GPa)
#
#
# Indices 1 2 3 4 5 6 
#
# 1 0.042318 -0.012317 -0.000299 0.000000 -0.015052 0.000000
# 2 -0.012317 0.012611 -0.000961 0.000000 -0.002151 0.000000
# 3 -0.000299 -0.000961 0.015010 0.000000 -0.003957 0.000000
# 4 0.000000 0.000000 0.000000 -0.085637 0.000000 -0.107566
# 5 -0.015052 -0.002151 -0.003957 0.000000 0.047665 0.000000
# 6 0.000000 0.000000 0.000000 -0.107566 0.000000 -0.040533
#
#
# Mechanical properties :
#
#
# Convention : Reuss Voigt Hill
#
# Bulk Modulus (GPa) = 23.37273 41.68540 32.52906
# Shear Modulus (GPa) = 152.20649 20.19518 86.20083
#
# Velocity S-wave (km/s) = 8.89920 3.24159 6.69715
# Velocity P-wave (km/s) = 10.85153 5.97497 8.75945
#
# Compressibility (1/GPa) = 0.04278490
#
# Stress axis : x y z
#
# Youngs Moduli (GPa) = 23.63033 79.29839 66.62075
#
# Poissons Ratio (x) = 0.97671 0.01993
# Poissons Ratio (y) = 0.29105 0.06403
# Poissons Ratio (z) = 0.00707 0.07622
#
# Static dielectric constant tensor:
#      x y z
#    x 1.640230 0.000000 -0.004040 
#    y 0.000000 1.662360 0.000000 
#    z -0.004040 0.000000 1.681350 
# 
# From -- ./inp_files/234744.got.cif
#   From: 2010.05.17/outbox.cif.g08.bks.cpg/sg12_118_cif.got.tgz:234744.got - 2010.06.03 13:09:07.
