data_PCOD9213624
_publ_section_title
;
Structure prediction by ZEFSAII (Michael W. Deem and Ramdas Pophale) SiO2 
 PCOD9213624
Probable space group: C 2/M
;
_chemical_formula_sum "Si O2"
_cell_formula_units_Z 56
_cell_length_a 14.817483
_cell_length_b 19.080105
_cell_length_c 9.263335
_cell_angle_alpha 90.000000
_cell_angle_beta 62.438706
_cell_angle_gamma 90.000000
_cell_volume 2321.717209
_symmetry_space_group_name_H-M "C 2/M"
_symmetry_group_IT_number 12
_symmetry_cell_setting 'monoclinic'
loop_
_space_group_symop_operation_xyz
x,y,z
-x,y,-z
-x,-y,-z
x,-y,z
1/2+x,1/2+y,z
1/2-x,1/2+y,-z
1/2-x,1/2-y,-z
1/2+x,1/2-y,z
loop_
_atom_site_type_symbol
_atom_site_label
_atom_site_fract_x
_atom_site_fract_y
_atom_site_fract_z
Si Si1 0.230411 0.128460 0.864180
Si Si2 0.599865 0.578001 0.718396
Si Si3 0.241653 0.888851 0.392023
Si Si4 0.016877 0.734911 0.237478
Si Si5 0.904438 0.388671 0.496910
Si Si6 0.855161 0.274972 0.118010
Si Si7 0.381608 0.616010 0.777924
O O1 0.134608 0.092251 0.854053
O O2 0.326620 0.116901 0.689628
O O3 0.213522 0.211063 0.877421
O O4 0.211890 0.106687 0.041828
O O5 0.638413 0.500000 0.650111
O O6 0.665491 0.633149 0.575918
O O7 0.482906 0.581754 0.766494
O O8 0.337688 0.918666 0.412621
O O9 0.292302 0.829817 0.256480
O O10 0.158693 0.917669 0.339881
O O11 0.077169 0.801703 0.260402
O O12 0.956214 0.683065 0.390553
O O13 0.935897 0.757008 0.173609
O O14 0.093591 0.695907 0.067286
O O15 0.000000 0.425673 0.500000
#
# Coordination Sequence:
#
# PCOD9213624 Si02
#       7
#     8   8   8   8   8   8   8
#     4  10  22  38  62  91 125 165 213 258 311 377
#     4  11  24  43  65  93 129 170 212 255 311 381
#     4  10  24  38  60  90 127 168 208 263 317 370
#     4   9  19  33  56  85 127 170 202 245 311 376
#     4  10  23  38  56  84 124 168 206 250 306 377
#     4   9  18  36  56  87 127 166 207 254 307 383
#     4  11  22  37  60  93 127 167 208 260 314 374
#
# _framework density 24.120076999999998
#
# number of rings (size 3 to 8) (size 9 to 14) (size 15 to 20)
#    0.000    2.000    1.429    0.857    6.000    5.143 
#    0.000    0.000    0.000    6.857    0.000   18.000 
#    0.000    0.000    0.000    0.000    0.000    0.000 
#
# Total GULP energy -155895.534737 kJ/mol
# GULP energy per Si atom -5567.697669 kJ/mol
# Density = 2.406518 g / cm^3
# Si number density = 24.120077 Si / 1000 Ang^3
#
#
#
# Elastic Constant Matrix: (Units=GPa)
#
#
# Indices 1 2 3 4 5 6 
#
# 1 185.4988 16.8870 44.5088 0.0000 13.6013 0.0000
# 2 16.8870 61.3925 24.3169 0.0000 -4.9856 0.0000
# 3 44.5088 24.3169 117.9530 0.0000 6.5024 0.0000
# 4 0.0000 0.0000 0.0000 -9.1007 0.0000 -3.0563
# 5 13.6013 -4.9856 6.5024 0.0000 47.6731 0.0000
# 6 0.0000 0.0000 0.0000 -3.0563 0.0000 -12.6519
#
#
#
# Elastic Compliance Matrix: (Units=1/GPa)
#
#
# Indices 1 2 3 4 5 6 
#
# 1 0.006077 -0.001007 -0.001999 0.000000 -0.001566 0.000000
# 2 -0.001007 0.018174 -0.003514 0.000000 0.002667 0.000000
# 3 -0.001999 -0.003514 0.010021 0.000000 -0.001164 0.000000
# 4 0.000000 0.000000 0.000000 -0.119582 0.000000 0.028887
# 5 -0.001566 0.002667 -0.001164 0.000000 0.021861 0.000000
# 6 0.000000 0.000000 0.000000 0.028887 0.000000 -0.086018
#
#
# Mechanical properties :
#
#
# Convention : Reuss Voigt Hill
#
# Bulk Modulus (GPa) = 47.09847 59.58553 53.34200
# Shear Modulus (GPa) = -38.65481 23.79286 -7.43098
#
# Velocity S-wave (km/s) = -4.00759 3.14416 -1.75713
# Velocity P-wave (km/s) = 1.35843 6.15941 4.24812
#
# Compressibility (1/GPa) = 0.02123211
#
# Stress axis : x y z
#
# Youngs Moduli (GPa) = 164.55257 55.02369 99.79147
#
# Poissons Ratio (x) = 0.05541 0.19950
# Poissons Ratio (y) = 0.16570 0.35064
# Poissons Ratio (z) = 0.32897 0.19334
#
# Static dielectric constant tensor:
#      x y z
#    x 2.029450 0.000000 -0.020070 
#    y 0.000000 1.962800 0.000000 
#    z -0.020070 0.000000 1.918420 
# 
# From -- ./inp_files/65767.got.cif
#   From: 2010.05.17/outbox.cif.g08.bks.cpg/sg12_33_cif.got.tgz:65767.got - 2010.06.03 13:09:07.
