data_PCOD9213686
_publ_section_title
;
Structure prediction by ZEFSAII (Michael W. Deem and Ramdas Pophale) SiO2 
 PCOD9213686
Probable space group: C 2/M
;
_chemical_formula_sum "Si O2"
_cell_formula_units_Z 32
_cell_length_a 12.446956
_cell_length_b 18.360767
_cell_length_c 9.144132
_cell_angle_alpha 90.000000
_cell_angle_beta 50.496663
_cell_angle_gamma 90.000000
_cell_volume 1612.432948
_symmetry_space_group_name_H-M "C 2/M"
_symmetry_group_IT_number 12
_symmetry_cell_setting 'monoclinic'
loop_
_space_group_symop_operation_xyz
x,y,z
-x,y,-z
-x,-y,-z
x,-y,z
1/2+x,1/2+y,z
1/2-x,1/2+y,-z
1/2-x,1/2-y,-z
1/2+x,1/2-y,z
loop_
_atom_site_type_symbol
_atom_site_label
_atom_site_fract_x
_atom_site_fract_y
_atom_site_fract_z
Si Si1 0.186817 0.000000 0.108472
Si Si2 0.500000 0.233075 0.500000
Si Si3 0.127174 0.500000 0.776756
Si Si4 0.659674 0.000000 0.307389
Si Si5 0.707043 0.122681 0.477044
Si Si6 0.012404 0.131843 0.328919
O O1 0.244140 0.000000 0.222895
O O2 0.097896 0.073691 0.162134
O O3 0.684345 0.000000 0.115027
O O4 0.604058 0.184273 0.505537
O O5 0.425134 0.289473 0.678215
O O6 0.139143 0.571137 0.661883
O O7 0.000000 0.500000 0.000000
O O8 0.500000 0.000000 0.500000
O O9 0.728843 0.930180 0.320339
O O10 0.858309 0.146648 0.401236
O O11 0.000000 0.095657 0.500000
#
# Coordination Sequence:
#
# PCOD9213686 Si02
#       6
#     4   4   4   4   8   8
#     4  12  21  42  64  99 123 160 228 264 308 378
#     4  10  22  38  64  92 134 170 206 254 328 386
#     4  11  22  34  67  91 119 168 220 263 309 370
#     4  11  24  40  68  92 127 163 207 276 319 366
#     4  11  21  41  63  91 128 171 207 263 324 372
#     4  10  22  38  65  93 124 170 207 264 315 375
#
# _framework density 19.845787000000001
#
# number of rings (size 3 to 8) (size 9 to 14) (size 15 to 20)
#    0.750    0.500    3.750    4.125    0.000    2.000 
#    0.000    1.250   11.000    0.000    0.000    0.000 
#    0.000    0.000    0.000    0.000    0.000    0.000 
#
# Total GULP energy -89087.643608 kJ/mol
# GULP energy per Si atom -5567.977725 kJ/mol
# Density = 1.980062 g / cm^3
# Si number density = 19.845787 Si / 1000 Ang^3
#
#
#
# Elastic Constant Matrix: (Units=GPa)
#
#
# Indices 1 2 3 4 5 6 
#
# 1 139.8920 52.9833 42.2648 0.0000 -4.1682 0.0000
# 2 52.9833 137.5968 46.4088 0.0000 0.1680 0.0000
# 3 42.2648 46.4088 84.8882 0.0000 5.4920 0.0000
# 4 0.0000 0.0000 0.0000 -7.3641 0.0000 1.7597
# 5 -4.1682 0.1680 5.4920 0.0000 29.4791 0.0000
# 6 0.0000 0.0000 0.0000 1.7597 0.0000 21.9825
#
#
#
# Elastic Compliance Matrix: (Units=1/GPa)
#
#
# Indices 1 2 3 4 5 6 
#
# 1 0.009125 -0.002380 -0.003367 0.000000 0.001931 0.000000
# 2 -0.002380 0.009554 -0.004062 0.000000 0.000366 0.000000
# 3 -0.003367 -0.004062 0.015898 0.000000 -0.003415 0.000000
# 4 0.000000 0.000000 0.000000 -0.133245 0.000000 0.010666
# 5 0.001931 0.000366 -0.003415 0.000000 0.034829 0.000000
# 6 0.000000 0.000000 0.000000 0.010666 0.000000 0.044637
#
#
# Mechanical properties :
#
#
# Convention : Reuss Voigt Hill
#
# Bulk Modulus (GPa) = 66.84934 71.74341 69.29638
# Shear Modulus (GPa) = 925.87035 23.53418 474.70226
#
# Velocity S-wave (km/s) = 21.62279 3.44736 15.48272
# Velocity P-wave (km/s) = 25.63496 7.21627 18.83117
#
# Compressibility (1/GPa) = 0.01495901
#
# Stress axis : x y z
#
# Youngs Moduli (GPa) = 109.59391 104.67211 62.90201
#
# Poissons Ratio (x) = 0.24916 0.21176
# Poissons Ratio (y) = 0.26088 0.25548
# Poissons Ratio (z) = 0.36896 0.42513
#
# Static dielectric constant tensor:
#      x y z
#    x 1.750870 0.000000 -0.015940 
#    y 0.000000 1.732880 0.000000 
#    z -0.015940 0.000000 1.694360 
# 
# From -- ./inp_files/132042.got.cif
#   From: 2010.05.17/outbox.cif.g08.bks.cpg/sg12_67_cif.got.tgz:132042.got - 2010.06.03 13:09:07.
