data_PCOD9213132
_publ_section_title
;
Structure prediction by ZEFSAII (Michael W. Deem and Ramdas Pophale) SiO2 
 PCOD9213132
Probable space group: C 2/M
;
_chemical_formula_sum "Si O2"
_cell_formula_units_Z 40
_cell_length_a 22.640361
_cell_length_b 7.416196
_cell_length_c 29.892586
_cell_angle_alpha 90.000000
_cell_angle_beta 19.082084
_cell_angle_gamma 90.000000
_cell_volume 1640.864494
_symmetry_space_group_name_H-M "C 2/M"
_symmetry_group_IT_number 12
_symmetry_cell_setting 'monoclinic'
loop_
_space_group_symop_operation_xyz
x,y,z
-x,y,-z
-x,-y,-z
x,-y,z
1/2+x,1/2+y,z
1/2-x,1/2+y,-z
1/2-x,1/2-y,-z
1/2+x,1/2-y,z
loop_
_atom_site_type_symbol
_atom_site_label
_atom_site_fract_x
_atom_site_fract_y
_atom_site_fract_z
Si Si1 0.702201 0.784870 0.585521
Si Si2 0.584660 0.721024 0.337615
Si Si3 0.665767 0.792866 0.917126
Si Si4 0.448751 0.784863 0.839014
Si Si5 0.104585 0.721024 0.817737
O O1 0.750000 0.750000 0.500000
O O2 0.520234 0.715926 0.739900
O O3 0.878011 0.723304 0.487569
O O4 0.696396 0.000000 0.592537
O O5 0.591004 0.500000 0.332130
O O6 0.670576 0.785328 0.228778
O O7 0.717279 0.777005 0.282693
O O8 0.712326 0.000000 0.893850
O O9 0.500000 0.795079 0.000000
O O10 0.573058 0.714693 0.027558
O O11 0.584397 0.723282 0.781223
O O12 0.459471 0.000000 0.829543
O O13 0.250000 0.750000 0.000000
O O14 0.101787 0.500000 0.821426
#
# Coordination Sequence:
#
# PCOD9213132 Si02
#       5
#     8   8   8   8   8
#     4  10  22  37  54  80 111 144 182 221 267 325
#     4   8  14  26  47  75 104 132 169 221 272 313
#     4   7  10  18  36  66  97 123 156 199 250 306
#     4  10  22  37  54  80 111 144 182 221 267 325
#     4   8  14  26  47  75 104 132 169 221 272 313
#
# _framework density 24.377393999999999
#
# number of rings (size 3 to 8) (size 9 to 14) (size 15 to 20)
#    0.000    3.400    0.000    2.400    2.800    1.600 
#    0.000    4.000    0.000    1.200    0.000    5.600 
#    0.000    0.000    0.000    0.000    0.000    0.000 
#
# Total GULP energy -111570.049827 kJ/mol
# GULP energy per Si atom -5578.502491 kJ/mol
# Density = 2.432191 g / cm^3
# Si number density = 24.377394 Si / 1000 Ang^3
#
#
#
# Elastic Constant Matrix: (Units=GPa)
#
#
# Indices 1 2 3 4 5 6 
#
# 1 121.1843 5.6530 79.3052 -0.0028 23.1672 0.0277
# 2 5.6530 79.3777 12.2847 0.0120 4.6816 0.0285
# 3 79.3052 12.2847 185.3214 0.1373 22.2471 0.0457
# 4 -0.0028 0.0120 0.1373 5.4165 -0.0009 2.6636
# 5 23.1672 4.6816 22.2471 -0.0009 36.7930 -0.0001
# 6 0.0277 0.0285 0.0457 2.6636 -0.0001 1.6645
#
#
#
# Elastic Compliance Matrix: (Units=1/GPa)
#
#
# Indices 1 2 3 4 5 6 
#
# 1 0.012229 0.000139 -0.004654 0.000759 -0.004904 -0.001294
# 2 0.000139 0.012779 -0.000756 0.000419 -0.001257 -0.000870
# 3 -0.004654 -0.000756 0.007628 -0.000637 -0.001586 0.000900
# 4 0.000759 0.000419 -0.000637 0.866522 -0.000131 -1.386660
# 5 -0.004904 -0.001257 -0.001586 -0.000131 0.031386 0.000359
# 6 -0.001294 -0.000870 0.000900 -1.386660 0.000359 2.819816
#
#
# Mechanical properties :
#
#
# Convention : Reuss Voigt Hill
#
# Bulk Modulus (GPa) = 45.25923 64.48546 54.87234
# Shear Modulus (GPa) = 1.32687 28.01750 14.67219
#
# Velocity S-wave (km/s) = 0.73857 3.39384 2.45598
# Velocity P-wave (km/s) = 4.39701 6.47055 5.53180
#
# Compressibility (1/GPa) = 0.02209494
#
# Stress axis : x y z
#
# Youngs Moduli (GPa) = 81.77445 78.25071 131.09040
#
# Poissons Ratio (x) = -0.01087 0.61008
# Poissons Ratio (y) = -0.01136 0.09908
# Poissons Ratio (z) = 0.38057 0.05914
#
# Static dielectric constant tensor:
#      x y z
#    x 1.942820 0.000120 0.000070 
#    y 0.000120 1.989160 0.000090 
#    z 0.000070 0.000090 1.942980 
# 
# From -- ./inp_files/365779.got.cif
#   From: 2010.05.17/outbox.cif.g08.bks.cpg/sg12_183_cif.got.tgz:365779.got - 2010.06.03 13:09:07.
