data_PCOD9213706
_publ_section_title
;
Structure prediction by ZEFSAII (Michael W. Deem and Ramdas Pophale) SiO2 
 PCOD9213706
Probable space group: C 2/M
;
_chemical_formula_sum "Si O2"
_cell_formula_units_Z 44
_cell_length_a 16.513265
_cell_length_b 12.381949
_cell_length_c 11.172956
_cell_angle_alpha 90.000000
_cell_angle_beta 108.555618
_cell_angle_gamma 90.000000
_cell_volume 2165.735165
_symmetry_space_group_name_H-M "C 2/M"
_symmetry_group_IT_number 12
_symmetry_cell_setting 'monoclinic'
loop_
_space_group_symop_operation_xyz
x,y,z
-x,y,-z
-x,-y,-z
x,-y,z
1/2+x,1/2+y,z
1/2-x,1/2+y,-z
1/2-x,1/2-y,-z
1/2+x,1/2-y,z
loop_
_atom_site_type_symbol
_atom_site_label
_atom_site_fract_x
_atom_site_fract_y
_atom_site_fract_z
Si Si1 0.129318 0.272445 0.132160
Si Si2 0.782586 0.500000 0.785091
Si Si3 0.559883 0.730105 0.854921
Si Si4 0.594277 0.500000 0.764663
Si Si5 0.989210 0.624471 0.637266
Si Si6 0.334293 0.286085 0.607384
Si Si7 0.643080 0.500000 0.525096
O O1 0.163092 0.393632 0.164858
O O2 0.179567 0.203205 0.256161
O O3 0.031280 0.258130 0.128187
O O4 0.129479 0.241895 0.992615
O O5 0.697450 0.500000 0.827057
O O6 0.738393 0.500000 0.631952
O O7 0.558884 0.608808 0.805203
O O8 0.563536 0.812642 0.744983
O O9 0.584207 0.500000 0.615841
O O10 0.983391 0.500000 0.674541
O O11 0.903469 0.691731 0.621761
O O12 0.000000 0.626268 0.500000
O O13 0.250000 0.250000 0.500000
O O14 0.367022 0.394710 0.560315
#
# Coordination Sequence:
#
# PCOD9213706 Si02
#       7
#     8   4   8   4   8   8   4
#     4  10  23  38  63  97 122 168 208 267 308 380
#     4  10  22  41  63  93 129 165 217 255 312 379
#     4  10  23  39  67  91 130 164 213 258 318 378
#     4  10  22  43  62  90 132 169 204 266 306 384
#     4  10  23  39  60  91 125 162 205 263 309 370
#     4  11  21  37  62  90 123 162 209 261 309 368
#     4  10  22  38  65  87 122 172 208 255 315 378
#
# _framework density 20.316427000000001
#
# number of rings (size 3 to 8) (size 9 to 14) (size 15 to 20)
#    0.545    1.273    1.818    1.091    7.636    6.545 
#    0.000    4.545    0.000    0.000    0.000    0.000 
#    0.000    0.000    0.000    0.000    0.000    0.000 
#
# Total GULP energy -122676.468859 kJ/mol
# GULP energy per Si atom -5576.203130 kJ/mol
# Density = 2.027019 g / cm^3
# Si number density = 20.316427 Si / 1000 Ang^3
#
#
#
# Elastic Constant Matrix: (Units=GPa)
#
#
# Indices 1 2 3 4 5 6 
#
# 1 47.5438 26.8362 13.2461 0.0000 6.5206 0.0000
# 2 26.8362 161.0387 69.4559 0.0000 -1.3864 0.0000
# 3 13.2461 69.4559 189.6870 0.0000 10.5038 0.0000
# 4 0.0000 0.0000 0.0000 8.7597 0.0000 -16.1678
# 5 6.5206 -1.3864 10.5038 0.0000 19.2739 0.0000
# 6 0.0000 0.0000 0.0000 -16.1678 0.0000 34.7148
#
#
#
# Elastic Compliance Matrix: (Units=1/GPa)
#
#
# Indices 1 2 3 4 5 6 
#
# 1 0.024586 -0.004327 0.000356 0.000000 -0.008823 0.000000
# 2 -0.004327 0.008216 -0.002908 0.000000 0.003639 0.000000
# 3 0.000356 -0.002908 0.006527 0.000000 -0.003887 0.000000
# 4 0.000000 0.000000 0.000000 0.813118 0.000000 0.378694
# 5 -0.008823 0.003639 -0.003887 0.000000 0.057248 0.000000
# 6 0.000000 0.000000 0.000000 0.378694 0.000000 0.205175
#
#
# Mechanical properties :
#
#
# Convention : Reuss Voigt Hill
#
# Bulk Modulus (GPa) = 39.10479 68.59400 53.84940
# Shear Modulus (GPa) = 4.39695 31.79843 18.09769
#
# Velocity S-wave (km/s) = 1.47273 3.96050 2.98785
# Velocity P-wave (km/s) = 4.70973 7.39934 6.20209
#
# Compressibility (1/GPa) = 0.02557231
#
# Stress axis : x y z
#
# Youngs Moduli (GPa) = 40.67302 121.71104 153.21112
#
# Poissons Ratio (x) = 0.52660 -0.05453
# Poissons Ratio (y) = 0.17598 0.44551
# Poissons Ratio (z) = -0.01448 0.35392
#
# Static dielectric constant tensor:
#      x y z
#    x 1.674030 0.000000 0.014980 
#    y 0.000000 1.678730 0.000000 
#    z 0.014980 0.000000 1.815960 
# 
# From -- ./inp_files/153826.got.cif
#   From: 2010.05.17/outbox.cif.g08.bks.cpg/sg12_77_cif.got.tgz:153826.got - 2010.06.03 13:09:07.
