data_PCOD9213586
_publ_section_title
;
Structure prediction by ZEFSAII (Michael W. Deem and Ramdas Pophale) SiO2 
 PCOD9213586
Probable space group: C 2/M
;
_chemical_formula_sum "Si O2"
_cell_formula_units_Z 40
_cell_length_a 18.528124
_cell_length_b 11.749745
_cell_length_c 8.727287
_cell_angle_alpha 90.000000
_cell_angle_beta 80.996009
_cell_angle_gamma 90.000000
_cell_volume 1876.524689
_symmetry_space_group_name_H-M "C 2/M"
_symmetry_group_IT_number 12
_symmetry_cell_setting 'monoclinic'
loop_
_space_group_symop_operation_xyz
x,y,z
-x,y,-z
-x,-y,-z
x,-y,z
1/2+x,1/2+y,z
1/2-x,1/2+y,-z
1/2-x,1/2-y,-z
1/2+x,1/2-y,z
loop_
_atom_site_type_symbol
_atom_site_label
_atom_site_fract_x
_atom_site_fract_y
_atom_site_fract_z
Si Si1 0.842572 0.755341 0.636182
Si Si2 0.758648 0.126899 0.907867
Si Si3 0.310134 0.632116 0.325032
Si Si4 0.891404 0.697105 0.128363
Si Si5 0.039497 0.634780 0.222620
O O1 0.824266 0.852374 0.767879
O O2 0.773990 0.668257 0.675726
O O3 0.836785 0.803923 0.468725
O O4 0.918135 0.696386 0.655151
O O5 0.683268 0.126106 0.835404
O O6 0.763609 0.000000 0.981452
O O7 0.750000 0.250000 0.000000
O O8 0.314837 0.500000 0.345744
O O9 0.363651 0.676014 0.173153
O O10 0.954654 0.662024 0.224218
O O11 0.921623 0.675741 0.948255
O O12 0.048972 0.500000 0.231778
#
# Coordination Sequence:
#
# PCOD9213586 Si02
#       5
#     8   8   8   8   8
#     4  10  22  39  63  91 118 158 207 248 304 367
#     4  11  21  36  61  91 120 157 201 250 305 362
#     4  10  22  42  61  86 125 161 201 255 305 364
#     4  10  22  38  61  90 120 158 202 248 307 362
#     4  11  21  40  63  89 122 157 202 259 305 359
#
# _framework density 21.315998
#
# number of rings (size 3 to 8) (size 9 to 14) (size 15 to 20)
#    0.000    1.600    2.000    3.600    0.000    4.000 
#    0.000   11.000    0.000    0.000    0.000    0.000 
#    0.000    0.000    0.000    0.000    0.000    0.000 
#
# Total GULP energy -111603.704608 kJ/mol
# GULP energy per Si atom -5580.185230 kJ/mol
# Density = 2.126748 g / cm^3
# Si number density = 21.315998 Si / 1000 Ang^3
#
#
#
# Elastic Constant Matrix: (Units=GPa)
#
#
# Indices 1 2 3 4 5 6 
#
# 1 116.7805 61.4091 12.1754 0.0000 31.3956 0.0000
# 2 61.4091 144.9736 24.6816 0.0000 7.3014 0.0000
# 3 12.1754 24.6816 31.6320 0.0000 14.4088 0.0000
# 4 0.0000 0.0000 0.0000 21.6315 0.0000 1.3882
# 5 31.3956 7.3014 14.4088 0.0000 35.6453 0.0000
# 6 0.0000 0.0000 0.0000 1.3882 0.0000 1.0230
#
#
#
# Elastic Compliance Matrix: (Units=1/GPa)
#
#
# Indices 1 2 3 4 5 6 
#
# 1 0.015483 -0.006853 0.006080 0.000000 -0.014691 0.000000
# 2 -0.006853 0.011022 -0.009418 0.000000 0.007586 0.000000
# 3 0.006080 -0.009418 0.046800 0.000000 -0.022344 0.000000
# 4 0.000000 0.000000 0.000000 0.050639 0.000000 -0.068713
# 5 -0.014691 0.007586 -0.022344 0.000000 0.048471 0.000000
# 6 0.000000 0.000000 0.000000 -0.068713 0.000000 1.070718
#
#
# Mechanical properties :
#
#
# Convention : Reuss Voigt Hill
#
# Bulk Modulus (GPa) = 18.89577 54.43537 36.66557
# Shear Modulus (GPa) = 3.90273 24.66795 14.28534
#
# Velocity S-wave (km/s) = 1.35457 3.40553 2.59157
# Velocity P-wave (km/s) = 3.36606 6.40752 5.11794
#
# Compressibility (1/GPa) = 0.05292189
#
# Stress axis : x y z
#
# Youngs Moduli (GPa) = 64.58886 90.72626 21.36775
#
# Poissons Ratio (x) = 0.62179 -0.12992
# Poissons Ratio (y) = 0.44266 0.20123
# Poissons Ratio (z) = -0.39270 0.85443
#
# Static dielectric constant tensor:
#      x y z
#    x 1.778390 0.000000 0.025960 
#    y 0.000000 1.772780 0.000000 
#    z 0.025960 0.000000 1.854320 
# 
# From -- ./inp_files/71239.got.cif
#   From: 2010.05.17/outbox.cif.g08.bks.cpg/sg12_36_cif.got.tgz:71239.got - 2010.06.03 13:09:07.
