data_PCOD9213536
_publ_section_title
;
Structure prediction by ZEFSAII (Michael W. Deem and Ramdas Pophale) SiO2 
 PCOD9213536
Probable space group: C 2/M
;
_chemical_formula_sum "Si O2"
_cell_formula_units_Z 36
_cell_length_a 17.131423
_cell_length_b 9.254063
_cell_length_c 11.599686
_cell_angle_alpha 90.000000
_cell_angle_beta 46.378816
_cell_angle_gamma 90.000000
_cell_volume 1331.253621
_symmetry_space_group_name_H-M "C 2/M"
_symmetry_group_IT_number 12
_symmetry_cell_setting 'monoclinic'
loop_
_space_group_symop_operation_xyz
x,y,z
-x,y,-z
-x,-y,-z
x,-y,z
1/2+x,1/2+y,z
1/2-x,1/2+y,-z
1/2-x,1/2-y,-z
1/2+x,1/2-y,z
loop_
_atom_site_type_symbol
_atom_site_label
_atom_site_fract_x
_atom_site_fract_y
_atom_site_fract_z
Si Si1 0.198674 0.000000 0.742219
Si Si2 0.910480 0.745864 0.009984
Si Si3 0.529257 0.246106 0.664844
Si Si4 0.688110 0.000000 0.592023
Si Si5 0.136964 0.000000 0.414477
Si Si6 0.128273 0.500000 0.263633
Si Si7 0.753383 0.500000 0.081315
O O1 0.322520 0.000000 0.660266
O O2 0.207033 0.000000 0.597485
O O3 0.141888 0.862483 0.853538
O O4 0.967257 0.811617 0.838550
O O5 0.820804 0.639470 0.052438
O O6 0.000000 0.670806 0.000000
O O7 0.618867 0.140595 0.631081
O O8 0.582016 0.358400 0.523806
O O9 0.443946 0.139234 0.689744
O O10 0.739329 0.000000 0.665700
O O11 0.145178 0.000000 0.267136
O O12 0.231861 0.500000 0.071510
#
# Coordination Sequence:
#
# PCOD9213536 Si02
#       7
#     4   8   8   4   4   4   4
#     4  12  24  40  64  86 122 160 206 245 282 363
#     4  11  21  39  63  92 119 156 198 248 302 352
#     4  10  22  38  60  88 125 156 195 246 299 356
#     4  11  22  38  61  94 124 157 189 246 316 354
#     4  12  20  37  65  98 119 147 201 260 300 341
#     4   9  24  46  58  81 120 174 203 227 297 361
#     4  10  22  38  64  89 123 157 194 245 299 358
#
# _framework density 27.042178
#
# number of rings (size 3 to 8) (size 9 to 14) (size 15 to 20)
#    0.000    1.333    0.000    6.667    0.000    5.333 
#    0.000    3.333    0.000    4.000    0.000    0.000 
#    0.000    0.000    0.000    0.000    0.000    0.000 
#
# Total GULP energy -101119.263933 kJ/mol
# GULP energy per Si atom -5617.736885 kJ/mol
# Density = 2.698063 g / cm^3
# Si number density = 27.042178 Si / 1000 Ang^3
#
#
#
# Elastic Constant Matrix: (Units=GPa)
#
#
# Indices 1 2 3 4 5 6 
#
# 1 103.1505 5.9775 11.1478 0.0000 -0.7155 0.0000
# 2 5.9775 106.8701 39.5526 0.0000 -6.2106 0.0000
# 3 11.1478 39.5526 173.4780 0.0000 21.6495 0.0000
# 4 0.0000 0.0000 0.0000 -24.8544 0.0000 -73.2725
# 5 -0.7155 -6.2106 21.6495 0.0000 46.7250 0.0000
# 6 0.0000 0.0000 0.0000 -73.2725 0.0000 -63.2185
#
#
#
# Elastic Compliance Matrix: (Units=1/GPa)
#
#
# Indices 1 2 3 4 5 6 
#
# 1 0.009780 -0.000299 -0.000609 0.000000 0.000392 0.000000
# 2 -0.000299 0.010532 -0.002713 0.000000 0.002652 0.000000
# 3 -0.000609 -0.002713 0.006865 0.000000 -0.003551 0.000000
# 4 0.000000 0.000000 0.000000 0.016647 0.000000 -0.019294
# 5 0.000392 0.002652 -0.003551 0.000000 0.023406 0.000000
# 6 0.000000 0.000000 0.000000 -0.019294 0.000000 0.006545
#
#
# Mechanical properties :
#
#
# Convention : Reuss Voigt Hill
#
# Bulk Modulus (GPa) = 50.16177 55.20603 52.68390
# Shear Modulus (GPa) = 57.03668 13.51847 35.27757
#
# Velocity S-wave (km/s) = 4.59756 2.23828 3.61576
# Velocity P-wave (km/s) = 6.83909 5.20951 6.07915
#
# Compressibility (1/GPa) = 0.01993550
#
# Stress axis : x y z
#
# Youngs Moduli (GPa) = 102.24467 94.94749 145.65980
#
# Poissons Ratio (x) = 0.02836 0.08876
# Poissons Ratio (y) = 0.03054 0.39519
# Poissons Ratio (z) = 0.06230 0.25760
#
# Static dielectric constant tensor:
#      x y z
#    x 2.059170 0.000000 -0.045590 
#    y 0.000000 2.066130 0.000000 
#    z -0.045590 0.000000 2.092000 
# 
# From -- ./inp_files/230827.got.cif
#   From: 2010.05.17/outbox.cif.g08.bks.cpg/sg12_116_cif.got.tgz:230827.got - 2010.06.03 13:09:07.
