data_PCOD9213068
_publ_section_title
;
Structure prediction by ZEFSAII (Michael W. Deem and Ramdas Pophale) SiO2 
 PCOD9213068
Probable space group: C 2/M
;
_chemical_formula_sum "Si O2"
_cell_formula_units_Z 32
_cell_length_a 8.677317
_cell_length_b 17.450906
_cell_length_c 9.911038
_cell_angle_alpha 90.000000
_cell_angle_beta 63.323955
_cell_angle_gamma 90.000000
_cell_volume 1341.052866
_symmetry_space_group_name_H-M "C 2/M"
_symmetry_group_IT_number 12
_symmetry_cell_setting 'monoclinic'
loop_
_space_group_symop_operation_xyz
x,y,z
-x,y,-z
-x,-y,-z
x,-y,z
1/2+x,1/2+y,z
1/2-x,1/2+y,-z
1/2-x,1/2-y,-z
1/2+x,1/2-y,z
loop_
_atom_site_type_symbol
_atom_site_label
_atom_site_fract_x
_atom_site_fract_y
_atom_site_fract_z
Si Si1 0.500000 0.721356 0.500000
Si Si2 0.500000 0.727949 0.000000
Si Si3 0.299288 0.500000 0.553104
Si Si4 0.346249 0.853556 0.380320
Si Si5 0.317196 0.140945 0.899143
Si Si6 0.796008 0.500000 0.092519
O O1 0.422241 0.778602 0.420263
O O2 0.333614 0.674099 0.620344
O O3 0.591014 0.786144 0.066100
O O4 0.346441 0.674665 0.116445
O O5 0.500000 0.500000 0.500000
O O6 0.231241 0.424326 0.505444
O O7 0.243940 0.500000 0.733688
O O8 0.516544 0.889700 0.244990
O O9 0.245657 0.077931 0.032735
O O10 0.000000 0.500000 0.000000
#
# Coordination Sequence:
#
# PCOD9213068 Si02
#       6
#     4   4   4   8   8   4
#     4  10  24  38  62  96 128 168 204 258 308 374
#     4  10  22  36  60  96 124 158 200 254 316 360
#     4  12  24  43  64  92 124 168 208 257 316 380
#     4  11  21  41  63  91 127 163 212 252 311 366
#     4  11  21  40  64  93 125 163 207 259 306 370
#     4  12  22  41  66  92 122 168 206 259 318 370
#
# _framework density 23.861847999999998
#
# number of rings (size 3 to 8) (size 9 to 14) (size 15 to 20)
#    0.000    1.000    5.000    1.500    0.000    3.000 
#    4.500    0.000    0.000    0.000    0.000    0.000 
#    0.000    0.000    0.000    0.000    0.000    0.000 
#
# Total GULP energy -89085.939834 kJ/mol
# GULP energy per Si atom -5567.871240 kJ/mol
# Density = 2.380754 g / cm^3
# Si number density = 23.861848 Si / 1000 Ang^3
#
#
#
# Elastic Constant Matrix: (Units=GPa)
#
#
# Indices 1 2 3 4 5 6 
#
# 1 116.0928 42.4391 15.3199 0.0000 -40.4831 0.0000
# 2 42.4391 110.2006 1.7411 0.0000 -10.6172 0.0000
# 3 15.3199 1.7411 60.2897 0.0000 -23.5690 0.0000
# 4 0.0000 0.0000 0.0000 17.4855 0.0000 -29.1127
# 5 -40.4831 -10.6172 -23.5690 0.0000 33.3761 0.0000
# 6 0.0000 0.0000 0.0000 -29.1127 0.0000 -28.5837
#
#
#
# Elastic Compliance Matrix: (Units=1/GPa)
#
#
# Indices 1 2 3 4 5 6 
#
# 1 0.017965 -0.004711 0.004840 0.000000 0.023710 0.000000
# 2 -0.004711 0.010663 -0.000026 0.000000 -0.002340 0.000000
# 3 0.004840 -0.000026 0.024379 0.000000 0.023078 0.000000
# 4 0.000000 0.000000 0.000000 0.021215 0.000000 -0.021607
# 5 0.023710 -0.002340 0.023078 0.000000 0.074272 0.000000
# 6 0.000000 0.000000 0.000000 -0.021607 0.000000 -0.012978
#
#
# Mechanical properties :
#
#
# Convention : Reuss Voigt Hill
#
# Bulk Modulus (GPa) = 18.79169 45.06481 31.92825
# Shear Modulus (GPa) = 32.66936 19.59445 26.13190
#
# Velocity S-wave (km/s) = 3.70416 2.86870 3.31287
# Velocity P-wave (km/s) = 5.11729 5.46803 5.29556
#
# Compressibility (1/GPa) = 0.05321502
#
# Stress axis : x y z
#
# Youngs Moduli (GPa) = 55.66366 93.77821 41.01827
#
# Poissons Ratio (x) = 0.44176 -0.19852
# Poissons Ratio (y) = 0.26221 0.00105
# Poissons Ratio (z) = -0.26940 0.00240
#
# Static dielectric constant tensor:
#      x y z
#    x 1.911600 0.000000 -0.016180 
#    y 0.000000 2.034760 0.000000 
#    z -0.016180 0.000000 2.036600 
# 
# From -- ./inp_files/118452.got.cif
#   From: 2010.05.17/outbox.cif.g08.bks.cpg/sg12_60_cif.got.tgz:118452.got - 2010.06.03 13:09:07.
