data_PCOD9213330
_publ_section_title
;
Structure prediction by ZEFSAII (Michael W. Deem and Ramdas Pophale) SiO2 
 PCOD9213330
Probable space group: C 2/M
;
_chemical_formula_sum "Si O2"
_cell_formula_units_Z 48
_cell_length_a 13.911923
_cell_length_b 7.370141
_cell_length_c 26.940153
_cell_angle_alpha 90.000000
_cell_angle_beta 136.540954
_cell_angle_gamma 90.000000
_cell_volume 1899.974921
_symmetry_space_group_name_H-M "C 2/M"
_symmetry_group_IT_number 12
_symmetry_cell_setting 'monoclinic'
loop_
_space_group_symop_operation_xyz
x,y,z
-x,y,-z
-x,-y,-z
x,-y,z
1/2+x,1/2+y,z
1/2-x,1/2+y,-z
1/2-x,1/2-y,-z
1/2+x,1/2-y,z
loop_
_atom_site_type_symbol
_atom_site_label
_atom_site_fract_x
_atom_site_fract_y
_atom_site_fract_z
Si Si1 0.604433 0.286889 0.133878
Si Si2 0.194828 0.719273 0.321787
Si Si3 0.864902 0.709277 0.287816
Si Si4 0.927863 0.281146 0.167899
Si Si5 0.173845 0.283242 0.419970
Si Si6 0.661446 0.717139 0.017469
O O1 0.625851 0.500000 0.130407
O O2 0.754711 0.210633 0.206817
O O3 0.513882 0.275449 0.150943
O O4 0.494639 0.212555 0.052247
O O5 0.201822 0.500000 0.320716
O O6 0.284238 0.792071 0.310029
O O7 0.244266 0.777032 0.394759
O O8 0.031876 0.771556 0.251273
O O9 0.885969 0.500000 0.279722
O O10 0.015807 0.788848 0.356700
O O11 0.921448 0.500000 0.165601
O O12 0.768240 0.217705 0.100278
O O13 0.165369 0.500000 0.413624
O O14 0.250000 0.250000 0.500000
O O15 0.646808 0.500000 0.017717
O O16 0.750000 0.750000 0.000000
#
# Coordination Sequence:
#
# PCOD9213330 Si02
#       6
#     8   8   8   8   8   8
#     4   8  13  22  38  61  89 120 153 187 224 267
#     4   9  18  33  52  73  98 128 160 195 237 284
#     4   9  18  33  52  73  98 128 160 195 237 284
#     4   8  13  22  38  61  89 120 153 187 224 267
#     4  10  22  38  54  73  97 125 157 196 244 294
#     4   8  12  18  32  57  87 117 150 186 220 259
#
# _framework density 25.263491999999999
#
# number of rings (size 3 to 8) (size 9 to 14) (size 15 to 20)
#    0.000    3.333    0.000    0.000    0.000    2.000 
#    0.000    3.333    0.000    1.000    0.000    7.000 
#    0.000    0.000    0.000  102.333    0.000   35.333 
#
# Total GULP energy -133967.464372 kJ/mol
# GULP energy per Si atom -5581.977682 kJ/mol
# Density = 2.520599 g / cm^3
# Si number density = 25.263492 Si / 1000 Ang^3
#
#
#
# Elastic Constant Matrix: (Units=GPa)
#
#
# Indices 1 2 3 4 5 6 
#
# 1 83.9595 -0.5515 55.0804 0.0000 -10.4458 0.0000
# 2 -0.5515 95.9230 8.5055 0.0000 -0.3790 0.0000
# 3 55.0804 8.5055 189.0622 0.0000 -29.4810 0.0000
# 4 0.0000 0.0000 0.0000 6.9465 0.0000 1.0587
# 5 -10.4458 -0.3790 -29.4810 0.0000 49.7708 0.0000
# 6 0.0000 0.0000 0.0000 1.0587 0.0000 -0.8805
#
#
#
# Elastic Compliance Matrix: (Units=1/GPa)
#
#
# Indices 1 2 3 4 5 6 
#
# 1 0.014762 0.000462 -0.004228 0.000000 0.000597 0.000000
# 2 0.000462 0.010483 -0.000638 0.000000 -0.000201 0.000000
# 3 -0.004228 -0.000638 0.007063 0.000000 0.003291 0.000000
# 4 0.000000 0.000000 0.000000 0.121664 0.000000 0.146281
# 5 0.000597 -0.000201 0.003291 0.000000 0.022165 0.000000
# 6 0.000000 0.000000 0.000000 0.146281 0.000000 -0.959809
#
#
# Mechanical properties :
#
#
# Convention : Reuss Voigt Hill
#
# Bulk Modulus (GPa) = 42.55181 55.00149 48.77665
# Shear Modulus (GPa) = -6.51865 31.56138 12.52137
#
# Velocity S-wave (km/s) = -1.60806 3.53836 2.22869
# Velocity P-wave (km/s) = 3.66496 6.20578 5.09626
#
# Compressibility (1/GPa) = 0.02350077
#
# Stress axis : x y z
#
# Youngs Moduli (GPa) = 67.74267 95.38869 141.58224
#
# Poissons Ratio (x) = -0.04408 0.59865
# Poissons Ratio (y) = -0.03131 0.09027
# Poissons Ratio (z) = 0.28644 0.06082
#
# Static dielectric constant tensor:
#      x y z
#    x 2.037440 0.000000 -0.006920 
#    y 0.000000 1.703740 0.000000 
#    z -0.006920 0.000000 2.024280 
# 
# From -- ./inp_files/360305.got.cif
#   From: 2010.05.17/outbox.cif.g08.bks.cpg/sg12_181_cif.got.tgz:360305.got - 2010.06.03 13:09:07.
