data_PCOD9213558
_publ_section_title
;
Structure prediction by ZEFSAII (Michael W. Deem and Ramdas Pophale) SiO2 
 PCOD9213558
Probable space group: C 2/M
;
_chemical_formula_sum "Si O2"
_cell_formula_units_Z 56
_cell_length_a 27.912953
_cell_length_b 17.666722
_cell_length_c 5.427070
_cell_angle_alpha 90.000000
_cell_angle_beta 73.933633
_cell_angle_gamma 90.000000
_cell_volume 2571.723398
_symmetry_space_group_name_H-M "C 2/M"
_symmetry_group_IT_number 12
_symmetry_cell_setting 'monoclinic'
loop_
_space_group_symop_operation_xyz
x,y,z
-x,y,-z
-x,-y,-z
x,-y,z
1/2+x,1/2+y,z
1/2-x,1/2+y,-z
1/2-x,1/2-y,-z
1/2+x,1/2-y,z
loop_
_atom_site_type_symbol
_atom_site_label
_atom_site_fract_x
_atom_site_fract_y
_atom_site_fract_z
Si Si1 0.319754 0.917805 0.689565
Si Si2 0.349412 0.587587 0.651169
Si Si3 0.251286 0.835152 0.097959
Si Si4 0.500000 0.823644 0.500000
Si Si5 0.893993 0.851541 0.096904
Si Si6 0.350867 0.811214 0.259117
Si Si7 0.500000 0.724902 0.000000
Si Si8 0.083974 0.417018 0.117832
O O1 0.338423 0.838699 0.547847
O O2 0.362959 0.927570 0.827486
O O3 0.318666 0.000000 0.553465
O O4 0.265614 0.897554 0.871178
O O5 0.335042 0.500000 0.690361
O O6 0.300073 0.639704 0.707980
O O7 0.381015 0.599957 0.357359
O O8 0.378598 0.611858 0.858562
O O9 0.299431 0.836310 0.203786
O O10 0.250000 0.750000 0.000000
O O11 0.491339 0.773644 0.264576
O O12 0.545753 0.877494 0.356974
O O13 0.862249 0.774302 0.177955
O O14 0.951272 0.825610 0.020229
O O15 0.400211 0.859025 0.116905
O O16 0.066004 0.500000 0.060413
#
# Coordination Sequence:
#
# PCOD9213558 Si02
#       8
#     8   8   8   4   8   8   4   8
#     4  10  22  38  60  92 138 187 233 283 338 408
#     4  12  28  49  73 108 147 182 228 295 359 421
#     4  11  23  41  66 100 135 185 233 280 344 417
#     4  12  23  42  68 104 139 186 232 296 351 410
#     4  12  26  48  76 104 141 182 236 296 355 420
#     4  11  22  40  68  97 138 187 240 283 337 417
#     4  12  26  46  78 106 134 180 244 302 354 418
#     4  10  22  39  59  96 143 186 233 284 343 408
#
# _framework density 21.775282000000001
#
# number of rings (size 3 to 8) (size 9 to 14) (size 15 to 20)
#    0.000    0.857    2.857    4.071    4.000    2.857 
#    0.000    2.857    0.000    0.000    0.000    0.000 
#    0.000    0.000    0.000    0.000    0.000    0.000 
#
# Total GULP energy -156225.695296 kJ/mol
# GULP energy per Si atom -5579.489118 kJ/mol
# Density = 2.172572 g / cm^3
# Si number density = 21.775282 Si / 1000 Ang^3
#
#
#
# Elastic Constant Matrix: (Units=GPa)
#
#
# Indices 1 2 3 4 5 6 
#
# 1 94.2001 32.0147 32.0832 0.0000 -11.7962 0.0000
# 2 32.0147 100.1529 18.7432 0.0000 -2.8227 0.0000
# 3 32.0832 18.7432 88.6831 0.0000 -9.9613 0.0000
# 4 0.0000 0.0000 0.0000 -7.1180 0.0000 28.4377
# 5 -11.7962 -2.8227 -9.9613 0.0000 32.1431 0.0000
# 6 0.0000 0.0000 0.0000 28.4377 0.0000 -23.1567
#
#
#
# Elastic Compliance Matrix: (Units=1/GPa)
#
#
# Indices 1 2 3 4 5 6 
#
# 1 0.013530 -0.003523 -0.003758 0.000000 0.003491 0.000000
# 2 -0.003523 0.011315 -0.001192 0.000000 -0.000669 0.000000
# 3 -0.003758 -0.001192 0.013180 0.000000 0.002601 0.000000
# 4 0.000000 0.000000 0.000000 0.035965 0.000000 0.044167
# 5 0.003491 -0.000669 0.002601 0.000000 0.033139 0.000000
# 6 0.000000 0.000000 0.000000 0.044167 0.000000 0.011055
#
#
# Mechanical properties :
#
#
# Convention : Reuss Voigt Hill
#
# Bulk Modulus (GPa) = 47.44169 49.85758 48.64963
# Shear Modulus (GPa) = 35.17231 13.72001 24.44616
#
# Velocity S-wave (km/s) = 4.02337 2.51285 3.35424
# Velocity P-wave (km/s) = 6.58920 5.60048 6.11485
#
# Compressibility (1/GPa) = 0.02107851
#
# Stress axis : x y z
#
# Youngs Moduli (GPa) = 73.90811 88.37647 75.87419
#
# Poissons Ratio (x) = 0.31138 0.28514
# Poissons Ratio (y) = 0.26041 0.09044
# Poissons Ratio (z) = 0.27775 0.10534
#
# Static dielectric constant tensor:
#      x y z
#    x 1.831460 0.000000 0.092200 
#    y 0.000000 1.820680 0.000000 
#    z 0.092200 0.000000 1.950060 
# 
# From -- ./inp_files/32003.got.cif
#   From: 2010.05.17/outbox.cif.g08.bks.cpg/sg12_17_cif.got.tgz:32003.got - 2010.06.03 13:09:07.
