data_PCOD9213204
_publ_section_title
;
Structure prediction by ZEFSAII (Michael W. Deem and Ramdas Pophale) SiO2 
 PCOD9213204
Probable space group: C 2/M
;
_chemical_formula_sum "Si O2"
_cell_formula_units_Z 58
_cell_length_a 26.885294
_cell_length_b 12.774236
_cell_length_c 9.013982
_cell_angle_alpha 90.000000
_cell_angle_beta 95.181491
_cell_angle_gamma 90.000000
_cell_volume 3083.103368
_symmetry_space_group_name_H-M "C 2/M"
_symmetry_group_IT_number 12
_symmetry_cell_setting 'monoclinic'
loop_
_space_group_symop_operation_xyz
x,y,z
-x,y,-z
-x,-y,-z
x,-y,z
1/2+x,1/2+y,z
1/2-x,1/2+y,-z
1/2-x,1/2-y,-z
1/2+x,1/2-y,z
loop_
_atom_site_type_symbol
_atom_site_label
_atom_site_fract_x
_atom_site_fract_y
_atom_site_fract_z
Si Si1 0.551494 0.120220 0.935729
Si Si2 0.500000 0.500000 0.000000
Si Si3 0.869069 0.258107 0.566228
Si Si4 0.911954 0.111188 0.809104
Si Si5 0.647399 0.732661 0.984848
Si Si6 0.318088 0.377257 0.306733
Si Si7 0.049790 0.620205 0.583356
Si Si8 0.299640 0.877533 0.780784
O O1 0.597798 0.195552 0.977523
O O2 0.544267 0.120911 0.757566
O O3 0.562736 0.000000 0.985604
O O4 0.500000 0.151072 0.000000
O O5 0.536954 0.589860 0.087309
O O6 0.908156 0.201470 0.687208
O O7 0.837540 0.173957 0.464122
O O8 0.900855 0.323214 0.457470
O O9 0.833980 0.330426 0.658916
O O10 0.901656 0.000000 0.729053
O O11 0.867880 0.136204 0.913646
O O12 0.660333 0.688371 0.827119
O O13 0.689356 0.804650 0.073196
O O14 0.332564 0.500000 0.299563
O O15 0.258187 0.370943 0.279793
O O16 0.053081 0.500000 0.532038
O O17 0.000000 0.668394 0.500000
O O18 0.311519 0.000000 0.811831
#
# Coordination Sequence:
#
# PCOD9213204 Si02
#       8
#     8   2   8   8   8   8   8   8
#     4  10  22  37  58  88 121 156 197 244 298 362
#     4   8  20  40  56  86 122 156 218 248 292 352
#     4  11  21  40  63  90 121 164 203 248 317 373
#     4   9  21  37  59  84 117 161 201 250 291 356
#     4  11  21  38  63  87 120 160 205 253 307 364
#     4  11  23  41  61  89 124 158 210 265 312 366
#     4  10  22  38  57  87 125 154 192 244 303 369
#     4  10  23  40  63  90 121 161 206 261 315 375
#
# _framework density 18.812214000000001
#
# number of rings (size 3 to 8) (size 9 to 14) (size 15 to 20)
#    0.414    1.379    1.379    2.483    4.828    0.000 
#    0.000    0.000    0.000    8.276    0.000    0.000 
#    0.000    0.000    0.000    0.000    0.000    0.000 
#
# Total GULP energy -161464.133424 kJ/mol
# GULP energy per Si atom -5567.728739 kJ/mol
# Density = 1.876940 g / cm^3
# Si number density = 18.812214 Si / 1000 Ang^3
#
#
#
# Elastic Constant Matrix: (Units=GPa)
#
#
# Indices 1 2 3 4 5 6 
#
# 1 79.2421 46.2909 21.1118 0.0000 5.6229 0.0000
# 2 46.2909 96.3746 29.3398 0.0000 1.5091 0.0000
# 3 21.1118 29.3398 65.8035 0.0000 0.1498 0.0000
# 4 0.0000 0.0000 0.0000 21.6139 0.0000 3.6830
# 5 5.6229 1.5091 0.1498 0.0000 34.9472 0.0000
# 6 0.0000 0.0000 0.0000 3.6830 0.0000 27.0797
#
#
#
# Elastic Compliance Matrix: (Units=1/GPa)
#
#
# Indices 1 2 3 4 5 6 
#
# 1 0.018036 -0.007941 -0.002240 0.000000 -0.002549 0.000000
# 2 -0.007941 0.015511 -0.004369 0.000000 0.000627 0.000000
# 3 -0.002240 -0.004369 0.017863 0.000000 0.000473 0.000000
# 4 0.000000 0.000000 0.000000 0.047364 0.000000 -0.006442
# 5 -0.002549 0.000627 0.000473 0.000000 0.028996 0.000000
# 6 0.000000 0.000000 0.000000 -0.006442 0.000000 0.037804
#
#
# Mechanical properties :
#
#
# Convention : Reuss Voigt Hill
#
# Bulk Modulus (GPa) = 44.82653 48.32278 46.57466
# Shear Modulus (GPa) = 24.73880 26.37336 25.55608
#
# Velocity S-wave (km/s) = 3.63028 3.74829 3.68976
# Velocity P-wave (km/s) = 6.43833 6.66901 6.55468
#
# Compressibility (1/GPa) = 0.02230822
#
# Stress axis : x y z
#
# Youngs Moduli (GPa) = 55.44344 64.47028 55.98306
#
# Poissons Ratio (x) = 0.51199 0.12540
# Poissons Ratio (y) = 0.44030 0.24462
# Poissons Ratio (z) = 0.12419 0.28170
#
# Static dielectric constant tensor:
#      x y z
#    x 1.635240 0.000000 0.020010 
#    y 0.000000 1.677910 0.000000 
#    z 0.020010 0.000000 1.647320 
# 
# From -- ./inp_files/103213.got.cif
#   From: 2010.05.17/outbox.cif.g08.bks.cpg/sg12_52_cif.got.tgz:103213.got - 2010.06.03 13:09:07.
