data_PCOD9213859
_publ_section_title
;
Structure prediction by ZEFSAII (Michael W. Deem and Ramdas Pophale) SiO2 
 PCOD9213859
Probable space group: C 2/M
;
_chemical_formula_sum "Si O2"
_cell_formula_units_Z 42
_cell_length_a 9.380190
_cell_length_b 25.223909
_cell_length_c 9.838373
_cell_angle_alpha 90.000000
_cell_angle_beta 61.639758
_cell_angle_gamma 90.000000
_cell_volume 2048.421485
_symmetry_space_group_name_H-M "C 2/M"
_symmetry_group_IT_number 12
_symmetry_cell_setting 'monoclinic'
loop_
_space_group_symop_operation_xyz
x,y,z
-x,y,-z
-x,-y,-z
x,-y,z
1/2+x,1/2+y,z
1/2-x,1/2+y,-z
1/2-x,1/2-y,-z
1/2+x,1/2-y,z
loop_
_atom_site_type_symbol
_atom_site_label
_atom_site_fract_x
_atom_site_fract_y
_atom_site_fract_z
Si Si1 0.883941 0.147931 0.668924
Si Si2 0.025342 0.214903 0.831673
Si Si3 0.500000 0.500000 0.000000
Si Si4 0.100957 0.942194 0.685108
Si Si5 0.161854 0.647169 0.346981
Si Si6 0.980323 0.658464 0.166991
O O1 0.700278 0.142345 0.707264
O O2 0.000000 0.171203 0.500000
O O3 0.895270 0.186168 0.794368
O O4 0.964073 0.092173 0.673283
O O5 0.200498 0.192269 0.709719
O O6 0.010768 0.277764 0.826222
O O7 0.000000 0.200439 0.000000
O O8 0.458522 0.454879 0.135297
O O9 0.257931 0.905163 0.625278
O O10 0.130918 0.000000 0.607719
O O11 0.110798 0.636723 0.213909
O O12 0.000000 0.662872 0.500000
O O13 0.000000 0.643225 0.000000
#
# Coordination Sequence:
#
# PCOD9213859 Si02
#       6
#     8   8   2   8   8   8
#     4  11  23  38  59  87 119 153 191 241 293 342
#     4  10  22  39  59  81 119 168 201 223 275 356
#     4   8  20  40  68  86  96 164 198 226 280 376
#     4   9  22  40  66  80 111 151 201 222 292 362
#     4  11  23  38  59  87 119 153 191 241 293 342
#     4  11  23  35  57  91 120 149 197 252 284 316
#
# _framework density 20.503594
#
# number of rings (size 3 to 8) (size 9 to 14) (size 15 to 20)
#    0.571    1.143    0.000    4.571    8.000    8.381 
#    0.000    0.952    0.000    2.286    0.000    0.000 
#    0.000    0.000    0.000    0.000    0.000    0.000 
#
# Total GULP energy -117078.402030 kJ/mol
# GULP energy per Si atom -5575.162001 kJ/mol
# Density = 2.045693 g / cm^3
# Si number density = 20.503594 Si / 1000 Ang^3
#
#
#
# Elastic Constant Matrix: (Units=GPa)
#
#
# Indices 1 2 3 4 5 6 
#
# 1 71.9378 18.1625 -14.6636 0.0000 3.5125 0.0000
# 2 18.1625 71.8438 5.6401 0.0000 5.4710 0.0000
# 3 -14.6636 5.6401 60.2567 0.0000 5.7578 0.0000
# 4 0.0000 0.0000 0.0000 35.0044 0.0000 28.1194
# 5 3.5125 5.4710 5.7578 0.0000 32.0972 0.0000
# 6 0.0000 0.0000 0.0000 28.1194 0.0000 26.8874
#
#
#
# Elastic Compliance Matrix: (Units=1/GPa)
#
#
# Indices 1 2 3 4 5 6 
#
# 1 0.015971 -0.004249 0.004459 0.000000 -0.001823 0.000000
# 2 -0.004249 0.015306 -0.002301 0.000000 -0.001731 0.000000
# 3 0.004459 -0.002301 0.018217 0.000000 -0.003364 0.000000
# 4 0.000000 0.000000 0.000000 0.178678 0.000000 -0.186865
# 5 -0.001823 -0.001731 -0.003364 0.000000 0.032253 0.000000
# 6 0.000000 0.000000 0.000000 -0.186865 0.000000 0.232619
#
#
# Mechanical properties :
#
#
# Convention : Reuss Voigt Hill
#
# Bulk Modulus (GPa) = 22.06929 24.70183 23.38556
# Shear Modulus (GPa) = 9.75931 31.79110 20.77520
#
# Velocity S-wave (km/s) = 2.18406 3.94193 3.18661
# Velocity P-wave (km/s) = 4.14091 5.72644 4.99696
#
# Compressibility (1/GPa) = 0.04531184
#
# Stress axis : x y z
#
# Youngs Moduli (GPa) = 62.61159 65.33516 54.89233
#
# Poissons Ratio (x) = 0.27760 -0.24474
# Poissons Ratio (y) = 0.26603 0.12632
# Poissons Ratio (z) = -0.27916 0.15035
#
# Static dielectric constant tensor:
#      x y z
#    x 1.732780 0.000000 0.017400 
#    y 0.000000 1.728240 0.000000 
#    z 0.017400 0.000000 1.766130 
# 
# From -- ./inp_files/42062.got.cif
#   From: 2010.05.17/outbox.cif.g08.bks.cpg/sg12_22_cif.got.tgz:42062.got - 2010.06.03 13:09:07.
