data_PCOD9213396
_publ_section_title
;
Structure prediction by ZEFSAII (Michael W. Deem and Ramdas Pophale) SiO2 
 PCOD9213396
Probable space group: C 2/M
;
_chemical_formula_sum "Si O2"
_cell_formula_units_Z 32
_cell_length_a 26.668841
_cell_length_b 10.955541
_cell_length_c 12.854090
_cell_angle_alpha 90.000000
_cell_angle_beta 160.027152
_cell_angle_gamma 90.000000
_cell_volume 1282.818221
_symmetry_space_group_name_H-M "C 2/M"
_symmetry_group_IT_number 12
_symmetry_cell_setting 'monoclinic'
loop_
_space_group_symop_operation_xyz
x,y,z
-x,y,-z
-x,-y,-z
x,-y,z
1/2+x,1/2+y,z
1/2-x,1/2+y,-z
1/2-x,1/2-y,-z
1/2+x,1/2-y,z
loop_
_atom_site_type_symbol
_atom_site_label
_atom_site_fract_x
_atom_site_fract_y
_atom_site_fract_z
Si Si1 0.994952 0.676247 0.610324
Si Si2 0.275729 0.866273 0.361955
Si Si3 0.448740 0.636000 0.780258
Si Si4 0.796062 0.136323 0.164240
O O1 0.863228 0.628957 0.423713
O O2 0.949072 0.818686 0.510278
O O3 0.000000 0.629262 0.500000
O O4 0.154497 0.641296 0.964231
O O5 0.344091 0.749563 0.552924
O O6 0.299836 0.000000 0.460564
O O7 0.101263 0.851908 0.014627
O O8 0.386430 0.500000 0.637427
O O9 0.500000 0.639604 0.000000
O O10 0.807432 0.000000 0.144886
O O11 0.750000 0.250000 0.000000
#
# Coordination Sequence:
#
# PCOD9213396 Si02
#       4
#     8   8   8   8
#     4  10  22  39  60  86 124 164 202 245 292 350
#     4  11  23  39  63  93 122 159 204 247 299 360
#     4  10  23  43  65  91 122 155 197 252 310 365
#     4  10  22  38  57  82 114 157 206 250 294 345
#
# _framework density 24.945077000000001
#
# number of rings (size 3 to 8) (size 9 to 14) (size 15 to 20)
#    0.000    1.750    0.000    3.000    0.000   16.000 
#    0.000    5.000    0.000    0.000    0.000    0.000 
#    0.000    0.000    0.000    0.000    0.000    0.000 
#
# Total GULP energy -89280.258313 kJ/mol
# GULP energy per Si atom -5580.016145 kJ/mol
# Density = 2.488830 g / cm^3
# Si number density = 24.945077 Si / 1000 Ang^3
#
#
#
# Elastic Constant Matrix: (Units=GPa)
#
#
# Indices 1 2 3 4 5 6 
#
# 1 81.6674 7.9736 12.5549 0.0000 2.3366 0.0000
# 2 7.9736 270.7071 69.0946 0.0000 -19.2140 0.0000
# 3 12.5549 69.0946 93.4028 0.0000 5.3141 0.0000
# 4 0.0000 0.0000 0.0000 36.4238 0.0000 -7.7696
# 5 2.3366 -19.2140 5.3141 0.0000 31.5471 0.0000
# 6 0.0000 0.0000 0.0000 -7.7696 0.0000 15.7147
#
#
#
# Elastic Compliance Matrix: (Units=1/GPa)
#
#
# Indices 1 2 3 4 5 6 
#
# 1 0.012516 0.000007 -0.001651 0.000000 -0.000645 0.000000
# 2 0.000007 0.004940 -0.003863 0.000000 0.003659 0.000000
# 3 -0.001651 -0.003863 0.014047 0.000000 -0.004597 0.000000
# 4 0.000000 0.000000 0.000000 0.030691 0.000000 0.015174
# 5 -0.000645 0.003659 -0.004597 0.000000 0.034749 0.000000
# 6 0.000000 0.000000 0.000000 0.015174 0.000000 0.071137
#
#
# Mechanical properties :
#
#
# Convention : Reuss Voigt Hill
#
# Bulk Modulus (GPa) = 48.80592 69.44707 59.12650
# Shear Modulus (GPa) = 26.89260 40.48071 33.68666
#
# Velocity S-wave (km/s) = 3.28696 4.03276 3.67881
# Velocity P-wave (km/s) = 5.83210 7.04164 6.46521
#
# Compressibility (1/GPa) = 0.02048932
#
# Stress axis : x y z
#
# Youngs Moduli (GPa) = 79.89546 202.44903 71.18710
#
# Poissons Ratio (x) = -0.00140 0.11752
# Poissons Ratio (y) = -0.00055 0.27500
# Poissons Ratio (z) = 0.13190 0.78208
#
# Static dielectric constant tensor:
#      x y z
#    x 2.106810 0.000000 -0.021190 
#    y 0.000000 2.022580 0.000000 
#    z -0.021190 0.000000 2.118750 
# 
# From -- ./inp_files/250658.got.cif
#   From: 2010.05.17/outbox.cif.g08.bks.cpg/sg12_126_cif.got.tgz:250658.got - 2010.06.03 13:09:07.
