data_PCOD9213256
_publ_section_title
;
Structure prediction by ZEFSAII (Michael W. Deem and Ramdas Pophale) SiO2 
 PCOD9213256
Probable space group: C 2/M
;
_chemical_formula_sum "Si O2"
_cell_formula_units_Z 48
_cell_length_a 14.733557
_cell_length_b 27.000006
_cell_length_c 8.401088
_cell_angle_alpha 90.000000
_cell_angle_beta 136.473110
_cell_angle_gamma 90.000000
_cell_volume 2301.621412
_symmetry_space_group_name_H-M "C 2/M"
_symmetry_group_IT_number 12
_symmetry_cell_setting 'monoclinic'
loop_
_space_group_symop_operation_xyz
x,y,z
-x,y,-z
-x,-y,-z
x,-y,z
1/2+x,1/2+y,z
1/2-x,1/2+y,-z
1/2-x,1/2-y,-z
1/2+x,1/2-y,z
loop_
_atom_site_type_symbol
_atom_site_label
_atom_site_fract_x
_atom_site_fract_y
_atom_site_fract_z
Si Si1 0.461384 0.643190 0.620282
Si Si2 0.254512 0.325115 0.913117
Si Si3 0.111262 0.409850 0.524951
Si Si4 0.526981 0.171553 0.848650
Si Si5 0.624909 0.445819 0.278843
Si Si6 0.661443 0.250219 0.544945
O O1 0.500000 0.620639 0.500000
O O2 0.384350 0.602405 0.622443
O O3 0.385299 0.694090 0.491063
O O4 0.594366 0.660031 0.878798
O O5 0.180485 0.366336 0.714254
O O6 0.177571 0.327696 0.982481
O O7 0.232963 0.274603 0.786925
O O8 0.232587 0.443093 0.623897
O O9 0.000000 0.432335 0.500000
O O10 0.039173 0.380451 0.289501
O O11 0.460202 0.214638 0.657111
O O12 0.500000 0.180366 0.000000
O O13 0.613115 0.500000 0.343424
O O14 0.500000 0.442293 0.000000
O O15 0.750000 0.250000 0.500000
#
# Coordination Sequence:
#
# PCOD9213256 Si02
#       6
#     8   8   8   8   8   8
#     4  12  26  40  66  93 130 179 215 268 330 383
#     4  10  22  42  58  90 138 167 217 264 311 402
#     4   9  19  41  66  92 129 170 210 268 329 388
#     4  10  22  37  61  91 129 172 213 260 315 388
#     4  11  24  44  70  97 126 167 223 280 330 387
#     4  11  25  38  59  91 129 177 213 259 324 387
#
# _framework density 20.854863000000002
#
# number of rings (size 3 to 8) (size 9 to 14) (size 15 to 20)
#    0.000    1.500    1.667    4.500    7.000    2.000 
#    0.000    0.000    0.000    0.500    0.000    0.000 
#    0.000    0.000    0.000    0.000    0.000    0.000 
#
# Total GULP energy -134147.519061 kJ/mol
# GULP energy per Si atom -5589.479961 kJ/mol
# Density = 2.080740 g / cm^3
# Si number density = 20.854863 Si / 1000 Ang^3
#
#
#
# Elastic Constant Matrix: (Units=GPa)
#
#
# Indices 1 2 3 4 5 6 
#
# 1 122.0089 45.5301 36.0198 0.0000 7.1276 0.0000
# 2 45.5301 100.2820 23.7378 0.0000 5.8907 0.0000
# 3 36.0198 23.7378 85.1935 0.0000 5.0064 0.0000
# 4 0.0000 0.0000 0.0000 -2.5511 0.0000 3.1102
# 5 7.1276 5.8907 5.0064 0.0000 37.1439 0.0000
# 6 0.0000 0.0000 0.0000 3.1102 0.0000 -3.7997
#
#
#
# Elastic Compliance Matrix: (Units=1/GPa)
#
#
# Indices 1 2 3 4 5 6 
#
# 1 0.010749 -0.004027 -0.003366 0.000000 -0.000970 0.000000
# 2 -0.004027 0.012247 -0.001654 0.000000 -0.000947 0.000000
# 3 -0.003366 -0.001654 0.013677 0.000000 -0.000935 0.000000
# 4 0.000000 0.000000 0.000000********** 0.000000**********
# 5 -0.000970 -0.000947 -0.000935 0.000000 0.027385 0.000000
# 6 0.000000 0.000000 0.000000********** 0.000000**********
#
#
# Mechanical properties :
#
#
# Convention : Reuss Voigt Hill
#
# Bulk Modulus (GPa) = 53.82195 57.56221 55.69208
# Shear Modulus (GPa) = -0.01576 19.63840 9.81132
#
# Velocity S-wave (km/s) = -0.08703 3.07199 2.17136
# Velocity P-wave (km/s) = 5.08466 6.34382 5.74882
#
# Compressibility (1/GPa) = 0.01857978
#
# Stress axis : x y z
#
# Youngs Moduli (GPa) = 93.03143 81.65085 73.11566
#
# Poissons Ratio (x) = 0.32877 0.24609
# Poissons Ratio (y) = 0.37460 0.12096
# Poissons Ratio (z) = 0.31312 0.13509
#
# Static dielectric constant tensor:
#      x y z
#    x 1.749700 0.000000 0.033060 
#    y 0.000000 1.733490 0.000000 
#    z 0.033060 0.000000 1.761180 
# 
# From -- ./inp_files/67420.got.cif
#   From: 2010.05.17/outbox.cif.g08.bks.cpg/sg12_34_cif.got.tgz:67420.got - 2010.06.03 13:09:07.
