data_PCOD9213412
_publ_section_title
;
Structure prediction by ZEFSAII (Michael W. Deem and Ramdas Pophale) SiO2 
 PCOD9213412
Probable space group: C 2/M
;
_chemical_formula_sum "Si O2"
_cell_formula_units_Z 64
_cell_length_a 26.525403
_cell_length_b 22.631353
_cell_length_c 14.023880
_cell_angle_alpha 90.000000
_cell_angle_beta 20.862808
_cell_angle_gamma 90.000000
_cell_volume 2998.134407
_symmetry_space_group_name_H-M "C 2/M"
_symmetry_group_IT_number 12
_symmetry_cell_setting 'monoclinic'
loop_
_space_group_symop_operation_xyz
x,y,z
-x,y,-z
-x,-y,-z
x,-y,z
1/2+x,1/2+y,z
1/2-x,1/2+y,-z
1/2-x,1/2-y,-z
1/2+x,1/2-y,z
loop_
_atom_site_type_symbol
_atom_site_label
_atom_site_fract_x
_atom_site_fract_y
_atom_site_fract_z
Si Si1 0.611053 0.235044 0.149753
Si Si2 0.152920 0.934475 0.679829
Si Si3 0.880074 0.895549 0.473869
Si Si4 0.671308 0.698652 0.702318
Si Si5 0.330156 0.634998 0.932476
Si Si6 0.285274 0.932442 0.048514
Si Si7 0.694271 0.265681 0.371854
Si Si8 0.532438 0.122031 0.538971
O O1 0.639033 0.297120 0.150172
O O2 0.465774 0.242727 0.347667
O O3 0.564517 0.181096 0.297669
O O4 0.738905 0.224415 0.850938
O O5 0.127201 0.929920 0.611805
O O6 0.215175 0.869753 0.601930
O O7 0.219830 0.000000 0.582063
O O8 0.000000 0.935399 0.000000
O O9 0.789632 0.922474 0.719135
O O10 0.817439 0.830440 0.562562
O O11 0.035446 0.887935 0.245771
O O12 0.750000 0.750000 0.500000
O O13 0.713547 0.718801 0.733937
O O14 0.500000 0.702187 0.000000
O O15 0.295215 0.600509 0.896756
O O16 0.197493 0.633250 0.240703
O O17 0.283438 0.000000 0.025670
O O18 0.448565 0.910824 0.769431
O O19 0.500000 0.085815 0.500000
#
# Coordination Sequence:
#
# PCOD9213412 Si02
#       8
#     8   8   8   8   8   8   8   8
#     4  11  21  38  61  90 132 159 208 257 323 377
#     4  10  23  41  64  93 132 171 209 259 327 394
#     4  11  22  41  66  96 125 163 217 265 321 376
#     4  11  22  39  65  97 126 160 208 266 327 380
#     4  10  24  38  62  95 127 169 210 264 310 377
#     4  11  24  43  64  87 124 171 218 263 311 375
#     4  11  22  36  63  99 122 161 209 268 316 386
#     4  10  22  38  57  87 127 171 209 256 319 374
#
# _framework density 21.346609000000001
#
# number of rings (size 3 to 8) (size 9 to 14) (size 15 to 20)
#    0.000    1.375    3.750    1.500    5.250    7.750 
#    0.000    0.000    0.000    1.125    0.000    0.000 
#    0.000    0.000    0.000    0.000    0.000    0.000 
#
# Total GULP energy -178450.058570 kJ/mol
# GULP energy per Si atom -5576.564330 kJ/mol
# Density = 2.129802 g / cm^3
# Si number density = 21.346609 Si / 1000 Ang^3
#
#
#
# Elastic Constant Matrix: (Units=GPa)
#
#
# Indices 1 2 3 4 5 6 
#
# 1 63.8603 37.7172 27.0735 -0.0104 15.9329 0.0000
# 2 37.7172 146.1090 35.1917 -0.0021 -0.8328 0.0020
# 3 27.0735 35.1917 125.4019 0.0029 14.0537 0.0051
# 4 -0.0104 -0.0021 0.0029 -90.9862 0.0049 -33.1270
# 5 15.9329 -0.8328 14.0537 0.0049 20.5240 -0.0067
# 6 0.0000 0.0020 0.0051 -33.1270 -0.0067 8.0817
#
#
#
# Elastic Compliance Matrix: (Units=1/GPa)
#
#
# Indices 1 2 3 4 5 6 
#
# 1 0.024398 -0.006030 -0.001544 0.000000 -0.018128 -0.000011
# 2 -0.006030 0.008896 -0.001906 0.000000 0.006347 0.000003
# 3 -0.001544 -0.001906 0.009441 0.000002 -0.005344 -0.000004
# 4 0.000000 0.000000 0.000002 -0.004410 -0.000006 -0.018075
# 5 -0.018128 0.006347 -0.005344 -0.000006 0.066713 0.000032
# 6 -0.000011 0.000003 -0.000004 -0.018075 0.000032 0.049646
#
#
# Mechanical properties :
#
#
# Convention : Reuss Voigt Hill
#
# Bulk Modulus (GPa) = 42.05849 59.48177 50.77013
# Shear Modulus (GPa) = 27.53789 3.21648 15.37719
#
# Velocity S-wave (km/s) = 3.59560 1.22884 2.68686
# Velocity P-wave (km/s) = 6.08139 5.47162 5.78454
#
# Compressibility (1/GPa) = 0.02377641
#
# Stress axis : x y z
#
# Youngs Moduli (GPa) = 40.98760 112.41025 105.91646
#
# Poissons Ratio (x) = 0.67779 0.16350
# Poissons Ratio (y) = 0.24714 0.20188
# Poissons Ratio (z) = 0.06327 0.21426
#
# Static dielectric constant tensor:
#      x y z
#    x 1.831660 0.000000 -0.000640 
#    y 0.000000 1.858330 0.000000 
#    z -0.000640 0.000000 1.782110 
# 
# From -- ./inp_files/251915.got.cif
#   From: 2010.05.17/outbox.cif.g08.bks.cpg/sg12_126_cif.got.tgz:251915.got - 2010.06.03 13:09:07.
