data_PCOD9213155
_publ_section_title
;
Structure prediction by ZEFSAII (Michael W. Deem and Ramdas Pophale) SiO2 
 PCOD9213155
Probable space group: C 2/M
;
_chemical_formula_sum "Si O2"
_cell_formula_units_Z 56
_cell_length_a 18.613488
_cell_length_b 24.378648
_cell_length_c 21.209459
_cell_angle_alpha 90.000000
_cell_angle_beta 160.541720
_cell_angle_gamma 90.000000
_cell_volume 3206.034424
_symmetry_space_group_name_H-M "C 2/M"
_symmetry_group_IT_number 12
_symmetry_cell_setting 'monoclinic'
loop_
_space_group_symop_operation_xyz
x,y,z
-x,y,-z
-x,-y,-z
x,-y,z
1/2+x,1/2+y,z
1/2-x,1/2+y,-z
1/2-x,1/2-y,-z
1/2+x,1/2-y,z
loop_
_atom_site_type_symbol
_atom_site_label
_atom_site_fract_x
_atom_site_fract_y
_atom_site_fract_z
Si Si1 0.445780 0.062295 0.303276
Si Si2 0.542534 0.563443 0.886405
Si Si3 0.223648 0.620721 0.721050
Si Si4 0.967716 0.766193 0.144073
Si Si5 0.799290 0.230994 0.864762
Si Si6 0.657006 0.714508 0.482714
Si Si7 0.630194 0.368923 0.357828
O O1 0.312339 0.073867 0.256363
O O2 0.630456 0.107711 0.452794
O O3 0.530244 0.000000 0.374063
O O4 0.284533 0.068941 0.111680
O O5 0.477808 0.500000 0.838962
O O6 0.394121 0.599048 0.811060
O O7 0.516979 0.583394 0.793441
O O8 0.274037 0.675970 0.801942
O O9 0.000000 0.629969 0.500000
O O10 0.153488 0.720163 0.308498
O O11 0.073199 0.819129 0.263710
O O12 0.750000 0.750000 0.000000
O O13 0.886529 0.779379 0.007230
O O14 0.567160 0.259909 0.678503
O O15 0.000000 0.263695 0.000000
O O16 0.750000 0.750000 0.500000
O O17 0.611207 0.655738 0.412220
#
# Coordination Sequence:
#
# PCOD9213155 Si02
#       7
#     8   8   8   8   8   8   8
#     4  11  23  36  52  76 109 149 199 243 287 343
#     4  11  24  39  56  80 115 159 202 244 291 343
#     4  12  23  34  54  75 114 156 201 244 292 332
#     4  11  22  37  59  80 111 152 199 247 300 362
#     4  12  25  38  56  86 114 153 204 253 293 354
#     4  10  22  37  56  81 108 147 197 246 303 355
#     4  11  21  35  57  77 105 144 194 244 291 340
#
# _framework density 17.467061000000001
#
# number of rings (size 3 to 8) (size 9 to 14) (size 15 to 20)
#    0.000    0.857    4.286    5.571    4.000    1.714 
#    0.000    0.000    0.000    0.000    0.000    0.000 
#    0.000    2.286    0.000    9.143    0.000    1.143 
#
# Total GULP energy -156190.724591 kJ/mol
# GULP energy per Si atom -5578.240164 kJ/mol
# Density = 1.742730 g / cm^3
# Si number density = 17.467061 Si / 1000 Ang^3
#
#
#
# Elastic Constant Matrix: (Units=GPa)
#
#
# Indices 1 2 3 4 5 6 
#
# 1 41.4583 41.6815 33.9774 0.0039 6.3444 -0.0503
# 2 41.6815 81.0344 46.4032 -0.0226 3.9440 -0.1371
# 3 33.9774 46.4032 132.9484 -0.0640 -4.9464 -0.0143
# 4 0.0039 -0.0226 -0.0640 23.8942 -0.0184 -4.1376
# 5 6.3444 3.9440 -4.9464 -0.0184 37.8523 -0.0619
# 6 -0.0503 -0.1371 -0.0143 -4.1376 -0.0619 21.2827
#
#
#
# Elastic Compliance Matrix: (Units=1/GPa)
#
#
# Indices 1 2 3 4 5 6 
#
# 1 0.054391 -0.024378 -0.005664 -0.000064 -0.007317 -0.000066
# 2 -0.024378 0.026555 -0.003004 0.000043 0.000927 0.000123
# 3 -0.005664 -0.003004 0.010114 0.000025 0.002584 -0.000014
# 4 -0.000064 0.000043 0.000025 0.043309 0.000044 0.008420
# 5 -0.007317 0.000927 0.002584 0.000044 0.027886 0.000080
# 6 -0.000066 0.000123 -0.000014 0.008420 0.000080 0.048624
#
#
# Mechanical properties :
#
#
# Convention : Reuss Voigt Hill
#
# Bulk Modulus (GPa) = 40.05051 55.50724 47.77887
# Shear Modulus (GPa) = 17.52576 25.49776 21.51176
#
# Velocity S-wave (km/s) = 3.17102 3.82483 3.51317
# Velocity P-wave (km/s) = 6.03209 7.16610 6.62341
#
# Compressibility (1/GPa) = 0.02496847
#
# Stress axis : x y z
#
# Youngs Moduli (GPa) = 18.38525 37.65813 98.87353
#
# Poissons Ratio (x) = 0.91801 0.56006
# Poissons Ratio (y) = 0.44819 0.29700
# Poissons Ratio (z) = 0.10414 0.11312
#
# Static dielectric constant tensor:
#      x y z
#    x 1.600060 -0.000670 -0.017380 
#    y -0.000670 1.671150 0.000020 
#    z -0.017380 0.000020 1.655290 
# 
# From -- ./inp_files/318297.got.cif
#   From: 2010.05.17/outbox.cif.g08.bks.cpg/sg12_160_cif.got.tgz:318297.got - 2010.06.03 13:09:07.
