data_PCOD9213820
_publ_section_title
;
Structure prediction by ZEFSAII (Michael W. Deem and Ramdas Pophale) SiO2 
 PCOD9213820
Probable space group: C 2/M
;
_chemical_formula_sum "Si O2"
_cell_formula_units_Z 56
_cell_length_a 21.177218
_cell_length_b 7.806597
_cell_length_c 17.961836
_cell_angle_alpha 90.000000
_cell_angle_beta 70.605349
_cell_angle_gamma 90.000000
_cell_volume 2800.979273
_symmetry_space_group_name_H-M "C 2/M"
_symmetry_group_IT_number 12
_symmetry_cell_setting 'monoclinic'
loop_
_space_group_symop_operation_xyz
x,y,z
-x,y,-z
-x,-y,-z
x,-y,z
1/2+x,1/2+y,z
1/2-x,1/2+y,-z
1/2-x,1/2-y,-z
1/2+x,1/2-y,z
loop_
_atom_site_type_symbol
_atom_site_label
_atom_site_fract_x
_atom_site_fract_y
_atom_site_fract_z
Si Si1 0.906706 0.207509 0.598788
Si Si2 0.059600 0.208369 0.575839
Si Si3 0.822202 0.200705 0.178649
Si Si4 0.826450 0.299753 0.770985
Si Si5 0.574817 0.198137 0.984209
Si Si6 0.920933 0.210267 0.266457
Si Si7 0.433960 0.300760 0.849054
O O1 0.902867 0.263107 0.514115
O O2 0.852883 0.279999 0.676559
O O3 0.981364 0.255881 0.597578
O O4 0.902949 0.000000 0.602937
O O5 0.086322 0.265981 0.645169
O O6 0.060744 0.000000 0.575081
O O7 0.748440 0.273776 0.194065
O O8 0.863714 0.271183 0.232625
O O9 0.811443 0.000000 0.199221
O O10 0.869615 0.214996 0.088389
O O11 0.825831 0.500000 0.791709
O O12 0.880002 0.214796 0.804856
O O13 0.588465 0.210882 0.066447
O O14 0.573650 0.000000 0.961248
O O15 0.500000 0.269856 0.000000
O O16 0.993865 0.264152 0.207440
O O17 0.921237 0.000000 0.265987
O O18 0.442530 0.500000 0.864658
#
# Coordination Sequence:
#
# PCOD9213820 Si02
#       7
#     8   8   8   8   8   8   8
#     4   9  16  30  54  81 109 142 184 229 275 327
#     4   8  14  27  53  85 107 132 185 241 268 309
#     4  10  22  39  58  79 109 152 191 223 268 333
#     4  11  23  37  53  80 119 150 179 228 284 329
#     4  11  23  38  58  87 118 141 172 229 288 327
#     4   9  16  31  57  84 103 135 190 235 263 309
#     4  11  21  36  63  85 105 144 191 230 267 326
#
# _framework density 19.993006999999999
#
# number of rings (size 3 to 8) (size 9 to 14) (size 15 to 20)
#    0.000    2.143    2.857    2.143    0.000    2.286 
#    0.000    2.143    0.000    0.000    0.000    0.000 
#    0.000    0.000    0.000    0.000    0.000    0.000 
#
# Total GULP energy -156294.603429 kJ/mol
# GULP energy per Si atom -5581.950122 kJ/mol
# Density = 1.994750 g / cm^3
# Si number density = 19.993007 Si / 1000 Ang^3
#
#
#
# Elastic Constant Matrix: (Units=GPa)
#
#
# Indices 1 2 3 4 5 6 
#
# 1 89.2322 0.0232 30.0520 0.0001 -5.3175 0.0000
# 2 0.0232 26.3055 -12.5468 0.0000 0.9874 0.0000
# 3 30.0520 -12.5468 100.5643 0.0001 8.3924 0.0000
# 4 0.0001 0.0000 0.0001 70.0359 0.0000 -31.6982
# 5 -5.3175 0.9874 8.3924 0.0000 30.6240 0.0000
# 6 0.0000 0.0000 0.0000 -31.6982 0.0000 32.1725
#
#
#
# Elastic Compliance Matrix: (Units=1/GPa)
#
#
# Indices 1 2 3 4 5 6 
#
# 1 0.012911 -0.002259 -0.004435 0.000000 0.003530 0.000000
# 2 -0.002259 0.041043 0.006078 0.000000 -0.003381 0.000000
# 3 -0.004435 0.006078 0.012391 0.000000 -0.004362 0.000000
# 4 0.000000 0.000000 0.000000 0.025770 0.000000 0.025390
# 5 0.003530 -0.003381 -0.004362 0.000000 0.034571 0.000000
# 6 0.000000 0.000000 0.000000 0.025390 0.000000 0.056098
#
#
# Mechanical properties :
#
#
# Convention : Reuss Voigt Hill
#
# Bulk Modulus (GPa) = 15.35778 27.90651 21.63214
# Shear Modulus (GPa) = 24.30470 39.80471 32.05470
#
# Velocity S-wave (km/s) = 3.49041 4.46683 4.00846
# Velocity P-wave (km/s) = 4.89308 6.37117 5.68041
#
# Compressibility (1/GPa) = 0.06511358
#
# Stress axis : x y z
#
# Youngs Moduli (GPa) = 77.45197 24.36484 80.70071
#
# Poissons Ratio (x) = 0.05504 0.35789
# Poissons Ratio (y) = 0.17497 -0.49049
# Poissons Ratio (z) = 0.34348 -0.14809
#
# Static dielectric constant tensor:
#      x y z
#    x 1.697990 0.000000 0.010130 
#    y 0.000000 1.729580 0.000000 
#    z 0.010130 0.000000 1.687100 
# 
# From -- ./inp_files/275025.got.cif
#   From: 2010.05.17/outbox.cif.g08.bks.cpg/sg12_138_cif.got.tgz:275025.got - 2010.06.03 13:09:07.
