data_PCOD9213271
_publ_section_title
;
Structure prediction by ZEFSAII (Michael W. Deem and Ramdas Pophale) SiO2 
 PCOD9213271
Probable space group: C 2/M
;
_chemical_formula_sum "Si O2"
_cell_formula_units_Z 52
_cell_length_a 19.666854
_cell_length_b 26.699302
_cell_length_c 5.181429
_cell_angle_alpha 90.000000
_cell_angle_beta 58.442643
_cell_angle_gamma 90.000000
_cell_volume 2318.373584
_symmetry_space_group_name_H-M "C 2/M"
_symmetry_group_IT_number 12
_symmetry_cell_setting 'monoclinic'
loop_
_space_group_symop_operation_xyz
x,y,z
-x,y,-z
-x,-y,-z
x,-y,z
1/2+x,1/2+y,z
1/2-x,1/2+y,-z
1/2-x,1/2-y,-z
1/2+x,1/2-y,z
loop_
_atom_site_type_symbol
_atom_site_label
_atom_site_fract_x
_atom_site_fract_y
_atom_site_fract_z
Si Si1 0.500000 0.276571 0.000000
Si Si2 0.191083 0.940778 0.735773
Si Si3 0.921987 0.861059 0.807982
Si Si4 0.444633 0.870812 0.857649
Si Si5 0.637039 0.784566 0.693771
Si Si6 0.280880 0.294838 0.113088
Si Si7 0.795995 0.440804 0.035664
O O1 0.458663 0.314694 0.889561
O O2 0.558952 0.240148 0.723517
O O3 0.231109 0.927259 0.384202
O O4 0.170179 0.000000 0.775763
O O5 0.116147 0.905383 0.947244
O O6 0.256002 0.933301 0.835261
O O7 0.000000 0.880119 0.500000
O O8 0.841331 0.833426 0.857404
O O9 0.500000 0.865169 0.500000
O O10 0.500000 0.881796 0.000000
O O11 0.395880 0.820583 0.020790
O O12 0.377404 0.911821 0.928293
O O13 0.677275 0.735275 0.736464
O O14 0.698952 0.815496 0.398501
O O15 0.250000 0.250000 0.000000
O O16 0.811100 0.500000 0.033868
#
# Coordination Sequence:
#
# PCOD9213271 Si02
#       7
#     4   8   8   8   8   8   8
#     4  10  22  42  57  88 133 172 218 276 340 376
#     4  10  23  44  71  98 129 173 219 275 336 397
#     4  11  24  38  63  92 129 172 219 282 337 397
#     4  12  26  40  67 100 135 181 216 274 332 399
#     4  10  22  39  58  89 129 169 226 266 327 389
#     4  10  22  37  62  87 119 175 222 274 321 393
#     4  10  23  45  70  98 134 172 222 276 329 399
#
# _framework density 22.429514999999999
#
# number of rings (size 3 to 8) (size 9 to 14) (size 15 to 20)
#    0.000    1.538    0.769    2.769    6.462    3.385 
#    0.000    0.385    0.000    0.000    0.000    0.000 
#    0.000    0.000    0.000    0.000    0.000    0.000 
#
# Total GULP energy -145104.865437 kJ/mol
# GULP energy per Si atom -5580.956363 kJ/mol
# Density = 2.237846 g / cm^3
# Si number density = 22.429515 Si / 1000 Ang^3
#
#
#
# Elastic Constant Matrix: (Units=GPa)
#
#
# Indices 1 2 3 4 5 6 
#
# 1 45.6886 14.4162 27.3224 0.0000 -10.0101 0.0000
# 2 14.4162 85.2487 44.1186 0.0000 -23.3503 0.0000
# 3 27.3224 44.1186 135.6271 0.0000 -25.8124 0.0000
# 4 0.0000 0.0000 0.0000 42.7756 0.0000 -23.9910
# 5 -10.0101 -23.3503 -25.8124 0.0000 40.2122 0.0000
# 6 0.0000 0.0000 0.0000 -23.9910 0.0000 61.6505
#
#
#
# Elastic Compliance Matrix: (Units=1/GPa)
#
#
# Indices 1 2 3 4 5 6 
#
# 1 0.025419 -0.001374 -0.004125 0.000000 0.002882 0.000000
# 2 -0.001374 0.015563 -0.003567 0.000000 0.006406 0.000000
# 3 -0.004125 -0.003567 0.009996 0.000000 0.003318 0.000000
# 4 0.000000 0.000000 0.000000 0.029905 0.000000 0.011637
# 5 0.002882 0.006406 0.003318 0.000000 0.031435 0.000000
# 6 0.000000 0.000000 0.000000 0.011637 0.000000 0.020749
#
#
# Mechanical properties :
#
#
# Convention : Reuss Voigt Hill
#
# Bulk Modulus (GPa) = 30.44518 48.69765 39.57141
# Shear Modulus (GPa) = 30.83593 40.97480 35.90537
#
# Velocity S-wave (km/s) = 3.71184 4.27877 4.00535
# Velocity P-wave (km/s) = 5.65452 6.79478 6.25071
#
# Compressibility (1/GPa) = 0.03284592
#
# Stress axis : x y z
#
# Youngs Moduli (GPa) = 39.34025 64.25419 100.04020
#
# Poissons Ratio (x) = 0.08831 0.41269
# Poissons Ratio (y) = 0.05407 0.35681
# Poissons Ratio (z) = 0.16229 0.22917
#
# Static dielectric constant tensor:
#      x y z
#    x 1.358690 0.000000 -0.258200 
#    y 0.000000 1.809830 0.000000 
#    z -0.258200 0.000000 1.847020 
# 
# From -- ./inp_files/22427.got.cif
#   From: 2010.05.17/outbox.cif.g08.bks.cpg/sg12_12_cif.got.tgz:22427.got - 2010.06.03 13:09:07.
