data_PCOD9213597
_publ_section_title
;
Structure prediction by ZEFSAII (Michael W. Deem and Ramdas Pophale) SiO2 
 PCOD9213597
Probable space group: C 2/M
;
_chemical_formula_sum "Si O2"
_cell_formula_units_Z 60
_cell_length_a 14.908569
_cell_length_b 19.688906
_cell_length_c 21.457349
_cell_angle_alpha 90.000000
_cell_angle_beta 152.432370
_cell_angle_gamma 90.000000
_cell_volume 2914.892478
_symmetry_space_group_name_H-M "C 2/M"
_symmetry_group_IT_number 12
_symmetry_cell_setting 'monoclinic'
loop_
_space_group_symop_operation_xyz
x,y,z
-x,y,-z
-x,-y,-z
x,-y,z
1/2+x,1/2+y,z
1/2-x,1/2+y,-z
1/2-x,1/2-y,-z
1/2+x,1/2-y,z
loop_
_atom_site_type_symbol
_atom_site_label
_atom_site_fract_x
_atom_site_fract_y
_atom_site_fract_z
Si Si1 0.263374 0.375736 0.924061
Si Si2 0.859502 0.919504 0.767152
Si Si3 0.441957 0.078112 0.321351
Si Si4 0.899473 0.697239 0.749201
Si Si5 0.500000 0.621544 0.500000
Si Si6 0.991781 0.170429 0.739341
Si Si7 0.118765 0.079170 0.437716
Si Si8 0.401493 0.224772 0.001668
O O1 0.203024 0.417179 0.826284
O O2 0.329922 0.300823 0.944007
O O3 0.061885 0.360340 0.835840
O O4 0.439904 0.407174 0.071401
O O5 0.677187 0.891054 0.694490
O O6 0.877873 0.880731 0.713775
O O7 0.837946 0.000000 0.744323
O O8 0.655076 0.101314 0.431672
O O9 0.471168 0.000000 0.356136
O O10 0.689575 0.666566 0.627579
O O11 0.905382 0.754369 0.698457
O O12 0.967306 0.729386 0.856422
O O13 0.550552 0.582217 0.467343
O O14 0.991924 0.135185 0.672129
O O15 0.211852 0.180162 0.898377
O O16 0.095513 0.000000 0.402678
O O17 0.500000 0.197859 0.000000
#
# Coordination Sequence:
#
# PCOD9213597 Si02
#       8
#     8   8   8   8   4   8   8   8
#     4  11  19  39  61  91 125 160 210 257 319 379
#     4  11  21  36  63  94 128 166 208 263 319 384
#     4  10  22  38  61  93 125 165 215 262 314 380
#     4  11  23  41  65  97 128 167 212 266 322 380
#     4  12  25  46  70  96 127 170 226 268 322 388
#     4  11  23  42  63  94 133 169 214 261 325 385
#     4  11  25  46  67  91 131 177 220 268 320 386
#     4  11  21  39  66  93 131 168 208 266 322 380
#
# _framework density 20.583949
#
# number of rings (size 3 to 8) (size 9 to 14) (size 15 to 20)
#    0.000    1.067    4.000    3.800    0.000    3.200 
#    0.000    2.000    0.000    1.600    0.000    0.000 
#    0.000    0.000    0.000    0.000    0.000    0.000 
#
# Total GULP energy -167425.550562 kJ/mol
# GULP energy per Si atom -5580.851685 kJ/mol
# Density = 2.053710 g / cm^3
# Si number density = 20.583949 Si / 1000 Ang^3
#
#
#
# Elastic Constant Matrix: (Units=GPa)
#
#
# Indices 1 2 3 4 5 6 
#
# 1 112.2058 22.9945 13.2097 0.0007 13.4060 -0.0006
# 2 22.9945 60.6354 19.1822 0.0105 4.5246 0.0021
# 3 13.2097 19.1822 61.8892 0.0123 11.5304 -0.0094
# 4 0.0007 0.0105 0.0123 15.4639 0.0023 -0.2155
# 5 13.4060 4.5246 11.5304 0.0023 35.4140 -0.0012
# 6 -0.0006 0.0021 -0.0094 -0.2155 -0.0012 71.8865
#
#
#
# Elastic Compliance Matrix: (Units=1/GPa)
#
#
# Indices 1 2 3 4 5 6 
#
# 1 0.010054 -0.003419 -0.000488 0.000003 -0.003210 0.000000
# 2 -0.003419 0.019456 -0.005407 -0.000009 0.000569 -0.000001
# 3 -0.000488 -0.005407 0.018923 -0.000011 -0.005285 0.000003
# 4 0.000003 -0.000009 -0.000011 0.064670 -0.000001 0.000194
# 5 -0.003210 0.000569 -0.005285 -0.000001 0.031101 0.000000
# 6 0.000000 -0.000001 0.000003 0.000194 0.000000 0.013911
#
#
# Mechanical properties :
#
#
# Convention : Reuss Voigt Hill
#
# Bulk Modulus (GPa) = 33.55063 38.38923 35.96993
# Shear Modulus (GPa) = 26.78423 36.50915 31.64669
#
# Velocity S-wave (km/s) = 3.61115 4.21607 3.92528
# Velocity P-wave (km/s) = 5.80707 6.51083 6.16899
#
# Compressibility (1/GPa) = 0.02980570
#
# Stress axis : x y z
#
# Youngs Moduli (GPa) = 99.46482 51.39685 52.84686
#
# Poissons Ratio (x) = 0.17571 0.02580
# Poissons Ratio (y) = 0.34004 0.28573
# Poissons Ratio (z) = 0.04856 0.27789
#
# Static dielectric constant tensor:
#      x y z
#    x 1.776810 0.000000 0.012030 
#    y 0.000000 1.724430 0.000000 
#    z 0.012030 0.000000 1.730300 
# 
# From -- ./inp_files/312154.got.cif
#   From: 2010.05.17/outbox.cif.g08.bks.cpg/sg12_157_cif.got.tgz:312154.got - 2010.06.03 13:09:07.
