data_PCOD9213857
_publ_section_title
;
Structure prediction by ZEFSAII (Michael W. Deem and Ramdas Pophale) SiO2 
 PCOD9213857
Probable space group: C 2/M
;
_chemical_formula_sum "Si O2"
_cell_formula_units_Z 64
_cell_length_a 20.774377
_cell_length_b 8.501725
_cell_length_c 36.808123
_cell_angle_alpha 90.000000
_cell_angle_beta 147.632222
_cell_angle_gamma 90.000000
_cell_volume 3480.311071
_symmetry_space_group_name_H-M "C 2/M"
_symmetry_group_IT_number 12
_symmetry_cell_setting 'monoclinic'
loop_
_space_group_symop_operation_xyz
x,y,z
-x,y,-z
-x,-y,-z
x,-y,z
1/2+x,1/2+y,z
1/2-x,1/2+y,-z
1/2-x,1/2-y,-z
1/2+x,1/2-y,z
loop_
_atom_site_type_symbol
_atom_site_label
_atom_site_fract_x
_atom_site_fract_y
_atom_site_fract_z
Si Si1 0.982362 0.312267 0.079783
Si Si2 0.719123 0.688425 0.156165
Si Si3 0.134885 0.808118 0.556052
Si Si4 0.510720 0.191247 0.707496
Si Si5 0.218738 0.689937 0.445366
Si Si6 0.217476 0.690717 0.073952
Si Si7 0.634820 0.810435 0.290222
Si Si8 0.461339 0.312504 0.150228
O O1 0.977991 0.500000 0.078778
O O2 0.951834 0.248590 0.104902
O O3 0.113910 0.257634 0.130432
O O4 0.886412 0.259832 0.003603
O O5 0.716217 0.500000 0.157158
O O6 0.699563 0.739258 0.105187
O O7 0.852631 0.744779 0.231150
O O8 0.188459 0.760281 0.542327
O O9 0.232677 0.761096 0.633201
O O10 0.000000 0.753669 0.500000
O O11 0.133557 0.000000 0.555320
O O12 0.414008 0.241385 0.631273
O O13 0.455190 0.237978 0.719978
O O14 0.511791 0.000000 0.707819
O O15 0.219918 0.500000 0.446346
O O16 0.250000 0.750000 0.500000
O O17 0.215618 0.500000 0.075852
O O18 0.345779 0.740818 0.118540
O O19 0.581616 0.744347 0.227803
O O20 0.633783 0.000000 0.287838
O O21 0.459972 0.500000 0.148952
#
# Coordination Sequence:
#
# PCOD9213857 Si02
#       8
#     8   8   8   8   8   8   8   8
#     4  11  24  40  55  77 112 146 178 223 278 324
#     4  11  21  36  59  83 109 143 183 223 269 324
#     4   8  15  30  54  80 106 137 178 221 257 308
#     4   8  16  32  54  77 104 143 181 215 259 316
#     4   9  17  32  53  77 107 140 175 215 261 309
#     4  10  22  39  59  81 107 141 180 226 272 322
#     4   9  16  32  57  80 104 142 184 219 264 318
#     4  11  22  37  57  82 110 140 181 227 271 320
#
# _framework density 18.38916
#
# number of rings (size 3 to 8) (size 9 to 14) (size 15 to 20)
#    0.000    2.375    1.250    3.375    0.000    3.000 
#    2.250    3.750    0.000    0.750    0.000    0.000 
#    0.000    0.000    0.000    0.000    0.000    0.000 
#
# Total GULP energy -178552.072269 kJ/mol
# GULP energy per Si atom -5579.752258 kJ/mol
# Density = 1.834731 g / cm^3
# Si number density = 18.389160 Si / 1000 Ang^3
#
#
#
# Elastic Constant Matrix: (Units=GPa)
#
#
# Indices 1 2 3 4 5 6 
#
# 1 22.5749 2.3977 -1.5091 0.0000 7.2848 -0.0002
# 2 2.3977 12.8207 7.2950 -0.0002 0.4574 -0.0001
# 3 -1.5091 7.2950 91.3820 0.0000 6.8677 0.0000
# 4 0.0000 -0.0002 0.0000 25.8676 0.0000 -7.5497
# 5 7.2848 0.4574 6.8677 0.0000 33.8843 0.0000
# 6 -0.0002 -0.0001 0.0000 -7.5497 0.0000 26.5162
#
#
#
# Elastic Compliance Matrix: (Units=1/GPa)
#
#
# Indices 1 2 3 4 5 6 
#
# 1 0.049060 -0.010176 0.002442 0.000000 -0.010905 0.000000
# 2 -0.010176 0.083823 -0.007046 0.000001 0.002484 0.000000
# 3 0.002442 -0.007046 0.011757 0.000000 -0.002813 0.000000
# 4 0.000000 0.000001 0.000000 0.042162 0.000000 0.012004
# 5 -0.010905 0.002484 -0.002813 0.000000 0.032393 0.000000
# 6 0.000000 0.000000 0.000000 0.012004 0.000000 0.041131
#
#
# Mechanical properties :
#
#
# Convention : Reuss Voigt Hill
#
# Bulk Modulus (GPa) = 8.68957 15.90496 12.29726
# Shear Modulus (GPa) = 15.23251 25.15990 20.19620
#
# Velocity S-wave (km/s) = 2.88122 3.70292 3.31761
# Velocity P-wave (km/s) = 3.97545 5.19134 4.62354
#
# Compressibility (1/GPa) = 0.11508053
#
# Stress axis : x y z
#
# Youngs Moduli (GPa) = 20.38320 11.92995 85.05354
#
# Poissons Ratio (x) = 0.12139 -0.20770
# Poissons Ratio (y) = 0.20741 0.59931
# Poissons Ratio (z) = -0.04978 0.08406
#
# Static dielectric constant tensor:
#      x y z
#    x 1.605890 0.000000 0.020170 
#    y 0.000000 1.630860 0.000000 
#    z 0.020170 0.000000 1.640330 
# 
# From -- ./inp_files/378461.got.cif
#   From: 2010.05.17/outbox.cif.g08.bks.cpg/sg12_190_cif.got.tgz:378461.got - 2010.06.03 13:09:07.
