data_PCOD9213097
_publ_section_title
;
Structure prediction by ZEFSAII (Michael W. Deem and Ramdas Pophale) SiO2 
 PCOD9213097
Probable space group: C 2/M
;
_chemical_formula_sum "Si O2"
_cell_formula_units_Z 54
_cell_length_a 8.634984
_cell_length_b 17.786731
_cell_length_c 22.316641
_cell_angle_alpha 90.000000
_cell_angle_beta 126.958099
_cell_angle_gamma 90.000000
_cell_volume 2738.887965
_symmetry_space_group_name_H-M "C 2/M"
_symmetry_group_IT_number 12
_symmetry_cell_setting 'monoclinic'
loop_
_space_group_symop_operation_xyz
x,y,z
-x,y,-z
-x,-y,-z
x,-y,z
1/2+x,1/2+y,z
1/2-x,1/2+y,-z
1/2-x,1/2-y,-z
1/2+x,1/2-y,z
loop_
_atom_site_type_symbol
_atom_site_label
_atom_site_fract_x
_atom_site_fract_y
_atom_site_fract_z
Si Si1 0.841780 0.384227 0.119297
Si Si2 0.624031 0.914487 0.286470
Si Si3 0.000000 0.000000 0.000000
Si Si4 0.654621 0.082948 0.088948
Si Si5 0.879909 0.321435 0.598751
Si Si6 0.172318 0.218835 0.736811
Si Si7 0.500000 0.218241 0.500000
Si Si8 0.573357 0.282184 0.843613
O O1 0.813617 0.294140 0.112011
O O2 0.918114 0.405188 0.203858
O O3 0.026772 0.400221 0.118339
O O4 0.662483 0.434207 0.056318
O O5 0.624647 0.890907 0.356267
O O6 0.754971 0.853513 0.282149
O O7 0.688195 0.000000 0.293726
O O8 0.812809 0.144992 0.108787
O O9 0.743921 0.000000 0.115450
O O10 0.500000 0.081260 0.000000
O O11 0.681120 0.273520 0.555998
O O12 0.934207 0.331076 0.541770
O O13 0.049223 0.269683 0.664739
O O14 0.354265 0.262468 0.808570
O O15 0.049210 0.202546 0.766891
#
# Coordination Sequence:
#
# PCOD9213097 Si02
#       8
#     8   8   2   8   8   8   4   8
#     4  11  23  41  63  91 125 170 220 273 323 393
#     4  11  21  39  66  94 128 171 215 263 322 383
#     4  12  24  40  66  92 130 172 224 272 342 382
#     4  11  24  43  57  83 127 167 210 272 341 395
#     4  11  20  40  64 102 127 170 217 257 314 393
#     4  11  20  38  65  96 125 157 220 267 303 387
#     4  10  22  36  70  96 136 172 210 260 326 378
#     4  11  22  38  66  91 119 166 217 275 323 379
#
# _framework density 19.716031000000001
#
# number of rings (size 3 to 8) (size 9 to 14) (size 15 to 20)
#    0.000    1.037    8.889    0.000    1.037    1.778 
#    0.000    1.481    0.000    2.667    0.000    0.000 
#    0.000    0.000    0.000    0.000    0.000    0.000 
#
# Total GULP energy -150302.467459 kJ/mol
# GULP energy per Si atom -5566.758054 kJ/mol
# Density = 1.967116 g / cm^3
# Si number density = 19.716031 Si / 1000 Ang^3
#
#
#
# Elastic Constant Matrix: (Units=GPa)
#
#
# Indices 1 2 3 4 5 6 
#
# 1 43.4428 19.5741 9.5936 0.0000 -2.4747 0.0000
# 2 19.5741 154.9688 25.8885 0.0000 19.8180 0.0000
# 3 9.5936 25.8885 63.8875 0.0000 7.4938 0.0000
# 4 0.0000 0.0000 0.0000 15.9710 0.0000 -2.9938
# 5 -2.4747 19.8180 7.4938 0.0000 35.7766 0.0000
# 6 0.0000 0.0000 0.0000 -2.9938 0.0000 21.3743
#
#
#
# Elastic Compliance Matrix: (Units=1/GPa)
#
#
# Indices 1 2 3 4 5 6 
#
# 1 0.025376 -0.003240 -0.002987 0.000000 0.004176 0.000000
# 2 -0.003240 0.007745 -0.002176 0.000000 -0.004058 0.000000
# 3 -0.002987 -0.002176 0.017290 0.000000 -0.002623 0.000000
# 4 0.000000 0.000000 0.000000 0.064302 0.000000 0.009006
# 5 0.004176 -0.004058 -0.002623 0.000000 0.031038 0.000000
# 6 0.000000 0.000000 0.000000 0.009006 0.000000 0.048047
#
#
# Mechanical properties :
#
#
# Convention : Reuss Voigt Hill
#
# Bulk Modulus (GPa) = 29.75772 41.37904 35.56838
# Shear Modulus (GPa) = 22.54223 28.44056 25.49140
#
# Velocity S-wave (km/s) = 3.38501 3.80216 3.59963
# Velocity P-wave (km/s) = 5.51395 6.34888 5.94609
#
# Compressibility (1/GPa) = 0.03360472
#
# Stress axis : x y z
#
# Youngs Moduli (GPa) = 39.40681 129.12125 57.83543
#
# Poissons Ratio (x) = 0.41838 0.17278
# Poissons Ratio (y) = 0.12769 0.12583
# Poissons Ratio (z) = 0.11773 0.28093
#
# Static dielectric constant tensor:
#      x y z
#    x 1.834670 0.000000 0.007350 
#    y 0.000000 1.713480 0.000000 
#    z 0.007350 0.000000 1.725720 
# 
# From -- ./inp_files/333415.got.cif
#   From: 2010.05.17/outbox.cif.g08.bks.cpg/sg12_167_cif.got.tgz:333415.got - 2010.06.03 13:09:07.
