data_PCOD9213257
_publ_section_title
;
Structure prediction by ZEFSAII (Michael W. Deem and Ramdas Pophale) SiO2 
 PCOD9213257
Probable space group: C 2/M
;
_chemical_formula_sum "Si O2"
_cell_formula_units_Z 56
_cell_length_a 9.255751
_cell_length_b 17.477937
_cell_length_c 26.206209
_cell_angle_alpha 90.000000
_cell_angle_beta 39.366181
_cell_angle_gamma 90.000000
_cell_volume 2688.952579
_symmetry_space_group_name_H-M "C 2/M"
_symmetry_group_IT_number 12
_symmetry_cell_setting 'monoclinic'
loop_
_space_group_symop_operation_xyz
x,y,z
-x,y,-z
-x,-y,-z
x,-y,z
1/2+x,1/2+y,z
1/2-x,1/2+y,-z
1/2-x,1/2-y,-z
1/2+x,1/2-y,z
loop_
_atom_site_type_symbol
_atom_site_label
_atom_site_fract_x
_atom_site_fract_y
_atom_site_fract_z
Si Si1 0.024302 0.695683 0.179415
Si Si2 0.911319 0.271429 0.725135
Si Si3 0.265747 0.345666 0.918492
Si Si4 0.368211 0.409310 0.250399
Si Si5 0.251355 0.305771 0.547257
Si Si6 0.081739 0.086803 0.919554
Si Si7 0.930381 0.409165 0.575858
O O1 0.981291 0.721697 0.249001
O O2 0.192325 0.756786 0.106797
O O3 0.161505 0.618031 0.147595
O O4 0.781009 0.706088 0.220024
O O5 0.779689 0.350365 0.744357
O O6 0.104703 0.264185 0.630637
O O7 0.379178 0.392583 0.840426
O O8 0.416686 0.365245 0.927391
O O9 0.000000 0.361403 0.000000
O O10 0.318268 0.500000 0.256942
O O11 0.298771 0.389967 0.328349
O O12 0.500000 0.322273 0.500000
O O13 0.250000 0.250000 0.500000
O O14 0.124844 0.381158 0.561587
O O15 0.074474 0.000000 0.902569
O O16 0.000000 0.089237 0.000000
O O17 0.925950 0.500000 0.572119
O O18 0.000000 0.378902 0.500000
#
# Coordination Sequence:
#
# PCOD9213257 Si02
#       7
#     8   8   8   8   8   8   8
#     4  11  21  40  64  91 123 165 214 265 309 379
#     4  10  22  37  61  92 120 162 212 260 317 380
#     4  11  24  38  63  96 126 169 216 262 315 385
#     4   9  18  37  60  87 122 164 209 257 314 374
#     4  11  22  37  59  91 127 163 202 264 323 382
#     4  11  25  43  64  91 127 168 209 264 324 374
#     4   9  19  37  64  92 124 168 213 259 320 386
#
# _framework density 20.825952000000001
#
# number of rings (size 3 to 8) (size 9 to 14) (size 15 to 20)
#    0.000    1.714    2.857    2.143    2.000    4.857 
#    0.000    0.000    0.000    2.571    0.000    0.000 
#    0.000    0.000    0.000    0.000    0.000    0.000 
#
# Total GULP energy -156206.428693 kJ/mol
# GULP energy per Si atom -5578.801025 kJ/mol
# Density = 2.077855 g / cm^3
# Si number density = 20.825952 Si / 1000 Ang^3
#
#
#
# Elastic Constant Matrix: (Units=GPa)
#
#
# Indices 1 2 3 4 5 6 
#
# 1 59.1506 8.5100 34.5996 -0.0047 9.3318 -0.0011
# 2 8.5100 40.8949 16.6854 -0.0026 8.1405 0.0004
# 3 34.5996 16.6854 149.4606 -0.0132 0.4494 -0.0020
# 4 -0.0047 -0.0026 -0.0132 13.8581 0.0026 5.7197
# 5 9.3318 8.1405 0.4494 0.0026 36.1486 0.0002
# 6 -0.0011 0.0004 -0.0020 5.7197 0.0002 14.7770
#
#
#
# Elastic Compliance Matrix: (Units=1/GPa)
#
#
# Indices 1 2 3 4 5 6 
#
# 1 0.020574 -0.001427 -0.004589 0.000003 -0.004933 0.000000
# 2 -0.001427 0.026965 -0.002663 0.000004 -0.005671 -0.000003
# 3 -0.004589 -0.002663 0.008045 0.000006 0.001684 -0.000001
# 4 0.000003 0.000004 0.000006 0.085880 -0.000008 -0.033241
# 5 -0.004933 -0.005671 0.001684 -0.000008 0.030193 0.000003
# 6 0.000000 -0.000003 -0.000001 -0.033241 0.000003 0.080539
#
#
# Mechanical properties :
#
#
# Convention : Reuss Voigt Hill
#
# Bulk Modulus (GPa) = 26.15976 41.01068 33.58522
# Shear Modulus (GPa) = 17.71196 25.60417 21.65806
#
# Velocity S-wave (km/s) = 2.91945 3.51013 3.22833
# Velocity P-wave (km/s) = 4.89415 6.01356 5.48250
#
# Compressibility (1/GPa) = 0.03822665
#
# Stress axis : x y z
#
# Youngs Moduli (GPa) = 48.60619 37.08481 124.29823
#
# Poissons Ratio (x) = 0.05293 0.57035
# Poissons Ratio (y) = 0.06937 0.33099
# Poissons Ratio (z) = 0.22303 0.09875
#
# Static dielectric constant tensor:
#      x y z
#    x 1.716710 0.000000 0.012020 
#    y 0.000000 1.769150 0.000000 
#    z 0.012020 0.000000 1.797100 
# 
# From -- ./inp_files/356630.got.cif
#   From: 2010.05.17/outbox.cif.g08.bks.cpg/sg12_179_cif.got.tgz:356630.got - 2010.06.03 13:09:07.
