data_PCOD9213355
_publ_section_title
;
Structure prediction by ZEFSAII (Michael W. Deem and Ramdas Pophale) SiO2 
 PCOD9213355
Probable space group: C 2/M
;
_chemical_formula_sum "Si O2"
_cell_formula_units_Z 40
_cell_length_a 31.573038
_cell_length_b 7.534707
_cell_length_c 29.992640
_cell_angle_alpha 90.000000
_cell_angle_beta 161.795202
_cell_angle_gamma 90.000000
_cell_volume 2229.094986
_symmetry_space_group_name_H-M "C 2/M"
_symmetry_group_IT_number 12
_symmetry_cell_setting 'monoclinic'
loop_
_space_group_symop_operation_xyz
x,y,z
-x,y,-z
-x,-y,-z
x,-y,z
1/2+x,1/2+y,z
1/2-x,1/2+y,-z
1/2-x,1/2-y,-z
1/2+x,1/2-y,z
loop_
_atom_site_type_symbol
_atom_site_label
_atom_site_fract_x
_atom_site_fract_y
_atom_site_fract_z
Si Si1 0.588989 0.500000 0.544824
Si Si2 0.595791 0.787735 0.795787
Si Si3 0.590431 0.210557 0.472145
Si Si4 0.095779 0.787734 0.895780
Si Si5 0.911011 0.500000 0.866846
Si Si6 0.409560 0.710557 0.791272
O O1 0.500000 0.500000 0.500000
O O2 0.560175 0.328593 0.485102
O O3 0.750001 0.500000 0.716214
O O4 0.499294 0.727585 0.659472
O O5 0.545672 0.750003 0.795670
O O6 0.602532 0.000000 0.798528
O O7 0.750007 0.717550 0.946368
O O8 0.749995 0.233723 0.621425
O O9 0.567269 0.000000 0.456759
O O10 0.999279 0.727587 0.839098
O O11 0.102516 0.000000 0.906516
O O12 0.939822 0.328593 0.864747
O O13 0.000000 0.500000 0.000000
O O14 0.432722 0.500000 0.822211
#
# Coordination Sequence:
#
# PCOD9213355 Si02
#       6
#     4   8   8   8   4   8
#     4  10  22  38  56  80 104 132 174 218 263 312
#     4   9  18  31  48  74 105 137 173 211 253 302
#     4   9  19  36  54  74 104 137 170 212 257 305
#     4   9  18  31  48  74 105 137 173 211 253 302
#     4  10  22  38  56  80 104 132 174 218 263 312
#     4   9  19  36  54  74 104 137 170 212 257 305
#
# _framework density 17.944502
#
# number of rings (size 3 to 8) (size 9 to 14) (size 15 to 20)
#    0.000    2.800    0.000    0.000    2.800    3.200 
#    0.000    0.000    0.000    0.000    0.000    0.000 
#    0.000    0.000    0.000    0.000    0.000    0.000 
#
# Total GULP energy -111517.491030 kJ/mol
# GULP energy per Si atom -5575.874551 kJ/mol
# Density = 1.790366 g / cm^3
# Si number density = 17.944502 Si / 1000 Ang^3
#
#
#
# Elastic Constant Matrix: (Units=GPa)
#
#
# Indices 1 2 3 4 5 6 
#
# 1 198.9819 57.6236 104.0186 0.0008 -2.8385 0.0000
# 2 57.6236 70.6827 44.0024 0.0022 -3.8889 0.0007
# 3 104.0186 44.0024 91.3426 0.0093 -27.8902 0.0027
# 4 0.0008 0.0022 0.0093 14.3431 0.0025 -3.6795
# 5 -2.8385 -3.8889 -27.8902 0.0025 35.3565 0.0004
# 6 0.0000 0.0007 0.0027 -3.6795 0.0004 27.2317
#
#
#
# Elastic Compliance Matrix: (Units=1/GPa)
#
#
# Indices 1 2 3 4 5 6 
#
# 1 0.020327 0.001223 -0.030557 0.000024 -0.022338 0.000007
# 2 0.001223 0.021770 -0.014646 0.000008 -0.009061 0.000002
# 3 -0.030557 -0.014646 0.067919 -0.000052 0.049513 -0.000014
# 4 0.000024 0.000008 -0.000052 0.072223 -0.000044 0.009759
# 5 -0.022338 -0.009061 0.049513 -0.000044 0.064550 -0.000011
# 6 0.000007 0.000002 -0.000014 0.009759 -0.000011 0.038041
#
#
# Mechanical properties :
#
#
# Convention : Reuss Voigt Hill
#
# Bulk Modulus (GPa) = 45.34235 85.81071 65.57653
# Shear Modulus (GPa) = 13.15291 25.74376 19.44834
#
# Velocity S-wave (km/s) = 2.71029 3.79176 3.29569
# Velocity P-wave (km/s) = 5.92598 8.19108 7.14881
#
# Compressibility (1/GPa) = 0.02205444
#
# Stress axis : x y z
#
# Youngs Moduli (GPa) = 49.19602 45.93419 14.72337
#
# Poissons Ratio (x) = -0.05616 0.44991
# Poissons Ratio (y) = -0.06015 0.21564
# Poissons Ratio (z) = 1.50330 0.67276
#
# Static dielectric constant tensor:
#      x y z
#    x 1.576320 0.000000 0.010400 
#    y 0.000000 1.637080 0.000000 
#    z 0.010400 0.000000 1.612760 
# 
# From -- ./inp_files/100997.got.cif
#   From: 2010.05.17/outbox.cif.g08.bks.cpg/sg12_51_cif.got.tgz:100997.got - 2010.06.03 13:09:07.
