data_PCOD9213193
_publ_section_title
;
Structure prediction by ZEFSAII (Michael W. Deem and Ramdas Pophale) SiO2 
 PCOD9213193
Probable space group: C 2/M
;
_chemical_formula_sum "Si O2"
_cell_formula_units_Z 44
_cell_length_a 12.778763
_cell_length_b 20.539588
_cell_length_c 12.355050
_cell_angle_alpha 90.000000
_cell_angle_beta 45.591509
_cell_angle_gamma 90.000000
_cell_volume 2316.581808
_symmetry_space_group_name_H-M "C 2/M"
_symmetry_group_IT_number 12
_symmetry_cell_setting 'monoclinic'
loop_
_space_group_symop_operation_xyz
x,y,z
-x,y,-z
-x,-y,-z
x,-y,z
1/2+x,1/2+y,z
1/2-x,1/2+y,-z
1/2-x,1/2-y,-z
1/2+x,1/2-y,z
loop_
_atom_site_type_symbol
_atom_site_label
_atom_site_fract_x
_atom_site_fract_y
_atom_site_fract_z
Si Si1 0.894456 0.294235 0.911687
Si Si2 0.413829 0.790850 0.666056
Si Si3 0.973891 0.142487 0.364969
Si Si4 0.413626 0.325759 0.165008
Si Si5 0.214004 0.073886 0.327786
Si Si6 0.000000 0.391018 0.000000
O O1 0.938919 0.323163 0.764031
O O2 0.891114 0.348450 0.004248
O O3 0.014110 0.243865 0.864719
O O4 0.750000 0.250000 0.000000
O O5 0.500000 0.814810 0.500000
O O6 0.464893 0.715467 0.650907
O O7 0.247579 0.806546 0.756137
O O8 0.932938 0.139297 0.267504
O O9 0.834485 0.123539 0.541181
O O10 0.102269 0.094161 0.311898
O O11 0.500000 0.356336 0.000000
O O12 0.381904 0.076490 0.165560
O O13 0.183086 0.000000 0.384860
#
# Coordination Sequence:
#
# PCOD9213193 Si02
#       6
#     8   8   8   8   8   4
#     4  11  20  33  53  82 126 154 174 217 271 353
#     4  11  22  33  53  86 123 149 182 216 280 358
#     4  10  22  37  58  82 115 154 186 234 284 335
#     4  11  21  34  55  84 123 156 184 214 277 360
#     4  11  23  42  61  81 106 145 202 257 285 311
#     4  12  23  36  60  90 112 152 189 234 284 332
#
# _framework density 18.993500999999998
#
# number of rings (size 3 to 8) (size 9 to 14) (size 15 to 20)
#    0.000    1.091    4.545    4.636    2.545    1.455 
#    0.000    0.000    0.000    2.182    0.000    1.273 
#    0.000    0.000    0.000    0.000    0.000    0.000 
#
# Total GULP energy -122544.223748 kJ/mol
# GULP energy per Si atom -5570.191989 kJ/mol
# Density = 1.895027 g / cm^3
# Si number density = 18.993501 Si / 1000 Ang^3
#
#
#
# Elastic Constant Matrix: (Units=GPa)
#
#
# Indices 1 2 3 4 5 6 
#
# 1 94.3940 18.5637 56.6354 0.0000 21.1306 0.0000
# 2 18.5637 40.4510 26.2233 0.0000 6.4450 0.0000
# 3 56.6354 26.2233 149.8765 0.0000 10.8942 0.0000
# 4 0.0000 0.0000 0.0000 8.1213 0.0000 -8.0513
# 5 21.1306 6.4450 10.8942 0.0000 51.4973 0.0000
# 6 0.0000 0.0000 0.0000 -8.0513 0.0000 5.3762
#
#
#
# Elastic Compliance Matrix: (Units=1/GPa)
#
#
# Indices 1 2 3 4 5 6 
#
# 1 0.015186 -0.003054 -0.004854 0.000000 -0.004822 0.000000
# 2 -0.003054 0.028818 -0.003775 0.000000 -0.001555 0.000000
# 3 -0.004854 -0.003775 0.009128 0.000000 0.000533 0.000000
# 4 0.000000 0.000000 0.000000 -0.254045 0.000000 -0.380455
# 5 -0.004822 -0.001555 0.000533 0.000000 0.021479 0.000000
# 6 0.000000 0.000000 0.000000 -0.380455 0.000000 -0.383761
#
#
# Mechanical properties :
#
#
# Convention : Reuss Voigt Hill
#
# Bulk Modulus (GPa) = 33.59529 54.17403 43.88466
# Shear Modulus (GPa) = -9.43562 25.21891 7.89165
#
# Velocity S-wave (km/s) = -2.23128 3.64780 2.04057
# Velocity P-wave (km/s) = 3.32987 6.80634 5.35791
#
# Compressibility (1/GPa) = 0.02976608
#
# Stress axis : x y z
#
# Youngs Moduli (GPa) = 65.84933 34.70069 109.55306
#
# Poissons Ratio (x) = 0.10599 0.53173
# Poissons Ratio (y) = 0.20113 0.41355
# Poissons Ratio (z) = 0.31961 0.13099
#
# Static dielectric constant tensor:
#      x y z
#    x 1.639630 0.000000 0.020820 
#    y 0.000000 1.698490 0.000000 
#    z 0.020820 0.000000 1.771580 
# 
# From -- ./inp_files/134673.got.cif
#   From: 2010.05.17/outbox.cif.g08.bks.cpg/sg12_68_cif.got.tgz:134673.got - 2010.06.03 13:09:07.
