data_PCOD9213757
_publ_section_title
;
Structure prediction by ZEFSAII (Michael W. Deem and Ramdas Pophale) SiO2 
 PCOD9213757
Probable space group: C 2/M
;
_chemical_formula_sum "Si O2"
_cell_formula_units_Z 48
_cell_length_a 9.118539
_cell_length_b 27.404352
_cell_length_c 14.450514
_cell_angle_alpha 90.000000
_cell_angle_beta 40.460096
_cell_angle_gamma 90.000000
_cell_volume 2343.247244
_symmetry_space_group_name_H-M "C 2/M"
_symmetry_group_IT_number 12
_symmetry_cell_setting 'monoclinic'
loop_
_space_group_symop_operation_xyz
x,y,z
-x,y,-z
-x,-y,-z
x,-y,z
1/2+x,1/2+y,z
1/2-x,1/2+y,-z
1/2-x,1/2-y,-z
1/2+x,1/2-y,z
loop_
_atom_site_type_symbol
_atom_site_label
_atom_site_fract_x
_atom_site_fract_y
_atom_site_fract_z
Si Si1 0.732683 0.622696 0.133840
Si Si2 0.488487 0.556749 0.398952
Si Si3 0.994685 0.402025 0.399322
Si Si4 0.373556 0.191663 0.353538
Si Si5 0.974340 0.944966 0.122278
Si Si6 0.086568 0.210781 0.311877
O O1 0.649894 0.589673 0.259691
O O2 0.629623 0.595528 0.095180
O O3 0.630622 0.675773 0.203990
O O4 0.000000 0.625287 0.000000
O O5 0.500000 0.572262 0.500000
O O6 0.549554 0.500000 0.362892
O O7 0.230346 0.565436 0.493397
O O8 0.973354 0.360894 0.330744
O O9 0.000000 0.378877 0.500000
O O10 0.218087 0.433062 0.274116
O O11 0.283031 0.201272 0.293301
O O12 0.548574 0.233598 0.299890
O O13 0.148854 0.196054 0.525455
O O14 0.033907 0.000000 0.125336
O O15 0.000000 0.943335 0.000000
#
# Coordination Sequence:
#
# PCOD9213757 Si02
#       6
#     8   8   8   8   8   8
#     4  12  26  45  67  96 142 182 225 277 348 415
#     4  11  24  41  67 100 131 173 230 285 338 401
#     4  12  23  41  70  99 134 173 226 289 344 394
#     4  10  22  38  71  96 133 168 222 287 334 402
#     4  11  27  46  67  97 135 183 232 277 340 410
#     4  10  22  41  64 102 129 171 228 273 340 402
#
# _framework density 20.484393000000001
#
# number of rings (size 3 to 8) (size 9 to 14) (size 15 to 20)
#    0.000    1.000    3.333    2.000   11.667    2.000 
#    0.000    1.667    0.000    0.000    0.000    0.000 
#    0.000    0.000    0.000    0.000    0.000    0.000 
#
# Total GULP energy -134227.200769 kJ/mol
# GULP energy per Si atom -5592.800032 kJ/mol
# Density = 2.043777 g / cm^3
# Si number density = 20.484393 Si / 1000 Ang^3
#
#
#
# Elastic Constant Matrix: (Units=GPa)
#
#
# Indices 1 2 3 4 5 6 
#
# 1 84.6485 12.2625 16.0660 0.0000 9.2394 0.0000
# 2 12.2625 64.4218 27.2780 0.0000 4.4929 0.0000
# 3 16.0660 27.2780 75.2183 0.0000 -4.9472 0.0000
# 4 0.0000 0.0000 0.0000 6.8722 0.0000 19.3988
# 5 9.2394 4.4929 -4.9472 0.0000 25.5721 0.0000
# 6 0.0000 0.0000 0.0000 19.3988 0.0000 53.7483
#
#
#
# Elastic Compliance Matrix: (Units=1/GPa)
#
#
# Indices 1 2 3 4 5 6 
#
# 1 0.013032 -0.000953 -0.002772 0.000000 -0.005077 0.000000
# 2 -0.000953 0.018950 -0.006954 0.000000 -0.004331 0.000000
# 3 -0.002772 -0.006954 0.016768 0.000000 0.005467 0.000000
# 4 0.000000 0.000000 0.000000 -7.740227 0.000000 2.793594
# 5 -0.005077 -0.004331 0.005467 0.000000 0.042758 0.000000
# 6 0.000000 0.000000 0.000000 2.793594 0.000000 -0.989655
#
#
# Mechanical properties :
#
#
# Convention : Reuss Voigt Hill
#
# Bulk Modulus (GPa) = 36.50495 37.27799 36.89147
# Shear Modulus (GPa) = -0.58086 28.48398 13.95156
#
# Velocity S-wave (km/s) = -0.53308 3.73301 2.61259
# Velocity P-wave (km/s) = 4.18099 6.06781 5.21051
#
# Compressibility (1/GPa) = 0.02739355
#
# Stress axis : x y z
#
# Youngs Moduli (GPa) = 76.73497 52.76907 59.63718
#
# Poissons Ratio (x) = 0.05028 0.16531
# Poissons Ratio (y) = 0.07311 0.41470
# Poissons Ratio (z) = 0.21270 0.36694
#
# Static dielectric constant tensor:
#      x y z
#    x 1.766170 0.000000 0.037820 
#    y 0.000000 1.711490 0.000000 
#    z 0.037820 0.000000 1.693410 
# 
# From -- ./inp_files/200768.got.cif
#   From: 2010.05.17/outbox.cif.g08.bks.cpg/sg12_101_cif.got.tgz:200768.got - 2010.06.03 13:09:07.
