data_PCOD9213445
_publ_section_title
;
Structure prediction by ZEFSAII (Michael W. Deem and Ramdas Pophale) SiO2 
 PCOD9213445
Probable space group: C 2/M
;
_chemical_formula_sum "Si O2"
_cell_formula_units_Z 58
_cell_length_a 24.964311
_cell_length_b 20.455085
_cell_length_c 11.115853
_cell_angle_alpha 90.000000
_cell_angle_beta 30.023979
_cell_angle_gamma 90.000000
_cell_volume 2840.196144
_symmetry_space_group_name_H-M "C 2/M"
_symmetry_group_IT_number 12
_symmetry_cell_setting 'monoclinic'
loop_
_space_group_symop_operation_xyz
x,y,z
-x,y,-z
-x,-y,-z
x,-y,z
1/2+x,1/2+y,z
1/2-x,1/2+y,-z
1/2-x,1/2-y,-z
1/2+x,1/2-y,z
loop_
_atom_site_type_symbol
_atom_site_label
_atom_site_fract_x
_atom_site_fract_y
_atom_site_fract_z
Si Si1 0.890189 0.659528 0.501219
Si Si2 0.202035 0.076958 0.748695
Si Si3 0.703236 0.574438 0.461160
Si Si4 0.869175 0.196843 0.554196
Si Si5 0.500000 0.500000 0.500000
Si Si6 0.727220 0.856172 0.028185
Si Si7 0.596818 0.073014 0.088949
Si Si8 0.561090 0.619301 0.228361
O O1 0.807471 0.612024 0.594948
O O2 0.875670 0.732828 0.481005
O O3 0.006699 0.628137 0.263463
O O4 0.857395 0.664413 0.706158
O O5 0.194429 0.083501 0.620643
O O6 0.205284 0.000000 0.772875
O O7 0.102938 0.108706 0.012142
O O8 0.665330 0.500000 0.506292
O O9 0.649234 0.634617 0.496575
O O10 0.826467 0.576414 0.176072
O O11 0.773252 0.194006 0.839074
O O12 0.984638 0.181554 0.387699
O O13 0.498333 0.557213 0.399813
O O14 0.831873 0.877378 0.899000
O O15 0.674263 0.913607 0.052360
O O16 0.550078 0.000000 0.188417
#
# Coordination Sequence:
#
# PCOD9213445 Si02
#       8
#     8   8   8   8   2   8   8   8
#     4  11  24  38  60  88 120 159 194 242 298 352
#     4  10  22  42  63  88 116 152 202 245 292 346
#     4   9  22  42  65  85 113 155 200 251 291 342
#     4  11  23  40  59  87 123 157 197 236 296 361
#     4  12  20  36  60  94 118 158 188 244 300 352
#     4  10  22  38  58  86 119 158 195 240 290 352
#     4  10  22  39  61  89 117 153 201 247 296 346
#     4  11  23  35  62  90 122 152 190 242 296 351
#
# _framework density 20.421125
#
# number of rings (size 3 to 8) (size 9 to 14) (size 15 to 20)
#    0.000    1.655    2.069    1.241    1.931    9.931 
#    0.000    4.828    0.000    0.000    0.000    0.000 
#    0.000    0.000    0.000    0.000    0.000    0.000 
#
# Total GULP energy -161615.465881 kJ/mol
# GULP energy per Si atom -5572.947099 kJ/mol
# Density = 2.037465 g / cm^3
# Si number density = 20.421125 Si / 1000 Ang^3
#
#
#
# Elastic Constant Matrix: (Units=GPa)
#
#
# Indices 1 2 3 4 5 6 
#
# 1 47.4487 9.4112 35.3317 0.0000 10.7852 0.0000
# 2 9.4112 79.1615 25.2622 0.0000 -4.2136 0.0000
# 3 35.3317 25.2622 87.7259 0.0000 8.1733 0.0000
# 4 0.0000 0.0000 0.0000 15.8707 0.0000 5.2303
# 5 10.7852 -4.2136 8.1733 0.0000 27.0038 0.0000
# 6 0.0000 0.0000 0.0000 5.2303 0.0000 23.8235
#
#
#
# Elastic Compliance Matrix: (Units=1/GPa)
#
#
# Indices 1 2 3 4 5 6 
#
# 1 0.032194 -0.000510 -0.011951 0.000000 -0.009321 0.000000
# 2 -0.000510 0.014244 -0.004242 0.000000 0.003710 0.000000
# 3 -0.011951 -0.004242 0.017546 0.000000 -0.001199 0.000000
# 4 0.000000 0.000000 0.000000 0.067924 0.000000 -0.014912
# 5 -0.009321 0.003710 -0.001199 0.000000 0.041696 0.000000
# 6 0.000000 0.000000 0.000000 -0.014912 0.000000 0.045249
#
#
# Mechanical properties :
#
#
# Convention : Reuss Voigt Hill
#
# Bulk Modulus (GPa) = 32.70307 39.37182 36.03745
# Shear Modulus (GPa) = 19.05110 22.96169 21.00640
#
# Velocity S-wave (km/s) = 3.05767 3.35686 3.21075
# Velocity P-wave (km/s) = 5.33994 5.86059 5.60631
#
# Compressibility (1/GPa) = 0.03057816
#
# Stress axis : x y z
#
# Youngs Moduli (GPa) = 31.06155 70.20354 56.99366
#
# Poissons Ratio (x) = 0.03578 0.68113
# Poissons Ratio (y) = 0.01583 0.24178
# Poissons Ratio (z) = 0.37122 0.29782
#
# Static dielectric constant tensor:
#      x y z
#    x 1.730440 0.000000 -0.006020 
#    y 0.000000 1.699740 0.000000 
#    z -0.006020 0.000000 1.753780 
# 
# From -- ./inp_files/184444.got.cif
#   From: 2010.05.17/outbox.cif.g08.bks.cpg/sg12_93_cif.got.tgz:184444.got - 2010.06.03 13:09:07.
