data_PCOD9213714
_publ_section_title
;
Structure prediction by ZEFSAII (Michael W. Deem and Ramdas Pophale) SiO2 
 PCOD9213714
Probable space group: C 2/M
;
_chemical_formula_sum "Si O2"
_cell_formula_units_Z 44
_cell_length_a 18.760448
_cell_length_b 22.597251
_cell_length_c 15.626423
_cell_angle_alpha 90.000000
_cell_angle_beta 160.781192
_cell_angle_gamma 90.000000
_cell_volume 2180.657139
_symmetry_space_group_name_H-M "C 2/M"
_symmetry_group_IT_number 12
_symmetry_cell_setting 'monoclinic'
loop_
_space_group_symop_operation_xyz
x,y,z
-x,y,-z
-x,-y,-z
x,-y,z
1/2+x,1/2+y,z
1/2-x,1/2+y,-z
1/2-x,1/2-y,-z
1/2+x,1/2-y,z
loop_
_atom_site_type_symbol
_atom_site_label
_atom_site_fract_x
_atom_site_fract_y
_atom_site_fract_z
Si Si1 0.403672 0.500000 0.666669
Si Si2 0.348456 0.500000 0.407696
Si Si3 0.500000 0.270339 0.500000
Si Si4 0.437261 0.815836 0.078385
Si Si5 0.108389 0.500000 0.717821
Si Si6 0.000000 0.599987 0.000000
Si Si7 0.605324 0.100651 0.407824
Si Si8 0.686491 0.286912 0.281071
O O1 0.449620 0.500000 0.617089
O O2 0.252228 0.556422 0.517461
O O3 0.628738 0.500000 0.975503
O O4 0.500000 0.500000 0.500000
O O5 0.202497 0.557274 0.227645
O O6 0.608744 0.235886 0.542781
O O7 0.697138 0.304469 0.769600
O O8 0.449135 0.854796 0.177492
O O9 0.584989 0.756572 0.239101
O O10 0.540567 0.858283 0.125388
O O11 0.000000 0.500000 0.500000
O O12 0.021455 0.558032 0.670271
O O13 0.764229 0.147631 0.631597
O O14 0.500000 0.288136 0.000000
#
# Coordination Sequence:
#
# PCOD9213714 Si02
#       8
#     4   4   4   8   4   4   8   8
#     4  11  26  47  67  98 132 174 224 278 333 387
#     4  11  26  38  70  97 131 178 210 261 335 393
#     4  10  22  38  66 100 138 168 212 266 334 396
#     4  11  22  42  65 101 134 174 213 265 331 410
#     4  11  30  46  67 101 126 174 238 285 329 386
#     4  11  22  40  64  96 142 165 212 258 328 405
#     4  11  26  44  70  93 135 172 228 277 330 390
#     4  10  23  41  67  97 128 176 220 267 340 396
#
# _framework density 20.177403000000002
#
# number of rings (size 3 to 8) (size 9 to 14) (size 15 to 20)
#    0.000    1.273    4.545    0.545    7.636    4.364 
#    0.000    0.000    0.000    0.000    0.000    0.000 
#    0.000    0.000    0.000    0.000    0.000    0.000 
#
# Total GULP energy -122635.538997 kJ/mol
# GULP energy per Si atom -5574.342682 kJ/mol
# Density = 2.013148 g / cm^3
# Si number density = 20.177403 Si / 1000 Ang^3
#
#
#
# Elastic Constant Matrix: (Units=GPa)
#
#
# Indices 1 2 3 4 5 6 
#
# 1 82.4547 34.2952 36.8618 0.0002 -3.2315 -0.0001
# 2 34.2952 129.7415 38.1704 0.0002 5.9168 -0.0001
# 3 36.8618 38.1704 93.1465 0.0004 4.7478 -0.0013
# 4 0.0002 0.0002 0.0004 44.5673 0.0002 -15.4729
# 5 -3.2315 5.9168 4.7478 0.0002 33.1678 -0.0007
# 6 -0.0001 -0.0001 -0.0013 -15.4729 -0.0007 -6.7810
#
#
#
# Elastic Compliance Matrix: (Units=1/GPa)
#
#
# Indices 1 2 3 4 5 6 
#
# 1 0.015718 -0.002740 -0.005239 0.000000 0.002770 0.000000
# 2 -0.002740 0.009279 -0.002639 0.000000 -0.001544 0.000000
# 3 -0.005239 -0.002639 0.013995 0.000000 -0.002043 -0.000001
# 4 0.000000 0.000000 0.000000 0.012520 -0.000001 -0.028568
# 5 0.002770 -0.001544 -0.002043 -0.000001 0.030987 -0.000001
# 6 0.000000 0.000000 -0.000001 -0.028568 -0.000001 -0.082285
#
#
# Mechanical properties :
#
#
# Convention : Reuss Voigt Hill
#
# Bulk Modulus (GPa) = 56.32018 58.22196 57.27107
# Shear Modulus (GPa) = 182.69414 27.25852 104.97633
#
# Velocity S-wave (km/s) = 9.52578 3.67950 7.22078
# Velocity P-wave (km/s) = 12.20493 6.85342 9.89772
#
# Compressibility (1/GPa) = 0.01775562
#
# Stress axis : x y z
#
# Youngs Moduli (GPa) = 63.62132 107.77225 71.45604
#
# Poissons Ratio (x) = 0.29529 0.37433
# Poissons Ratio (y) = 0.17432 0.18860
# Poissons Ratio (z) = 0.33329 0.28445
#
# Static dielectric constant tensor:
#      x y z
#    x 1.804890 0.000000 0.009450 
#    y 0.000000 1.714760 0.000000 
#    z 0.009450 0.000000 1.720070 
# 
# From -- ./inp_files/16872.got.cif
#   From: 2010.05.17/outbox.cif.g08.bks.cpg/sg12_9_cif.got.tgz:16872.got - 2010.06.03 13:09:07.
