data_PCOD9213970
_publ_section_title
;
Structure prediction by ZEFSAII (Michael W. Deem and Ramdas Pophale) SiO2 
 PCOD9213970
Probable space group: C 2/M
;
_chemical_formula_sum "Si O2"
_cell_formula_units_Z 50
_cell_length_a 7.314500
_cell_length_b 20.170124
_cell_length_c 15.742044
_cell_angle_alpha 90.000000
_cell_angle_beta 97.653300
_cell_angle_gamma 90.000000
_cell_volume 2301.803994
_symmetry_space_group_name_H-M "C 2/M"
_symmetry_group_IT_number 12
_symmetry_cell_setting 'monoclinic'
loop_
_space_group_symop_operation_xyz
x,y,z
-x,y,-z
-x,-y,-z
x,-y,z
1/2+x,1/2+y,z
1/2-x,1/2+y,-z
1/2-x,1/2-y,-z
1/2+x,1/2-y,z
loop_
_atom_site_type_symbol
_atom_site_label
_atom_site_fract_x
_atom_site_fract_y
_atom_site_fract_z
Si Si1 0.170191 0.575763 0.340246
Si Si2 0.766201 0.075519 0.710992
Si Si3 0.779243 0.331725 0.804958
Si Si4 0.276067 0.877871 0.990158
Si Si5 0.500000 0.500000 0.000000
Si Si6 0.783546 0.317631 0.162330
Si Si7 0.795087 0.924217 0.524289
O O1 0.245838 0.500000 0.345407
O O2 0.271493 0.621938 0.278016
O O3 0.179576 0.602775 0.437523
O O4 0.956510 0.570595 0.302452
O O5 0.818126 0.126614 0.787808
O O6 0.805221 0.103891 0.619314
O O7 0.839240 0.000000 0.727109
O O8 0.734262 0.254304 0.797480
O O9 0.000683 0.334282 0.822515
O O10 0.713948 0.357237 0.892251
O O11 0.232493 0.823239 0.060117
O O12 0.500000 0.888383 0.000000
O O13 0.162521 0.942376 0.008880
O O14 0.000000 0.925598 0.500000
O O15 0.727997 0.000000 0.534404
#
# Coordination Sequence:
#
# PCOD9213970 Si02
#       7
#     8   8   8   8   2   8   8
#     4   9  18  34  57  82 110 151 195 239 299 360
#     4   9  18  34  57  82 110 151 195 239 299 360
#     4  10  22  39  61  85 119 161 200 246 300 358
#     4  10  24  44  63  92 131 160 200 255 299 360
#     4  12  26  40  68 102 116 162 212 244 312 354
#     4  10  22  39  61  85 119 161 200 246 300 358
#     4   9  17  31  50  81 114 145 181 241 304 351
#
# _framework density 21.722093000000001
#
# number of rings (size 3 to 8) (size 9 to 14) (size 15 to 20)
#    0.000    2.400    0.000    1.200    4.480    3.200 
#    0.000    0.800    0.000    0.000    0.000    0.000 
#    0.000    0.000    0.000    0.000    0.000    0.000 
#
# Total GULP energy -139220.961310 kJ/mol
# GULP energy per Si atom -5568.838452 kJ/mol
# Density = 2.167265 g / cm^3
# Si number density = 21.722093 Si / 1000 Ang^3
#
#
#
# Elastic Constant Matrix: (Units=GPa)
#
#
# Indices 1 2 3 4 5 6 
#
# 1 56.2850 4.3053 16.9031 0.0000 -2.4748 0.0000
# 2 4.3053 97.4000 67.3650 0.0000 -8.1226 0.0000
# 3 16.9031 67.3650 167.0379 0.0000 -11.6365 0.0000
# 4 0.0000 0.0000 0.0000 6.9978 0.0000 3.9293
# 5 -2.4748 -8.1226 -11.6365 0.0000 26.9122 0.0000
# 6 0.0000 0.0000 0.0000 3.9293 0.0000 11.8395
#
#
#
# Elastic Compliance Matrix: (Units=1/GPa)
#
#
# Indices 1 2 3 4 5 6 
#
# 1 0.018380 0.000706 -0.002075 0.000000 0.001006 0.000000
# 2 0.000706 0.014358 -0.005728 0.000000 0.001922 0.000000
# 3 -0.002075 -0.005728 0.008633 0.000000 0.001813 0.000000
# 4 0.000000 0.000000 0.000000 0.175632 0.000000 -0.058289
# 5 0.001006 0.001922 0.001813 0.000000 0.038614 0.000000
# 6 0.000000 0.000000 0.000000 -0.058289 0.000000 0.103808
#
#
# Mechanical properties :
#
#
# Convention : Reuss Voigt Hill
#
# Bulk Modulus (GPa) = 36.79428 55.31883 46.05656
# Shear Modulus (GPa) = 13.06587 24.62655 18.84621
#
# Velocity S-wave (km/s) = 2.45521 3.37071 2.94871
# Velocity P-wave (km/s) = 5.00128 6.37737 5.73078
#
# Compressibility (1/GPa) = 0.02717813
#
# Stress axis : x y z
#
# Youngs Moduli (GPa) = 54.40696 69.64967 115.83533
#
# Poissons Ratio (x) = -0.04920 0.24033
# Poissons Ratio (y) = -0.03844 0.66349
# Poissons Ratio (z) = 0.11288 0.39895
#
# Static dielectric constant tensor:
#      x y z
#    x 1.860720 0.000000 0.005110 
#    y 0.000000 1.769860 0.000000 
#    z 0.005110 0.000000 1.842640 
# 
# From -- ./inp_files/196998.got.cif
#   From: 2010.05.17/outbox.cif.g08.bks.cpg/sg12_99_cif.got.tgz:196998.got - 2010.06.03 13:09:07.
