data_PCOD9213546
_publ_section_title
;
Structure prediction by ZEFSAII (Michael W. Deem and Ramdas Pophale) SiO2 
 PCOD9213546
Probable space group: C 2/M
;
_chemical_formula_sum "Si O2"
_cell_formula_units_Z 48
_cell_length_a 29.023523
_cell_length_b 13.548966
_cell_length_c 8.926008
_cell_angle_alpha 90.000000
_cell_angle_beta 137.150423
_cell_angle_gamma 90.000000
_cell_volume 2387.101900
_symmetry_space_group_name_H-M "C 2/M"
_symmetry_group_IT_number 12
_symmetry_cell_setting 'monoclinic'
loop_
_space_group_symop_operation_xyz
x,y,z
-x,y,-z
-x,-y,-z
x,-y,z
1/2+x,1/2+y,z
1/2-x,1/2+y,-z
1/2-x,1/2-y,-z
1/2+x,1/2-y,z
loop_
_atom_site_type_symbol
_atom_site_label
_atom_site_fract_x
_atom_site_fract_y
_atom_site_fract_z
Si Si1 0.448841 0.390156 0.517644
Si Si2 0.711004 0.384302 0.504580
Si Si3 0.516361 0.198542 0.715062
Si Si4 0.182141 0.220846 0.751663
Si Si5 0.401154 0.887903 0.607043
Si Si6 0.643000 0.795378 0.195372
O O1 0.500000 0.398354 0.500000
O O2 0.441494 0.500000 0.565626
O O3 0.484811 0.303363 0.697550
O O4 0.375399 0.344444 0.301756
O O5 0.697025 0.500000 0.460143
O O6 0.698087 0.342161 0.640331
O O7 0.666549 0.316037 0.287909
O O8 0.789157 0.359734 0.655533
O O9 0.500000 0.189088 0.500000
O O10 0.474932 0.117976 0.708507
O O11 0.595290 0.196803 0.938178
O O12 0.146995 0.322044 0.613601
O O13 0.250000 0.250000 0.000000
O O14 0.398459 0.836412 0.761876
O O15 0.377925 0.000000 0.563265
#
# Coordination Sequence:
#
# PCOD9213546 Si02
#       6
#     8   8   8   8   8   8
#     4   9  19  36  58  86 121 160 200 247 313 376
#     4  10  22  39  63  89 120 167 214 256 315 380
#     4  10  22  38  61  90 126 159 203 264 317 371
#     4  10  22  38  60  90 128 161 205 270 315 372
#     4  10  22  40  59  85 120 163 209 252 315 378
#     4  10  22  40  62  88 125 164 208 263 307 377
#
# _framework density 20.108065
#
# number of rings (size 3 to 8) (size 9 to 14) (size 15 to 20)
#    0.000    2.167    0.000    1.500    7.000    4.333 
#    0.000    0.000    0.000    6.000    0.000    0.000 
#    0.000    0.000    0.000    0.000    0.000    0.000 
#
# Total GULP energy -133882.714834 kJ/mol
# GULP energy per Si atom -5578.446451 kJ/mol
# Density = 2.006230 g / cm^3
# Si number density = 20.108065 Si / 1000 Ang^3
#
#
#
# Elastic Constant Matrix: (Units=GPa)
#
#
# Indices 1 2 3 4 5 6 
#
# 1 86.1899 12.3629 29.9694 0.0000 5.3032 0.0000
# 2 12.3629 135.8225 18.6718 0.0000 2.0361 0.0000
# 3 29.9694 18.6718 116.7970 0.0000 5.1224 0.0000
# 4 0.0000 0.0000 0.0000 6.6686 0.0000 1.1305
# 5 5.3032 2.0361 5.1224 0.0000 16.8075 0.0000
# 6 0.0000 0.0000 0.0000 1.1305 0.0000 19.8138
#
#
#
# Elastic Compliance Matrix: (Units=1/GPa)
#
#
# Indices 1 2 3 4 5 6 
#
# 1 0.012963 -0.000711 -0.003078 0.000000 -0.003066 0.000000
# 2 -0.000711 0.007572 -0.001011 0.000000 -0.000385 0.000000
# 3 -0.003078 -0.001011 0.009594 0.000000 -0.001830 0.000000
# 4 0.000000 0.000000 0.000000 0.151421 0.000000 -0.008640
# 5 -0.003066 -0.000385 -0.001830 0.000000 0.061069 0.000000
# 6 0.000000 0.000000 0.000000 -0.008640 0.000000 0.050963
#
#
# Mechanical properties :
#
#
# Convention : Reuss Voigt Hill
#
# Bulk Modulus (GPa) = 48.71298 51.20194 49.95746
# Shear Modulus (GPa) = 16.12771 27.17833 21.65302
#
# Velocity S-wave (km/s) = 2.83512 3.68042 3.28507
# Velocity P-wave (km/s) = 5.91569 6.60146 6.26796
#
# Compressibility (1/GPa) = 0.02052841
#
# Stress axis : x y z
#
# Youngs Moduli (GPa) = 77.14134 132.06486 104.23585
#
# Poissons Ratio (x) = 0.09387 0.32086
# Poissons Ratio (y) = 0.05483 0.10541
# Poissons Ratio (z) = 0.23745 0.13355
#
# Static dielectric constant tensor:
#      x y z
#    x 1.755480 0.000000 0.012290 
#    y 0.000000 1.735920 0.000000 
#    z 0.012290 0.000000 1.698540 
# 
# From -- ./inp_files/111767.got.cif
#   From: 2010.05.17/outbox.cif.g08.bks.cpg/sg12_56_cif.got.tgz:111767.got - 2010.06.03 13:09:07.
