data_PCOD9213743
_publ_section_title
;
Structure prediction by ZEFSAII (Michael W. Deem and Ramdas Pophale) SiO2 
 PCOD9213743
Probable space group: C 2/M
;
_chemical_formula_sum "Si O2"
_cell_formula_units_Z 60
_cell_length_a 19.716429
_cell_length_b 12.316273
_cell_length_c 11.639959
_cell_angle_alpha 90.000000
_cell_angle_beta 80.191592
_cell_angle_gamma 90.000000
_cell_volume 2785.249099
_symmetry_space_group_name_H-M "C 2/M"
_symmetry_group_IT_number 12
_symmetry_cell_setting 'monoclinic'
loop_
_space_group_symop_operation_xyz
x,y,z
-x,y,-z
-x,-y,-z
x,-y,z
1/2+x,1/2+y,z
1/2-x,1/2+y,-z
1/2-x,1/2-y,-z
1/2+x,1/2-y,z
loop_
_atom_site_type_symbol
_atom_site_label
_atom_site_fract_x
_atom_site_fract_y
_atom_site_fract_z
Si Si1 0.750007 0.615074 0.383986
Si Si2 0.349690 0.326360 0.874049
Si Si3 0.036200 0.196208 0.691195
Si Si4 0.424840 0.289679 0.065764
Si Si5 0.419896 0.871635 0.738289
Si Si6 0.141360 0.294891 0.479740
Si Si7 0.429793 0.500000 0.707073
Si Si8 0.697273 0.879641 0.889769
O O1 0.713729 0.500000 0.414378
O O2 0.811825 0.627639 0.456215
O O3 0.696497 0.711306 0.412099
O O4 0.784469 0.617732 0.250223
O O5 0.368575 0.203246 0.830018
O O6 0.374651 0.405327 0.765818
O O7 0.269609 0.341321 0.921835
O O8 0.395308 0.363043 0.970762
O O9 0.068357 0.166075 0.806812
O O10 0.090384 0.228440 0.577894
O O11 0.991632 0.305776 0.727966
O O12 0.987243 0.097547 0.667713
O O13 0.368441 0.195642 0.081236
O O14 0.500000 0.255283 0.000000
O O15 0.396872 0.855326 0.612432
O O16 0.422659 0.000000 0.765208
O O17 0.681718 0.000000 0.936399
#
# Coordination Sequence:
#
# PCOD9213743 Si02
#       8
#     8   8   8   8   8   8   4   8
#     4  10  22  38  67  93 130 182 223 279 335 400
#     4  11  23  45  70  98 136 181 226 280 339 403
#     4  11  25  42  66 103 131 181 221 280 340 408
#     4  12  24  44  67  97 141 172 228 284 334 403
#     4  11  24  42  68  95 135 175 223 277 344 407
#     4  11  22  42  62  97 140 170 227 278 338 403
#     4  10  22  43  71  98 135 176 227 270 344 406
#     4  11  23  43  69  97 134 180 230 278 335 409
#
# _framework density 21.542058999999998
#
# number of rings (size 3 to 8) (size 9 to 14) (size 15 to 20)
#    0.000    1.067    6.000    1.200    0.933    4.000 
#    0.000    2.667    1.467    0.000    0.000    0.000 
#    0.000    0.000    0.000    0.000    0.000    0.000 
#
# Total GULP energy -167079.884133 kJ/mol
# GULP energy per Si atom -5569.329471 kJ/mol
# Density = 2.149303 g / cm^3
# Si number density = 21.542059 Si / 1000 Ang^3
#
#
#
# Elastic Constant Matrix: (Units=GPa)
#
#
# Indices 1 2 3 4 5 6 
#
# 1 42.4575 4.9021 1.3028 0.0000 8.9581 0.0000
# 2 4.9021 117.3519 -1.7809 0.0000 -8.9781 0.0000
# 3 1.3028 -1.7809 65.7671 0.0000 19.7360 0.0000
# 4 0.0000 0.0000 0.0000 5.4384 0.0000 -5.9685
# 5 8.9581 -8.9781 19.7360 0.0000 37.0985 0.0000
# 6 0.0000 0.0000 0.0000 -5.9685 0.0000 35.2609
#
#
#
# Elastic Compliance Matrix: (Units=1/GPa)
#
#
# Indices 1 2 3 4 5 6 
#
# 1 0.025240 -0.001593 0.001668 0.000000 -0.007367 0.000000
# 2 -0.001593 0.008795 -0.000576 0.000000 0.002820 0.000000
# 3 0.001668 -0.000576 0.018229 0.000000 -0.010240 0.000000
# 4 0.000000 0.000000 0.000000 0.225830 0.000000 0.038226
# 5 -0.007367 0.002820 -0.010240 0.000000 0.034864 0.000000
# 6 0.000000 0.000000 0.000000 0.038226 0.000000 0.034830
#
#
# Mechanical properties :
#
#
# Convention : Reuss Voigt Hill
#
# Bulk Modulus (GPa) = 19.50775 26.04716 22.77745
# Shear Modulus (GPa) = 13.66572 30.30305 21.98438
#
# Velocity S-wave (km/s) = 2.52141 3.75466 3.19804
# Velocity P-wave (km/s) = 4.18951 5.56005 4.92271
#
# Compressibility (1/GPa) = 0.05126169
#
# Stress axis : x y z
#
# Youngs Moduli (GPa) = 39.61952 113.70250 54.85621
#
# Poissons Ratio (x) = 0.18109 -0.09149
# Poissons Ratio (y) = 0.06310 0.03162
# Poissons Ratio (z) = -0.06608 0.06554
#
# Static dielectric constant tensor:
#      x y z
#    x 1.785010 0.000000 0.048700 
#    y 0.000000 1.792520 0.000000 
#    z 0.048700 0.000000 1.853880 
# 
# From -- ./inp_files/165680.got.cif
#   From: 2010.05.17/outbox.cif.g08.bks.cpg/sg12_83_cif.got.tgz:165680.got - 2010.06.03 13:09:07.
