data_PCOD9213889
_publ_section_title
;
Structure prediction by ZEFSAII (Michael W. Deem and Ramdas Pophale) SiO2 
 PCOD9213889
Probable space group: C 2/M
;
_chemical_formula_sum "Si O2"
_cell_formula_units_Z 64
_cell_length_a 14.159071
_cell_length_b 22.506716
_cell_length_c 16.801558
_cell_angle_alpha 90.000000
_cell_angle_beta 33.893516
_cell_angle_gamma 90.000000
_cell_volume 2985.788684
_symmetry_space_group_name_H-M "C 2/M"
_symmetry_group_IT_number 12
_symmetry_cell_setting 'monoclinic'
loop_
_space_group_symop_operation_xyz
x,y,z
-x,y,-z
-x,-y,-z
x,-y,z
1/2+x,1/2+y,z
1/2-x,1/2+y,-z
1/2-x,1/2-y,-z
1/2+x,1/2-y,z
loop_
_atom_site_type_symbol
_atom_site_label
_atom_site_fract_x
_atom_site_fract_y
_atom_site_fract_z
Si Si1 0.629499 0.567397 0.143352
Si Si2 0.715908 0.431343 0.540266
Si Si3 0.815452 0.777745 0.154095
Si Si4 0.324020 0.361070 0.585507
Si Si5 0.482682 0.155547 0.417686
Si Si6 0.813333 0.200406 0.892842
Si Si7 0.166283 0.432307 0.839531
Si Si8 0.318014 0.741255 0.341630
O O1 0.667186 0.500000 0.083504
O O2 0.426613 0.574951 0.291163
O O3 0.705221 0.631982 0.064174
O O4 0.695421 0.564496 0.187896
O O5 0.747253 0.500000 0.506358
O O6 0.641117 0.404992 0.511207
O O7 0.887854 0.398539 0.442824
O O8 0.659070 0.823458 0.256018
O O9 0.775558 0.719654 0.127792
O O10 0.823395 0.764772 0.242108
O O11 0.000000 0.800984 0.000000
O O12 0.500000 0.337060 0.500000
O O13 0.226707 0.394102 0.723856
O O14 0.206336 0.310672 0.630699
O O15 0.500000 0.142389 0.500000
O O16 0.348992 0.209667 0.509331
O O17 0.013292 0.212429 0.742041
O O18 0.750000 0.250000 0.000000
O O19 0.128516 0.500000 0.839131
O O20 0.000000 0.408623 0.000000
#
# Coordination Sequence:
#
# PCOD9213889 Si02
#       8
#     8   8   8   8   8   8   8   8
#     4  10  22  40  63  92 129 173 220 267 317 386
#     4  11  23  40  65  95 125 168 224 274 321 388
#     4  11  23  41  64  98 130 163 212 267 323 399
#     4  12  23  36  61  94 131 165 204 260 328 388
#     4  10  23  43  67  90 124 164 214 277 334 380
#     4  12  24  39  66  95 132 173 213 268 331 381
#     4  10  22  39  59  86 127 179 218 248 307 394
#     4  11  24  40  61  96 125 164 212 261 328 385
#
# _framework density 21.434871999999999
#
# number of rings (size 3 to 8) (size 9 to 14) (size 15 to 20)
#    0.000    1.125    3.750    3.000    3.500    2.750 
#    0.000    0.000    0.000    0.375    0.000    0.000 
#    0.000    0.000    0.000    0.000    0.000    0.000 
#
# Total GULP energy -178782.429786 kJ/mol
# GULP energy per Si atom -5586.950931 kJ/mol
# Density = 2.138609 g / cm^3
# Si number density = 21.434872 Si / 1000 Ang^3
#
#
#
# Elastic Constant Matrix: (Units=GPa)
#
#
# Indices 1 2 3 4 5 6 
#
# 1 51.5771 3.5156 9.4385 -0.0211 -10.5845 0.0091
# 2 3.5156 118.3401 15.2063 -0.0346 -2.9721 0.0156
# 3 9.4385 15.2063 94.6070 -0.0507 -16.2875 -0.0031
# 4 -0.0211 -0.0346 -0.0507 5.1660 0.0126 0.1272
# 5 -10.5845 -2.9721 -16.2875 0.0126 35.1221 0.0011
# 6 0.0091 0.0156 -0.0031 0.1272 0.0011 15.9134
#
#
#
# Elastic Compliance Matrix: (Units=1/GPa)
#
#
# Indices 1 2 3 4 5 6 
#
# 1 0.020781 -0.000341 -0.001027 0.000059 0.005757 -0.000013
# 2 -0.000341 0.008634 -0.001354 0.000043 0.000000 -0.000009
# 3 -0.001027 -0.001354 0.011756 0.000090 0.005027 0.000003
# 4 0.000059 0.000043 0.000090 0.193612 -0.000006 -0.001547
# 5 0.005757 0.000000 0.005027 -0.000006 0.032539 -0.000005
# 6 -0.000013 -0.000009 0.000003 -0.001547 -0.000005 0.062852
#
#
# Mechanical properties :
#
#
# Convention : Reuss Voigt Hill
#
# Bulk Modulus (GPa) = 27.98948 35.64944 31.81946
# Shear Modulus (GPa) = 14.38738 26.99791 20.69264
#
# Velocity S-wave (km/s) = 2.59359 3.55284 3.11042
# Velocity P-wave (km/s) = 4.69630 5.78773 5.27034
#
# Compressibility (1/GPa) = 0.03572771
#
# Stress axis : x y z
#
# Youngs Moduli (GPa) = 48.12043 115.81697 85.06526
#
# Poissons Ratio (x) = 0.03946 0.08738
# Poissons Ratio (y) = 0.01640 0.11516
# Poissons Ratio (z) = 0.04943 0.15679
#
# Static dielectric constant tensor:
#      x y z
#    x 1.790190 -0.000010 -0.009630 
#    y -0.000010 1.811220 0.000020 
#    z -0.009630 0.000020 1.802330 
# 
# From -- ./inp_files/272811.got.cif
#   From: 2010.05.17/outbox.cif.g08.bks.cpg/sg12_137_cif.got.tgz:272811.got - 2010.06.03 13:09:07.
