data_PCOD9213804
_publ_section_title
;
Structure prediction by ZEFSAII (Michael W. Deem and Ramdas Pophale) SiO2 
 PCOD9213804
Probable space group: C 2/M
;
_chemical_formula_sum "Si O2"
_cell_formula_units_Z 56
_cell_length_a 16.199715
_cell_length_b 8.921438
_cell_length_c 23.209595
_cell_angle_alpha 90.000000
_cell_angle_beta 121.854043
_cell_angle_gamma 90.000000
_cell_volume 2849.178372
_symmetry_space_group_name_H-M "C 2/M"
_symmetry_group_IT_number 12
_symmetry_cell_setting 'monoclinic'
loop_
_space_group_symop_operation_xyz
x,y,z
-x,y,-z
-x,-y,-z
x,-y,z
1/2+x,1/2+y,z
1/2-x,1/2+y,-z
1/2-x,1/2-y,-z
1/2+x,1/2-y,z
loop_
_atom_site_type_symbol
_atom_site_label
_atom_site_fract_x
_atom_site_fract_y
_atom_site_fract_z
Si Si1 0.301924 0.180951 0.574325
Si Si2 0.584828 0.325971 0.074816
Si Si3 0.529103 0.179341 0.660823
Si Si4 0.307573 0.678899 0.348098
Si Si5 0.557745 0.322085 0.791799
Si Si6 0.382214 0.177372 0.791337
Si Si7 0.720960 0.826389 0.929529
O O1 0.250000 0.250000 0.500000
O O2 0.415648 0.224823 0.617017
O O3 0.244295 0.224400 0.611291
O O4 0.299393 0.000000 0.570617
O O5 0.563686 0.500000 0.083368
O O6 0.594968 0.228162 0.135602
O O7 0.685316 0.322620 0.077192
O O8 0.500000 0.276405 0.000000
O O9 0.593298 0.238233 0.631451
O O10 0.573462 0.249012 0.735319
O O11 0.533678 0.000000 0.665559
O O12 0.324889 0.500000 0.356575
O O13 0.228020 0.707581 0.268701
O O14 0.563555 0.500000 0.790024
O O15 0.453219 0.267840 0.775650
O O16 0.634885 0.260508 0.866187
O O17 0.399731 0.000000 0.790147
O O18 0.693325 0.000000 0.928643
O O19 0.750000 0.750000 0.000000
#
# Coordination Sequence:
#
# PCOD9213804 Si02
#       7
#     8   8   8   8   8   8   8
#     4  10  23  44  67  94 134 172 212 265 323 386
#     4  10  22  39  57  83 119 157 202 256 314 379
#     4  11  23  42  66  96 131 168 215 269 320 380
#     4  10  22  42  65  94 131 169 211 265 324 386
#     4  12  24  39  62  90 123 165 213 262 318 383
#     4  11  22  39  63  89 122 160 207 264 321 377
#     4  11  23  39  60  87 122 162 207 261 320 380
#
# _framework density 19.654788
#
# number of rings (size 3 to 8) (size 9 to 14) (size 15 to 20)
#    0.000    1.286    1.429    4.286    0.000    8.286 
#    0.000    2.857    0.000    0.000    0.000    0.000 
#    0.000    0.000    0.000    0.000    0.000    0.000 
#
# Total GULP energy -156587.467728 kJ/mol
# GULP energy per Si atom -5592.409562 kJ/mol
# Density = 1.961005 g / cm^3
# Si number density = 19.654788 Si / 1000 Ang^3
#
#
#
# Elastic Constant Matrix: (Units=GPa)
#
#
# Indices 1 2 3 4 5 6 
#
# 1 130.6792 53.6153 50.1318 0.0000 -2.9620 0.0000
# 2 53.6153 80.6053 45.5496 0.0000 0.9565 0.0000
# 3 50.1318 45.5496 119.0870 0.0000 -5.0870 0.0000
# 4 0.0000 0.0000 0.0000 35.0412 0.0000 -5.4023
# 5 -2.9620 0.9565 -5.0870 0.0000 21.8332 0.0000
# 6 0.0000 0.0000 0.0000 -5.4023 0.0000 24.8137
#
#
#
# Elastic Compliance Matrix: (Units=1/GPa)
#
#
# Indices 1 2 3 4 5 6 
#
# 1 0.011046 -0.006078 -0.002272 0.000000 0.001235 0.000000
# 2 -0.006078 0.019269 -0.004932 0.000000 -0.002818 0.000000
# 3 -0.002272 -0.004932 0.011349 0.000000 0.002552 0.000000
# 4 0.000000 0.000000 0.000000 0.029529 0.000000 0.006429
# 5 0.001235 -0.002818 0.002552 0.000000 0.046688 0.000000
# 6 0.000000 0.000000 0.000000 0.006429 0.000000 0.041700
#
#
# Mechanical properties :
#
#
# Convention : Reuss Voigt Hill
#
# Bulk Modulus (GPa) = 66.22614 69.88499 68.05556
# Shear Modulus (GPa) = 26.15356 28.40927 27.28142
#
# Velocity S-wave (km/s) = 3.65176 3.80598 3.72967
# Velocity P-wave (km/s) = 7.17971 7.41265 7.29711
#
# Compressibility (1/GPa) = 0.01509978
#
# Stress axis : x y z
#
# Youngs Moduli (GPa) = 90.53362 51.89607 88.11039
#
# Poissons Ratio (x) = 0.31540 0.20023
# Poissons Ratio (y) = 0.55023 0.43458
# Poissons Ratio (z) = 0.20574 0.25596
#
# Static dielectric constant tensor:
#      x y z
#    x 1.698460 0.000000 0.003580 
#    y 0.000000 1.663130 0.000000 
#    z 0.003580 0.000000 1.664020 
# 
# From -- ./inp_files/339088.got.cif
#   From: 2010.05.17/outbox.cif.g08.bks.cpg/sg12_170_cif.got.tgz:339088.got - 2010.06.03 13:09:07.
