data_PCOD9213221
_publ_section_title
;
Structure prediction by ZEFSAII (Michael W. Deem and Ramdas Pophale) SiO2 
 PCOD9213221
Probable space group: C 2/M
;
_chemical_formula_sum "Si O2"
_cell_formula_units_Z 56
_cell_length_a 14.584674
_cell_length_b 31.223527
_cell_length_c 8.122397
_cell_angle_alpha 90.000000
_cell_angle_beta 129.765141
_cell_angle_gamma 90.000000
_cell_volume 2843.180467
_symmetry_space_group_name_H-M "C 2/M"
_symmetry_group_IT_number 12
_symmetry_cell_setting 'monoclinic'
loop_
_space_group_symop_operation_xyz
x,y,z
-x,y,-z
-x,-y,-z
x,-y,z
1/2+x,1/2+y,z
1/2-x,1/2+y,-z
1/2-x,1/2-y,-z
1/2+x,1/2-y,z
loop_
_atom_site_type_symbol
_atom_site_label
_atom_site_fract_x
_atom_site_fract_y
_atom_site_fract_z
Si Si1 0.355698 0.780585 0.063448
Si Si2 0.264027 0.361328 0.025851
Si Si3 0.927424 0.453103 0.670748
Si Si4 0.490047 0.697488 0.188190
Si Si5 0.248915 0.296006 0.417189
Si Si6 0.632871 0.130013 0.212724
Si Si7 0.686962 0.951415 0.823084
O O1 0.340892 0.826100 0.138359
O O2 0.319257 0.789072 0.833124
O O3 0.250000 0.750000 0.000000
O O4 0.465120 0.748050 0.197793
O O5 0.384813 0.334148 0.130480
O O6 0.230074 0.370568 0.177475
O O7 0.260942 0.407739 0.936593
O O8 0.909054 0.500000 0.721704
O O9 0.877907 0.416590 0.727004
O O10 0.862386 0.451417 0.419709
O O11 0.068096 0.446933 0.798442
O O12 0.614544 0.688612 0.421161
O O13 0.500000 0.693391 0.000000
O O14 0.250000 0.250000 0.500000
O O15 0.173748 0.335982 0.398640
O O16 0.500000 0.141939 0.000000
O O17 0.736925 0.000000 0.910041
#
# Coordination Sequence:
#
# PCOD9213221 Si02
#       7
#     8   8   8   8   8   8   8
#     4   9  21  38  57  85 116 151 204 253 300 359
#     4  10  22  37  59  89 123 156 205 253 302 368
#     4   9  19  35  59  91 127 160 196 250 316 374
#     4  11  23  41  62  85 120 165 216 254 306 373
#     4  11  24  37  61  84 117 165 203 258 306 353
#     4  11  23  37  59  92 126 158 199 257 310 373
#     4   9  18  35  59  91 126 160 201 247 302 373
#
# _framework density 19.696252000000001
#
# number of rings (size 3 to 8) (size 9 to 14) (size 15 to 20)
#    0.000    2.000    2.857    0.857    6.000    6.000 
#    0.000    2.857    0.000    1.286    0.000    5.000 
#    0.000    0.000    0.000    0.000    0.000    0.000 
#
# Total GULP energy -155870.077199 kJ/mol
# GULP energy per Si atom -5566.788471 kJ/mol
# Density = 1.965142 g / cm^3
# Si number density = 19.696252 Si / 1000 Ang^3
#
#
#
# Elastic Constant Matrix: (Units=GPa)
#
#
# Indices 1 2 3 4 5 6 
#
# 1 79.2819 51.0893 12.0030 0.0000 8.3001 0.0000
# 2 51.0893 194.2578 50.5468 0.0000 18.2057 0.0000
# 3 12.0030 50.5468 39.6091 0.0000 17.6606 0.0000
# 4 0.0000 0.0000 0.0000 30.8344 0.0000 -0.1228
# 5 8.3001 18.2057 17.6606 0.0000 20.5902 0.0000
# 6 0.0000 0.0000 0.0000 -0.1228 0.0000 32.9198
#
#
#
# Elastic Compliance Matrix: (Units=1/GPa)
#
#
# Indices 1 2 3 4 5 6 
#
# 1 0.015524 -0.004451 0.003256 0.000000 -0.005115 0.000000
# 2 -0.004451 0.009072 -0.012066 0.000000 0.004122 0.000000
# 3 0.003256 -0.012066 0.057461 0.000000 -0.039930 0.000000
# 4 0.000000 0.000000 0.000000 0.032432 0.000000 0.000121
# 5 -0.005115 0.004122 -0.039930 0.000000 0.081233 0.000000
# 6 0.000000 0.000000 0.000000 0.000121 0.000000 0.030377
#
#
# Mechanical properties :
#
#
# Convention : Reuss Voigt Hill
#
# Bulk Modulus (GPa) = 18.00636 60.04746 39.02691
# Shear Modulus (GPa) = 18.44127 30.16951 24.30539
#
# Velocity S-wave (km/s) = 3.06319 3.91799 3.51666
# Velocity P-wave (km/s) = 4.65540 7.14286 6.02881
#
# Compressibility (1/GPa) = 0.05553594
#
# Stress axis : x y z
#
# Youngs Moduli (GPa) = 64.41747 110.23488 17.40302
#
# Poissons Ratio (x) = 0.49060 -0.05667
# Poissons Ratio (y) = 0.28669 0.20998
# Poissons Ratio (z) = -0.20975 1.33008
#
# Static dielectric constant tensor:
#      x y z
#    x 1.728170 0.000000 -0.012540 
#    y 0.000000 1.771800 0.000000 
#    z -0.012540 0.000000 1.705620 
# 
# From -- ./inp_files/68318.got.cif
#   From: 2010.05.17/outbox.cif.g08.bks.cpg/sg12_35_cif.got.tgz:68318.got - 2010.06.03 13:09:07.
