data_PCOD9213348
_publ_section_title
;
Structure prediction by ZEFSAII (Michael W. Deem and Ramdas Pophale) SiO2 
 PCOD9213348
Probable space group: C 2/M
;
_chemical_formula_sum "Si O2"
_cell_formula_units_Z 48
_cell_length_a 29.126776
_cell_length_b 8.419748
_cell_length_c 10.533329
_cell_angle_alpha 90.000000
_cell_angle_beta 89.697433
_cell_angle_gamma 90.000000
_cell_volume 2583.158786
_symmetry_space_group_name_H-M "C 2/M"
_symmetry_group_IT_number 12
_symmetry_cell_setting 'monoclinic'
loop_
_space_group_symop_operation_xyz
x,y,z
-x,y,-z
-x,-y,-z
x,-y,z
1/2+x,1/2+y,z
1/2-x,1/2+y,-z
1/2-x,1/2-y,-z
1/2+x,1/2-y,z
loop_
_atom_site_type_symbol
_atom_site_label
_atom_site_fract_x
_atom_site_fract_y
_atom_site_fract_z
Si Si1 0.301748 0.691210 0.515648
Si Si2 0.801961 0.810217 0.011804
Si Si3 0.448203 0.193326 0.645794
Si Si4 0.355133 0.308787 0.261223
Si Si5 0.551214 0.808400 0.648726
Si Si6 0.646085 0.809672 0.236459
O O1 0.302668 0.500000 0.522186
O O2 0.250000 0.750000 0.500000
O O3 0.330743 0.743826 0.391986
O O4 0.323810 0.761016 0.642373
O O5 0.831599 0.760037 0.889923
O O6 0.800183 0.000000 0.018224
O O7 0.750000 0.750000 0.000000
O O8 0.826790 0.750756 0.139773
O O9 0.440975 0.241526 0.498667
O O10 0.499481 0.243115 0.684393
O O11 0.405865 0.246311 0.732550
O O12 0.447999 0.000000 0.645734
O O13 0.354128 0.500000 0.259678
O O14 0.407759 0.254723 0.266304
O O15 0.552264 0.000000 0.650974
O O16 0.645860 0.000000 0.226083
#
# Coordination Sequence:
#
# PCOD9213348 Si02
#       6
#     8   8   8   8   8   8
#     4  11  22  36  56  83 112 144 188 240 290 342
#     4  11  24  42  60  81 113 154 195 237 285 343
#     4   8  16  31  55  86 116 145 184 233 280 330
#     4  10  22  38  55  81 115 146 184 235 287 337
#     4   9  16  32  58  85 112 147 188 231 279 334
#     4  11  21  37  59  85 115 149 188 235 287 340
#
# _framework density 18.581900000000001
#
# number of rings (size 3 to 8) (size 9 to 14) (size 15 to 20)
#    0.000    2.000    1.667    3.500    0.000    3.333 
#    0.000    4.167    0.000    5.000    0.000    0.000 
#    0.000    0.000    0.000    0.000    0.000    0.000 
#
# Total GULP energy -133994.999661 kJ/mol
# GULP energy per Si atom -5583.124986 kJ/mol
# Density = 1.853961 g / cm^3
# Si number density = 18.581900 Si / 1000 Ang^3
#
#
#
# Elastic Constant Matrix: (Units=GPa)
#
#
# Indices 1 2 3 4 5 6 
#
# 1 144.8779 8.6255 38.8964 0.0000 10.1084 0.0000
# 2 8.6255 21.2539 8.4673 0.0000 1.3149 0.0000
# 3 38.8964 8.4673 83.0716 0.0000 11.6064 0.0000
# 4 0.0000 0.0000 0.0000 19.0502 0.0000 1.9369
# 5 10.1084 1.3149 11.6064 0.0000 34.8533 0.0000
# 6 0.0000 0.0000 0.0000 1.9369 0.0000 28.9269
#
#
#
# Elastic Compliance Matrix: (Units=1/GPa)
#
#
# Indices 1 2 3 4 5 6 
#
# 1 0.008003 -0.001822 -0.003405 0.000000 -0.001118 0.000000
# 2 -0.001822 0.049458 -0.004196 0.000000 0.000060 0.000000
# 3 -0.003405 -0.004196 0.014578 0.000000 -0.003709 0.000000
# 4 0.000000 0.000000 0.000000 0.052853 0.000000 -0.003539
# 5 -0.001118 0.000060 -0.003709 0.000000 0.030249 0.000000
# 6 0.000000 0.000000 0.000000 -0.003539 0.000000 0.034807
#
#
# Mechanical properties :
#
#
# Convention : Reuss Voigt Hill
#
# Bulk Modulus (GPa) = 18.80003 40.13133 29.46568
# Shear Modulus (GPa) = 22.07259 29.44703 25.75981
#
# Velocity S-wave (km/s) = 3.45027 3.98517 3.72732
# Velocity P-wave (km/s) = 5.10018 6.54365 5.86648
#
# Compressibility (1/GPa) = 0.05319141
#
# Stress axis : x y z
#
# Youngs Moduli (GPa) = 124.95123 20.21932 68.59578
#
# Poissons Ratio (x) = 0.03684 0.23359
# Poissons Ratio (y) = 0.22767 0.28785
# Poissons Ratio (z) = 0.42550 0.08485
#
# Static dielectric constant tensor:
#      x y z
#    x 1.628220 0.000000 -0.006770 
#    y 0.000000 1.644090 0.000000 
#    z -0.006770 0.000000 1.620410 
# 
# From -- ./inp_files/108590.got.cif
#   From: 2010.05.17/outbox.cif.g08.bks.cpg/sg12_55_cif.got.tgz:108590.got - 2010.06.03 13:09:07.
