data_PCOD9213069
_publ_section_title
;
Structure prediction by ZEFSAII (Michael W. Deem and Ramdas Pophale) SiO2 
 PCOD9213069
Probable space group: C 2/M
;
_chemical_formula_sum "Si O2"
_cell_formula_units_Z 48
_cell_length_a 16.851939
_cell_length_b 25.232875
_cell_length_c 5.617344
_cell_angle_alpha 90.000000
_cell_angle_beta 113.981795
_cell_angle_gamma 90.000000
_cell_volume 2182.424403
_symmetry_space_group_name_H-M "C 2/M"
_symmetry_group_IT_number 12
_symmetry_cell_setting 'monoclinic'
loop_
_space_group_symop_operation_xyz
x,y,z
-x,y,-z
-x,-y,-z
x,-y,z
1/2+x,1/2+y,z
1/2-x,1/2+y,-z
1/2-x,1/2-y,-z
1/2+x,1/2-y,z
loop_
_atom_site_type_symbol
_atom_site_label
_atom_site_fract_x
_atom_site_fract_y
_atom_site_fract_z
Si Si1 0.413023 0.086802 0.775508
Si Si2 0.408781 0.205698 0.978730
Si Si3 0.153317 0.359579 0.700317
Si Si4 0.172007 0.190244 0.224137
Si Si5 0.602852 0.357818 0.629510
Si Si6 0.251850 0.440326 0.167269
O O1 0.412858 0.099558 0.499460
O O2 0.322507 0.058417 0.720266
O O3 0.500000 0.064386 0.000000
O O4 0.405345 0.147692 0.858169
O O5 0.397696 0.188712 0.238715
O O6 0.500000 0.229347 0.000000
O O7 0.334553 0.246831 0.822114
O O8 0.231024 0.332787 0.647482
O O9 0.207067 0.398599 0.936565
O O10 0.127599 0.175853 0.422443
O O11 0.129416 0.167093 0.922567
O O12 0.500000 0.365910 0.500000
O O13 0.657702 0.412132 0.661279
O O14 0.264071 0.500000 0.092421
#
# Coordination Sequence:
#
# PCOD9213069 Si02
#       6
#     8   8   8   8   8   8
#     4  10  22  41  63  91 130 166 223 273 337 390
#     4  10  22  36  60  96 131 178 216 264 320 396
#     4  10  22  42  63  93 132 176 222 280 331 397
#     4  11  23  42  67  98 139 183 222 264 327 396
#     4  11  23  42  67 100 140 175 220 275 328 399
#     4  10  23  43  65  93 126 171 222 281 343 400
#
# _framework density 21.993888999999999
#
# number of rings (size 3 to 8) (size 9 to 14) (size 15 to 20)
#    0.000    1.667    1.667    2.000    2.333    8.000 
#    0.000    0.833    0.000    3.000    0.000    0.000 
#    0.000    0.000    0.000    0.000    0.000    0.000 
#
# Total GULP energy -133695.868729 kJ/mol
# GULP energy per Si atom -5570.661197 kJ/mol
# Density = 2.194383 g / cm^3
# Si number density = 21.993889 Si / 1000 Ang^3
#
#
#
# Elastic Constant Matrix: (Units=GPa)
#
#
# Indices 1 2 3 4 5 6 
#
# 1 137.0849 24.0666 60.8580 0.0000 2.2566 0.0000
# 2 24.0666 92.9916 12.1387 0.0000 1.6766 0.0000
# 3 60.8580 12.1387 91.0074 0.0000 11.1977 0.0000
# 4 0.0000 0.0000 0.0000 -9.9820 0.0000 -21.6126
# 5 2.2566 1.6766 11.1977 0.0000 24.3303 0.0000
# 6 0.0000 0.0000 0.0000 -21.6126 0.0000 -15.8968
#
#
#
# Elastic Compliance Matrix: (Units=1/GPa)
#
#
# Indices 1 2 3 4 5 6 
#
# 1 0.010823 -0.001894 -0.007290 0.000000 0.002482 0.000000
# 2 -0.001894 0.011276 -0.000173 0.000000 -0.000522 0.000000
# 3 -0.007290 -0.000173 0.016750 0.000000 -0.007021 0.000000
# 4 0.000000 0.000000 0.000000 0.051542 0.000000 -0.070075
# 5 0.002482 -0.000522 -0.007021 0.000000 0.044138 0.000000
# 6 0.000000 0.000000 0.000000 -0.070075 0.000000 0.032364
#
#
# Mechanical properties :
#
#
# Convention : Reuss Voigt Hill
#
# Bulk Modulus (GPa) = 49.66736 57.24561 53.45648
# Shear Modulus (GPa) = 25.99837 14.62501 20.31169
#
# Velocity S-wave (km/s) = 3.44186 2.58148 3.04224
# Velocity P-wave (km/s) = 6.19892 5.91353 6.05790
#
# Compressibility (1/GPa) = 0.02013395
#
# Stress axis : x y z
#
# Youngs Moduli (GPa) = 92.39721 88.68491 59.70113
#
# Poissons Ratio (x) = 0.16798 0.43523
# Poissons Ratio (y) = 0.17501 0.01034
# Poissons Ratio (z) = 0.67359 0.01536
#
# Static dielectric constant tensor:
#      x y z
#    x 1.873690 0.000000 -0.130760 
#    y 0.000000 1.789810 0.000000 
#    z -0.130760 0.000000 2.122200 
# 
# From -- ./inp_files/16938.got.cif
#   From: 2010.05.17/outbox.cif.g08.bks.cpg/sg12_9_cif.got.tgz:16938.got - 2010.06.03 13:09:07.
