data_PCOD9213509
_publ_section_title
;
Structure prediction by ZEFSAII (Michael W. Deem and Ramdas Pophale) SiO2 
 PCOD9213509
Probable space group: C 2/M
;
_chemical_formula_sum "Si O2"
_cell_formula_units_Z 52
_cell_length_a 23.184830
_cell_length_b 17.156820
_cell_length_c 5.348639
_cell_angle_alpha 90.000000
_cell_angle_beta 90.740905
_cell_angle_gamma 90.000000
_cell_volume 2127.392803
_symmetry_space_group_name_H-M "C 2/M"
_symmetry_group_IT_number 12
_symmetry_cell_setting 'monoclinic'
loop_
_space_group_symop_operation_xyz
x,y,z
-x,y,-z
-x,-y,-z
x,-y,z
1/2+x,1/2+y,z
1/2-x,1/2+y,-z
1/2-x,1/2-y,-z
1/2+x,1/2-y,z
loop_
_atom_site_type_symbol
_atom_site_label
_atom_site_fract_x
_atom_site_fract_y
_atom_site_fract_z
Si Si1 0.798673 0.282287 0.328213
Si Si2 0.536977 0.000000 0.744994
Si Si3 0.155693 0.408360 0.307893
Si Si4 0.096326 0.819486 0.686849
Si Si5 0.742308 0.415497 0.035529
Si Si6 0.064811 0.341979 0.896845
Si Si7 0.393791 0.588853 0.834300
O O1 0.750000 0.250000 0.500000
O O2 0.837287 0.347146 0.468493
O O3 0.838164 0.209654 0.259193
O O4 0.766630 0.333534 0.125497
O O5 0.500000 0.000000 0.500000
O O6 0.570949 0.079530 0.739699
O O7 0.500000 0.000000 0.000000
O O8 0.135749 0.500000 0.322933
O O9 0.223383 0.417628 0.225251
O O10 0.113675 0.359856 0.112114
O O11 0.065673 0.737333 0.737952
O O12 0.094658 0.857774 0.411024
O O13 0.078466 0.877023 0.910167
O O14 0.762437 0.500000 0.152846
O O15 0.674510 0.414681 0.096116
O O16 0.000000 0.342478 0.000000
O O17 0.411912 0.500000 0.782581
#
# Coordination Sequence:
#
# PCOD9213509 Si02
#       7
#     8   4   8   8   8   8   8
#     4  12  23  37  63  98 143 187 235 290 358 422
#     4  10  24  46  70 100 140 192 238 292 354 420
#     4  11  23  42  64  96 148 198 251 287 353 426
#     4  12  25  43  72 101 140 185 237 298 363 426
#     4  10  22  38  59  94 140 187 233 275 344 422
#     4  11  25  47  69 105 142 195 249 306 358 428
#     4  11  25  46  72 103 139 183 234 296 367 443
#
# _framework density 24.443065000000001
#
# number of rings (size 3 to 8) (size 9 to 14) (size 15 to 20)
#    0.000    0.923    3.846    2.769    0.000    6.154 
#    1.385    0.000    0.000    2.769    0.000    0.000 
#    0.000    0.000    0.000    0.000    0.000    0.000 
#
# Total GULP energy -144968.380250 kJ/mol
# GULP energy per Si atom -5575.706933 kJ/mol
# Density = 2.438743 g / cm^3
# Si number density = 24.443065 Si / 1000 Ang^3
#
#
#
# Elastic Constant Matrix: (Units=GPa)
#
#
# Indices 1 2 3 4 5 6 
#
# 1 59.6184 21.9441 15.0745 0.0000 -24.1736 0.0000
# 2 21.9441 182.5372 66.6441 0.0000 -31.3405 0.0000
# 3 15.0745 66.6441 93.1958 0.0000 -7.5983 0.0000
# 4 0.0000 0.0000 0.0000 44.1062 0.0000 -14.5266
# 5 -24.1736 -31.3405 -7.5983 0.0000 24.4868 0.0000
# 6 0.0000 0.0000 0.0000 -14.5266 0.0000 36.0268
#
#
#
# Elastic Compliance Matrix: (Units=1/GPa)
#
#
# Indices 1 2 3 4 5 6 
#
# 1 0.029981 0.003859 -0.004918 0.000000 0.033011 0.000000
# 2 0.003859 0.009864 -0.006502 0.000000 0.014416 0.000000
# 3 -0.004918 -0.006502 0.015493 0.000000 -0.008369 0.000000
# 4 0.000000 0.000000 0.000000 0.026145 0.000000 0.010542
# 5 0.033011 0.014416 -0.008369 0.000000 0.089281 0.000000
# 6 0.000000 0.000000 0.000000 0.010542 0.000000 0.032008
#
#
# Mechanical properties :
#
#
# Convention : Reuss Voigt Hill
#
# Bulk Modulus (GPa) = 24.86579 60.29743 42.58161
# Shear Modulus (GPa) = 21.61710 36.36987 28.99348
#
# Velocity S-wave (km/s) = 2.97709 3.86157 3.44781
# Velocity P-wave (km/s) = 4.69174 6.67865 5.77134
#
# Compressibility (1/GPa) = 0.04021589
#
# Stress axis : x y z
#
# Youngs Moduli (GPa) = 33.35404 101.38330 64.54568
#
# Poissons Ratio (x) = -0.39123 0.31741
# Poissons Ratio (y) = -0.12871 0.41969
# Poissons Ratio (z) = 0.16402 0.65922
#
# Static dielectric constant tensor:
#      x y z
#    x 2.075640 0.000000 -0.032630 
#    y 0.000000 1.883320 0.000000 
#    z -0.032630 0.000000 1.996720 
# 
# From -- ./inp_files/28538.got.cif
#   From: 2010.05.17/outbox.cif.g08.bks.cpg/sg12_15_cif.got.tgz:28538.got - 2010.06.03 13:09:07.
