data_PCOD9213727
_publ_section_title
;
Structure prediction by ZEFSAII (Michael W. Deem and Ramdas Pophale) SiO2 
 PCOD9213727
Probable space group: C 2/M
;
_chemical_formula_sum "Si O2"
_cell_formula_units_Z 22
_cell_length_a 8.714638
_cell_length_b 19.743868
_cell_length_c 9.413480
_cell_angle_alpha 90.000000
_cell_angle_beta 31.256944
_cell_angle_gamma 90.000000
_cell_volume 840.419465
_symmetry_space_group_name_H-M "C 2/M"
_symmetry_group_IT_number 12
_symmetry_cell_setting 'monoclinic'
loop_
_space_group_symop_operation_xyz
x,y,z
-x,y,-z
-x,-y,-z
x,-y,z
1/2+x,1/2+y,z
1/2-x,1/2+y,-z
1/2-x,1/2-y,-z
1/2+x,1/2-y,z
loop_
_atom_site_type_symbol
_atom_site_label
_atom_site_fract_x
_atom_site_fract_y
_atom_site_fract_z
Si Si1 0.000000 0.500000 0.000000
Si Si2 0.029154 0.161976 0.773452
Si Si3 0.528256 0.073340 0.267506
Si Si4 0.000000 0.770244 0.500000
O O1 0.047293 0.557390 0.837244
O O2 0.244215 0.097785 0.577471
O O3 0.219703 0.223243 0.684741
O O4 0.934624 0.186263 0.691722
O O5 0.758853 0.134440 0.079281
O O6 0.641131 0.000000 0.229758
#
# Coordination Sequence:
#
# PCOD9213727 Si02
#       4
#     2   8   8   4
#     4   8  20  34  64  92 116 158 200 244 310 354
#     4  11  23  43  62  95 126 161 216 246 315 367
#     4  10  22  38  66  95 119 161 207 267 301 367
#     4  10  26  40  66  88 130 174 198 262 298 374
#
# _framework density 26.177403000000002
#
# number of rings (size 3 to 8) (size 9 to 14) (size 15 to 20)
#    1.091    0.727    0.000    3.273    0.000   11.636 
#    0.000    5.455    0.000    0.000    0.000    0.000 
#    0.000    0.000    0.000    0.000    0.000    0.000 
#
# Total GULP energy -61409.060634 kJ/mol
# GULP energy per Si atom -5582.641876 kJ/mol
# Density = 2.611782 g / cm^3
# Si number density = 26.177403 Si / 1000 Ang^3
#
#
#
# Elastic Constant Matrix: (Units=GPa)
#
#
# Indices 1 2 3 4 5 6 
#
# 1 92.8968 37.0531 15.5927 0.0000 20.9153 0.0000
# 2 37.0531 125.2671 21.3025 0.0000 1.9088 0.0000
# 3 15.5927 21.3025 98.7685 0.0000 14.5478 0.0000
# 4 0.0000 0.0000 0.0000 46.5522 0.0000 5.4534
# 5 20.9153 1.9088 14.5478 0.0000 25.4179 0.0000
# 6 0.0000 0.0000 0.0000 5.4534 0.0000 41.0434
#
#
#
# Elastic Compliance Matrix: (Units=1/GPa)
#
#
# Indices 1 2 3 4 5 6 
#
# 1 0.015250 -0.004384 0.000369 0.000000 -0.012431 0.000000
# 2 -0.004384 0.009552 -0.001959 0.000000 0.004011 0.000000
# 3 0.000369 -0.001959 0.011480 0.000000 -0.006727 0.000000
# 4 0.000000 0.000000 0.000000 0.021821 0.000000 -0.002899
# 5 -0.012431 0.004011 -0.006727 0.000000 0.053120 0.000000
# 6 0.000000 0.000000 0.000000 -0.002899 0.000000 0.024750
#
#
# Mechanical properties :
#
#
# Convention : Reuss Voigt Hill
#
# Bulk Modulus (GPa) = 41.09577 51.64769 46.37173
# Shear Modulus (GPa) = 32.04487 38.80164 35.42325
#
# Velocity S-wave (km/s) = 3.50257 3.85419 3.68258
# Velocity P-wave (km/s) = 5.66484 6.29119 5.98621
#
# Compressibility (1/GPa) = 0.02433340
#
# Stress axis : x y z
#
# Youngs Moduli (GPa) = 65.57338 104.69299 87.11013
#
# Poissons Ratio (x) = 0.45899 -0.03214
# Poissons Ratio (y) = 0.28749 0.17063
# Poissons Ratio (z) = -0.02419 0.20508
#
# Static dielectric constant tensor:
#      x y z
#    x 2.154540 0.000000 -0.019040 
#    y 0.000000 1.985160 0.000000 
#    z -0.019040 0.000000 1.930970 
# 
# From -- ./inp_files/18539.got.cif
#   From: 2010.05.17/outbox.cif.g08.bks.cpg/sg12_10_cif.got.tgz:18539.got - 2010.06.03 13:09:07.
