data_PCOD9213649
_publ_section_title
;
Structure prediction by ZEFSAII (Michael W. Deem and Ramdas Pophale) SiO2 
 PCOD9213649
Probable space group: C 2/M
;
_chemical_formula_sum "Si O2"
_cell_formula_units_Z 48
_cell_length_a 18.421666
_cell_length_b 17.788541
_cell_length_c 16.333249
_cell_angle_alpha 90.000000
_cell_angle_beta 156.060814
_cell_angle_gamma 90.000000
_cell_volume 2171.792339
_symmetry_space_group_name_H-M "C 2/M"
_symmetry_group_IT_number 12
_symmetry_cell_setting 'monoclinic'
loop_
_space_group_symop_operation_xyz
x,y,z
-x,y,-z
-x,-y,-z
x,-y,z
1/2+x,1/2+y,z
1/2-x,1/2+y,-z
1/2-x,1/2-y,-z
1/2+x,1/2-y,z
loop_
_atom_site_type_symbol
_atom_site_label
_atom_site_fract_x
_atom_site_fract_y
_atom_site_fract_z
Si Si1 0.957518 0.084344 0.360339
Si Si2 0.296257 0.775404 0.304982
Si Si3 0.859874 0.082157 0.930506
Si Si4 0.691055 0.914146 0.384565
Si Si5 0.130278 0.319508 0.996485
Si Si6 0.893368 0.813857 0.719483
O O1 0.823935 0.143740 0.180312
O O2 0.000000 0.095256 0.500000
O O3 0.147817 0.086213 0.513189
O O4 0.880914 0.000000 0.272258
O O5 0.500000 0.752272 0.500000
O O6 0.279634 0.855896 0.242365
O O7 0.167086 0.719736 0.121925
O O8 0.221162 0.785122 0.319373
O O9 0.786228 0.000000 0.872423
O O10 0.000000 0.077320 0.000000
O O11 0.978402 0.116474 0.124639
O O12 0.753237 0.850049 0.512836
O O13 0.673604 0.000000 0.399523
O O14 0.511126 0.886636 0.155334
O O15 0.035936 0.252594 0.847071
#
# Coordination Sequence:
#
# PCOD9213649 Si02
#       6
#     8   8   8   8   8   8
#     4  10  24  43  67  98 129 171 224 273 324 386
#     4  10  22  38  62  97 132 171 224 269 317 389
#     4   8  15  32  57  83 120 169 213 255 307 377
#     4  11  25  45  68  95 134 175 214 272 335 390
#     4  11  23  41  68  94 131 172 217 268 322 393
#     4  10  22  40  63  96 132 173 215 265 335 391
#
# _framework density 22.101561
#
# number of rings (size 3 to 8) (size 9 to 14) (size 15 to 20)
#    0.000    2.000    0.000    3.500    7.000    1.667 
#    6.000    2.500    0.000    0.000    0.000    0.000 
#    0.000    0.000    0.000    0.000    0.000    0.000 
#
# Total GULP energy -133867.519648 kJ/mol
# GULP energy per Si atom -5577.813319 kJ/mol
# Density = 2.205126 g / cm^3
# Si number density = 22.101561 Si / 1000 Ang^3
#
#
#
# Elastic Constant Matrix: (Units=GPa)
#
#
# Indices 1 2 3 4 5 6 
#
# 1 21.5823 -2.5736 12.1562 -0.0001 -12.3333 -0.0001
# 2 -2.5736 91.7724 39.4938 -0.0001 -6.9963 -0.0002
# 3 12.1562 39.4938 120.2550 -0.0002 -0.7996 -0.0002
# 4 -0.0001 -0.0001 -0.0002 20.3585 -0.0001 13.4932
# 5 -12.3333 -6.9963 -0.7996 -0.0001 24.4520 0.0000
# 6 -0.0001 -0.0002 -0.0002 13.4932 0.0000 16.9279
#
#
#
# Elastic Compliance Matrix: (Units=1/GPa)
#
#
# Indices 1 2 3 4 5 6 
#
# 1 0.077349 0.009993 -0.010825 0.000000 0.041519 0.000000
# 2 0.009993 0.014287 -0.005643 0.000000 0.008943 0.000000
# 3 -0.010825 -0.005643 0.011218 0.000000 -0.006707 0.000000
# 4 0.000000 0.000000 0.000000 0.104133 0.000001 -0.083005
# 5 0.041519 0.008943 -0.006707 0.000001 0.064177 0.000000
# 6 0.000000 0.000000 0.000000 -0.083005 0.000000 0.125237
#
#
# Mechanical properties :
#
#
# Convention : Reuss Voigt Hill
#
# Bulk Modulus (GPa) = 11.12291 36.86252 23.99271
# Shear Modulus (GPa) = 11.38124 24.64990 18.01557
#
# Velocity S-wave (km/s) = 2.27172 3.34324 2.85814
# Velocity P-wave (km/s) = 3.45319 5.62298 4.66596
#
# Compressibility (1/GPa) = 0.08990454
#
# Stress axis : x y z
#
# Youngs Moduli (GPa) = 12.92848 69.99435 89.13884
#
# Poissons Ratio (x) = -0.69943 0.96489
# Poissons Ratio (y) = -0.12919 0.50298
# Poissons Ratio (z) = 0.13995 0.39496
#
# Static dielectric constant tensor:
#      x y z
#    x 1.808540 0.000000 -0.031630 
#    y 0.000000 1.897670 0.000000 
#    z -0.031630 0.000000 1.797660 
# 
# From -- ./inp_files/285445.got.cif
#   From: 2010.05.17/outbox.cif.g08.bks.cpg/sg12_143_cif.got.tgz:285445.got - 2010.06.03 13:09:07.
