data_PCOD9213521
_publ_section_title
;
Structure prediction by ZEFSAII (Michael W. Deem and Ramdas Pophale) SiO2 
 PCOD9213521
Probable space group: C 2/M
;
_chemical_formula_sum "Si O2"
_cell_formula_units_Z 48
_cell_length_a 10.702934
_cell_length_b 30.829675
_cell_length_c 8.480582
_cell_angle_alpha 90.000000
_cell_angle_beta 63.928707
_cell_angle_gamma 90.000000
_cell_volume 2513.585461
_symmetry_space_group_name_H-M "C 2/M"
_symmetry_group_IT_number 12
_symmetry_cell_setting 'monoclinic'
loop_
_space_group_symop_operation_xyz
x,y,z
-x,y,-z
-x,-y,-z
x,-y,z
1/2+x,1/2+y,z
1/2-x,1/2+y,-z
1/2-x,1/2-y,-z
1/2+x,1/2-y,z
loop_
_atom_site_type_symbol
_atom_site_label
_atom_site_fract_x
_atom_site_fract_y
_atom_site_fract_z
Si Si1 0.675097 0.872959 0.742636
Si Si2 0.157231 0.049898 0.853437
Si Si3 0.697968 0.776012 0.681376
Si Si4 0.409616 0.218003 0.713777
Si Si5 0.156313 0.047082 0.476256
Si Si6 0.644578 0.126099 0.133253
O O1 0.726881 0.827018 0.647605
O O2 0.767536 0.913086 0.644169
O O3 0.520548 0.882386 0.763825
O O4 0.671615 0.867534 0.932738
O O5 0.157217 0.051445 0.664101
O O6 0.262161 0.086468 0.857961
O O7 0.193652 0.000000 0.880926
O O8 0.000000 0.058119 0.000000
O O9 0.750000 0.750000 0.500000
O O10 0.529795 0.773145 0.777594
O O11 0.791830 0.754698 0.765245
O O12 0.500000 0.215539 0.500000
O O13 0.337562 0.171785 0.786612
O O14 0.000000 0.046878 0.500000
O O15 0.219822 0.000000 0.400340
#
# Coordination Sequence:
#
# PCOD9213521 Si02
#       6
#     8   8   8   8   8   8
#     4  10  22  39  59  87 122 158 200 240 299 361
#     4  10  22  40  61  88 119 152 196 246 299 357
#     4   9  19  35  56  83 114 158 196 247 291 347
#     4   9  19  36  58  83 117 154 199 244 298 350
#     4  10  22  39  62  87 118 155 194 246 298 358
#     4  10  22  38  60  86 121 159 191 250 298 346
#
# _framework density 19.096228
#
# number of rings (size 3 to 8) (size 9 to 14) (size 15 to 20)
#    0.000    2.333    0.000    1.000    7.000    5.333 
#    3.000    3.333    0.000    0.000    0.000    0.000 
#    0.000    0.000    0.000    0.000    0.000    0.000 
#
# Total GULP energy -133873.882276 kJ/mol
# GULP energy per Si atom -5578.078428 kJ/mol
# Density = 1.905276 g / cm^3
# Si number density = 19.096228 Si / 1000 Ang^3
#
#
#
# Elastic Constant Matrix: (Units=GPa)
#
#
# Indices 1 2 3 4 5 6 
#
# 1 88.3661 90.9249 12.6050 0.0000 -2.8828 0.0000
# 2 90.9249 186.7640 44.6759 0.0000 -22.6288 0.0000
# 3 12.6050 44.6759 36.1600 0.0000 -9.9315 0.0000
# 4 0.0000 0.0000 0.0000 18.3119 0.0000 -4.7968
# 5 -2.8828 -22.6288 -9.9315 0.0000 17.0455 0.0000
# 6 0.0000 0.0000 0.0000 -4.7968 0.0000 46.5261
#
#
#
# Elastic Compliance Matrix: (Units=1/GPa)
#
#
# Indices 1 2 3 4 5 6 
#
# 1 0.026542 -0.016209 0.007258 0.000000 -0.012800 0.000000
# 2 -0.016209 0.017959 -0.012789 0.000000 0.013648 0.000000
# 3 0.007258 -0.012789 0.043573 0.000000 0.009637 0.000000
# 4 0.000000 0.000000 0.000000 0.056125 0.000000 0.005786
# 5 -0.012800 0.013648 0.009637 0.000000 0.080235 0.000000
# 6 0.000000 0.000000 0.000000 0.005786 0.000000 0.022090
#
#
# Mechanical properties :
#
#
# Convention : Reuss Voigt Hill
#
# Bulk Modulus (GPa) = 22.42472 67.52242 44.97357
# Shear Modulus (GPa) = 16.40060 27.24899 21.82480
#
# Velocity S-wave (km/s) = 2.93378 3.78157 3.38433
# Velocity P-wave (km/s) = 4.82126 7.38260 6.23488
#
# Compressibility (1/GPa) = 0.04459365
#
# Stress axis : x y z
#
# Youngs Moduli (GPa) = 37.67617 55.68378 22.95024
#
# Poissons Ratio (x) = 0.90258 -0.16658
# Poissons Ratio (y) = 0.61069 0.29351
# Poissons Ratio (z) = -0.27347 0.71215
#
# Static dielectric constant tensor:
#      x y z
#    x 1.689490 0.000000 0.036780 
#    y 0.000000 1.652790 0.000000 
#    z 0.036780 0.000000 1.668010 
# 
# From -- ./inp_files/52407.got.cif
#   From: 2010.05.17/outbox.cif.g08.bks.cpg/sg12_27_cif.got.tgz:52407.got - 2010.06.03 13:09:07.
