data_PCOD9213477
_publ_section_title
;
Structure prediction by ZEFSAII (Michael W. Deem and Ramdas Pophale) SiO2 
 PCOD9213477
Probable space group: C 2/M
;
_chemical_formula_sum "Si O2"
_cell_formula_units_Z 28
_cell_length_a 8.797593
_cell_length_b 12.636940
_cell_length_c 12.182494
_cell_angle_alpha 90.000000
_cell_angle_beta 117.504164
_cell_angle_gamma 90.000000
_cell_volume 1201.308329
_symmetry_space_group_name_H-M "C 2/M"
_symmetry_group_IT_number 12
_symmetry_cell_setting 'monoclinic'
loop_
_space_group_symop_operation_xyz
x,y,z
-x,y,-z
-x,-y,-z
x,-y,z
1/2+x,1/2+y,z
1/2-x,1/2+y,-z
1/2-x,1/2-y,-z
1/2+x,1/2-y,z
loop_
_atom_site_type_symbol
_atom_site_label
_atom_site_fract_x
_atom_site_fract_y
_atom_site_fract_z
Si Si1 0.581590 0.286498 0.257081
Si Si2 0.257885 0.500000 0.017626
Si Si3 0.500000 0.819267 0.000000
Si Si4 0.151677 0.878289 0.639082
Si Si5 0.164395 0.000000 0.206685
O O1 0.685546 0.189215 0.342805
O O2 0.424286 0.318844 0.280609
O O3 0.695920 0.392558 0.283279
O O4 0.528718 0.251463 0.116987
O O5 0.158594 0.397453 0.028899
O O6 0.457859 0.500000 0.115468
O O7 0.246760 0.500000 0.881609
O O8 0.000000 0.878551 0.500000
O O9 0.196267 0.000000 0.679253
#
# Coordination Sequence:
#
# PCOD9213477 Si02
#       5
#     8   4   4   8   4
#     4  12  24  44  70 103 139 180 221 283 338 409
#     4  10  22  38  58  96 144 178 218 264 324 418
#     4  11  24  37  66 104 138 175 219 272 344 408
#     4  11  26  49  73  98 134 181 233 285 334 393
#     4  11  22  38  62  94 138 182 218 267 336 396
#
# _framework density 23.307922000000001
#
# number of rings (size 3 to 8) (size 9 to 14) (size 15 to 20)
#    0.000    0.857    1.429    6.000    4.000    3.429 
#    2.571    0.714    0.000    0.000    0.000    0.000 
#    0.000    0.000    0.000    0.000    0.000    0.000 
#
# Total GULP energy -78485.200307 kJ/mol
# GULP energy per Si atom -5606.085736 kJ/mol
# Density = 2.325487 g / cm^3
# Si number density = 23.307922 Si / 1000 Ang^3
#
#
#
# Elastic Constant Matrix: (Units=GPa)
#
#
# Indices 1 2 3 4 5 6 
#
# 1 87.4934 47.6267 0.9753 0.0000 -5.4368 0.0000
# 2 47.6267 175.7397 18.4858 0.0000 16.1954 0.0000
# 3 0.9753 18.4858 43.8080 0.0000 9.7949 0.0000
# 4 0.0000 0.0000 0.0000 35.8369 0.0000 -6.4295
# 5 -5.4368 16.1954 9.7949 0.0000 22.9335 0.0000
# 6 0.0000 0.0000 0.0000 -6.4295 0.0000 -3.7917
#
#
#
# Elastic Compliance Matrix: (Units=1/GPa)
#
#
# Indices 1 2 3 4 5 6 
#
# 1 0.014269 -0.004478 0.000120 0.000000 0.006494 0.000000
# 2 -0.004478 0.007619 -0.001852 0.000000 -0.005651 0.000000
# 3 0.000120 -0.001852 0.025768 0.000000 -0.009669 0.000000
# 4 0.000000 0.000000 0.000000 0.021395 0.000000 -0.036279
# 5 0.006494 -0.005651 -0.009669 0.000000 0.053264 0.000000
# 6 0.000000 0.000000 0.000000 -0.036279 0.000000 -0.202216
#
#
# Mechanical properties :
#
#
# Convention : Reuss Voigt Hill
#
# Bulk Modulus (GPa) = 28.37990 49.02407 38.70198
# Shear Modulus (GPa) = -89.71137 26.99264 -31.35936
#
# Velocity S-wave (km/s) = -6.21073 3.40676 -3.67200
# Velocity P-wave (km/s) = 6.26326 6.04596 1.15647
#
# Compressibility (1/GPa) = 0.03523621
#
# Stress axis : x y z
#
# Youngs Moduli (GPa) = 70.08047 131.24280 38.80847
#
# Poissons Ratio (x) = 0.58773 -0.00466
# Poissons Ratio (y) = 0.31383 0.07187
# Poissons Ratio (z) = -0.00841 0.24305
#
# Static dielectric constant tensor:
#      x y z
#    x 1.892130 0.000000 0.009480 
#    y 0.000000 1.890940 0.000000 
#    z 0.009480 0.000000 1.888940 
# 
# From -- ./inp_files/193060.got.cif
#   From: 2010.05.17/outbox.cif.g08.bks.cpg/sg12_97_cif.got.tgz:193060.got - 2010.06.03 13:09:07.
