data_PCOD9213039
_publ_section_title
;
Structure prediction by ZEFSAII (Michael W. Deem and Ramdas Pophale) SiO2 
 PCOD9213039
Probable space group: C 2/M
;
_chemical_formula_sum "Si O2"
_cell_formula_units_Z 48
_cell_length_a 19.840598
_cell_length_b 13.816459
_cell_length_c 11.687725
_cell_angle_alpha 90.000000
_cell_angle_beta 132.796854
_cell_angle_gamma 90.000000
_cell_volume 2350.930399
_symmetry_space_group_name_H-M "C 2/M"
_symmetry_group_IT_number 12
_symmetry_cell_setting 'monoclinic'
loop_
_space_group_symop_operation_xyz
x,y,z
-x,y,-z
-x,-y,-z
x,-y,z
1/2+x,1/2+y,z
1/2-x,1/2+y,-z
1/2-x,1/2-y,-z
1/2+x,1/2-y,z
loop_
_atom_site_type_symbol
_atom_site_label
_atom_site_fract_x
_atom_site_fract_y
_atom_site_fract_z
Si Si1 0.290620 0.111064 0.231055
Si Si2 0.369652 0.181953 0.106410
Si Si3 0.899765 0.500000 0.737421
Si Si4 0.097992 0.183486 0.071016
Si Si5 0.046084 0.291562 0.443480
Si Si6 0.648622 0.785357 0.358710
Si Si7 0.378712 0.000000 0.975768
O O1 0.297964 0.183193 0.129620
O O2 0.190356 0.119810 0.172507
O O3 0.371658 0.144986 0.408946
O O4 0.305712 0.000000 0.212969
O O5 0.461926 0.153948 0.284557
O O6 0.340108 0.094951 0.990896
O O7 0.400738 0.265403 0.052948
O O8 0.865860 0.400320 0.642972
O O9 0.010521 0.500000 0.877067
O O10 0.861714 0.500000 0.822398
O O11 0.116128 0.261051 0.193415
O O12 0.000000 0.140135 0.000000
O O13 0.089561 0.232762 0.389553
O O14 0.000000 0.239979 0.500000
O O15 0.750000 0.750000 0.500000
#
# Coordination Sequence:
#
# PCOD9213039 Si02
#       7
#     8   8   4   8   8   8   4
#     4  11  25  39  58  89 125 161 196 240 299 365
#     4  11  21  38  61  91 120 151 191 250 304 357
#     4  11  22  34  58  92 117 153 194 245 308 354
#     4  12  23  40  62  86 118 162 207 243 291 350
#     4  10  22  36  58  87 119 150 186 245 311 361
#     4  12  23  39  58  87 121 154 197 247 296 359
#     4  11  18  32  62  90 118 140 191 252 310 356
#
# _framework density 20.417449000000001
#
# number of rings (size 3 to 8) (size 9 to 14) (size 15 to 20)
#    0.000    0.833    7.500    0.500    2.333    1.333 
#    0.000    0.000    0.000    0.000    0.000    0.583 
#    0.000    0.333    0.000    0.000    0.000    0.000 
#
# Total GULP energy -133607.853882 kJ/mol
# GULP energy per Si atom -5566.993912 kJ/mol
# Density = 2.037098 g / cm^3
# Si number density = 20.417449 Si / 1000 Ang^3
#
#
#
# Elastic Constant Matrix: (Units=GPa)
#
#
# Indices 1 2 3 4 5 6 
#
# 1 154.7817 -2.3509 40.9404 0.0000 -4.7484 0.0000
# 2 -2.3509 25.7540 10.8339 0.0000 -1.5230 0.0000
# 3 40.9404 10.8339 87.4728 0.0000 -8.6428 0.0000
# 4 0.0000 0.0000 0.0000 13.0462 0.0000 -3.8989
# 5 -4.7484 -1.5230 -8.6428 0.0000 48.9171 0.0000
# 6 0.0000 0.0000 0.0000 -3.8989 0.0000 19.2785
#
#
#
# Elastic Compliance Matrix: (Units=1/GPa)
#
#
# Indices 1 2 3 4 5 6 
#
# 1 0.007499 0.002282 -0.003780 0.000000 0.000131 0.000000
# 2 0.002282 0.041665 -0.006186 0.000000 0.000426 0.000000
# 3 -0.003780 -0.006186 0.014159 0.000000 0.001942 0.000000
# 4 0.000000 0.000000 0.000000 0.081582 0.000000 0.016499
# 5 0.000131 0.000426 0.001942 0.000000 0.020812 0.000000
# 6 0.000000 0.000000 0.000000 0.016499 0.000000 0.055208
#
#
# Mechanical properties :
#
#
# Convention : Reuss Voigt Hill
#
# Bulk Modulus (GPa) = 20.85263 40.76171 30.80717
# Shear Modulus (GPa) = 19.81945 30.82072 25.32009
#
# Velocity S-wave (km/s) = 3.11900 3.88948 3.52535
# Velocity P-wave (km/s) = 4.81728 6.33863 5.62959
#
# Compressibility (1/GPa) = 0.04795559
#
# Stress axis : x y z
#
# Youngs Moduli (GPa) = 133.34928 24.00103 70.62545
#
# Poissons Ratio (x) = -0.05478 0.26693
# Poissons Ratio (y) = -0.30433 0.43692
# Poissons Ratio (z) = 0.50400 0.14848
#
# Static dielectric constant tensor:
#      x y z
#    x 1.840810 0.000000 0.000200 
#    y 0.000000 1.704740 0.000000 
#    z 0.000200 0.000000 1.755240 
# 
# From -- ./inp_files/167675.got.cif
#   From: 2010.05.17/outbox.cif.g08.bks.cpg/sg12_84_cif.got.tgz:167675.got - 2010.06.03 13:09:07.
