data_PCOD9213930
_publ_section_title
;
Structure prediction by ZEFSAII (Michael W. Deem and Ramdas Pophale) SiO2 
 PCOD9213930
Probable space group: C 2/M
;
_chemical_formula_sum "Si O2"
_cell_formula_units_Z 28
_cell_length_a 15.196828
_cell_length_b 13.944725
_cell_length_c 7.655300
_cell_angle_alpha 90.000000
_cell_angle_beta 38.797840
_cell_angle_gamma 90.000000
_cell_volume 1016.477535
_symmetry_space_group_name_H-M "C 2/M"
_symmetry_group_IT_number 12
_symmetry_cell_setting 'monoclinic'
loop_
_space_group_symop_operation_xyz
x,y,z
-x,y,-z
-x,-y,-z
x,-y,z
1/2+x,1/2+y,z
1/2-x,1/2+y,-z
1/2-x,1/2-y,-z
1/2+x,1/2-y,z
loop_
_atom_site_type_symbol
_atom_site_label
_atom_site_fract_x
_atom_site_fract_y
_atom_site_fract_z
Si Si1 0.019524 0.367078 0.765543
Si Si2 0.721205 0.500000 0.676780
Si Si3 0.542988 0.362780 0.701822
Si Si4 0.726151 0.637533 0.069778
O O1 0.155553 0.417026 0.479338
O O2 0.033924 0.251519 0.740508
O O3 0.000000 0.393547 0.000000
O O4 0.881760 0.396582 0.870737
O O5 0.624111 0.417201 0.725702
O O6 0.384253 0.400376 0.904618
O O7 0.637580 0.377188 0.383436
O O8 0.750000 0.750000 0.000000
#
# Coordination Sequence:
#
# PCOD9213930 Si02
#       4
#     8   4   8   8
#     4  11  22  38  61  89 118 153 196 240 295 342
#     4  12  23  35  61  96 114 153 194 251 284 344
#     4  10  22  39  60  88 120 154 196 240 292 347
#     4   9  20  38  62  84 116 158 195 235 294 343
#
# _framework density 27.546108
#
# number of rings (size 3 to 8) (size 9 to 14) (size 15 to 20)
#    0.000    1.714    2.857    1.286    0.000    3.429 
#    0.000    0.714    0.000   15.429    0.000    0.000 
#    0.000    0.000    0.000    0.000    0.000    0.000 
#
# Total GULP energy -78051.747188 kJ/mol
# GULP energy per Si atom -5575.124799 kJ/mol
# Density = 2.748341 g / cm^3
# Si number density = 27.546108 Si / 1000 Ang^3
#
#
#
# Elastic Constant Matrix: (Units=GPa)
#
#
# Indices 1 2 3 4 5 6 
#
# 1 271.9726 24.7067 82.6656 0.0000 -65.8746 0.0000
# 2 24.7067 221.2626 -16.6328 0.0000 -47.0684 0.0000
# 3 82.6656 -16.6328 162.1940 0.0000 -52.0213 0.0000
# 4 0.0000 0.0000 0.0000 -135.9061 0.0000 -124.9952
# 5 -65.8746 -47.0684 -52.0213 0.0000 95.5999 0.0000
# 6 0.0000 0.0000 0.0000 -124.9952 0.0000 7.2727
#
#
#
# Elastic Compliance Matrix: (Units=1/GPa)
#
#
# Indices 1 2 3 4 5 6 
#
# 1 0.004763 -0.000182 -0.001723 0.000000 0.002255 0.000000
# 2 -0.000182 0.005419 0.001774 0.000000 0.003508 0.000000
# 3 -0.001723 0.001774 0.008631 0.000000 0.004383 0.000000
# 4 0.000000 0.000000 0.000000 -0.000438 0.000000 -0.007524
# 5 0.002255 0.003508 0.004383 0.000000 0.016126 0.000000
# 6 0.000000 0.000000 0.000000 -0.007524 0.000000 0.008181
#
#
# Mechanical properties :
#
#
# Convention : Reuss Voigt Hill
#
# Bulk Modulus (GPa) = 53.90405 92.98981 73.44693
# Shear Modulus (GPa) = 101.77172 31.03928 66.40550
#
# Velocity S-wave (km/s) = 6.08491 3.36044 4.91522
# Velocity P-wave (km/s) = 8.30538 6.99199 7.67683
#
# Compressibility (1/GPa) = 0.01855148
#
# Stress axis : x y z
#
# Youngs Moduli (GPa) = 209.93934 184.52257 115.85933
#
# Poissons Ratio (x) = 0.03352 0.19963
# Poissons Ratio (y) = 0.03814 -0.20548
# Poissons Ratio (z) = 0.36173 -0.32725
#
# Static dielectric constant tensor:
#      x y z
#    x 2.109130 0.000000 0.123350 
#    y 0.000000 2.131900 0.000000 
#    z 0.123350 0.000000 2.236640 
# 
# From -- ./inp_files/45157.got.cif
#   From: 2010.05.17/outbox.cif.g08.bks.cpg/sg12_23_cif.got.tgz:45157.got - 2010.06.03 13:09:07.
