data_PCOD9213319
_publ_section_title
;
Structure prediction by ZEFSAII (Michael W. Deem and Ramdas Pophale) SiO2 
 PCOD9213319
Probable space group: C 2/M
;
_chemical_formula_sum "Si O2"
_cell_formula_units_Z 64
_cell_length_a 21.616560
_cell_length_b 17.404843
_cell_length_c 7.835169
_cell_angle_alpha 90.000000
_cell_angle_beta 81.659228
_cell_angle_gamma 90.000000
_cell_volume 2916.667895
_symmetry_space_group_name_H-M "C 2/M"
_symmetry_group_IT_number 12
_symmetry_cell_setting 'monoclinic'
loop_
_space_group_symop_operation_xyz
x,y,z
-x,y,-z
-x,-y,-z
x,-y,z
1/2+x,1/2+y,z
1/2-x,1/2+y,-z
1/2-x,1/2-y,-z
1/2+x,1/2-y,z
loop_
_atom_site_type_symbol
_atom_site_label
_atom_site_fract_x
_atom_site_fract_y
_atom_site_fract_z
Si Si1 0.960701 0.913515 0.692014
Si Si2 0.086178 0.089968 0.832161
Si Si3 0.350959 0.268621 0.032743
Si Si4 0.968265 0.583919 0.700680
Si Si5 0.223051 0.729748 0.281959
Si Si6 0.156233 0.588497 0.444474
Si Si7 0.373646 0.324077 0.501011
Si Si8 0.422575 0.182065 0.264623
O O1 0.907783 0.853973 0.657823
O O2 0.000000 0.917984 0.500000
O O3 0.013420 0.893788 0.811089
O O4 0.936951 0.000000 0.736080
O O5 0.116057 0.147982 0.957594
O O6 0.123361 0.109453 0.641655
O O7 0.091169 0.000000 0.869784
O O8 0.293605 0.264105 0.191626
O O9 0.399752 0.208244 0.089665
O O10 0.320134 0.244968 0.868065
O O11 0.976687 0.500000 0.779714
O O12 0.007467 0.650859 0.769950
O O13 0.000000 0.579778 0.500000
O O14 0.896409 0.595758 0.683263
O O15 0.209235 0.646546 0.365276
O O16 0.194156 0.791392 0.424951
O O17 0.174311 0.500000 0.452797
O O18 0.122316 0.617937 0.630920
O O19 0.413085 0.254337 0.397855
#
# Coordination Sequence:
#
# PCOD9213319 Si02
#       8
#     8   8   8   8   8   8   8   8
#     4   8  14  27  48  76 106 128 151 194 252 304
#     4   9  18  33  55  80 102 128 164 205 250 299
#     4  10  22  38  51  67  99 140 175 208 249 295
#     4   8  14  27  48  76 106 128 151 194 252 304
#     4  10  22  38  51  67  99 140 175 208 249 295
#     4   9  18  33  55  80 102 128 164 205 250 299
#     4   9  17  29  52  78 101 129 165 205 245 292
#     4   9  17  29  52  78 101 129 165 205 245 292
#
# _framework density 21.942848999999999
#
# number of rings (size 3 to 8) (size 9 to 14) (size 15 to 20)
#    0.000    3.000    0.000    2.250    0.000   16.500 
#    0.000    5.000    0.000    8.250    0.000    0.000 
#    0.000    0.000    0.000    0.000    0.000    0.000 
#
# Total GULP energy -178629.079516 kJ/mol
# GULP energy per Si atom -5582.158735 kJ/mol
# Density = 2.189291 g / cm^3
# Si number density = 21.942849 Si / 1000 Ang^3
#
#
#
# Elastic Constant Matrix: (Units=GPa)
#
#
# Indices 1 2 3 4 5 6 
#
# 1 72.0598 52.3351 15.4283 0.0000 9.9744 0.0000
# 2 52.3351 104.7808 25.0144 0.0000 11.3937 0.0000
# 3 15.4283 25.0144 90.7993 0.0000 11.5781 0.0000
# 4 0.0000 0.0000 0.0000 -12.8255 0.0000 -18.2707
# 5 9.9744 11.3937 11.5781 0.0000 36.5586 0.0000
# 6 0.0000 0.0000 0.0000 -18.2707 0.0000 -1.3330
#
#
#
# Elastic Compliance Matrix: (Units=1/GPa)
#
#
# Indices 1 2 3 4 5 6 
#
# 1 0.022047 -0.010616 -0.000496 0.000000 -0.002549 0.000000
# 2 -0.010616 0.015532 -0.002321 0.000000 -0.001209 0.000000
# 3 -0.000496 -0.002321 0.012117 0.000000 -0.002979 0.000000
# 4 0.000000 0.000000 0.000000 0.004209 0.000000 -0.057687
# 5 -0.002549 -0.001209 -0.002979 0.000000 0.029369 0.000000
# 6 0.000000 0.000000 0.000000 -0.057687 0.000000 0.040495
#
#
# Mechanical properties :
#
#
# Convention : Reuss Voigt Hill
#
# Bulk Modulus (GPa) = 43.80449 50.35504 47.07977
# Shear Modulus (GPa) = 31.59687 16.13749 23.86718
#
# Velocity S-wave (km/s) = 3.79880 2.71483 3.30160
# Velocity P-wave (km/s) = 6.26478 5.72932 6.00303
#
# Compressibility (1/GPa) = 0.02282871
#
# Stress axis : x y z
#
# Youngs Moduli (GPa) = 45.35844 64.38465 82.52976
#
# Poissons Ratio (x) = 0.68350 0.04097
# Poissons Ratio (y) = 0.48152 0.19154
# Poissons Ratio (z) = 0.02252 0.14943
#
# Static dielectric constant tensor:
#      x y z
#    x 1.807080 0.000000 0.011750 
#    y 0.000000 1.815820 0.000000 
#    z 0.011750 0.000000 1.869650 
# 
# From -- ./inp_files/87986.got.cif
#   From: 2010.05.17/outbox.cif.g08.bks.cpg/sg12_44_cif.got.tgz:87986.got - 2010.06.03 13:09:07.
