data_PCOD9213078
_publ_section_title
;
Structure prediction by ZEFSAII (Michael W. Deem and Ramdas Pophale) SiO2 
 PCOD9213078
Probable space group: C 2/M
;
_chemical_formula_sum "Si O2"
_cell_formula_units_Z 50
_cell_length_a 10.705783
_cell_length_b 15.649500
_cell_length_c 16.033253
_cell_angle_alpha 90.000000
_cell_angle_beta 124.398411
_cell_angle_gamma 90.000000
_cell_volume 2216.473213
_symmetry_space_group_name_H-M "C 2/M"
_symmetry_group_IT_number 12
_symmetry_cell_setting 'monoclinic'
loop_
_space_group_symop_operation_xyz
x,y,z
-x,y,-z
-x,-y,-z
x,-y,z
1/2+x,1/2+y,z
1/2-x,1/2+y,-z
1/2-x,1/2-y,-z
1/2+x,1/2-y,z
loop_
_atom_site_type_symbol
_atom_site_label
_atom_site_fract_x
_atom_site_fract_y
_atom_site_fract_z
Si Si1 0.907480 0.841805 0.705062
Si Si2 0.904720 0.358699 0.081973
Si Si3 0.356813 0.824588 0.499423
Si Si4 0.410774 0.141228 0.699002
Si Si5 0.419388 0.595195 0.381061
Si Si6 0.939122 0.154364 0.068493
Si Si7 0.500000 0.000000 0.000000
O O1 0.755493 0.875869 0.603913
O O2 0.877516 0.741197 0.705823
O O3 0.033635 0.847969 0.679897
O O4 0.965278 0.876160 0.815249
O O5 0.932694 0.258721 0.071972
O O6 0.938090 0.375009 0.191922
O O7 0.012206 0.423975 0.075135
O O8 0.733205 0.378036 0.990613
O O9 0.500000 0.794690 0.500000
O O10 0.250000 0.750000 0.500000
O O11 0.419503 0.872709 0.603880
O O12 0.259224 0.096336 0.672847
O O13 0.500000 0.615380 0.500000
O O14 0.471271 0.500000 0.378342
O O15 0.000000 0.131791 0.000000
#
# Coordination Sequence:
#
# PCOD9213078 Si02
#       7
#     8   8   8   8   8   8   2
#     4  10  23  36  66  95 129 180 224 273 333 403
#     4  10  24  39  65  96 130 172 218 281 336 390
#     4  10  22  36  61  97 135 170 224 279 334 395
#     4  10  23  36  65  97 133 168 229 280 329 394
#     4  11  24  42  64 100 143 179 221 275 351 413
#     4  10  22  43  63  92 133 177 227 272 330 405
#     4  12  24  44  66 104 132 170 226 282 336 406
#
# _framework density 22.55836
#
# number of rings (size 3 to 8) (size 9 to 14) (size 15 to 20)
#    0.000    1.760    2.400    0.000   14.560    2.560 
#    0.000    0.400    0.000    1.920    0.000    0.000 
#    0.000    0.000    0.000    0.000    0.000    0.000 
#
# Total GULP energy -139213.543076 kJ/mol
# GULP energy per Si atom -5568.541723 kJ/mol
# Density = 2.250702 g / cm^3
# Si number density = 22.558360 Si / 1000 Ang^3
#
#
#
# Elastic Constant Matrix: (Units=GPa)
#
#
# Indices 1 2 3 4 5 6 
#
# 1 91.9314 0.7632 31.9536 0.0000 -11.0875 0.0000
# 2 0.7632 35.3265 -3.0070 0.0000 1.5774 0.0000
# 3 31.9536 -3.0070 220.7344 0.0000 -0.1860 0.0000
# 4 0.0000 0.0000 0.0000 -16.9459 0.0000 10.6229
# 5 -11.0875 1.5774 -0.1860 0.0000 30.3219 0.0000
# 6 0.0000 0.0000 0.0000 10.6229 0.0000 10.0310
#
#
#
# Elastic Compliance Matrix: (Units=1/GPa)
#
#
# Indices 1 2 3 4 5 6 
#
# 1 0.012022 -0.000605 -0.001745 0.000000 0.004417 0.000000
# 2 -0.000605 0.028437 0.000474 0.000000 -0.001698 0.000000
# 3 -0.001745 0.000474 0.004789 0.000000 -0.000633 0.000000
# 4 0.000000 0.000000 0.000000 -0.035466 0.000000 0.037559
# 5 0.004417 -0.001698 -0.000633 0.000000 0.034679 0.000000
# 6 0.000000 0.000000 0.000000 0.037559 0.000000 0.059915
#
#
# Mechanical properties :
#
#
# Convention : Reuss Voigt Hill
#
# Bulk Modulus (GPa) = 24.09993 45.26801 34.68397
# Shear Modulus (GPa) = 40.99713 25.90023 33.44868
#
# Velocity S-wave (km/s) = 4.26770 3.39210 3.85484
# Velocity P-wave (km/s) = 5.91531 5.95420 5.93479
#
# Compressibility (1/GPa) = 0.04149390
#
# Stress axis : x y z
#
# Youngs Moduli (GPa) = 83.18192 35.16599 208.81930
#
# Poissons Ratio (x) = 0.02129 0.36435
# Poissons Ratio (y) = 0.05036 -0.09890
# Poissons Ratio (z) = 0.14514 -0.01665
#
# Static dielectric constant tensor:
#      x y z
#    x 1.821180 0.000000 0.012080 
#    y 0.000000 1.830230 0.000000 
#    z 0.012080 0.000000 1.939260 
# 
# From -- ./inp_files/206323.got.cif
#   From: 2010.05.17/outbox.cif.g08.bks.cpg/sg12_104_cif.got.tgz:206323.got - 2010.06.03 13:09:07.
