data_PCOD9213296
_publ_section_title
;
Structure prediction by ZEFSAII (Michael W. Deem and Ramdas Pophale) SiO2 
 PCOD9213296
Probable space group: C 2/M
;
_chemical_formula_sum "Si O2"
_cell_formula_units_Z 52
_cell_length_a 15.759350
_cell_length_b 17.333352
_cell_length_c 15.493174
_cell_angle_alpha 90.000000
_cell_angle_beta 144.035705
_cell_angle_gamma 90.000000
_cell_volume 2485.462380
_symmetry_space_group_name_H-M "C 2/M"
_symmetry_group_IT_number 12
_symmetry_cell_setting 'monoclinic'
loop_
_space_group_symop_operation_xyz
x,y,z
-x,y,-z
-x,-y,-z
x,-y,z
1/2+x,1/2+y,z
1/2-x,1/2+y,-z
1/2-x,1/2-y,-z
1/2+x,1/2-y,z
loop_
_atom_site_type_symbol
_atom_site_label
_atom_site_fract_x
_atom_site_fract_y
_atom_site_fract_z
Si Si1 0.937857 0.330285 0.811519
Si Si2 0.845564 0.313300 0.262157
Si Si3 0.158034 0.000000 0.842492
Si Si4 0.322246 0.337763 0.705854
Si Si5 0.608303 0.416681 0.979665
Si Si6 0.889610 0.409088 0.594879
Si Si7 0.736049 0.849266 0.153213
O O1 0.896792 0.244056 0.747328
O O2 0.900866 0.389111 0.704925
O O3 0.843867 0.345175 0.819738
O O4 0.105049 0.337308 0.976762
O O5 0.804104 0.323650 0.328322
O O6 0.845098 0.222888 0.239953
O O7 0.984650 0.360062 0.347340
O O8 0.712726 0.351604 0.100935
O O9 0.135561 0.065965 0.901142
O O10 0.192355 0.068769 0.802019
O O11 0.443770 0.389969 0.851038
O O12 0.258539 0.380084 0.570191
O O13 0.637567 0.500000 0.046699
O O14 0.908602 0.500000 0.596196
#
# Coordination Sequence:
#
# PCOD9213296 Si02
#       7
#     8   8   4   8   8   8   8
#     4  10  23  41  68  94 127 174 214 266 326 380
#     4  11  23  41  67  95 127 171 218 268 315 378
#     4  10  24  37  63 103 126 160 204 273 338 357
#     4  11  23  45  63  91 131 178 213 259 323 384
#     4  10  22  37  63  96 126 161 217 259 321 373
#     4  12  27  40  64  99 135 172 216 263 319 385
#     4  10  22  42  69  98 128 160 221 274 320 378
#
# _framework density 20.921661
#
# number of rings (size 3 to 8) (size 9 to 14) (size 15 to 20)
#    0.462    0.923    1.538    3.231    6.462    5.538 
#    0.000    0.000    0.000    0.923    0.000    0.000 
#    0.000    0.000    0.000    0.000    0.000    0.000 
#
# Total GULP energy -144797.069741 kJ/mol
# GULP energy per Si atom -5569.118067 kJ/mol
# Density = 2.087404 g / cm^3
# Si number density = 20.921661 Si / 1000 Ang^3
#
#
#
# Elastic Constant Matrix: (Units=GPa)
#
#
# Indices 1 2 3 4 5 6 
#
# 1 32.8372 35.0797 11.0665 0.0001 -0.3049 0.0000
# 2 35.0797 183.0988 29.8851 -0.0003 -4.7990 -0.0002
# 3 11.0665 29.8851 80.8194 -0.0007 -8.5581 -0.0006
# 4 0.0001 -0.0003 -0.0007 10.0981 -0.0005 -19.2158
# 5 -0.3049 -4.7990 -8.5581 -0.0005 15.3284 -0.0003
# 6 0.0000 -0.0002 -0.0006 -19.2158 -0.0003 20.7343
#
#
#
# Elastic Compliance Matrix: (Units=1/GPa)
#
#
# Indices 1 2 3 4 5 6 
#
# 1 0.038991 -0.007052 -0.003064 0.000002 -0.003143 0.000001
# 2 -0.007052 0.007094 -0.001528 0.000000 0.001228 0.000000
# 3 -0.003064 -0.001528 0.014136 -0.000003 0.007353 -0.000002
# 4 0.000002 0.000000 -0.000003 -0.129692 -0.000008 -0.120195
# 5 -0.003143 0.001228 0.007353 -0.000008 0.069666 -0.000006
# 6 0.000001 0.000000 -0.000002 -0.120195 -0.000006 -0.063163
#
#
# Mechanical properties :
#
#
# Convention : Reuss Voigt Hill
#
# Bulk Modulus (GPa) = 27.07580 49.86867 38.47224
# Shear Modulus (GPa) = -182.68558 23.94709 -79.36924
#
# Velocity S-wave (km/s) = -9.35459 3.38688 -6.16593
# Velocity P-wave (km/s) = 10.18373 6.25957 5.68006
#
# Compressibility (1/GPa) = 0.03693335
#
# Stress axis : x y z
#
# Youngs Moduli (GPa) = 25.64708 140.95984 70.73973
#
# Poissons Ratio (x) = 0.99412 0.21674
# Poissons Ratio (y) = 0.18088 0.10806
# Poissons Ratio (z) = 0.07858 0.21532
#
# Static dielectric constant tensor:
#      x y z
#    x 1.785200 0.000000 -0.000210 
#    y 0.000000 1.729030 0.000000 
#    z -0.000210 0.000000 1.752930 
# 
# From -- ./inp_files/216864.got.cif
#   From: 2010.05.17/outbox.cif.g08.bks.cpg/sg12_109_cif.got.tgz:216864.got - 2010.06.03 13:09:07.
