data_PCOD9213641
_publ_section_title
;
Structure prediction by ZEFSAII (Michael W. Deem and Ramdas Pophale) SiO2 
 PCOD9213641
Probable space group: C 2/M
;
_chemical_formula_sum "Si O2"
_cell_formula_units_Z 48
_cell_length_a 7.834231
_cell_length_b 23.681044
_cell_length_c 10.875477
_cell_angle_alpha 90.000000
_cell_angle_beta 101.156833
_cell_angle_gamma 90.000000
_cell_volume 1979.517499
_symmetry_space_group_name_H-M "C 2/M"
_symmetry_group_IT_number 12
_symmetry_cell_setting 'monoclinic'
loop_
_space_group_symop_operation_xyz
x,y,z
-x,y,-z
-x,-y,-z
x,-y,z
1/2+x,1/2+y,z
1/2-x,1/2+y,-z
1/2-x,1/2-y,-z
1/2+x,1/2-y,z
loop_
_atom_site_type_symbol
_atom_site_label
_atom_site_fract_x
_atom_site_fract_y
_atom_site_fract_z
Si Si1 0.149558 0.433238 0.370867
Si Si2 0.920562 0.936137 0.187489
Si Si3 0.272539 0.105072 0.339797
Si Si4 0.533058 0.782050 0.833217
Si Si5 0.108876 0.215957 0.405791
Si Si6 0.215544 0.172993 0.949704
O O1 0.108302 0.500000 0.366732
O O2 0.302601 0.424821 0.293284
O O3 0.208365 0.415540 0.515588
O O4 0.968699 0.400975 0.315676
O O5 0.860386 0.888260 0.084849
O O6 0.122956 0.929858 0.250555
O O7 0.884461 0.000000 0.141262
O O8 0.196166 0.167935 0.337289
O O9 0.494386 0.761630 0.690237
O O10 0.365553 0.811468 0.870310
O O11 0.577396 0.721478 0.900972
O O12 0.693911 0.819084 0.905733
O O13 0.250000 0.250000 0.500000
O O14 0.000000 0.187472 0.500000
#
# Coordination Sequence:
#
# PCOD9213641 Si02
#       6
#     8   8   8   8   8   8
#     4  10  22  38  62  95 139 193 234 281 355 425
#     4  11  22  40  68 103 139 180 242 301 353 426
#     4  11  22  39  61  94 144 191 235 292 352 429
#     4  10  22  43  67  91 138 179 233 288 344 431
#     4  12  26  38  61 102 142 183 232 295 361 420
#     4  10  22  43  69  99 130 185 237 287 351 425
#
# _framework density 24.248332000000001
#
# number of rings (size 3 to 8) (size 9 to 14) (size 15 to 20)
#    0.000    1.333    1.667    4.500    4.667    2.667 
#    0.000    1.667    0.000    0.000    0.000    9.333 
#    0.000    0.000    0.000    0.000    0.000    0.000 
#
# Total GULP energy -134389.764951 kJ/mol
# GULP energy per Si atom -5599.573540 kJ/mol
# Density = 2.419314 g / cm^3
# Si number density = 24.248332 Si / 1000 Ang^3
#
#
#
# Elastic Constant Matrix: (Units=GPa)
#
#
# Indices 1 2 3 4 5 6 
#
# 1 123.5093 35.8969 42.1473 0.0000 9.0370 0.0000
# 2 35.8969 141.8791 50.2590 0.0000 21.5382 0.0000
# 3 42.1473 50.2590 142.6485 0.0000 20.1044 0.0000
# 4 0.0000 0.0000 0.0000 34.9478 0.0000 5.4336
# 5 9.0370 21.5382 20.1044 0.0000 42.2522 0.0000
# 6 0.0000 0.0000 0.0000 5.4336 0.0000 38.4376
#
#
#
# Elastic Compliance Matrix: (Units=1/GPa)
#
#
# Indices 1 2 3 4 5 6 
#
# 1 0.009304 -0.001559 -0.002177 0.000000 -0.000159 0.000000
# 2 -0.001559 0.008674 -0.002164 0.000000 -0.003058 0.000000
# 3 -0.002177 -0.002164 0.008784 0.000000 -0.002611 0.000000
# 4 0.000000 0.000000 0.000000 0.029257 0.000000 -0.004136
# 5 -0.000159 -0.003058 -0.002611 0.000000 0.026503 0.000000
# 6 0.000000 0.000000 0.000000 -0.004136 0.000000 0.026601
#
#
# Mechanical properties :
#
#
# Convention : Reuss Voigt Hill
#
# Bulk Modulus (GPa) = 66.84023 73.84927 70.34475
# Shear Modulus (GPa) = 39.71081 41.77645 40.74363
#
# Velocity S-wave (km/s) = 4.05121 4.15524 4.10355
# Velocity P-wave (km/s) = 7.03617 7.31730 7.17811
#
# Compressibility (1/GPa) = 0.01496105
#
# Stress axis : x y z
#
# Youngs Moduli (GPa) = 107.47775 115.29306 113.84182
#
# Poissons Ratio (x) = 0.17969 0.24789
# Poissons Ratio (y) = 0.16751 0.24640
# Poissons Ratio (z) = 0.23403 0.24954
#
# Static dielectric constant tensor:
#      x y z
#    x 1.760450 0.000000 0.114870 
#    y 0.000000 1.911730 0.000000 
#    z 0.114870 0.000000 1.790440 
# 
# From -- ./inp_files/122587.got.cif
#   From: 2010.05.17/outbox.cif.g08.bks.cpg/sg12_62_cif.got.tgz:122587.got - 2010.06.03 13:09:07.
