data_PCOD9213398
_publ_section_title
;
Structure prediction by ZEFSAII (Michael W. Deem and Ramdas Pophale) SiO2 
 PCOD9213398
Probable space group: C 2/M
;
_chemical_formula_sum "Si O2"
_cell_formula_units_Z 64
_cell_length_a 14.930971
_cell_length_b 8.920458
_cell_length_c 26.077055
_cell_angle_alpha 90.000000
_cell_angle_beta 90.102052
_cell_angle_gamma 90.000000
_cell_volume 3473.226123
_symmetry_space_group_name_H-M "C 2/M"
_symmetry_group_IT_number 12
_symmetry_cell_setting 'monoclinic'
loop_
_space_group_symop_operation_xyz
x,y,z
-x,y,-z
-x,-y,-z
x,-y,z
1/2+x,1/2+y,z
1/2-x,1/2+y,-z
1/2-x,1/2-y,-z
1/2+x,1/2-y,z
loop_
_atom_site_type_symbol
_atom_site_label
_atom_site_fract_x
_atom_site_fract_y
_atom_site_fract_z
Si Si1 0.393189 0.321307 0.222988
Si Si2 0.863081 0.820842 0.862931
Si Si3 0.950377 0.320351 0.116583
Si Si4 0.283946 0.820401 0.052391
Si Si5 0.459753 0.678968 0.690549
Si Si6 0.311301 0.821782 0.754660
Si Si7 0.348955 0.819410 0.498292
Si Si8 0.000478 0.319242 0.418394
O O1 0.399888 0.500000 0.211530
O O2 0.408167 0.230372 0.170849
O O3 0.468669 0.283618 0.264725
O O4 0.294811 0.292490 0.245502
O O5 0.782667 0.781465 0.901100
O O6 0.848284 0.745859 0.807826
O O7 0.954785 0.760238 0.886623
O O8 0.866562 0.000000 0.856486
O O9 0.960694 0.500000 0.116317
O O10 0.882838 0.275976 0.071102
O O11 0.282752 0.000000 0.047168
O O12 0.250000 0.750000 0.000000
O O13 0.453462 0.500000 0.687484
O O14 0.365619 0.747663 0.708545
O O15 0.491210 0.745072 0.636728
O O16 0.325572 0.000000 0.754171
O O17 0.250000 0.750000 0.500000
O O18 0.410014 0.776329 0.449112
O O19 0.412871 0.779320 0.546643
O O20 0.340612 0.000000 0.497885
O O21 0.999996 0.500000 0.413831
#
# Coordination Sequence:
#
# PCOD9213398 Si02
#       8
#     8   8   8   8   8   8   8   8
#     4  10  22  38  57  83 116 153 192 237 291 347
#     4  11  22  39  60  86 117 150 190 239 290 345
#     4  11  22  38  61  88 114 149 194 237 286 348
#     4  10  24  42  61  86 118 151 191 241 293 347
#     4  11  23  38  57  86 122 156 195 246 293 342
#     4  11  22  37  59  86 114 155 197 235 291 352
#     4   9  19  37  62  87 115 154 199 244 293 347
#     4   9  20  39  58  82 119 159 195 239 294 351
#
# _framework density 18.426672
#
# number of rings (size 3 to 8) (size 9 to 14) (size 15 to 20)
#    0.000    1.750    2.500    2.250    0.000    5.500 
#    0.000    7.500    0.000    0.000    0.000    0.000 
#    0.000    0.000    0.000    0.000    0.000    0.000 
#
# Total GULP energy -178744.588009 kJ/mol
# GULP energy per Si atom -5585.768375 kJ/mol
# Density = 1.838473 g / cm^3
# Si number density = 18.426672 Si / 1000 Ang^3
#
#
#
# Elastic Constant Matrix: (Units=GPa)
#
#
# Indices 1 2 3 4 5 6 
#
# 1 86.3570 17.9129 -12.5444 0.0000 1.4179 0.0000
# 2 17.9129 24.9749 9.4863 0.0000 0.5890 0.0000
# 3 -12.5444 9.4863 36.8288 0.0000 4.0004 0.0000
# 4 0.0000 0.0000 0.0000 35.2577 0.0000 -1.7201
# 5 1.4179 0.5890 4.0004 0.0000 13.3420 0.0000
# 6 0.0000 0.0000 0.0000 -1.7201 0.0000 32.1042
#
#
#
# Elastic Compliance Matrix: (Units=1/GPa)
#
#
# Indices 1 2 3 4 5 6 
#
# 1 0.016273 -0.015350 0.009935 0.000000 -0.004031 0.000000
# 2 -0.015350 0.058892 -0.020976 0.000000 0.005321 0.000000
# 3 0.009935 -0.020976 0.037164 0.000000 -0.011273 0.000000
# 4 0.000000 0.000000 0.000000 0.028437 0.000000 0.001524
# 5 -0.004031 0.005321 -0.011273 0.000000 0.078525 0.000000
# 6 0.000000 0.000000 0.000000 0.001524 0.000000 0.031230
#
#
# Mechanical properties :
#
#
# Convention : Reuss Voigt Hill
#
# Bulk Modulus (GPa) = 16.79369 19.76337 18.27853
# Shear Modulus (GPa) = 15.47260 25.02782 20.25021
#
# Velocity S-wave (km/s) = 2.90088 3.68943 3.31866
# Velocity P-wave (km/s) = 4.51151 5.37567 4.96244
#
# Compressibility (1/GPa) = 0.05954616
#
# Stress axis : x y z
#
# Youngs Moduli (GPa) = 61.45085 16.98031 26.90791
#
# Poissons Ratio (x) = 0.26065 -0.26732
# Poissons Ratio (y) = 0.94328 0.56441
# Poissons Ratio (z) = -0.61048 0.35617
#
# Static dielectric constant tensor:
#      x y z
#    x 1.639890 0.000000 -0.005020 
#    y 0.000000 1.614590 0.000000 
#    z -0.005020 0.000000 1.607850 
# 
# From -- ./inp_files/338712.got.cif
#   From: 2010.05.17/outbox.cif.g08.bks.cpg/sg12_170_cif.got.tgz:338712.got - 2010.06.03 13:09:07.
