data_PCOD9213455
_publ_section_title
;
Structure prediction by ZEFSAII (Michael W. Deem and Ramdas Pophale) SiO2 
 PCOD9213455
Probable space group: C 2/M
;
_chemical_formula_sum "Si O2"
_cell_formula_units_Z 46
_cell_length_a 12.147961
_cell_length_b 17.085363
_cell_length_c 13.397268
_cell_angle_alpha 90.000000
_cell_angle_beta 124.690011
_cell_angle_gamma 90.000000
_cell_volume 2286.357696
_symmetry_space_group_name_H-M "C 2/M"
_symmetry_group_IT_number 12
_symmetry_cell_setting 'monoclinic'
loop_
_space_group_symop_operation_xyz
x,y,z
-x,y,-z
-x,-y,-z
x,-y,z
1/2+x,1/2+y,z
1/2-x,1/2+y,-z
1/2-x,1/2-y,-z
1/2+x,1/2-y,z
loop_
_atom_site_type_symbol
_atom_site_label
_atom_site_fract_x
_atom_site_fract_y
_atom_site_fract_z
Si Si1 0.617510 0.186267 0.203379
Si Si2 0.367106 0.500000 0.818028
Si Si3 0.500000 0.230789 0.500000
Si Si4 0.833559 0.000000 0.036849
Si Si5 0.000000 0.000000 0.500000
Si Si6 0.192386 0.136960 0.526380
Si Si7 0.248513 0.345407 0.670791
Si Si8 0.188696 0.667180 0.009343
O O1 0.696891 0.138375 0.328963
O O2 0.647637 0.276354 0.248464
O O3 0.678876 0.173526 0.124667
O O4 0.461737 0.165764 0.113025
O O5 0.361354 0.500000 0.933854
O O6 0.292117 0.422688 0.747016
O O7 0.514444 0.500000 0.843367
O O8 0.397949 0.285230 0.507790
O O9 0.401332 0.181652 0.379463
O O10 0.761283 0.916758 0.025014
O O11 0.091428 0.067271 0.493236
O O12 0.251775 0.137217 0.447197
O O13 0.250000 0.750000 0.000000
#
# Coordination Sequence:
#
# PCOD9213455 Si02
#       8
#     8   4   4   4   2   8   8   8
#     4  10  23  40  62  92 121 155 208 250 298 373
#     4  11  25  41  60  89 120 155 207 253 297 370
#     4   9  20  36  56  87 122 158 198 235 298 364
#     4  11  26  44  63  88 123 162 204 262 313 349
#     4  10  22  38  58  88 118 162 206 232 300 374
#     4  10  22  38  60  90 125 157 195 252 303 361
#     4  11  22  39  62  90 124 159 198 250 306 367
#     4  11  24  42  66  90 120 166 208 254 308 360
#
# _framework density 20.119336000000001
#
# number of rings (size 3 to 8) (size 9 to 14) (size 15 to 20)
#    0.000    1.565    0.000    4.696    0.000   21.217 
#    0.000    0.000    0.000    0.000    0.000    0.000 
#    0.000    0.000    0.000    0.000    0.000    0.000 
#
# Total GULP energy -128107.558821 kJ/mol
# GULP energy per Si atom -5569.893862 kJ/mol
# Density = 2.007354 g / cm^3
# Si number density = 20.119336 Si / 1000 Ang^3
#
#
#
# Elastic Constant Matrix: (Units=GPa)
#
#
# Indices 1 2 3 4 5 6 
#
# 1 80.7218 45.8356 43.0841 0.0000 5.7238 0.0000
# 2 45.8356 147.2109 31.5594 0.0000 12.9936 0.0000
# 3 43.0841 31.5594 106.0146 0.0000 -3.4445 0.0000
# 4 0.0000 0.0000 0.0000 8.4076 0.0000 -5.9454
# 5 5.7238 12.9936 -3.4445 0.0000 34.5344 0.0000
# 6 0.0000 0.0000 0.0000 -5.9454 0.0000 24.1613
#
#
#
# Elastic Compliance Matrix: (Units=1/GPa)
#
#
# Indices 1 2 3 4 5 6 
#
# 1 0.018223 -0.004153 -0.006237 0.000000 -0.002080 0.000000
# 2 -0.004153 0.008516 -0.000932 0.000000 -0.002609 0.000000
# 3 -0.006237 -0.000932 0.012330 0.000000 0.002614 0.000000
# 4 0.000000 0.000000 0.000000 0.143996 0.000000 0.035433
# 5 -0.002080 -0.002609 0.002614 0.000000 0.030544 0.000000
# 6 0.000000 0.000000 0.000000 0.035433 0.000000 0.050108
#
#
# Mechanical properties :
#
#
# Convention : Reuss Voigt Hill
#
# Bulk Modulus (GPa) = 60.88525 63.87839 62.38182
# Shear Modulus (GPa) = 17.13292 27.65187 22.39239
#
# Velocity S-wave (km/s) = 2.92132 3.71130 3.33975
# Velocity P-wave (km/s) = 6.45807 7.08405 6.77829
#
# Compressibility (1/GPa) = 0.01642434
#
# Stress axis : x y z
#
# Youngs Moduli (GPa) = 54.87612 117.42312 81.10461
#
# Poissons Ratio (x) = 0.48768 0.50584
# Poissons Ratio (y) = 0.22791 0.07560
# Poissons Ratio (z) = 0.34226 0.10945
#
# Static dielectric constant tensor:
#      x y z
#    x 1.769410 0.000000 0.009970 
#    y 0.000000 1.701630 0.000000 
#    z 0.009970 0.000000 1.739120 
# 
# From -- ./inp_files/131897.got.cif
#   From: 2010.05.17/outbox.cif.g08.bks.cpg/sg12_66_cif.got.tgz:131897.got - 2010.06.03 13:09:07.
