data_PCOD9213174
_publ_section_title
;
Structure prediction by ZEFSAII (Michael W. Deem and Ramdas Pophale) SiO2 
 PCOD9213174
Probable space group: C 2/M
;
_chemical_formula_sum "Si O2"
_cell_formula_units_Z 40
_cell_length_a 22.010224
_cell_length_b 7.503299
_cell_length_c 11.193414
_cell_angle_alpha 90.000000
_cell_angle_beta 74.559726
_cell_angle_gamma 90.000000
_cell_volume 1781.866216
_symmetry_space_group_name_H-M "C 2/M"
_symmetry_group_IT_number 12
_symmetry_cell_setting 'monoclinic'
loop_
_space_group_symop_operation_xyz
x,y,z
-x,y,-z
-x,-y,-z
x,-y,z
1/2+x,1/2+y,z
1/2-x,1/2+y,-z
1/2-x,1/2-y,-z
1/2+x,1/2-y,z
loop_
_atom_site_type_symbol
_atom_site_label
_atom_site_fract_x
_atom_site_fract_y
_atom_site_fract_z
Si Si1 0.158163 0.782343 0.536368
Si Si2 0.312576 0.214247 0.043386
Si Si3 0.953492 0.712711 0.916357
Si Si4 0.251907 0.298447 0.694269
Si Si5 0.515842 0.285796 0.626883
O O1 0.205637 0.700424 0.606013
O O2 0.182686 0.724770 0.392127
O O3 0.088148 0.730332 0.605759
O O4 0.162751 0.000000 0.537650
O O5 0.289766 0.288966 0.182418
O O6 0.320242 0.000000 0.045803
O O7 0.250000 0.250000 0.000000
O O8 0.381354 0.281733 0.967738
O O9 0.951673 0.500000 0.933394
O O10 0.977855 0.740605 0.767609
O O11 0.000000 0.779643 0.000000
O O12 0.266408 0.500000 0.726600
O O13 0.500000 0.221219 0.500000
O O14 0.513034 0.500000 0.621588
#
# Coordination Sequence:
#
# PCOD9213174 Si02
#       5
#     8   8   8   8   8
#     4   9  18  33  54  81 109 139 181 227 274 332
#     4  10  22  37  57  84 114 149 188 232 284 338
#     4  10  22  41  62  86 117 155 199 241 286 347
#     4   9  18  34  56  79 106 143 181 224 278 330
#     4  10  22  37  57  85 116 150 190 237 288 342
#
# _framework density 22.448373
#
# number of rings (size 3 to 8) (size 9 to 14) (size 15 to 20)
#    0.000    2.400    0.000    1.200    2.800    4.800 
#    0.000    0.000    0.000    0.000    0.000    0.000 
#    0.000    0.000    0.000    0.000    0.000    0.000 
#
# Total GULP energy -111380.515457 kJ/mol
# GULP energy per Si atom -5569.025773 kJ/mol
# Density = 2.239728 g / cm^3
# Si number density = 22.448373 Si / 1000 Ang^3
#
#
#
# Elastic Constant Matrix: (Units=GPa)
#
#
# Indices 1 2 3 4 5 6 
#
# 1 105.9882 -1.8593 100.7197 0.0000 -28.8504 0.0000
# 2 -1.8593 65.5595 0.9778 0.0000 -3.4467 0.0000
# 3 100.7197 0.9778 220.0997 0.0000 -41.9878 0.0000
# 4 0.0000 0.0000 0.0000 16.0765 0.0000 0.3253
# 5 -28.8504 -3.4467 -41.9878 0.0000 46.6286 0.0000
# 6 0.0000 0.0000 0.0000 0.3253 0.0000 18.1286
#
#
#
# Elastic Compliance Matrix: (Units=1/GPa)
#
#
# Indices 1 2 3 4 5 6 
#
# 1 0.017439 0.000834 -0.007140 0.000000 0.004422 0.000000
# 2 0.000834 0.015358 -0.000163 0.000000 0.001505 0.000000
# 3 -0.007140 -0.000163 0.008411 0.000000 0.003144 0.000000
# 4 0.000000 0.000000 0.000000 0.062225 0.000000 -0.001117
# 5 0.004422 0.001505 0.003144 0.000000 0.027125 0.000000
# 6 0.000000 0.000000 0.000000 -0.001117 0.000000 0.055182
#
#
# Mechanical properties :
#
#
# Convention : Reuss Voigt Hill
#
# Bulk Modulus (GPa) = 35.37349 65.70264 50.53807
# Shear Modulus (GPa) = 24.02673 35.62069 29.82371
#
# Velocity S-wave (km/s) = 3.27511 3.98777 3.64888
# Velocity P-wave (km/s) = 5.48577 7.10879 6.34935
#
# Compressibility (1/GPa) = 0.02826975
#
# Stress axis : x y z
#
# Youngs Moduli (GPa) = 57.34422 65.11062 118.88646
#
# Poissons Ratio (x) = -0.05427 0.84888
# Poissons Ratio (y) = -0.04780 0.01934
# Poissons Ratio (z) = 0.40945 0.01059
#
# Static dielectric constant tensor:
#      x y z
#    x 1.736410 0.000000 -0.075220 
#    y 0.000000 1.877710 0.000000 
#    z -0.075220 0.000000 1.909090 
# 
# From -- ./inp_files/162372.got.cif
#   From: 2010.05.17/outbox.cif.g08.bks.cpg/sg12_82_cif.got.tgz:162372.got - 2010.06.03 13:09:07.
