data_PCOD9213769
_publ_section_title
;
Structure prediction by ZEFSAII (Michael W. Deem and Ramdas Pophale) SiO2 
 PCOD9213769
Probable space group: C 2/M
;
_chemical_formula_sum "Si O2"
_cell_formula_units_Z 60
_cell_length_a 15.391516
_cell_length_b 28.269045
_cell_length_c 14.674168
_cell_angle_alpha 90.000000
_cell_angle_beta 27.823479
_cell_angle_gamma 90.000000
_cell_volume 2980.090836
_symmetry_space_group_name_H-M "C 2/M"
_symmetry_group_IT_number 12
_symmetry_cell_setting 'monoclinic'
loop_
_space_group_symop_operation_xyz
x,y,z
-x,y,-z
-x,-y,-z
x,-y,z
1/2+x,1/2+y,z
1/2-x,1/2+y,-z
1/2-x,1/2-y,-z
1/2+x,1/2-y,z
loop_
_atom_site_type_symbol
_atom_site_label
_atom_site_fract_x
_atom_site_fract_y
_atom_site_fract_z
Si Si1 0.955599 0.729324 0.830520
Si Si2 0.909566 0.814269 0.387051
Si Si3 0.248967 0.554707 0.325334
Si Si4 0.000000 0.793225 0.500000
Si Si5 0.680868 0.278581 0.782552
Si Si6 0.230434 0.354149 0.039200
Si Si7 0.806718 0.053734 0.058610
Si Si8 0.898183 0.649997 0.460021
O O1 0.063261 0.757449 0.648916
O O2 0.897475 0.675556 0.910530
O O3 0.071456 0.749318 0.806490
O O4 0.750000 0.750000 0.000000
O O5 0.943540 0.822626 0.462236
O O6 0.718555 0.833792 0.521736
O O7 0.063059 0.838296 0.178085
O O8 0.191018 0.500000 0.396543
O O9 0.239736 0.562816 0.224713
O O10 0.140187 0.595365 0.480385
O O11 0.468378 0.558314 0.146039
O O12 0.175230 0.759533 0.309961
O O13 0.806147 0.319737 0.624649
O O14 0.500000 0.300068 0.000000
O O15 0.231559 0.409654 0.054243
O O16 0.114862 0.338040 0.237868
O O17 0.759795 0.000000 0.079870
#
# Coordination Sequence:
#
# PCOD9213769 Si02
#       8
#     8   8   8   4   8   8   8   8
#     4   9  19  36  56  75 111 152 183 231 280 329
#     4  10  22  39  55  78 112 145 189 237 285 335
#     4   9  19  36  55  80 116 153 187 227 275 330
#     4  12  24  40  60  82 110 152 194 240 292 342
#     4  11  24  38  56  85 120 154 197 236 279 331
#     4  11  20  35  57  80 110 148 189 230 278 333
#     4   9  19  35  56  81 115 152 186 228 277 326
#     4  11  23  35  57  83 112 154 193 228 281 334
#
# _framework density 20.133614999999999
#
# number of rings (size 3 to 8) (size 9 to 14) (size 15 to 20)
#    0.000    1.867    1.333    4.000    1.867    7.467 
#    0.000    1.333    0.000    0.000    0.000    1.867 
#    0.000   12.267    0.000    0.133    0.000    0.000 
#
# Total GULP energy -167056.761957 kJ/mol
# GULP energy per Si atom -5568.558732 kJ/mol
# Density = 2.008779 g / cm^3
# Si number density = 20.133615 Si / 1000 Ang^3
#
#
#
# Elastic Constant Matrix: (Units=GPa)
#
#
# Indices 1 2 3 4 5 6 
#
# 1 80.0428 35.4470 17.2667 -0.0008 -4.6001 0.0002
# 2 35.4470 117.2466 13.3258 0.0007 0.9327 -0.0002
# 3 17.2667 13.3258 122.9278 0.0005 -13.8779 0.0017
# 4 -0.0008 0.0007 0.0005 16.9677 0.0019 4.5662
# 5 -4.6001 0.9327 -13.8779 0.0019 21.8710 -0.0003
# 6 0.0002 -0.0002 0.0017 4.5662 -0.0003 21.7874
#
#
#
# Elastic Compliance Matrix: (Units=1/GPa)
#
#
# Indices 1 2 3 4 5 6 
#
# 1 0.014853 -0.004358 -0.001336 0.000001 0.002462 0.000000
# 2 -0.004358 0.009936 -0.000664 0.000000 -0.001762 0.000000
# 3 -0.001336 -0.000664 0.009011 -0.000001 0.005465 0.000000
# 4 0.000001 0.000000 -0.000001 0.062458 -0.000006 -0.013090
# 5 0.002462 -0.001762 0.005465 -0.000006 0.049784 0.000001
# 6 0.000000 0.000000 0.000000 -0.013090 0.000001 0.048641
#
#
# Mechanical properties :
#
#
# Convention : Reuss Voigt Hill
#
# Bulk Modulus (GPa) = 47.42761 50.25512 48.84136
# Shear Modulus (GPa) = 23.31787 29.07042 26.19414
#
# Velocity S-wave (km/s) = 3.40686 3.80396 3.61087
# Velocity P-wave (km/s) = 6.25165 6.65646 6.45723
#
# Compressibility (1/GPa) = 0.02108476
#
# Stress axis : x y z
#
# Youngs Moduli (GPa) = 67.32619 100.64291 110.96975
#
# Poissons Ratio (x) = 0.43863 0.14824
# Poissons Ratio (y) = 0.29343 0.07366
# Poissons Ratio (z) = 0.08994 0.06681
#
# Static dielectric constant tensor:
#      x y z
#    x 1.831530 0.000000 0.064250 
#    y 0.000000 1.804290 0.000000 
#    z 0.064250 0.000000 1.872140 
# 
# From -- ./inp_files/219234.got.cif
#   From: 2010.05.17/outbox.cif.g08.bks.cpg/sg12_110_cif.got.tgz:219234.got - 2010.06.03 13:09:07.
