data_PCOD9213125
_publ_section_title
;
Structure prediction by ZEFSAII (Michael W. Deem and Ramdas Pophale) SiO2 
 PCOD9213125
Probable space group: C 2/M
;
_chemical_formula_sum "Si O2"
_cell_formula_units_Z 56
_cell_length_a 20.705092
_cell_length_b 20.941497
_cell_length_c 16.610560
_cell_angle_alpha 90.000000
_cell_angle_beta 156.143661
_cell_angle_gamma 90.000000
_cell_volume 2912.918940
_symmetry_space_group_name_H-M "C 2/M"
_symmetry_group_IT_number 12
_symmetry_cell_setting 'monoclinic'
loop_
_space_group_symop_operation_xyz
x,y,z
-x,y,-z
-x,-y,-z
x,-y,z
1/2+x,1/2+y,z
1/2-x,1/2+y,-z
1/2-x,1/2-y,-z
1/2+x,1/2-y,z
loop_
_atom_site_type_symbol
_atom_site_label
_atom_site_fract_x
_atom_site_fract_y
_atom_site_fract_z
Si Si1 0.980768 0.368873 0.570317
Si Si2 0.147644 0.730663 0.007978
Si Si3 0.093964 0.928266 0.346483
Si Si4 0.873806 0.228522 0.412615
Si Si5 0.861823 0.926813 0.788247
Si Si6 0.210505 0.693030 0.391577
Si Si7 0.711434 0.352903 0.974160
O O1 0.965331 0.292244 0.545820
O O2 0.809986 0.393431 0.406269
O O3 0.000000 0.392736 0.500000
O O4 0.132267 0.380497 0.800995
O O5 0.234333 0.744212 0.190815
O O6 0.139260 0.796898 0.948999
O O7 0.238271 0.681914 0.051061
O O8 0.977418 0.700313 0.832453
O O9 0.068946 0.929281 0.222084
O O10 0.232556 0.876182 0.515013
O O11 0.135426 0.000000 0.420041
O O12 0.929520 0.903490 0.197783
O O13 0.802210 0.200895 0.411857
O O14 0.000000 0.190859 0.500000
O O15 0.836237 0.000000 0.787561
O O16 0.000000 0.895744 0.000000
O O17 0.250000 0.750000 0.500000
#
# Coordination Sequence:
#
# PCOD9213125 Si02
#       7
#     8   8   8   8   8   8   8
#     4  11  21  34  55  87 121 160 199 255 309 369
#     4  11  22  37  61  92 123 156 204 266 311 373
#     4  11  24  41  61  88 125 168 211 256 314 381
#     4  11  22  37  59  93 127 156 199 264 320 369
#     4  10  22  37  53  78 117 165 212 251 295 367
#     4  12  23  39  65  93 123 167 211 260 319 370
#     4  11  21  38  59  90 125 160 204 253 317 368
#
# _framework density 19.224703000000002
#
# number of rings (size 3 to 8) (size 9 to 14) (size 15 to 20)
#    0.000    1.000    4.286    4.714    0.000    0.857 
#    0.000    0.714    0.000    5.571    0.000    0.000 
#    0.000    0.000    0.000    0.000    0.000    0.000 
#
# Total GULP energy -156303.724159 kJ/mol
# GULP energy per Si atom -5582.275863 kJ/mol
# Density = 1.918095 g / cm^3
# Si number density = 19.224703 Si / 1000 Ang^3
#
#
#
# Elastic Constant Matrix: (Units=GPa)
#
#
# Indices 1 2 3 4 5 6 
#
# 1 96.0835 19.1281 5.0766 0.0000 10.6347 0.0000
# 2 19.1281 77.3949 30.2647 0.0000 8.9247 0.0000
# 3 5.0766 30.2647 95.7274 0.0000 13.8384 0.0000
# 4 0.0000 0.0000 0.0000 21.1991 0.0000 3.1643
# 5 10.6347 8.9247 13.8384 0.0000 31.3763 0.0000
# 6 0.0000 0.0000 0.0000 3.1643 0.0000 18.2209
#
#
#
# Elastic Compliance Matrix: (Units=1/GPa)
#
#
# Indices 1 2 3 4 5 6 
#
# 1 0.011278 -0.002687 0.000741 0.000000 -0.003385 0.000000
# 2 -0.002687 0.015538 -0.004553 0.000000 -0.001501 0.000000
# 3 0.000741 -0.004553 0.012492 0.000000 -0.004466 0.000000
# 4 0.000000 0.000000 0.000000 0.048427 0.000000 -0.008410
# 5 -0.003385 -0.001501 -0.004466 0.000000 0.035415 0.000000
# 6 0.000000 0.000000 0.000000 -0.008410 0.000000 0.056343
#
#
# Mechanical properties :
#
#
# Convention : Reuss Voigt Hill
#
# Bulk Modulus (GPa) = 38.00798 42.01606 40.01202
# Shear Modulus (GPa) = 24.84334 28.47501 26.65918
#
# Velocity S-wave (km/s) = 3.59870 3.85277 3.72790
# Velocity P-wave (km/s) = 6.08941 6.45713 6.27596
#
# Compressibility (1/GPa) = 0.02631026
#
# Stress axis : x y z
#
# Youngs Moduli (GPa) = 88.66822 64.35728 80.05083
#
# Poissons Ratio (x) = 0.17290 -0.05929
# Poissons Ratio (y) = 0.23822 0.36447
# Poissons Ratio (z) = -0.06567 0.29302
#
# Static dielectric constant tensor:
#      x y z
#    x 1.706090 0.000000 0.004430 
#    y 0.000000 1.695560 0.000000 
#    z 0.004430 0.000000 1.706520 
# 
# From -- ./inp_files/286073.got.cif
#   From: 2010.05.17/outbox.cif.g08.bks.cpg/sg12_144_cif.got.tgz:286073.got - 2010.06.03 13:09:07.
