data_PCOD9213461
_publ_section_title
;
Structure prediction by ZEFSAII (Michael W. Deem and Ramdas Pophale) SiO2 
 PCOD9213461
Probable space group: C 2/M
;
_chemical_formula_sum "Si O2"
_cell_formula_units_Z 32
_cell_length_a 6.935380
_cell_length_b 24.852112
_cell_length_c 7.419877
_cell_angle_alpha 90.000000
_cell_angle_beta 57.552823
_cell_angle_gamma 90.000000
_cell_volume 1079.230672
_symmetry_space_group_name_H-M "C 2/M"
_symmetry_group_IT_number 12
_symmetry_cell_setting 'monoclinic'
loop_
_space_group_symop_operation_xyz
x,y,z
-x,y,-z
-x,-y,-z
x,-y,z
1/2+x,1/2+y,z
1/2-x,1/2+y,-z
1/2-x,1/2-y,-z
1/2+x,1/2-y,z
loop_
_atom_site_type_symbol
_atom_site_label
_atom_site_fract_x
_atom_site_fract_y
_atom_site_fract_z
Si Si1 0.317080 0.941705 0.806815
Si Si2 0.260921 0.799982 0.306276
Si Si3 0.755004 0.825557 0.218933
Si Si4 0.299317 0.414308 0.748632
O O1 0.266078 0.888718 0.712765
O O2 0.573496 0.935667 0.760818
O O3 0.293483 0.000000 0.731493
O O4 0.175619 0.940286 0.067281
O O5 0.487940 0.816515 0.299149
O O6 0.295443 0.736755 0.262754
O O7 0.251724 0.850780 0.175315
O O8 0.000000 0.803816 0.500000
O O9 0.000000 0.829677 0.000000
O O10 0.500000 0.419017 0.500000
#
# Coordination Sequence:
#
# PCOD9213461 Si02
#       4
#     8   8   8   8
#     4  10  22  38  58  89 126 167 210 253 305 371
#     4  10  22  39  64  96 126 159 205 263 321 374
#     4  11  24  39  63  93 128 165 206 258 316 373
#     4   9  19  36  64  94 120 158 210 263 312 366
#
# _framework density 29.650753000000002
#
# number of rings (size 3 to 8) (size 9 to 14) (size 15 to 20)
#    0.000    2.000    0.000    3.000   10.500    2.500 
#    0.000    0.000    0.000    0.750    0.000    0.000 
#    0.000    0.000    0.000    0.000    0.000    0.000 
#
# Total GULP energy -89123.545726 kJ/mol
# GULP energy per Si atom -5570.221608 kJ/mol
# Density = 2.958327 g / cm^3
# Si number density = 29.650753 Si / 1000 Ang^3
#
#
#
# Elastic Constant Matrix: (Units=GPa)
#
#
# Indices 1 2 3 4 5 6 
#
# 1 125.0015 50.2393 47.2601 0.0000 -23.8869 0.0000
# 2 50.2393 343.9700 51.4128 0.0000 -9.3697 0.0000
# 3 47.2601 51.4128 201.6716 0.0000 -37.8329 0.0000
# 4 0.0000 0.0000 0.0000 10.9636 0.0000 7.6335
# 5 -23.8869 -9.3697 -37.8329 0.0000 47.6846 0.0000
# 6 0.0000 0.0000 0.0000 7.6335 0.0000 24.0009
#
#
#
# Elastic Compliance Matrix: (Units=1/GPa)
#
#
# Indices 1 2 3 4 5 6 
#
# 1 0.009621 -0.001114 -0.001301 0.000000 0.003568 0.000000
# 2 -0.001114 0.003151 -0.000624 0.000000 -0.000433 0.000000
# 3 -0.001301 -0.000624 0.006200 0.000000 0.004145 0.000000
# 4 0.000000 0.000000 0.000000 0.117154 0.000000 -0.037261
# 5 0.003568 -0.000433 0.004145 0.000000 0.025962 0.000000
# 6 0.000000 0.000000 0.000000 -0.037261 0.000000 0.053516
#
#
# Mechanical properties :
#
#
# Convention : Reuss Voigt Hill
#
# Bulk Modulus (GPa) = 77.54732 107.60750 92.57741
# Shear Modulus (GPa) = 22.12582 51.31187 36.71884
#
# Velocity S-wave (km/s) = 2.73466 4.16449 3.52288
# Velocity P-wave (km/s) = 6.01510 7.71326 6.91650
#
# Compressibility (1/GPa) = 0.01289535
#
# Stress axis : x y z
#
# Youngs Moduli (GPa) = 103.93536 317.33001 161.28875
#
# Poissons Ratio (x) = 0.35336 0.20990
# Poissons Ratio (y) = 0.11574 0.10060
# Poissons Ratio (z) = 0.13526 0.19793
#
# Static dielectric constant tensor:
#      x y z
#    x 2.500810 0.000000 0.290610 
#    y 0.000000 2.170090 0.000000 
#    z 0.290610 0.000000 2.511580 
# 
# From -- ./inp_files/121574.got.cif
#   From: 2010.05.17/outbox.cif.g08.bks.cpg/sg12_61_cif.got.tgz:121574.got - 2010.06.03 13:09:07.
