data_PCOD9213811
_publ_section_title
;
Structure prediction by ZEFSAII (Michael W. Deem and Ramdas Pophale) SiO2 
 PCOD9213811
Probable space group: C 2/M
;
_chemical_formula_sum "Si O2"
_cell_formula_units_Z 64
_cell_length_a 14.479704
_cell_length_b 18.559075
_cell_length_c 21.914067
_cell_angle_alpha 90.000000
_cell_angle_beta 144.682923
_cell_angle_gamma 90.000000
_cell_volume 3404.415841
_symmetry_space_group_name_H-M "C 2/M"
_symmetry_group_IT_number 12
_symmetry_cell_setting 'monoclinic'
loop_
_space_group_symop_operation_xyz
x,y,z
-x,y,-z
-x,-y,-z
x,-y,z
1/2+x,1/2+y,z
1/2-x,1/2+y,-z
1/2-x,1/2-y,-z
1/2+x,1/2-y,z
loop_
_atom_site_type_symbol
_atom_site_label
_atom_site_fract_x
_atom_site_fract_y
_atom_site_fract_z
Si Si1 0.179417 0.853925 0.757519
Si Si2 0.161582 0.218132 0.114756
Si Si3 0.691147 0.915064 0.597349
Si Si4 0.454985 0.083016 0.833829
Si Si5 0.735818 0.416877 0.921136
Si Si6 0.530747 0.782091 0.799008
Si Si7 0.151245 0.195964 0.405654
Si Si8 0.054329 0.855048 0.169446
O O1 0.258937 0.775324 0.796660
O O2 0.286224 0.907754 0.776580
O O3 0.191234 0.874274 0.835716
O O4 0.996163 0.844270 0.641049
O O5 0.290625 0.206145 0.131029
O O6 0.106496 0.151958 0.127468
O O7 0.000000 0.249867 0.000000
O O8 0.500000 0.909341 0.500000
O O9 0.744632 0.866046 0.569519
O O10 0.794532 0.882320 0.709243
O O11 0.731752 0.000000 0.612693
O O12 0.466070 0.141432 0.786484
O O13 0.480697 0.000000 0.829578
O O14 0.595984 0.103312 0.957772
O O15 0.746808 0.500000 0.909249
O O16 0.594756 0.405680 0.893967
O O17 0.429955 0.745650 0.690322
O O18 0.511833 0.722942 0.842539
O O19 0.250000 0.250000 0.500000
#
# Coordination Sequence:
#
# PCOD9213811 Si02
#       8
#     8   8   8   8   8   8   8   8
#     4  11  21  35  59  89 118 157 193 249 298 346
#     4  11  21  33  56  87 118 152 197 239 285 352
#     4  10  22  39  62  87 112 148 196 251 305 350
#     4  11  23  37  58  87 127 167 198 236 294 365
#     4  11  21  36  58  90 125 159 200 246 294 350
#     4  10  22  39  57  86 116 159 198 240 304 350
#     4  10  23  40  64  89 117 148 197 258 304 352
#     4  11  21  36  60  85 118 154 196 254 291 356
#
# _framework density 18.799113999999999
#
# number of rings (size 3 to 8) (size 9 to 14) (size 15 to 20)
#    0.000    1.375    5.000    2.625    3.500    2.500 
#    0.000    1.875    0.000    4.125    0.000    0.000 
#    0.000    0.000    0.000    0.000    0.000    0.000 
#
# Total GULP energy -178547.875825 kJ/mol
# GULP energy per Si atom -5579.621120 kJ/mol
# Density = 1.875633 g / cm^3
# Si number density = 18.799114 Si / 1000 Ang^3
#
#
#
# Elastic Constant Matrix: (Units=GPa)
#
#
# Indices 1 2 3 4 5 6 
#
# 1 92.2753 38.2525 37.7645 0.0000 24.1173 0.0000
# 2 38.2525 80.3520 28.1772 0.0000 10.8139 0.0000
# 3 37.7645 28.1772 76.9554 0.0002 27.8568 0.0000
# 4 0.0000 0.0000 0.0002 24.5177 0.0000 1.6289
# 5 24.1173 10.8139 27.8568 0.0000 22.7020 0.0000
# 6 0.0000 0.0000 0.0000 1.6289 0.0000 27.5733
#
#
#
# Elastic Compliance Matrix: (Units=1/GPa)
#
#
# Indices 1 2 3 4 5 6 
#
# 1 0.017568 -0.006002 -0.001264 0.000000 -0.014253 0.000000
# 2 -0.006002 0.016335 -0.004547 0.000000 0.004174 0.000000
# 3 -0.001264 -0.004547 0.025205 0.000000 -0.027420 0.000000
# 4 0.000000 0.000000 0.000000 0.040948 0.000000 -0.002419
# 5 -0.014253 0.004174 -0.027420 0.000000 0.090848 0.000000
# 6 0.000000 0.000000 0.000000 -0.002419 0.000000 0.036410
#
#
# Mechanical properties :
#
#
# Convention : Reuss Voigt Hill
#
# Bulk Modulus (GPa) = 28.18287 50.88569 39.53428
# Shear Modulus (GPa) = 19.02830 24.65116 21.83973
#
# Velocity S-wave (km/s) = 3.18495 3.62511 3.41213
# Velocity P-wave (km/s) = 5.34316 6.68197 6.04971
#
# Compressibility (1/GPa) = 0.03548255
#
# Stress axis : x y z
#
# Youngs Moduli (GPa) = 56.92260 61.21763 39.67431
#
# Poissons Ratio (x) = 0.36742 0.05015
# Poissons Ratio (y) = 0.34164 0.18039
# Poissons Ratio (z) = 0.07196 0.27834
#
# Static dielectric constant tensor:
#      x y z
#    x 1.680760 0.000000 0.022160 
#    y 0.000000 1.636770 0.000000 
#    z 0.022160 0.000000 1.657050 
# 
# From -- ./inp_files/340809.got.cif
#   From: 2010.05.17/outbox.cif.g08.bks.cpg/sg12_171_cif.got.tgz:340809.got - 2010.06.03 13:09:07.
