data_PCOD9213127
_publ_section_title
;
Structure prediction by ZEFSAII (Michael W. Deem and Ramdas Pophale) SiO2 
 PCOD9213127
Probable space group: C 2/M
;
_chemical_formula_sum "Si O2"
_cell_formula_units_Z 48
_cell_length_a 12.543137
_cell_length_b 13.439977
_cell_length_c 28.536912
_cell_angle_alpha 90.000000
_cell_angle_beta 150.478322
_cell_angle_gamma 90.000000
_cell_volume 2370.504538
_symmetry_space_group_name_H-M "C 2/M"
_symmetry_group_IT_number 12
_symmetry_cell_setting 'monoclinic'
loop_
_space_group_symop_operation_xyz
x,y,z
-x,y,-z
-x,-y,-z
x,-y,z
1/2+x,1/2+y,z
1/2-x,1/2+y,-z
1/2-x,1/2-y,-z
1/2+x,1/2-y,z
loop_
_atom_site_type_symbol
_atom_site_label
_atom_site_fract_x
_atom_site_fract_y
_atom_site_fract_z
Si Si1 0.454365 0.790260 0.427223
Si Si2 0.100663 0.883337 0.420210
Si Si3 0.036818 0.618635 0.066299
Si Si4 0.719415 0.620406 0.026777
Si Si5 0.009158 0.194931 0.725152
Si Si6 0.288961 0.118771 0.159510
O O1 0.500000 0.780926 0.500000
O O2 0.641651 0.860902 0.478289
O O3 0.483992 0.683818 0.414199
O O4 0.209762 0.828384 0.330149
O O5 0.026790 0.840596 0.341599
O O6 0.056443 0.000000 0.406550
O O7 0.009598 0.500000 0.054106
O O8 0.279009 0.642199 0.174277
O O9 0.865108 0.655019 0.039220
O O10 0.000000 0.658248 0.000000
O O11 0.729261 0.500000 0.031132
O O12 0.812391 0.648475 0.113534
O O13 0.463281 0.641202 0.925316
O O14 0.059482 0.312300 0.750788
O O15 0.324493 0.000000 0.177944
#
# Coordination Sequence:
#
# PCOD9213127 Si02
#       6
#     8   8   8   8   8   8
#     4   9  22  43  63  94 124 150 203 255 306 374
#     4  10  22  43  68  90 121 163 200 248 311 374
#     4  10  22  37  53  82 124 169 213 255 301 364
#     4   8  17  36  57  78 113 164 217 258 304 355
#     4  11  23  35  59  94 123 157 206 251 309 367
#     4   9  19  36  58  85 117 159 208 263 310 353
#
# _framework density 20.248853
#
# number of rings (size 3 to 8) (size 9 to 14) (size 15 to 20)
#    0.000    2.500    0.000    1.500    4.667    6.667 
#    0.000    6.667    0.000    0.000    0.000    0.000 
#    0.000    0.000    0.000    0.000    0.000    0.000 
#
# Total GULP energy -134002.831981 kJ/mol
# GULP energy per Si atom -5583.451333 kJ/mol
# Density = 2.020277 g / cm^3
# Si number density = 20.248853 Si / 1000 Ang^3
#
#
#
# Elastic Constant Matrix: (Units=GPa)
#
#
# Indices 1 2 3 4 5 6 
#
# 1 112.7287 8.0077 23.2827 0.0000 17.8327 0.0000
# 2 8.0077 64.8458 -3.9821 -0.0003 -12.3580 0.0000
# 3 23.2827 -3.9821 66.5951 -0.0004 14.0875 0.0000
# 4 0.0000 -0.0003 -0.0004 29.1735 -0.0001 -7.0131
# 5 17.8327 -12.3580 14.0875 -0.0001 11.9839 0.0000
# 6 0.0000 0.0000 0.0000 -7.0131 0.0000 8.5471
#
#
#
# Elastic Compliance Matrix: (Units=1/GPa)
#
#
# Indices 1 2 3 4 5 6 
#
# 1 0.013769 -0.007152 0.000869 0.000000 -0.028885 0.000000
# 2 -0.007152 0.023763 -0.004677 0.000000 0.040644 0.000000
# 3 0.000869 -0.004677 0.020931 0.000000 -0.030721 0.000000
# 4 0.000000 0.000000 0.000000 0.042700 0.000001 0.035037
# 5 -0.028885 0.040644 -0.030721 0.000001 0.204456 0.000000
# 6 0.000000 0.000000 0.000000 0.035037 0.000000 0.145746
#
#
# Mechanical properties :
#
#
# Convention : Reuss Voigt Hill
#
# Bulk Modulus (GPa) = 27.36403 33.19850 30.28126
# Shear Modulus (GPa) = 10.29939 24.39832 17.34886
#
# Velocity S-wave (km/s) = 2.25775 3.47497 2.93026
# Velocity P-wave (km/s) = 4.50997 5.70363 5.14155
#
# Compressibility (1/GPa) = 0.03654433
#
# Stress axis : x y z
#
# Youngs Moduli (GPa) = 72.62802 42.08231 47.77504
#
# Poissons Ratio (x) = 0.30096 -0.04151
# Poissons Ratio (y) = 0.51941 0.22343
# Poissons Ratio (z) = -0.06311 0.19680
#
# Static dielectric constant tensor:
#      x y z
#    x 1.716640 0.000000 0.012320 
#    y 0.000000 1.749530 0.000000 
#    z 0.012320 0.000000 1.712160 
# 
# From -- ./inp_files/358510.got.cif
#   From: 2010.05.17/outbox.cif.g08.bks.cpg/sg12_180_cif.got.tgz:358510.got - 2010.06.03 13:09:07.
