data_PCOD9213209
_publ_section_title
;
Structure prediction by ZEFSAII (Michael W. Deem and Ramdas Pophale) SiO2 
 PCOD9213209
Probable space group: C 2/M
;
_chemical_formula_sum "Si O2"
_cell_formula_units_Z 32
_cell_length_a 5.488061
_cell_length_b 18.876304
_cell_length_c 15.459823
_cell_angle_alpha 90.000000
_cell_angle_beta 63.699032
_cell_angle_gamma 90.000000
_cell_volume 1435.755551
_symmetry_space_group_name_H-M "C 2/M"
_symmetry_group_IT_number 12
_symmetry_cell_setting 'monoclinic'
loop_
_space_group_symop_operation_xyz
x,y,z
-x,y,-z
-x,-y,-z
x,-y,z
1/2+x,1/2+y,z
1/2-x,1/2+y,-z
1/2-x,1/2-y,-z
1/2+x,1/2-y,z
loop_
_atom_site_type_symbol
_atom_site_label
_atom_site_fract_x
_atom_site_fract_y
_atom_site_fract_z
Si Si1 0.705594 0.102675 0.534704
Si Si2 0.311156 0.914096 0.950321
Si Si3 0.805152 0.584304 0.269783
Si Si4 0.920009 0.792922 0.363854
O O1 0.500000 0.070158 0.500000
O O2 0.593342 0.101588 0.648929
O O3 0.000000 0.069490 0.500000
O O4 0.784467 0.175708 0.472967
O O5 0.467847 0.898829 0.836769
O O6 0.297686 0.000000 0.959784
O O7 0.500000 0.888929 0.000000
O O8 0.000000 0.888045 0.000000
O O9 0.740982 0.500000 0.273821
O O10 0.547180 0.636383 0.299263
O O11 0.185087 0.746084 0.346783
#
# Coordination Sequence:
#
# PCOD9213209 Si02
#       4
#     8   8   8   8
#     4  10  22  37  58  89 127 160 201 248 298 359
#     4   9  19  37  61  88 118 154 201 256 310 364
#     4  10  23  41  65  95 125 162 209 260 311 361
#     4  11  24  42  63  90 126 169 209 246 300 374
#
# _framework density 22.287917
#
# number of rings (size 3 to 8) (size 9 to 14) (size 15 to 20)
#    0.000    2.000    0.000    3.000    0.000   24.000 
#    0.000   13.750    0.000    6.000    0.000    0.000 
#    0.000    0.000    0.000    0.000    0.000    0.000 
#
# Total GULP energy -89259.934180 kJ/mol
# GULP energy per Si atom -5578.745886 kJ/mol
# Density = 2.223719 g / cm^3
# Si number density = 22.287917 Si / 1000 Ang^3
#
#
#
# Elastic Constant Matrix: (Units=GPa)
#
#
# Indices 1 2 3 4 5 6 
#
# 1 216.7362 46.3344 98.3026 0.0000 -32.2651 0.0000
# 2 46.3344 133.4328 44.1328 0.0000 -27.3616 0.0000
# 3 98.3026 44.1328 198.3431 0.0000 -2.3759 0.0000
# 4 0.0000 0.0000 0.0000 -38.9827 0.0000 199.8082
# 5 -32.2651 -27.3616 -2.3759 0.0000 24.1341 0.0000
# 6 0.0000 0.0000 0.0000 199.8082 0.0000 -585.2567
#
#
#
# Elastic Compliance Matrix: (Units=1/GPa)
#
#
# Indices 1 2 3 4 5 6 
#
# 1 0.007885 0.000853 -0.003965 0.000000 0.011118 0.000000
# 2 0.000853 0.010760 -0.002660 0.000000 0.013077 0.000000
# 3 -0.003965 -0.002660 0.007508 0.000000 -0.007577 0.000000
# 4 0.000000 0.000000 0.000000 0.034209 0.000000 0.011679
# 5 0.011118 0.013077 -0.007577 0.000000 0.070380 0.000000
# 6 0.000000 0.000000 0.000000 0.011679 0.000000 0.002279
#
#
# Mechanical properties :
#
#
# Convention : Reuss Voigt Hill
#
# Bulk Modulus (GPa) = 68.45098 102.89463 85.67281
# Shear Modulus (GPa) = 33.46002 -96.03825 -31.28912
#
# Velocity S-wave (km/s) = 3.87882 -6.57141 -3.75088
# Velocity P-wave (km/s) = 7.13015 3.36326 4.44565
#
# Compressibility (1/GPa) = 0.01460900
#
# Stress axis : x y z
#
# Youngs Moduli (GPa) = 126.82607 92.93986 133.19423
#
# Poissons Ratio (x) = -0.07929 0.52805
# Poissons Ratio (y) = -0.10820 0.35434
# Poissons Ratio (z) = 0.50280 0.24725
#
# Static dielectric constant tensor:
#      x y z
#    x 1.854720 0.000000 -0.011080 
#    y 0.000000 1.886090 0.000000 
#    z -0.011080 0.000000 1.812120 
# 
# From -- ./inp_files/252768.got.cif
#   From: 2010.05.17/outbox.cif.g08.bks.cpg/sg12_127_cif.got.tgz:252768.got - 2010.06.03 13:09:07.
