data_PCOD9213231
_publ_section_title
;
Structure prediction by ZEFSAII (Michael W. Deem and Ramdas Pophale) SiO2 
 PCOD9213231
Probable space group: C 2/M
;
_chemical_formula_sum "Si O2"
_cell_formula_units_Z 40
_cell_length_a 28.839405
_cell_length_b 8.089043
_cell_length_c 11.530290
_cell_angle_alpha 90.000000
_cell_angle_beta 39.178955
_cell_angle_gamma 90.000000
_cell_volume 1699.281081
_symmetry_space_group_name_H-M "C 2/M"
_symmetry_group_IT_number 12
_symmetry_cell_setting 'monoclinic'
loop_
_space_group_symop_operation_xyz
x,y,z
-x,y,-z
-x,-y,-z
x,-y,z
1/2+x,1/2+y,z
1/2-x,1/2+y,-z
1/2-x,1/2-y,-z
1/2+x,1/2-y,z
loop_
_atom_site_type_symbol
_atom_site_label
_atom_site_fract_x
_atom_site_fract_y
_atom_site_fract_z
Si Si1 0.456135 0.000000 0.713004
Si Si2 0.782126 0.803040 0.815950
Si Si3 0.795633 0.309769 0.248715
Si Si4 0.866816 0.818879 0.324159
Si Si5 0.914206 0.184214 0.692898
Si Si6 0.958611 0.500000 0.206450
O O1 0.500000 0.000000 0.500000
O O2 0.408633 0.833152 0.794432
O O3 0.498683 0.000000 0.752649
O O4 0.732238 0.725276 0.814362
O O5 0.777175 0.000000 0.806010
O O6 0.750000 0.750000 0.000000
O O7 0.631628 0.733012 0.333878
O O8 0.822198 0.500000 0.186230
O O9 0.854483 0.214496 0.211521
O O10 0.716247 0.320518 0.466536
O O11 0.910089 0.666724 0.294785
O O12 0.899619 0.000000 0.282890
O O13 0.000000 0.169242 0.500000
O O14 0.888752 0.000000 0.777132
O O15 0.000000 0.500000 0.000000
#
# Coordination Sequence:
#
# PCOD9213231 Si02
#       6
#     4   8   8   8   8   4
#     4  10  24  42  66  98 120 178 226 260 319 389
#     4  10  22  37  59  94 134 173 210 272 340 385
#     4   9  19  39  66  95 129 166 217 282 326 388
#     4  10  22  42  69  96 124 171 224 267 331 401
#     4   9  20  40  62  89 127 168 222 273 318 384
#     4  12  28  46  66  98 144 174 215 284 334 390
#
# _framework density 23.539366000000001
#
# number of rings (size 3 to 8) (size 9 to 14) (size 15 to 20)
#    0.000    2.200    1.000    0.000    8.400    3.600 
#    0.000    2.000    0.000    0.000    0.000    0.000 
#    0.000    0.000    0.000    0.000    0.000    0.000 
#
# Total GULP energy -111538.969580 kJ/mol
# GULP energy per Si atom -5576.948479 kJ/mol
# Density = 2.348579 g / cm^3
# Si number density = 23.539366 Si / 1000 Ang^3
#
#
#
# Elastic Constant Matrix: (Units=GPa)
#
#
# Indices 1 2 3 4 5 6 
#
# 1 165.5831 69.1141 24.0585 0.0000 27.3546 0.0000
# 2 69.1141 175.6121 2.7593 0.0000 0.4357 0.0000
# 3 24.0585 2.7593 47.9232 0.0000 1.7797 0.0000
# 4 0.0000 0.0000 0.0000 20.5265 0.0000 -2.9622
# 5 27.3546 0.4357 1.7797 0.0000 34.6501 0.0000
# 6 0.0000 0.0000 0.0000 -2.9622 0.0000 19.5062
#
#
#
# Elastic Compliance Matrix: (Units=1/GPa)
#
#
# Indices 1 2 3 4 5 6 
#
# 1 0.009319 -0.003584 -0.004208 0.000000 -0.007096 0.000000
# 2 -0.003584 0.007078 0.001292 0.000000 0.002674 0.000000
# 3 -0.004208 0.001292 0.022826 0.000000 0.002134 0.000000
# 4 0.000000 0.000000 0.000000 0.049809 0.000000 0.007564
# 5 -0.007096 0.002674 0.002134 0.000000 0.034318 0.000000
# 6 0.000000 0.000000 0.000000 0.007564 0.000000 0.052415
#
#
# Mechanical properties :
#
#
# Convention : Reuss Voigt Hill
#
# Bulk Modulus (GPa) = 38.13489 64.55358 51.34424
# Shear Modulus (GPa) = 25.31585 34.48233 29.89909
#
# Velocity S-wave (km/s) = 3.28299 3.83153 3.56782
# Velocity P-wave (km/s) = 5.53230 6.85983 6.23152
#
# Compressibility (1/GPa) = 0.02622271
#
# Stress axis : x y z
#
# Youngs Moduli (GPa) = 107.31034 141.28562 43.81018
#
# Poissons Ratio (x) = 0.50634 0.18437
# Poissons Ratio (y) = 0.38458 -0.05662
# Poissons Ratio (z) = 0.45160 -0.18258
#
# Static dielectric constant tensor:
#      x y z
#    x 1.981090 0.000000 0.057090 
#    y 0.000000 1.937860 0.000000 
#    z 0.057090 0.000000 2.021420 
# 
# From -- ./inp_files/179686.got.cif
#   From: 2010.05.17/outbox.cif.g08.bks.cpg/sg12_90_cif.got.tgz:179686.got - 2010.06.03 13:09:07.
