data_PCOD9213915
_publ_section_title
;
Structure prediction by ZEFSAII (Michael W. Deem and Ramdas Pophale) SiO2 
 PCOD9213915
Probable space group: C 2/M
;
_chemical_formula_sum "Si O2"
_cell_formula_units_Z 56
_cell_length_a 23.644015
_cell_length_b 8.023402
_cell_length_c 15.082356
_cell_angle_alpha 90.000000
_cell_angle_beta 111.615842
_cell_angle_gamma 90.000000
_cell_volume 2659.989746
_symmetry_space_group_name_H-M "C 2/M"
_symmetry_group_IT_number 12
_symmetry_cell_setting 'monoclinic'
loop_
_space_group_symop_operation_xyz
x,y,z
-x,y,-z
-x,-y,-z
x,-y,z
1/2+x,1/2+y,z
1/2-x,1/2+y,-z
1/2-x,1/2-y,-z
1/2+x,1/2-y,z
loop_
_atom_site_type_symbol
_atom_site_label
_atom_site_fract_x
_atom_site_fract_y
_atom_site_fract_z
Si Si1 0.092197 0.198740 0.801160
Si Si2 0.731069 0.804900 0.890318
Si Si3 0.687592 0.200385 0.353750
Si Si4 0.156862 0.305819 0.147404
Si Si5 0.673469 0.798269 0.543528
Si Si6 0.949065 0.195078 0.035123
Si Si7 0.941772 0.298142 0.409574
O O1 0.160033 0.272291 0.835104
O O2 0.059627 0.265387 0.871312
O O3 0.057469 0.238526 0.690821
O O4 0.099008 0.000000 0.814399
O O5 0.774021 0.709639 0.846362
O O6 0.743361 0.000000 0.886979
O O7 0.750000 0.750000 0.000000
O O8 0.654113 0.261771 0.246067
O O9 0.664326 0.259231 0.436258
O O10 0.759026 0.243920 0.390101
O O11 0.682618 0.000000 0.349562
O O12 0.139124 0.500000 0.135719
O O13 0.114274 0.211747 0.053597
O O14 0.620220 0.740803 0.577801
O O15 0.672752 0.000000 0.542979
O O16 0.964460 0.000000 0.055543
O O17 0.000000 0.270970 0.000000
O O18 0.941155 0.500000 0.408260
O O19 0.000000 0.244303 0.500000
#
# Coordination Sequence:
#
# PCOD9213915 Si02
#       7
#     8   8   8   8   8   8   8
#     4  11  23  40  62  88 119 155 196 249 304 355
#     4  12  23  37  60  89 122 156 194 242 294 354
#     4   9  19  34  54  82 114 145 184 234 287 345
#     4  11  22  36  58  89 120 153 193 240 294 353
#     4   9  18  35  56  80 111 148 188 234 289 342
#     4  10  23  42  60  80 113 156 198 241 293 355
#     4  10  22  39  60  85 115 154 199 245 295 352
#
# _framework density 21.052712
#
# number of rings (size 3 to 8) (size 9 to 14) (size 15 to 20)
#    0.000    1.714    1.429    3.000    0.000    6.286 
#    0.000    1.429    0.000    0.000    0.000    0.000 
#    0.000    0.000    0.000    0.000    0.000    0.000 
#
# Total GULP energy -156456.109456 kJ/mol
# GULP energy per Si atom -5587.718195 kJ/mol
# Density = 2.100479 g / cm^3
# Si number density = 21.052712 Si / 1000 Ang^3
#
#
#
# Elastic Constant Matrix: (Units=GPa)
#
#
# Indices 1 2 3 4 5 6 
#
# 1 99.2250 -4.6649 43.3851 0.0000 -22.5287 0.0000
# 2 -4.6649 24.1401 -4.6304 0.0000 -0.2012 0.0000
# 3 43.3851 -4.6304 151.5720 0.0000 -26.2246 0.0000
# 4 0.0000 0.0000 0.0000 17.7523 0.0000 3.3845
# 5 -22.5287 -0.2012 -26.2246 0.0000 27.7570 0.0000
# 6 0.0000 0.0000 0.0000 3.3845 0.0000 13.2531
#
#
#
# Elastic Compliance Matrix: (Units=1/GPa)
#
#
# Indices 1 2 3 4 5 6 
#
# 1 0.013085 0.002178 -0.002198 0.000000 0.008560 0.000000
# 2 0.002178 0.042107 0.001221 0.000000 0.003227 0.000000
# 3 -0.002198 0.001221 0.008316 0.000000 0.006082 0.000000
# 4 0.000000 0.000000 0.000000 0.059214 0.000000 -0.015122
# 5 0.008560 0.003227 0.006082 0.000000 0.048744 0.000000
# 6 0.000000 0.000000 0.000000 -0.015122 0.000000 0.079316
#
#
# Mechanical properties :
#
#
# Convention : Reuss Voigt Hill
#
# Bulk Modulus (GPa) = 15.17193 38.12408 26.64801
# Shear Modulus (GPa) = 18.49463 27.80896 23.15180
#
# Velocity S-wave (km/s) = 2.96715 3.63839 3.31978
# Velocity P-wave (km/s) = 4.35442 5.98320 5.23257
#
# Compressibility (1/GPa) = 0.06591118
#
# Stress axis : x y z
#
# Youngs Moduli (GPa) = 76.42381 23.74912 120.24673
#
# Poissons Ratio (x) = -0.05173 0.26429
# Poissons Ratio (y) = -0.16648 -0.14684
# Poissons Ratio (z) = 0.16797 -0.02900
#
# Static dielectric constant tensor:
#      x y z
#    x 1.737570 0.000000 -0.036970 
#    y 0.000000 1.753490 0.000000 
#    z -0.036970 0.000000 1.752230 
# 
# From -- ./inp_files/237425.got.cif
#   From: 2010.05.17/outbox.cif.g08.bks.cpg/sg12_119_cif.got.tgz:237425.got - 2010.06.03 13:09:07.
