data_PCOD9213791
_publ_section_title
;
Structure prediction by ZEFSAII (Michael W. Deem and Ramdas Pophale) SiO2 
 PCOD9213791
Probable space group: C 2/M
;
_chemical_formula_sum "Si O2"
_cell_formula_units_Z 56
_cell_length_a 14.317181
_cell_length_b 28.597393
_cell_length_c 13.694537
_cell_angle_alpha 90.000000
_cell_angle_beta 147.463866
_cell_angle_gamma 90.000000
_cell_volume 3015.625872
_symmetry_space_group_name_H-M "C 2/M"
_symmetry_group_IT_number 12
_symmetry_cell_setting 'monoclinic'
loop_
_space_group_symop_operation_xyz
x,y,z
-x,y,-z
-x,-y,-z
x,-y,z
1/2+x,1/2+y,z
1/2-x,1/2+y,-z
1/2-x,1/2-y,-z
1/2+x,1/2-y,z
loop_
_atom_site_type_symbol
_atom_site_label
_atom_site_fract_x
_atom_site_fract_y
_atom_site_fract_z
Si Si1 0.956875 0.246839 0.173523
Si Si2 0.294422 0.883249 0.538166
Si Si3 0.195319 0.447533 0.630577
Si Si4 0.461604 0.157382 0.078583
Si Si5 0.665267 0.629829 0.098383
Si Si6 0.005069 0.693530 0.394177
Si Si7 0.425433 0.357614 0.184009
O O1 0.006998 0.287770 0.142026
O O2 0.027971 0.264493 0.339898
O O3 0.987237 0.192159 0.192686
O O4 0.750000 0.250000 0.000000
O O5 0.310339 0.929743 0.486646
O O6 0.423640 0.872911 0.742733
O O7 0.350475 0.844250 0.506839
O O8 0.092884 0.876390 0.388391
O O9 0.267029 0.500000 0.699708
O O10 0.289165 0.410813 0.785043
O O11 0.000000 0.447941 0.500000
O O12 0.500000 0.146874 0.000000
O O13 0.256152 0.149763 0.919830
O O14 0.825159 0.664973 0.222323
O O15 0.500000 0.655078 0.000000
O O16 0.616407 0.611276 0.948009
O O17 0.000000 0.709610 0.500000
#
# Coordination Sequence:
#
# PCOD9213791 Si02
#       7
#     8   8   8   8   8   8   8
#     4   9  19  36  50  76 112 146 194 248 271 329
#     4  11  20  38  59  75 115 153 185 232 292 343
#     4  11  21  35  58  91 120 147 186 228 293 371
#     4  10  22  39  57  78 111 151 199 248 283 323
#     4  12  19  33  58  83 117 160 180 223 291 361
#     4  11  18  34  53  78 112 154 192 226 286 342
#     4  11  21  38  54  82 114 154 200 230 285 342
#
# _framework density 18.569942999999999
#
# number of rings (size 3 to 8) (size 9 to 14) (size 15 to 20)
#    0.000    1.286    8.571    0.000    0.000    3.714 
#   10.286    0.000    0.000    0.429    0.000    1.000 
#    0.000    0.000    0.000    0.000    0.000    0.000 
#
# Total GULP energy -155990.104360 kJ/mol
# GULP energy per Si atom -5571.075156 kJ/mol
# Density = 1.852768 g / cm^3
# Si number density = 18.569943 Si / 1000 Ang^3
#
#
#
# Elastic Constant Matrix: (Units=GPa)
#
#
# Indices 1 2 3 4 5 6 
#
# 1 112.9833 25.1814 44.0810 0.0000 -5.0271 0.0000
# 2 25.1814 63.4746 25.9929 0.0000 -11.7104 0.0000
# 3 44.0810 25.9929 85.6395 0.0000 10.1474 0.0000
# 4 0.0000 0.0000 0.0000 14.1351 0.0000 -4.4649
# 5 -5.0271 -11.7104 10.1474 0.0000 38.2063 0.0000
# 6 0.0000 0.0000 0.0000 -4.4649 0.0000 12.2200
#
#
#
# Elastic Compliance Matrix: (Units=1/GPa)
#
#
# Indices 1 2 3 4 5 6 
#
# 1 0.011593 -0.001798 -0.005717 0.000000 0.002493 0.000000
# 2 -0.001798 0.020410 -0.006177 0.000000 0.007660 0.000000
# 3 -0.005717 -0.006177 0.017354 0.000000 -0.007254 0.000000
# 4 0.000000 0.000000 0.000000 0.079976 0.000000 0.029221
# 5 0.002493 0.007660 -0.007254 0.000000 0.030776 0.000000
# 6 0.000000 0.000000 0.000000 0.029221 0.000000 0.092510
#
#
# Mechanical properties :
#
#
# Convention : Reuss Voigt Hill
#
# Bulk Modulus (GPa) = 45.50970 50.28980 47.89975
# Shear Modulus (GPa) = 17.40177 24.03508 20.71842
#
# Velocity S-wave (km/s) = 3.06452 3.60154 3.34383
# Velocity P-wave (km/s) = 6.08951 6.66595 6.38424
#
# Compressibility (1/GPa) = 0.02197334
#
# Stress axis : x y z
#
# Youngs Moduli (GPa) = 86.25905 48.99494 57.62430
#
# Poissons Ratio (x) = 0.08811 0.32943
# Poissons Ratio (y) = 0.15512 0.35594
# Poissons Ratio (z) = 0.49312 0.30263
#
# Static dielectric constant tensor:
#      x y z
#    x 1.650540 0.000000 0.000610 
#    y 0.000000 1.686230 0.000000 
#    z 0.000610 0.000000 1.874530 
# 
# From -- ./inp_files/219379.got.cif
#   From: 2010.05.17/outbox.cif.g08.bks.cpg/sg12_110_cif.got.tgz:219379.got - 2010.06.03 13:09:07.
