data_PCOD9213408
_publ_section_title
;
Structure prediction by ZEFSAII (Michael W. Deem and Ramdas Pophale) SiO2 
 PCOD9213408
Probable space group: C 2/M
;
_chemical_formula_sum "Si O2"
_cell_formula_units_Z 56
_cell_length_a 15.114750
_cell_length_b 19.385466
_cell_length_c 12.435473
_cell_angle_alpha 90.000000
_cell_angle_beta 43.268477
_cell_angle_gamma 90.000000
_cell_volume 2497.439225
_symmetry_space_group_name_H-M "C 2/M"
_symmetry_group_IT_number 12
_symmetry_cell_setting 'monoclinic'
loop_
_space_group_symop_operation_xyz
x,y,z
-x,y,-z
-x,-y,-z
x,-y,z
1/2+x,1/2+y,z
1/2-x,1/2+y,-z
1/2-x,1/2-y,-z
1/2+x,1/2-y,z
loop_
_atom_site_type_symbol
_atom_site_label
_atom_site_fract_x
_atom_site_fract_y
_atom_site_fract_z
Si Si1 0.851687 0.083809 0.618915
Si Si2 0.777937 0.420119 0.491140
Si Si3 0.828599 0.719141 0.760844
Si Si4 0.687741 0.421220 0.111087
Si Si5 0.079618 0.576366 0.259964
Si Si6 0.780617 0.781351 0.357114
Si Si7 0.433151 0.292943 0.872409
O O1 0.782659 0.102868 0.569499
O O2 0.787267 0.103401 0.789371
O O3 0.000000 0.106280 0.500000
O O4 0.851283 0.000000 0.616078
O O5 0.741176 0.500000 0.545371
O O6 0.736183 0.363857 0.614930
O O7 0.933377 0.417768 0.349448
O O8 0.881405 0.641231 0.703238
O O9 0.916972 0.754879 0.771924
O O10 0.310082 0.753336 0.657315
O O11 0.687731 0.721207 0.942793
O O12 0.641414 0.500000 0.155321
O O13 0.583639 0.373124 0.145019
O O14 0.820100 0.418807 0.927721
O O15 0.095768 0.500000 0.295697
O O16 0.750000 0.750000 0.500000
O O17 0.931302 0.771391 0.199005
#
# Coordination Sequence:
#
# PCOD9213408 Si02
#       7
#     8   8   8   8   8   8   8
#     4   9  17  30  50  80 118 154 190 238 294 349
#     4  10  22  38  57  86 123 160 198 246 301 357
#     4  10  23  44  64  88 120 159 203 249 303 360
#     4   9  18  34  60  89 116 155 201 247 299 356
#     4   9  19  38  61  86 117 155 203 250 297 354
#     4  12  26  40  62  93 122 158 204 249 299 363
#     4  10  22  42  66  88 120 160 198 250 306 357
#
# _framework density 22.422967
#
# number of rings (size 3 to 8) (size 9 to 14) (size 15 to 20)
#    0.000    2.143    0.000    2.143    2.000    5.143 
#    0.000    4.286    0.000    4.286    0.000    0.000 
#    0.000    0.000    0.000    0.000    0.000    0.000 
#
# Total GULP energy -156480.924274 kJ/mol
# GULP energy per Si atom -5588.604438 kJ/mol
# Density = 2.237193 g / cm^3
# Si number density = 22.422967 Si / 1000 Ang^3
#
#
#
# Elastic Constant Matrix: (Units=GPa)
#
#
# Indices 1 2 3 4 5 6 
#
# 1 112.9115 20.0761 9.5256 -0.0001 3.0573 0.0000
# 2 20.0761 73.1107 5.1810 0.0000 0.6112 0.0000
# 3 9.5256 5.1810 45.2595 -0.0002 -11.6895 0.0000
# 4 -0.0001 0.0000 -0.0002 18.3679 0.0001 3.3881
# 5 3.0573 0.6112 -11.6895 0.0001 31.0512 0.0000
# 6 0.0000 0.0000 0.0000 3.3881 0.0000 21.9261
#
#
#
# Elastic Compliance Matrix: (Units=1/GPa)
#
#
# Indices 1 2 3 4 5 6 
#
# 1 0.009520 -0.002447 -0.002164 0.000000 -0.001704 0.000000
# 2 -0.002447 0.014444 -0.001274 0.000000 -0.000523 0.000000
# 3 -0.002164 -0.001274 0.025209 0.000000 0.009728 0.000000
# 4 0.000000 0.000000 0.000000 0.056040 0.000000 -0.008660
# 5 -0.001704 -0.000523 0.009728 0.000000 0.036045 0.000000
# 6 0.000000 0.000000 0.000000 -0.008660 0.000000 0.046946
#
#
# Mechanical properties :
#
#
# Convention : Reuss Voigt Hill
#
# Bulk Modulus (GPa) = 26.73418 33.42744 30.08081
# Shear Modulus (GPa) = 23.53602 27.36897 25.45249
#
# Velocity S-wave (km/s) = 3.24333 3.49747 3.37279
# Velocity P-wave (km/s) = 5.09648 5.59015 5.34901
#
# Compressibility (1/GPa) = 0.03740530
#
# Stress axis : x y z
#
# Youngs Moduli (GPa) = 105.04001 69.23112 39.66911
#
# Poissons Ratio (x) = 0.16939 0.08583
# Poissons Ratio (y) = 0.25700 0.05052
# Poissons Ratio (z) = 0.22727 0.08817
#
# Static dielectric constant tensor:
#      x y z
#    x 1.785850 0.000000 0.013390 
#    y 0.000000 1.895360 0.000000 
#    z 0.013390 0.000000 1.808530 
# 
# From -- ./inp_files/322776.got.cif
#   From: 2010.05.17/outbox.cif.g08.bks.cpg/sg12_162_cif.got.tgz:322776.got - 2010.06.03 13:09:07.
