data_PCOD9213929
_publ_section_title
;
Structure prediction by ZEFSAII (Michael W. Deem and Ramdas Pophale) SiO2 
 PCOD9213929
Probable space group: C 2/M
;
_chemical_formula_sum "Si O2"
_cell_formula_units_Z 36
_cell_length_a 14.582012
_cell_length_b 7.312384
_cell_length_c 19.175009
_cell_angle_alpha 90.000000
_cell_angle_beta 139.152247
_cell_angle_gamma 90.000000
_cell_volume 1337.284545
_symmetry_space_group_name_H-M "C 2/M"
_symmetry_group_IT_number 12
_symmetry_cell_setting 'monoclinic'
loop_
_space_group_symop_operation_xyz
x,y,z
-x,y,-z
-x,-y,-z
x,-y,z
1/2+x,1/2+y,z
1/2-x,1/2+y,-z
1/2-x,1/2-y,-z
1/2+x,1/2-y,z
loop_
_atom_site_type_symbol
_atom_site_label
_atom_site_fract_x
_atom_site_fract_y
_atom_site_fract_z
Si Si1 0.593067 0.211447 0.991829
Si Si2 0.194640 0.786252 0.545924
Si Si3 0.087757 0.220291 0.836791
Si Si4 0.091935 0.782296 0.685637
Si Si5 0.257459 0.500000 0.701342
O O1 0.528542 0.218195 0.877077
O O2 0.616427 0.000000 0.024100
O O3 0.500000 0.292041 0.000000
O O4 0.750097 0.286550 0.073605
O O5 0.250000 0.750000 0.500000
O O6 0.028694 0.743765 0.440294
O O7 0.261747 0.657944 0.642018
O O8 0.209033 0.000000 0.571502
O O9 0.034895 0.269811 0.729747
O O10 0.079575 0.000000 0.837713
O O11 0.221862 0.659935 0.739168
O O12 0.120302 0.000000 0.703046
#
# Coordination Sequence:
#
# PCOD9213929 Si02
#       5
#     8   8   8   8   4
#     4   9  18  35  59  85 114 153 193 234 294 358
#     4  11  22  39  60  87 121 157 199 246 300 355
#     4   9  19  37  57  83 119 151 189 246 295 347
#     4  10  22  39  60  88 119 155 204 246 292 359
#     4  12  23  40  66  86 115 164 199 242 307 358
#
# _framework density 26.920224999999999
#
# number of rings (size 3 to 8) (size 9 to 14) (size 15 to 20)
#    0.000    2.000    1.111    2.667    1.556    2.222 
#    4.000    0.000    0.000    0.000    0.000    0.000 
#    0.000    0.000    0.000    0.000    0.000    0.000 
#
# Total GULP energy -100311.703778 kJ/mol
# GULP energy per Si atom -5572.872432 kJ/mol
# Density = 2.685895 g / cm^3
# Si number density = 26.920225 Si / 1000 Ang^3
#
#
#
# Elastic Constant Matrix: (Units=GPa)
#
#
# Indices 1 2 3 4 5 6 
#
# 1 153.3628 12.5748 62.2328 0.0000 -49.2337 0.0000
# 2 12.5748 119.9572 7.6378 0.0000 2.4941 0.0000
# 3 62.2328 7.6378 115.6830 0.0000 -25.6892 0.0000
# 4 0.0000 0.0000 0.0000 14.7691 0.0000 -25.0249
# 5 -49.2337 2.4941 -25.6892 0.0000 57.4511 0.0000
# 6 0.0000 0.0000 0.0000 -25.0249 0.0000 19.6111
#
#
#
# Elastic Compliance Matrix: (Units=1/GPa)
#
#
# Indices 1 2 3 4 5 6 
#
# 1 0.010574 -0.001006 -0.003997 0.000000 0.007318 0.000000
# 2 -0.001006 0.008491 -0.000325 0.000000 -0.001376 0.000000
# 3 -0.003997 -0.000325 0.011167 0.000000 0.001582 0.000000
# 4 0.000000 0.000000 0.000000 -0.058261 0.000000 -0.074344
# 5 0.007318 -0.001376 0.001582 0.000000 0.024445 0.000000
# 6 0.000000 0.000000 0.000000 -0.074344 0.000000 -0.043876
#
#
# Mechanical properties :
#
#
# Convention : Reuss Voigt Hill
#
# Bulk Modulus (GPa) = 51.08143 61.54377 56.31260
# Shear Modulus (GPa) = -165.13674 38.80343 -63.16666
#
# Velocity S-wave (km/s) = -7.84067 3.80073 -4.84926
# Velocity P-wave (km/s) = 7.93422 6.49399 3.22336
#
# Compressibility (1/GPa) = 0.01957659
#
# Stress axis : x y z
#
# Youngs Moduli (GPa) = 94.56919 117.77070 89.54672
#
# Poissons Ratio (x) = 0.11849 0.35792
# Poissons Ratio (y) = 0.09515 0.02910
# Poissons Ratio (z) = 0.37799 0.03827
#
# Static dielectric constant tensor:
#      x y z
#    x 2.227120 0.000000 0.130650 
#    y 0.000000 2.027300 0.000000 
#    z 0.130650 0.000000 2.145020 
# 
# From -- ./inp_files/266557.got.cif
#   From: 2010.05.17/outbox.cif.g08.bks.cpg/sg12_134_cif.got.tgz:266557.got - 2010.06.03 13:09:07.
