data_PCOD9213202
_publ_section_title
;
Structure prediction by ZEFSAII (Michael W. Deem and Ramdas Pophale) SiO2 
 PCOD9213202
Probable space group: C 2/M
;
_chemical_formula_sum "Si O2"
_cell_formula_units_Z 56
_cell_length_a 30.251614
_cell_length_b 21.511186
_cell_length_c 8.926072
_cell_angle_alpha 90.000000
_cell_angle_beta 151.210732
_cell_angle_gamma 90.000000
_cell_volume 2797.372648
_symmetry_space_group_name_H-M "C 2/M"
_symmetry_group_IT_number 12
_symmetry_cell_setting 'monoclinic'
loop_
_space_group_symop_operation_xyz
x,y,z
-x,y,-z
-x,-y,-z
x,-y,z
1/2+x,1/2+y,z
1/2-x,1/2+y,-z
1/2-x,1/2-y,-z
1/2+x,1/2-y,z
loop_
_atom_site_type_symbol
_atom_site_label
_atom_site_fract_x
_atom_site_fract_y
_atom_site_fract_z
Si Si1 0.858770 0.321775 0.420281
Si Si2 0.160499 0.810971 0.666523
Si Si3 0.902776 0.000000 0.792378
Si Si4 0.765859 0.112322 0.360785
Si Si5 0.085104 0.573874 0.638759
Si Si6 0.894401 0.870491 0.225971
Si Si7 0.602563 0.500000 0.868256
Si Si8 0.255470 0.812537 0.414879
O O1 0.895822 0.252902 0.492973
O O2 0.909418 0.379057 0.488674
O O3 0.836641 0.321959 0.532445
O O4 0.758124 0.314728 0.043887
O O5 0.188707 0.827905 0.583885
O O6 0.107400 0.862676 0.601107
O O7 0.842147 0.059779 0.574873
O O8 0.909689 0.000000 0.991835
O O9 0.000000 0.000000 0.000000
O O10 0.741399 0.131622 0.455920
O O11 0.676792 0.089836 0.005572
O O12 0.084149 0.500000 0.595834
O O13 0.000000 0.585417 0.500000
O O14 0.000000 0.867032 0.500000
O O15 0.852385 0.936944 0.056191
O O16 0.836900 0.819977 0.960416
O O17 0.500000 0.500000 0.500000
O O18 0.250000 0.750000 0.500000
#
# Coordination Sequence:
#
# PCOD9213202 Si02
#       8
#     8   8   4   8   8   8   4   8
#     4   9  19  38  60  91 117 160 207 257 316 375
#     4   9  19  35  59  85 121 158 206 250 311 377
#     4  12  26  40  63  95 132 165 209 264 320 390
#     4  11  22  40  63  93 126 170 209 262 325 377
#     4  10  22  43  67  93 124 166 221 271 318 381
#     4  10  22  37  58  86 123 166 214 257 313 386
#     4  10  22  40  54  85 125 170 205 246 314 381
#     4  11  21  40  64  87 127 170 207 263 323 384
#
# _framework density 20.018785000000001
#
# number of rings (size 3 to 8) (size 9 to 14) (size 15 to 20)
#    0.000    1.857    3.571    0.000    6.000    0.571 
#    9.000    0.714    0.000    1.714    0.000    0.000 
#    0.000    0.000    0.000    0.000    0.000    0.000 
#
# Total GULP energy -155874.018320 kJ/mol
# GULP energy per Si atom -5566.929226 kJ/mol
# Density = 1.997322 g / cm^3
# Si number density = 20.018785 Si / 1000 Ang^3
#
#
#
# Elastic Constant Matrix: (Units=GPa)
#
#
# Indices 1 2 3 4 5 6 
#
# 1 162.1862 79.9544 20.8929 0.0000 -10.9295 0.0000
# 2 79.9544 126.0881 20.7607 0.0000 2.1506 0.0000
# 3 20.8929 20.7607 41.5315 0.0000 -0.5867 0.0000
# 4 0.0000 0.0000 0.0000 19.6048 0.0000 -7.1932
# 5 -10.9295 2.1506 -0.5867 0.0000 25.2803 0.0000
# 6 0.0000 0.0000 0.0000 -7.1932 0.0000 36.5093
#
#
#
# Elastic Compliance Matrix: (Units=1/GPa)
#
#
# Indices 1 2 3 4 5 6 
#
# 1 0.009605 -0.005867 -0.001834 0.000000 0.004609 0.000000
# 2 -0.005867 0.012244 -0.003221 0.000000 -0.003653 0.000000
# 3 -0.001834 -0.003221 0.026612 0.000000 0.000099 0.000000
# 4 0.000000 0.000000 0.000000 0.054983 0.000000 0.010833
# 5 0.004609 -0.003653 0.000099 0.000000 0.041862 0.000000
# 6 0.000000 0.000000 0.000000 0.010833 0.000000 0.029525
#
#
# Mechanical properties :
#
#
# Convention : Reuss Voigt Hill
#
# Bulk Modulus (GPa) = 37.56910 63.66907 50.61909
# Shear Modulus (GPa) = 24.32537 30.15874 27.24205
#
# Velocity S-wave (km/s) = 3.48965 3.88560 3.69294
# Velocity P-wave (km/s) = 5.91984 7.21140 6.59730
#
# Compressibility (1/GPa) = 0.02661762
#
# Stress axis : x y z
#
# Youngs Moduli (GPa) = 104.11135 81.67170 37.57712
#
# Poissons Ratio (x) = 0.47920 0.06891
# Poissons Ratio (y) = 0.61086 0.12102
# Poissons Ratio (z) = 0.19092 0.26303
#
# Static dielectric constant tensor:
#      x y z
#    x 1.805190 0.000000 0.019170 
#    y 0.000000 1.734300 0.000000 
#    z 0.019170 0.000000 1.715000 
# 
# From -- ./inp_files/113425.got.cif
#   From: 2010.05.17/outbox.cif.g08.bks.cpg/sg12_57_cif.got.tgz:113425.got - 2010.06.03 13:09:07.
