data_PCOD9213789
_publ_section_title
;
Structure prediction by ZEFSAII (Michael W. Deem and Ramdas Pophale) SiO2 
 PCOD9213789
Probable space group: C 2/M
;
_chemical_formula_sum "Si O2"
_cell_formula_units_Z 48
_cell_length_a 22.767975
_cell_length_b 7.539734
_cell_length_c 22.188310
_cell_angle_alpha 90.000000
_cell_angle_beta 146.882408
_cell_angle_gamma 90.000000
_cell_volume 2081.051718
_symmetry_space_group_name_H-M "C 2/M"
_symmetry_group_IT_number 12
_symmetry_cell_setting 'monoclinic'
loop_
_space_group_symop_operation_xyz
x,y,z
-x,y,-z
-x,-y,-z
x,-y,z
1/2+x,1/2+y,z
1/2-x,1/2+y,-z
1/2-x,1/2-y,-z
1/2+x,1/2-y,z
loop_
_atom_site_type_symbol
_atom_site_label
_atom_site_fract_x
_atom_site_fract_y
_atom_site_fract_z
Si Si1 0.889105 0.294872 0.379938
Si Si2 0.301707 0.290964 0.182142
Si Si3 0.655069 0.288910 0.372735
Si Si4 0.668635 0.717487 0.245911
Si Si5 0.431165 0.713340 0.039367
Si Si6 0.082534 0.216013 0.834229
O O1 0.889088 0.500000 0.400319
O O2 0.877946 0.289059 0.298497
O O3 0.776587 0.216749 0.306982
O O4 0.000000 0.215272 0.500000
O O5 0.321336 0.500000 0.199343
O O6 0.331338 0.222011 0.140771
O O7 0.176426 0.259996 0.088564
O O8 0.647421 0.500000 0.361522
O O9 0.750000 0.250000 0.500000
O O10 0.675126 0.228068 0.321696
O O11 0.536363 0.229526 0.290387
O O12 0.668330 0.500000 0.241749
O O13 0.549853 0.774320 0.121515
O O14 0.435941 0.500000 0.044385
O O15 0.411245 0.776920 0.091253
O O16 0.088822 0.000000 0.842108
#
# Coordination Sequence:
#
# PCOD9213789 Si02
#       6
#     8   8   8   8   8   8
#     4  10  22  39  57  77 103 140 186 225 255 304
#     4  11  22  35  53  80 113 143 172 214 270 319
#     4   9  17  31  52  77 103 135 173 213 262 312
#     4   8  17  35  56  76 103 137 175 222 265 304
#     4   9  17  35  60  80 102 138 181 218 260 315
#     4   8  17  33  52  77 110 142 169 208 265 323
#
# _framework density 23.065259999999999
#
# number of rings (size 3 to 8) (size 9 to 14) (size 15 to 20)
#    0.000    2.833    0.000    3.000    2.333    1.000 
#    0.000   10.000    0.000    0.000    0.000    0.000 
#    0.000    0.000    0.000    0.000    0.000    0.000 
#
# Total GULP energy -133942.736373 kJ/mol
# GULP energy per Si atom -5580.947349 kJ/mol
# Density = 2.301276 g / cm^3
# Si number density = 23.065260 Si / 1000 Ang^3
#
#
#
# Elastic Constant Matrix: (Units=GPa)
#
#
# Indices 1 2 3 4 5 6 
#
# 1 84.7737 3.7176 37.6303 0.0000 29.9644 0.0000
# 2 3.7176 50.9701 -1.7143 0.0000 5.5279 0.0000
# 3 37.6303 -1.7143 171.1600 0.0000 20.8818 0.0000
# 4 0.0000 0.0000 0.0000 12.4269 0.0000 -6.1876
# 5 29.9644 5.5279 20.8818 0.0000 28.7535 0.0000
# 6 0.0000 0.0000 0.0000 -6.1876 0.0000 5.7174
#
#
#
# Elastic Compliance Matrix: (Units=1/GPa)
#
#
# Indices 1 2 3 4 5 6 
#
# 1 0.019271 0.000566 -0.001940 0.000000 -0.018783 0.000000
# 2 0.000566 0.020139 0.000682 0.000000 -0.004957 0.000000
# 3 -0.001940 0.000682 0.006633 0.000000 -0.002927 0.000000
# 4 0.000000 0.000000 0.000000 0.174509 0.000000 0.188862
# 5 -0.018783 -0.004957 -0.002927 0.000000 0.057431 0.000000
# 6 0.000000 0.000000 0.000000 0.188862 0.000000 0.379302
#
#
# Mechanical properties :
#
#
# Convention : Reuss Voigt Hill
#
# Bulk Modulus (GPa) = 22.39135 42.90789 32.64962
# Shear Modulus (GPa) = 7.42330 27.19758 17.31044
#
# Velocity S-wave (km/s) = 1.79593 3.43761 2.74249
# Velocity P-wave (km/s) = 3.74558 5.86510 4.92082
#
# Compressibility (1/GPa) = 0.04466011
#
# Stress axis : x y z
#
# Youngs Moduli (GPa) = 51.89013 49.65588 150.76526
#
# Poissons Ratio (x) = -0.02812 0.29243
# Poissons Ratio (y) = -0.02938 -0.10282
# Poissons Ratio (z) = 0.10065 -0.03386
#
# Static dielectric constant tensor:
#      x y z
#    x 1.886530 0.000000 0.012960 
#    y 0.000000 2.067980 0.000000 
#    z 0.012960 0.000000 1.870640 
# 
# From -- ./inp_files/348890.got.cif
#   From: 2010.05.17/outbox.cif.g08.bks.cpg/sg12_175_cif.got.tgz:348890.got - 2010.06.03 13:09:07.
