data_PCOD9213302
_publ_section_title
;
Structure prediction by ZEFSAII (Michael W. Deem and Ramdas Pophale) SiO2 
 PCOD9213302
Probable space group: C 2/M
;
_chemical_formula_sum "Si O2"
_cell_formula_units_Z 40
_cell_length_a 24.419803
_cell_length_b 8.080376
_cell_length_c 30.790411
_cell_angle_alpha 90.000000
_cell_angle_beta 160.784794
_cell_angle_gamma 90.000000
_cell_volume 1999.585050
_symmetry_space_group_name_H-M "C 2/M"
_symmetry_group_IT_number 12
_symmetry_cell_setting 'monoclinic'
loop_
_space_group_symop_operation_xyz
x,y,z
-x,y,-z
-x,-y,-z
x,-y,z
1/2+x,1/2+y,z
1/2-x,1/2+y,-z
1/2-x,1/2-y,-z
1/2+x,1/2-y,z
loop_
_atom_site_type_symbol
_atom_site_label
_atom_site_fract_x
_atom_site_fract_y
_atom_site_fract_z
Si Si1 0.746571 0.188770 0.868781
Si Si2 0.591462 0.685599 0.356623
Si Si3 0.608535 0.301975 0.929673
Si Si4 0.201288 0.500000 0.153942
Si Si5 0.493810 0.500000 0.442946
Si Si6 0.192108 0.317505 0.345457
O O1 0.558349 0.194612 0.744695
O O2 0.757226 0.328409 0.840021
O O3 0.792315 0.000000 0.890368
O O4 0.844846 0.241335 0.985991
O O5 0.545804 0.500000 0.335888
O O6 0.750000 0.750000 0.500000
O O7 0.641774 0.689278 0.344203
O O8 0.597883 0.500000 0.919178
O O9 0.430437 0.221798 0.785678
O O10 0.750000 0.250000 0.000000
O O11 0.318185 0.500000 0.285481
O O12 0.000000 0.500000 0.000000
O O13 0.500000 0.500000 0.500000
O O14 0.612850 0.343768 0.518243
O O15 0.142543 0.500000 0.325477
#
# Coordination Sequence:
#
# PCOD9213302 Si02
#       6
#     8   8   8   4   4   8
#     4  11  25  43  66 101 144 178 232 294 345 420
#     4  12  22  36  61  95 139 181 223 280 356 425
#     4  11  22  36  61 102 141 181 225 275 347 414
#     4  12  28  48  80 102 132 194 241 290 361 414
#     4  10  26  48  70 100 136 180 243 292 351 418
#     4  10  22  37  64  89 134 173 226 277 349 405
#
# _framework density 20.004149999999999
#
# number of rings (size 3 to 8) (size 9 to 14) (size 15 to 20)
#    0.600    0.400    3.000    4.200    5.600    0.400 
#    0.000    1.000    0.000    3.000    0.000    0.000 
#    0.000    0.000    0.000    0.000    0.000    0.000 
#
# Total GULP energy -111438.864153 kJ/mol
# GULP energy per Si atom -5571.943208 kJ/mol
# Density = 1.995862 g / cm^3
# Si number density = 20.004150 Si / 1000 Ang^3
#
#
#
# Elastic Constant Matrix: (Units=GPa)
#
#
# Indices 1 2 3 4 5 6 
#
# 1 65.2287 25.9731 42.9360 0.0049 -11.9686 0.0023
# 2 25.9731 85.3554 13.3442 -0.0351 -10.8844 0.0048
# 3 42.9360 13.3442 158.4418 -0.0397 -20.2681 0.0105
# 4 0.0049 -0.0351 -0.0397 22.9125 0.0106 -2.3991
# 5 -11.9686 -10.8844 -20.2681 0.0106 33.5008 0.0032
# 6 0.0023 0.0048 0.0105 -2.3991 0.0032 23.1288
#
#
#
# Elastic Compliance Matrix: (Units=1/GPa)
#
#
# Indices 1 2 3 4 5 6 
#
# 1 0.021225 -0.005321 -0.004937 -0.000023 0.002867 -0.000002
# 2 -0.005321 0.013603 0.000670 0.000022 0.002924 -0.000001
# 3 -0.004937 0.000670 0.008015 0.000014 0.003303 -0.000002
# 4 -0.000023 0.000022 0.000014 0.044124 -0.000007 0.004577
# 5 0.002867 0.002924 0.003303 -0.000007 0.033823 -0.000008
# 6 -0.000002 -0.000001 -0.000002 0.004577 -0.000008 0.043711
#
#
# Mechanical properties :
#
#
# Convention : Reuss Voigt Hill
#
# Bulk Modulus (GPa) = 42.25070 52.61473 47.43272
# Shear Modulus (GPa) = 26.10064 31.02659 28.56362
#
# Velocity S-wave (km/s) = 3.61607 3.94256 3.78284
# Velocity P-wave (km/s) = 6.21300 6.86178 6.54543
#
# Compressibility (1/GPa) = 0.02366825
#
# Stress axis : x y z
#
# Youngs Moduli (GPa) = 47.11362 73.51307 124.75950
#
# Poissons Ratio (x) = 0.39118 0.61592
# Poissons Ratio (y) = 0.25070 -0.08364
# Poissons Ratio (z) = 0.23259 -0.04928
#
# Static dielectric constant tensor:
#      x y z
#    x 1.671890 0.000070 -0.027090 
#    y 0.000070 1.704090 -0.000070 
#    z -0.027090 -0.000070 1.759340 
# 
# From -- ./inp_files/382126.got.cif
#   From: 2010.05.17/outbox.cif.g08.bks.cpg/sg12_192_cif.got.tgz:382126.got - 2010.06.03 13:09:07.
