data_PCOD9213737
_publ_section_title
;
Structure prediction by ZEFSAII (Michael W. Deem and Ramdas Pophale) SiO2 
 PCOD9213737
Probable space group: C 2/M
;
_chemical_formula_sum "Si O2"
_cell_formula_units_Z 36
_cell_length_a 7.673852
_cell_length_b 17.847198
_cell_length_c 12.023967
_cell_angle_alpha 90.000000
_cell_angle_beta 107.095408
_cell_angle_gamma 90.000000
_cell_volume 1574.003868
_symmetry_space_group_name_H-M "C 2/M"
_symmetry_group_IT_number 12
_symmetry_cell_setting 'monoclinic'
loop_
_space_group_symop_operation_xyz
x,y,z
-x,y,-z
-x,-y,-z
x,-y,z
1/2+x,1/2+y,z
1/2-x,1/2+y,-z
1/2-x,1/2-y,-z
1/2+x,1/2-y,z
loop_
_atom_site_type_symbol
_atom_site_label
_atom_site_fract_x
_atom_site_fract_y
_atom_site_fract_z
Si Si1 0.500000 0.134252 0.500000
Si Si2 0.623724 0.588195 0.793619
Si Si3 0.097822 0.804102 0.397900
Si Si4 0.481886 0.858376 0.728579
Si Si5 0.303338 0.163421 0.022461
O O1 0.687649 0.182186 0.542993
O O2 0.503663 0.094719 0.382160
O O3 0.600560 0.500000 0.785984
O O4 0.468681 0.631317 0.697786
O O5 0.807573 0.613069 0.762684
O O6 0.657552 0.616229 0.925686
O O7 0.051457 0.727353 0.321408
O O8 0.000000 0.814677 0.500000
O O9 0.655249 0.857853 0.842438
O O10 0.500000 0.153800 0.000000
O O11 0.250000 0.250000 0.000000
#
# Coordination Sequence:
#
# PCOD9213737 Si02
#       5
#     4   8   8   8   8
#     4  12  24  38  69 106 139 184 246 298 338 414
#     4  11  25  46  70 102 146 191 231 296 373 422
#     4  12  23  43  72 106 147 191 241 293 351 427
#     4  11  22  40  69 104 140 184 240 294 347 424
#     4  10  22  38  67 101 134 182 239 287 343 427
#
# _framework density 22.871611000000001
#
# number of rings (size 3 to 8) (size 9 to 14) (size 15 to 20)
#    0.000    0.889    5.556    2.000    3.111    4.444 
#    0.000    2.222    0.000    4.667    0.000    0.000 
#    0.000    0.000    0.000    0.000    0.000    0.000 
#
# Total GULP energy -100581.029439 kJ/mol
# GULP energy per Si atom -5587.834969 kJ/mol
# Density = 2.281955 g / cm^3
# Si number density = 22.871611 Si / 1000 Ang^3
#
#
#
# Elastic Constant Matrix: (Units=GPa)
#
#
# Indices 1 2 3 4 5 6 
#
# 1 82.7448 8.1106 36.6157 0.0000 14.8183 0.0000
# 2 8.1106 145.1721 63.4635 0.0000 17.0662 0.0000
# 3 36.6157 63.4635 230.9670 0.0000 25.2772 0.0000
# 4 0.0000 0.0000 0.0000 11.1500 0.0000 9.3363
# 5 14.8183 17.0662 25.2772 0.0000 38.2132 0.0000
# 6 0.0000 0.0000 0.0000 9.3363 0.0000 0.9177
#
#
#
# Elastic Compliance Matrix: (Units=1/GPa)
#
#
# Indices 1 2 3 4 5 6 
#
# 1 0.013617 0.000549 -0.001838 0.000000 -0.004310 0.000000
# 2 0.000549 0.008032 -0.002025 0.000000 -0.002461 0.000000
# 3 -0.001838 -0.002025 0.005391 0.000000 -0.001949 0.000000
# 4 0.000000 0.000000 0.000000 -0.011928 0.000000 0.121354
# 5 -0.004310 -0.002461 -0.001949 0.000000 0.030228 0.000000
# 6 0.000000 0.000000 0.000000 0.121354 0.000000 -0.144927
#
#
# Mechanical properties :
#
#
# Convention : Reuss Voigt Hill
#
# Bulk Modulus (GPa) = 48.98910 75.02930 62.00920
# Shear Modulus (GPa) = -58.03383 33.43577 -12.29903
#
# Velocity S-wave (km/s) = -5.04270 3.82761 -2.32144
# Velocity P-wave (km/s) = 3.52696 7.23947 4.47049
#
# Compressibility (1/GPa) = 0.02041270
#
# Stress axis : x y z
#
# Youngs Moduli (GPa) = 73.43947 124.49987 185.50687
#
# Poissons Ratio (x) = -0.06840 0.34096
# Poissons Ratio (y) = -0.04035 0.37561
# Poissons Ratio (z) = 0.13498 0.25209
#
# Static dielectric constant tensor:
#      x y z
#    x 1.869290 0.000000 -0.049410 
#    y 0.000000 1.830750 0.000000 
#    z -0.049410 0.000000 1.956090 
# 
# From -- ./inp_files/119203.got.cif
#   From: 2010.05.17/outbox.cif.g08.bks.cpg/sg12_60_cif.got.tgz:119203.got - 2010.06.03 13:09:07.
