data_PCOD9213701
_publ_section_title
;
Structure prediction by ZEFSAII (Michael W. Deem and Ramdas Pophale) SiO2 
 PCOD9213701
Probable space group: C 2/M
;
_chemical_formula_sum "Si O2"
_cell_formula_units_Z 40
_cell_length_a 24.665075
_cell_length_b 16.519935
_cell_length_c 21.631706
_cell_angle_alpha 90.000000
_cell_angle_beta 167.632232
_cell_angle_gamma 90.000000
_cell_volume 1887.871136
_symmetry_space_group_name_H-M "C 2/M"
_symmetry_group_IT_number 12
_symmetry_cell_setting 'monoclinic'
loop_
_space_group_symop_operation_xyz
x,y,z
-x,y,-z
-x,-y,-z
x,-y,z
1/2+x,1/2+y,z
1/2-x,1/2+y,-z
1/2-x,1/2-y,-z
1/2+x,1/2-y,z
loop_
_atom_site_type_symbol
_atom_site_label
_atom_site_fract_x
_atom_site_fract_y
_atom_site_fract_z
Si Si1 0.710679 0.000000 0.395832
Si Si2 0.127945 0.751583 0.199766
Si Si3 0.086080 0.093065 0.524241
Si Si4 0.942937 0.348301 0.095143
Si Si5 0.040253 0.680684 0.751952
Si Si6 0.818454 0.500000 0.078104
O O1 0.615564 0.081746 0.258250
O O2 0.532100 0.000000 0.259724
O O3 0.011432 0.000000 0.732741
O O4 0.239621 0.670235 0.292863
O O5 0.931584 0.724699 0.034579
O O6 0.352262 0.791717 0.488913
O O7 0.000000 0.797930 0.000000
O O8 0.000000 0.095016 0.500000
O O9 0.170321 0.000000 0.607964
O O10 0.832021 0.112485 0.201839
O O11 0.072627 0.326624 0.304307
O O12 0.131979 0.589580 0.838123
O O13 0.250000 0.750000 0.000000
#
# Coordination Sequence:
#
# PCOD9213701 Si02
#       6
#     4   8   8   8   8   4
#     4  10  22  38  64  99 133 166 216 277 339 406
#     4  12  25  39  61  92 129 178 227 281 340 407
#     4  11  23  39  57  94 139 177 217 267 343 423
#     4  11  22  37  64  93 127 174 222 277 335 408
#     4  11  23  43  68  96 130 173 229 284 346 403
#     4  10  24  44  65  99 134 172 220 287 345 398
#
# _framework density 21.187887
#
# number of rings (size 3 to 8) (size 9 to 14) (size 15 to 20)
#    0.000    1.000    5.000    1.800    4.200    2.000 
#    0.000    0.500    0.000    0.000    0.000    7.700 
#    0.000    0.000    0.000    0.000    0.000    0.000 
#
# Total GULP energy -111441.197958 kJ/mol
# GULP energy per Si atom -5572.059898 kJ/mol
# Density = 2.113966 g / cm^3
# Si number density = 21.187887 Si / 1000 Ang^3
#
#
#
# Elastic Constant Matrix: (Units=GPa)
#
#
# Indices 1 2 3 4 5 6 
#
# 1 81.0403 19.7453 36.1607 0.1581 -28.6866 0.1173
# 2 19.7453 101.2007 37.9009 0.0688 -13.2832 0.0737
# 3 36.1607 37.9009 119.5266 -0.0024 -25.5855 -0.0136
# 4 0.1581 0.0688 -0.0024 28.8886 -0.0056 -6.6103
# 5 -28.6866 -13.2832 -25.5855 -0.0056 44.4929 0.0317
# 6 0.1173 0.0737 -0.0136 -6.6103 0.0317 20.0299
#
#
#
# Elastic Compliance Matrix: (Units=1/GPa)
#
#
# Indices 1 2 3 4 5 6 
#
# 1 0.017091 -0.001063 -0.002900 -0.000125 0.009035 -0.000154
# 2 -0.001063 0.011366 -0.003082 -0.000033 0.000936 -0.000050
# 3 -0.002900 -0.003082 0.010975 0.000034 0.003521 0.000042
# 4 -0.000125 -0.000033 0.000034 0.037444 -0.000075 0.012358
# 5 0.009035 0.000936 0.003521 -0.000075 0.030605 -0.000127
# 6 -0.000154 -0.000050 0.000042 0.012358 -0.000127 0.054005
#
#
# Mechanical properties :
#
#
# Convention : Reuss Voigt Hill
#
# Bulk Modulus (GPa) = 39.45966 54.37571 46.91768
# Shear Modulus (GPa) = 27.17060 32.54632 29.85846
#
# Velocity S-wave (km/s) = 3.58490 3.92354 3.75803
# Velocity P-wave (km/s) = 5.98326 6.80036 6.40485
#
# Compressibility (1/GPa) = 0.02534234
#
# Stress axis : x y z
#
# Youngs Moduli (GPa) = 58.51089 87.98244 91.11872
#
# Poissons Ratio (x) = 0.09349 0.26422
# Poissons Ratio (y) = 0.06217 0.28085
# Poissons Ratio (z) = 0.16966 0.27119
#
# Static dielectric constant tensor:
#      x y z
#    x 1.900200 -0.000050 0.012530 
#    y -0.000050 1.825410 -0.000090 
#    z 0.012530 -0.000090 1.855080 
# 
# From -- ./inp_files/20278.got.cif
#   From: 2010.05.17/outbox.cif.g08.bks.cpg/sg12_11_cif.got.tgz:20278.got - 2010.06.03 13:09:07.
