data_PCOD9213682
_publ_section_title
;
Structure prediction by ZEFSAII (Michael W. Deem and Ramdas Pophale) SiO2 
 PCOD9213682
Probable space group: C 2/M
;
_chemical_formula_sum "Si O2"
_cell_formula_units_Z 48
_cell_length_a 14.146627
_cell_length_b 18.190149
_cell_length_c 17.261083
_cell_angle_alpha 90.000000
_cell_angle_beta 31.791356
_cell_angle_gamma 90.000000
_cell_volume 2340.053001
_symmetry_space_group_name_H-M "C 2/M"
_symmetry_group_IT_number 12
_symmetry_cell_setting 'monoclinic'
loop_
_space_group_symop_operation_xyz
x,y,z
-x,y,-z
-x,-y,-z
x,-y,z
1/2+x,1/2+y,z
1/2-x,1/2+y,-z
1/2-x,1/2-y,-z
1/2+x,1/2-y,z
loop_
_atom_site_type_symbol
_atom_site_label
_atom_site_fract_x
_atom_site_fract_y
_atom_site_fract_z
Si Si1 0.604228 0.778171 0.540537
Si Si2 0.598847 0.082572 0.346286
Si Si3 0.389000 0.661264 0.227712
Si Si4 0.988807 0.310211 0.915137
Si Si5 0.875353 0.136241 0.655629
Si Si6 0.339568 0.583745 0.852312
O O1 0.750000 0.750000 0.500000
O O2 0.502594 0.854108 0.631358
O O3 0.720008 0.797714 0.384455
O O4 0.462935 0.713902 0.622107
O O5 0.500000 0.078851 0.500000
O O6 0.799664 0.111637 0.223482
O O7 0.594335 0.000000 0.317414
O O8 0.516631 0.727531 0.112759
O O9 0.484954 0.611229 0.224627
O O10 0.175979 0.349150 0.762587
O O11 0.820683 0.361139 0.013545
O O12 0.000000 0.304185 0.000000
O O13 0.865884 0.090111 0.741244
O O14 0.000000 0.106792 0.500000
O O15 0.297689 0.500000 0.901704
#
# Coordination Sequence:
#
# PCOD9213682 Si02
#       6
#     8   8   8   8   8   8
#     4  11  19  34  61  93 123 155 202 255 303 371
#     4   9  18  32  56  89 122 151 190 253 316 358
#     4  11  19  37  65  88 119 161 206 252 303 375
#     4  10  22  38  64  89 118 163 207 254 305 370
#     4  11  20  39  64  90 118 161 208 258 304 362
#     4  11  25  40  59  92 126 164 207 253 311 371
#
# _framework density 20.512354999999999
#
# number of rings (size 3 to 8) (size 9 to 14) (size 15 to 20)
#    0.000    1.500    5.000    1.500    0.000    4.000 
#    0.000    0.000    0.000    5.000    0.000    0.000 
#    0.000    0.000    0.000    0.000    0.000    0.000 
#
# Total GULP energy -133972.836025 kJ/mol
# GULP energy per Si atom -5582.201501 kJ/mol
# Density = 2.046567 g / cm^3
# Si number density = 20.512355 Si / 1000 Ang^3
#
#
#
# Elastic Constant Matrix: (Units=GPa)
#
#
# Indices 1 2 3 4 5 6 
#
# 1 58.9871 29.1191 9.4520 -0.0001 -27.0187 0.0002
# 2 29.1191 134.3208 21.8322 0.0034 -16.9332 -0.0004
# 3 9.4520 21.8322 69.4318 0.0027 -10.1983 0.0012
# 4 -0.0001 0.0034 0.0027 19.2977 -0.0022 0.4087
# 5 -27.0187 -16.9332 -10.1983 -0.0022 21.3852 -0.0003
# 6 0.0002 -0.0004 0.0012 0.4087 -0.0003 22.9849
#
#
#
# Elastic Compliance Matrix: (Units=1/GPa)
#
#
# Indices 1 2 3 4 5 6 
#
# 1 0.041559 -0.002979 0.002844 0.000006 0.051505 0.000000
# 2 -0.002979 0.008689 -0.002010 -0.000001 0.002158 0.000000
# 3 0.002844 -0.002010 0.016067 -0.000001 0.009664 -0.000001
# 4 0.000006 -0.000001 -0.000001 0.051839 0.000012 -0.000922
# 5 0.051505 0.002158 0.009664 0.000012 0.118151 0.000000
# 6 0.000000 0.000000 -0.000001 -0.000922 0.000000 0.043523
#
#
# Mechanical properties :
#
#
# Convention : Reuss Voigt Hill
#
# Bulk Modulus (GPa) = 16.12216 42.61626 29.36921
# Shear Modulus (GPa) = 16.40456 26.22266 21.31361
#
# Velocity S-wave (km/s) = 2.83104 3.57933 3.22695
# Velocity P-wave (km/s) = 4.30850 6.15655 5.31349
#
# Compressibility (1/GPa) = 0.06202644
#
# Stress axis : x y z
#
# Youngs Moduli (GPa) = 24.06218 115.08264 62.23991
#
# Poissons Ratio (x) = 0.34281 -0.17702
# Poissons Ratio (y) = 0.07168 0.12509
# Poissons Ratio (z) = -0.06844 0.23129
#
# Static dielectric constant tensor:
#      x y z
#    x 1.753330 0.000000 0.007690 
#    y 0.000000 1.735300 0.000000 
#    z 0.007690 0.000000 1.774370 
# 
# From -- ./inp_files/311308.got.cif
#   From: 2010.05.17/outbox.cif.g08.bks.cpg/sg12_156_cif.got.tgz:311308.got - 2010.06.03 13:09:07.
