data_PCOD9213022
_publ_section_title
;
Structure prediction by ZEFSAII (Michael W. Deem and Ramdas Pophale) SiO2 
 PCOD9213022
Probable space group: C 2/M
;
_chemical_formula_sum "Si O2"
_cell_formula_units_Z 56
_cell_length_a 9.668368
_cell_length_b 21.515618
_cell_length_c 15.541085
_cell_angle_alpha 90.000000
_cell_angle_beta 125.426549
_cell_angle_gamma 90.000000
_cell_volume 2634.334704
_symmetry_space_group_name_H-M "C 2/M"
_symmetry_group_IT_number 12
_symmetry_cell_setting 'monoclinic'
loop_
_space_group_symop_operation_xyz
x,y,z
-x,y,-z
-x,-y,-z
x,-y,z
1/2+x,1/2+y,z
1/2-x,1/2+y,-z
1/2-x,1/2-y,-z
1/2+x,1/2-y,z
loop_
_atom_site_type_symbol
_atom_site_label
_atom_site_fract_x
_atom_site_fract_y
_atom_site_fract_z
Si Si1 0.843027 0.173658 0.734308
Si Si2 0.340749 0.930261 0.671628
Si Si3 0.998392 0.394431 0.093912
Si Si4 0.840590 0.202866 0.380365
Si Si5 0.297787 0.673648 0.916320
Si Si6 0.304507 0.304209 0.171044
Si Si7 0.620528 0.933688 0.624795
O O1 0.796639 0.240319 0.674432
O O2 0.766199 0.166018 0.802365
O O3 0.752236 0.119689 0.650719
O O4 0.041503 0.161067 0.818206
O O5 0.414955 0.929424 0.795307
O O6 0.231198 0.866356 0.623957
O O7 0.495587 0.923943 0.660499
O O8 0.264064 0.000000 0.628863
O O9 0.818014 0.369881 0.065162
O O10 0.125514 0.336469 0.122885
O O11 0.000000 0.425441 0.000000
O O12 0.885413 0.202825 0.295470
O O13 0.000000 0.216867 0.500000
O O14 0.231036 0.744056 0.898577
O O15 0.500000 0.668591 0.000000
O O16 0.500000 0.937435 0.500000
O O17 0.709218 0.000000 0.670682
#
# Coordination Sequence:
#
# PCOD9213022 Si02
#       7
#     8   8   8   8   8   8   8
#     4  11  22  38  62  93 132 166 208 268 313 374
#     4  10  22  43  65  89 127 169 216 263 315 386
#     4  11  22  39  61  91 125 163 215 262 317 375
#     4  10  23  37  59  94 129 165 215 262 325 377
#     4  11  21  37  61  90 126 167 211 256 315 380
#     4  10  22  36  56  89 129 167 206 262 315 376
#     4  10  22  41  67  94 124 172 218 260 316 379
#
# _framework density 21.257739999999998
#
# number of rings (size 3 to 8) (size 9 to 14) (size 15 to 20)
#    0.000    1.571    1.429    4.286    4.000    2.857 
#    0.000    2.857    0.000    3.429    0.000    0.000 
#    0.000    0.000    0.000    0.000    0.000    0.000 
#
# Total GULP energy -155926.977548 kJ/mol
# GULP energy per Si atom -5568.820627 kJ/mol
# Density = 2.120936 g / cm^3
# Si number density = 21.257740 Si / 1000 Ang^3
#
#
#
# Elastic Constant Matrix: (Units=GPa)
#
#
# Indices 1 2 3 4 5 6 
#
# 1 100.9639 38.6589 25.0727 0.0000 9.0532 0.0000
# 2 38.6589 98.6614 9.9478 0.0000 17.6603 0.0000
# 3 25.0727 9.9478 92.7464 0.0000 5.0296 0.0000
# 4 0.0000 0.0000 0.0000 13.9103 0.0000 7.3244
# 5 9.0532 17.6603 5.0296 0.0000 29.1646 0.0000
# 6 0.0000 0.0000 0.0000 7.3244 0.0000 -23.8062
#
#
#
# Elastic Compliance Matrix: (Units=1/GPa)
#
#
# Indices 1 2 3 4 5 6 
#
# 1 0.012368 -0.004442 -0.002831 0.000000 -0.000661 0.000000
# 2 -0.004442 0.013031 0.000158 0.000000 -0.006539 0.000000
# 3 -0.002831 0.000158 0.011596 0.000000 -0.001217 0.000000
# 4 0.000000 0.000000 0.000000 0.061867 0.000000 0.019034
# 5 -0.000661 -0.006539 -0.001217 0.000000 0.038663 0.000000
# 6 0.000000 0.000000 0.000000 0.019034 0.000000 -0.036150
#
#
# Mechanical properties :
#
#
# Convention : Reuss Voigt Hill
#
# Bulk Modulus (GPa) = 43.92916 48.85893 46.39404
# Shear Modulus (GPa) = 40.58624 18.43323 29.50973
#
# Velocity S-wave (km/s) = 4.37423 2.94790 3.72988
# Velocity P-wave (km/s) = 6.79866 5.88394 6.35777
#
# Compressibility (1/GPa) = 0.02276392
#
# Stress axis : x y z
#
# Youngs Moduli (GPa) = 80.85493 76.74065 86.23292
#
# Poissons Ratio (x) = 0.34091 0.24414
# Poissons Ratio (y) = 0.35919 -0.01361
# Poissons Ratio (z) = 0.22891 -0.01211
#
# Static dielectric constant tensor:
#      x y z
#    x 1.784970 0.000000 -0.027570 
#    y 0.000000 1.858210 0.000000 
#    z -0.027570 0.000000 1.816140 
# 
# From -- ./inp_files/198978.got.cif
#   From: 2010.05.17/outbox.cif.g08.bks.cpg/sg12_100_cif.got.tgz:198978.got - 2010.06.03 13:09:07.
