data_PCOD9213688
_publ_section_title
;
Structure prediction by ZEFSAII (Michael W. Deem and Ramdas Pophale) SiO2 
 PCOD9213688
Probable space group: C 2/M
;
_chemical_formula_sum "Si O2"
_cell_formula_units_Z 52
_cell_length_a 13.600982
_cell_length_b 17.792001
_cell_length_c 14.319389
_cell_angle_alpha 90.000000
_cell_angle_beta 41.477804
_cell_angle_gamma 90.000000
_cell_volume 2295.059140
_symmetry_space_group_name_H-M "C 2/M"
_symmetry_group_IT_number 12
_symmetry_cell_setting 'monoclinic'
loop_
_space_group_symop_operation_xyz
x,y,z
-x,y,-z
-x,-y,-z
x,-y,z
1/2+x,1/2+y,z
1/2-x,1/2+y,-z
1/2-x,1/2-y,-z
1/2+x,1/2-y,z
loop_
_atom_site_type_symbol
_atom_site_label
_atom_site_fract_x
_atom_site_fract_y
_atom_site_fract_z
Si Si1 0.354977 0.162085 0.388610
Si Si2 0.820468 0.500000 0.009910
Si Si3 0.139068 0.500000 0.691729
Si Si4 0.485456 0.657642 0.400026
Si Si5 0.792783 0.839876 0.989004
Si Si6 0.134330 0.000000 0.310188
Si Si7 0.865723 0.295434 0.723544
Si Si8 0.570667 0.262472 0.844702
O O1 0.365194 0.074111 0.365642
O O2 0.178207 0.175916 0.521206
O O3 0.461671 0.181787 0.399824
O O4 0.418294 0.200268 0.246388
O O5 0.750003 0.418549 0.029506
O O6 0.783666 0.500000 0.144272
O O7 0.990816 0.500000 0.859486
O O8 0.293990 0.500000 0.638480
O O9 0.500000 0.677242 0.500000
O O10 0.537544 0.572641 0.357015
O O11 0.611469 0.707949 0.261971
O O12 0.967294 0.830184 0.883758
O O13 0.750000 0.750000 0.000000
O O14 0.706399 0.848174 0.148400
O O15 0.739179 0.289364 0.737123
O O16 0.500000 0.239962 0.000000
#
# Coordination Sequence:
#
# PCOD9213688 Si02
#       8
#     8   4   4   8   8   4   8   8
#     4  12  23  40  66  91 136 171 222 272 329 400
#     4  12  25  41  68  99 132 178 216 274 351 396
#     4  12  22  40  61  95 132 168 207 273 340 402
#     4  12  23  41  63  97 131 178 218 268 331 404
#     4  11  21  41  65  97 132 166 220 280 331 400
#     4  12  25  40  65  96 139 168 211 272 350 408
#     4  11  22  40  63  92 126 175 220 269 322 388
#     4  10  22  38  64  94 127 168 215 278 330 384
#
# _framework density 22.657368000000002
#
# number of rings (size 3 to 8) (size 9 to 14) (size 15 to 20)
#    0.000    0.615    6.154    2.308    0.000    3.692 
#    0.000    4.231    0.000    0.000    0.000    3.231 
#    0.000    0.000    0.000    0.000    0.000    0.000 
#
# Total GULP energy -144819.450407 kJ/mol
# GULP energy per Si atom -5569.978862 kJ/mol
# Density = 2.260580 g / cm^3
# Si number density = 22.657368 Si / 1000 Ang^3
#
#
#
# Elastic Constant Matrix: (Units=GPa)
#
#
# Indices 1 2 3 4 5 6 
#
# 1 106.2002 28.2375 23.2542 0.0002 -43.8530 0.0000
# 2 28.2375 105.0175 16.7516 0.0003 -9.0379 -0.0001
# 3 23.2542 16.7516 96.0252 0.0007 -22.0467 -0.0002
# 4 0.0002 0.0003 0.0007 40.6847 -0.0004 -3.3295
# 5 -43.8530 -9.0379 -22.0467 -0.0004 55.0647 0.0001
# 6 0.0000 -0.0001 -0.0002 -3.3295 0.0001 17.2956
#
#
#
# Elastic Compliance Matrix: (Units=1/GPa)
#
#
# Indices 1 2 3 4 5 6 
#
# 1 0.014949 -0.002971 -0.000529 0.000000 0.011206 0.000000
# 2 -0.002971 0.010437 -0.001378 0.000000 -0.001205 0.000000
# 3 -0.000529 -0.001378 0.011710 0.000000 0.004041 0.000000
# 4 0.000000 0.000000 0.000000 0.024973 0.000000 0.004807
# 5 0.011206 -0.001205 0.004041 0.000000 0.028505 0.000000
# 6 0.000000 0.000000 0.000000 0.004807 0.000000 0.058744
#
#
# Mechanical properties :
#
#
# Convention : Reuss Voigt Hill
#
# Bulk Modulus (GPa) = 36.57526 49.30328 42.93927
# Shear Modulus (GPa) = 29.72878 38.54231 34.13554
#
# Velocity S-wave (km/s) = 3.62622 4.12891 3.88570
# Velocity P-wave (km/s) = 5.80607 6.67369 6.25494
#
# Compressibility (1/GPa) = 0.02734089
#
# Stress axis : x y z
#
# Youngs Moduli (GPa) = 66.89324 95.81166 85.39552
#
# Poissons Ratio (x) = 0.28464 0.04519
# Poissons Ratio (y) = 0.19873 0.11766
# Poissons Ratio (z) = 0.03540 0.13202
#
# Static dielectric constant tensor:
#      x y z
#    x 1.903740 0.000000 0.041310 
#    y 0.000000 1.851910 0.000000 
#    z 0.041310 0.000000 1.961560 
# 
# From -- ./inp_files/270622.got.cif
#   From: 2010.05.17/outbox.cif.g08.bks.cpg/sg12_136_cif.got.tgz:270622.got - 2010.06.03 13:09:07.
