data_PCOD9213277
_publ_section_title
;
Structure prediction by ZEFSAII (Michael W. Deem and Ramdas Pophale) SiO2 
 PCOD9213277
Probable space group: C 2/M
;
_chemical_formula_sum "Si O2"
_cell_formula_units_Z 52
_cell_length_a 7.538893
_cell_length_b 32.005300
_cell_length_c 14.038299
_cell_angle_alpha 90.000000
_cell_angle_beta 36.731855
_cell_angle_gamma 90.000000
_cell_volume 2025.800083
_symmetry_space_group_name_H-M "C 2/M"
_symmetry_group_IT_number 12
_symmetry_cell_setting 'monoclinic'
loop_
_space_group_symop_operation_xyz
x,y,z
-x,y,-z
-x,-y,-z
x,-y,z
1/2+x,1/2+y,z
1/2-x,1/2+y,-z
1/2-x,1/2-y,-z
1/2+x,1/2-y,z
loop_
_atom_site_type_symbol
_atom_site_label
_atom_site_fract_x
_atom_site_fract_y
_atom_site_fract_z
Si Si1 0.135273 0.592670 0.103437
Si Si2 0.500000 0.860107 0.000000
Si Si3 0.446007 0.420914 0.415217
Si Si4 0.305632 0.000000 0.952480
Si Si5 0.508231 0.500000 0.271451
Si Si6 0.164747 0.701899 0.761547
Si Si7 0.813729 0.785914 0.327310
Si Si8 0.961607 0.645403 0.681573
O O1 0.201710 0.544556 0.094173
O O2 0.771778 0.597052 0.250228
O O3 0.211998 0.618173 0.164985
O O4 0.223464 0.607616 0.959329
O O5 0.485546 0.826687 0.093352
O O6 0.500000 0.437469 0.500000
O O7 0.372126 0.458504 0.376301
O O8 0.196472 0.385217 0.529503
O O9 0.643085 0.000000 0.848169
O O10 0.043897 0.000000 0.143245
O O11 0.050487 0.749057 0.795013
O O12 0.488987 0.705334 0.666628
O O13 0.131061 0.678863 0.675661
O O14 0.500000 0.769650 0.500000
O O15 0.743310 0.827911 0.299975
#
# Coordination Sequence:
#
# PCOD9213277 Si02
#       8
#     8   4   8   4   4   8   8   8
#     4   9  18  33  57  89 127 167 203 263 309 372
#     4  10  22  37  62  92 130 166 210 263 312 374
#     4   9  17  28  55  83 131 159 208 260 313 367
#     4   9  16  30  52  90 128 164 217 243 313 383
#     4   9  15  26  48  92 126 167 207 257 306 376
#     4  11  25  44  64  91 127 167 214 263 323 379
#     4  12  26  41  67  90 122 170 213 263 324 383
#     4  10  23  39  61  96 125 165 213 267 318 368
#
# _framework density 25.668868
#
# number of rings (size 3 to 8) (size 9 to 14) (size 15 to 20)
#    0.000    2.000    1.538    2.538    8.615    2.462 
#    0.000    0.000    0.000    0.000    0.000   16.154 
#    0.000    0.308    0.000    0.000    0.000    0.000 
#
# Total GULP energy -145325.944871 kJ/mol
# GULP energy per Si atom -5589.459418 kJ/mol
# Density = 2.561044 g / cm^3
# Si number density = 25.668868 Si / 1000 Ang^3
#
#
#
# Elastic Constant Matrix: (Units=GPa)
#
#
# Indices 1 2 3 4 5 6 
#
# 1 100.5722 37.7580 24.0542 0.0000 13.4079 0.0000
# 2 37.7580 190.2007 51.8124 0.0000 18.5438 0.0000
# 3 24.0542 51.8124 72.3860 0.0000 19.9746 0.0000
# 4 0.0000 0.0000 0.0000 66.9716 0.0000 -31.1412
# 5 13.4079 18.5438 19.9746 0.0000 34.2819 0.0000
# 6 0.0000 0.0000 0.0000 -31.1412 0.0000 84.7374
#
#
#
# Elastic Compliance Matrix: (Units=1/GPa)
#
#
# Indices 1 2 3 4 5 6 
#
# 1 0.011302 -0.001448 -0.002044 0.000000 -0.002446 0.000000
# 2 -0.001448 0.006744 -0.004165 0.000000 -0.000655 0.000000
# 3 -0.002044 -0.004165 0.019820 0.000000 -0.008496 0.000000
# 4 0.000000 0.000000 0.000000 0.018009 0.000000 0.006618
# 5 -0.002446 -0.000655 -0.008496 0.000000 0.035431 0.000000
# 6 0.000000 0.000000 0.000000 0.006618 0.000000 0.014233
#
#
# Mechanical properties :
#
#
# Convention : Reuss Voigt Hill
#
# Bulk Modulus (GPa) = 44.34543 65.60090 54.97317
# Shear Modulus (GPa) = 38.95005 53.83380 46.39192
#
# Velocity S-wave (km/s) = 3.89961 4.58453 4.25587
# Velocity P-wave (km/s) = 6.13102 7.32366 6.75372
#
# Compressibility (1/GPa) = 0.02255024
#
# Stress axis : x y z
#
# Youngs Moduli (GPa) = 88.48151 148.29084 50.45512
#
# Poissons Ratio (x) = 0.21477 0.10313
# Poissons Ratio (y) = 0.12815 0.21014
# Poissons Ratio (z) = 0.18086 0.61763
#
# Static dielectric constant tensor:
#      x y z
#    x 2.031600 0.000000 0.027110 
#    y 0.000000 2.030290 0.000000 
#    z 0.027110 0.000000 2.220370 
# 
# From -- ./inp_files/201229.got.cif
#   From: 2010.05.17/outbox.cif.g08.bks.cpg/sg12_101_cif.got.tgz:201229.got - 2010.06.03 13:09:07.
