data_PCOD9213377
_publ_section_title
;
Structure prediction by ZEFSAII (Michael W. Deem and Ramdas Pophale) SiO2 
 PCOD9213377
Probable space group: C 2/M
;
_chemical_formula_sum "Si O2"
_cell_formula_units_Z 56
_cell_length_a 21.030312
_cell_length_b 21.073612
_cell_length_c 17.906588
_cell_angle_alpha 90.000000
_cell_angle_beta 161.728365
_cell_angle_gamma 90.000000
_cell_volume 2488.090089
_symmetry_space_group_name_H-M "C 2/M"
_symmetry_group_IT_number 12
_symmetry_cell_setting 'monoclinic'
loop_
_space_group_symop_operation_xyz
x,y,z
-x,y,-z
-x,-y,-z
x,-y,z
1/2+x,1/2+y,z
1/2-x,1/2+y,-z
1/2-x,1/2-y,-z
1/2+x,1/2-y,z
loop_
_atom_site_type_symbol
_atom_site_label
_atom_site_fract_x
_atom_site_fract_y
_atom_site_fract_z
Si Si1 0.408538 0.427319 0.972997
Si Si2 0.788733 0.288372 0.808809
Si Si3 0.758535 0.430036 0.743334
Si Si4 0.793436 0.568646 0.510809
Si Si5 0.173566 0.387532 0.848996
Si Si6 0.936259 0.879556 0.623266
Si Si7 0.432864 0.749689 0.304073
O O1 0.347092 0.500000 0.885972
O O2 0.231207 0.397956 0.826161
O O3 0.500000 0.396084 0.000000
O O4 0.602288 0.428966 0.242975
O O5 0.727928 0.362968 0.751121
O O6 0.766357 0.261009 0.866611
O O7 0.624955 0.251607 0.574974
O O8 0.000000 0.285599 0.000000
O O9 0.710561 0.500000 0.721655
O O10 0.635833 0.418032 0.529691
O O11 0.000000 0.431094 0.000000
O O12 0.796566 0.500000 0.553199
O O13 0.752408 0.619705 0.529614
O O14 0.987537 0.574721 0.675625
O O15 0.104357 0.314682 0.779576
O O16 0.370098 0.406487 0.116711
O O17 0.009811 0.809840 0.682769
#
# Coordination Sequence:
#
# PCOD9213377 Si02
#       7
#     8   8   8   8   8   8   8
#     4   9  20  39  60  84 116 151 193 247 301 355
#     4   9  20  38  60  86 124 160 198 257 305 349
#     4   9  18  36  63  91 117 152 198 246 302 362
#     4  10  22  39  59  86 117 152 197 247 301 359
#     4  11  23  37  60  87 118 160 202 245 298 361
#     4  10  22  40  59  85 124 159 195 247 303 360
#     4  10  22  38  56  87 120 158 207 246 293 362
#
# _framework density 22.507223
#
# number of rings (size 3 to 8) (size 9 to 14) (size 15 to 20)
#    0.000    2.286    0.000    1.286    0.000   11.429 
#    0.000    8.571    0.000    1.714    0.000    0.000 
#    0.000    0.000    0.000    0.000    0.000    0.000 
#
# Total GULP energy -156141.719299 kJ/mol
# GULP energy per Si atom -5576.489975 kJ/mol
# Density = 2.245600 g / cm^3
# Si number density = 22.507223 Si / 1000 Ang^3
#
#
#
# Elastic Constant Matrix: (Units=GPa)
#
#
# Indices 1 2 3 4 5 6 
#
# 1 93.0506 15.5335 17.9246 0.0000 33.0195 0.0000
# 2 15.5335 59.6966 21.3622 0.0002 1.9597 0.0001
# 3 17.9246 21.3622 70.4847 0.0016 26.9131 0.0011
# 4 0.0000 0.0002 0.0016 3.7519 0.0007 -10.3581
# 5 33.0195 1.9597 26.9131 0.0007 39.3734 0.0003
# 6 0.0000 0.0001 0.0011 -10.3581 0.0003 14.1644
#
#
#
# Elastic Compliance Matrix: (Units=1/GPa)
#
#
# Indices 1 2 3 4 5 6 
#
# 1 0.016608 -0.005016 0.003409 -0.000002 -0.016009 -0.000001
# 2 -0.005016 0.020782 -0.008436 -0.000002 0.008938 -0.000001
# 3 0.003409 -0.008436 0.022745 0.000009 -0.017986 0.000006
# 4 -0.000002 -0.000002 0.000009 -0.261590 0.000001 -0.191295
# 5 -0.016009 0.008938 -0.017986 0.000001 0.050672 0.000001
# 6 -0.000001 -0.000001 0.000006 -0.191295 0.000001 -0.069291
#
#
# Mechanical properties :
#
#
# Convention : Reuss Voigt Hill
#
# Bulk Modulus (GPa) = 24.96890 36.98581 30.97735
# Shear Modulus (GPa) = -26.78987 22.68539 -2.05224
#
# Velocity S-wave (km/s) = -3.45378 3.17821 -0.95593
# Velocity P-wave (km/s) = 2.18793 5.47143 3.54609
#
# Compressibility (1/GPa) = 0.04004982
#
# Stress axis : x y z
#
# Youngs Moduli (GPa) = 60.21085 48.11880 43.96612
#
# Poissons Ratio (x) = 0.24137 -0.14990
# Poissons Ratio (y) = 0.30202 0.37089
# Poissons Ratio (z) = -0.20528 0.40592
#
# Static dielectric constant tensor:
#      x y z
#    x 1.877040 0.000000 0.006670 
#    y 0.000000 1.844800 0.000000 
#    z 0.006670 0.000000 1.836030 
# 
# From -- ./inp_files/286065.got.cif
#   From: 2010.05.17/outbox.cif.g08.bks.cpg/sg12_144_cif.got.tgz:286065.got - 2010.06.03 13:09:07.
