data_PCOD9213794
_publ_section_title
;
Structure prediction by ZEFSAII (Michael W. Deem and Ramdas Pophale) SiO2 
 PCOD9213794
Probable space group: C 2/M
;
_chemical_formula_sum "Si O2"
_cell_formula_units_Z 42
_cell_length_a 25.483356
_cell_length_b 7.505527
_cell_length_c 9.605185
_cell_angle_alpha 90.000000
_cell_angle_beta 124.548402
_cell_angle_gamma 90.000000
_cell_volume 1513.160109
_symmetry_space_group_name_H-M "C 2/M"
_symmetry_group_IT_number 12
_symmetry_cell_setting 'monoclinic'
loop_
_space_group_symop_operation_xyz
x,y,z
-x,y,-z
-x,-y,-z
x,-y,z
1/2+x,1/2+y,z
1/2-x,1/2+y,-z
1/2-x,1/2-y,-z
1/2+x,1/2-y,z
loop_
_atom_site_type_symbol
_atom_site_label
_atom_site_fract_x
_atom_site_fract_y
_atom_site_fract_z
Si Si1 0.000000 0.000000 0.000000
Si Si2 0.739137 0.790638 0.268517
Si Si3 0.649239 0.708095 0.360048
Si Si4 0.662824 0.785624 0.805737
Si Si5 0.931234 0.719765 0.101981
Si Si6 0.443579 0.799114 0.564891
O O1 0.956096 0.843369 0.013881
O O2 0.674210 0.725790 0.241764
O O3 0.793914 0.718396 0.455982
O O4 0.769882 0.764546 0.163694
O O5 0.735077 0.000000 0.281582
O O6 0.638742 0.500000 0.372022
O O7 0.587067 0.798670 0.326715
O O8 0.634620 0.736631 0.914131
O O9 0.609704 0.714608 0.614585
O O10 0.663489 0.000000 0.806210
O O11 0.932474 0.500000 0.079387
O O12 0.985359 0.764184 0.302481
O O13 0.448299 0.000000 0.522333
#
# Coordination Sequence:
#
# PCOD9213794 Si02
#       6
#     2   8   8   8   8   8
#     4  12  26  40  58  74 100 140 190 238 268 308
#     4   9  16  25  40  67 106 144 173 200 240 306
#     4   9  16  25  40  67 106 144 173 200 240 306
#     4   9  17  31  52  78 110 141 168 209 266 323
#     4  10  22  39  57  79 107 136 181 222 272 320
#     4   9  17  31  52  78 110 141 168 209 266 323
#
# _framework density 27.756481999999998
#
# number of rings (size 3 to 8) (size 9 to 14) (size 15 to 20)
#    0.000    2.667    0.000    2.000    2.667    6.857 
#    0.000    0.952    0.000    0.000    0.000    1.333 
#    0.000    0.000    0.000    0.000    0.000    0.000 
#
# Total GULP energy -117072.713862 kJ/mol
# GULP energy per Si atom -5574.891136 kJ/mol
# Density = 2.769331 g / cm^3
# Si number density = 27.756482 Si / 1000 Ang^3
#
#
#
# Elastic Constant Matrix: (Units=GPa)
#
#
# Indices 1 2 3 4 5 6 
#
# 1 284.4362 47.3584 37.2516 0.0000 -55.1162 0.0000
# 2 47.3584 131.0123 13.1413 0.0000 -25.7768 0.0000
# 3 37.2516 13.1413 106.9946 0.0000 -33.5257 0.0000
# 4 0.0000 0.0000 0.0000 7.5158 0.0000 -29.5785
# 5 -55.1162 -25.7768 -33.5257 0.0000 40.0260 0.0000
# 6 0.0000 0.0000 0.0000 -29.5785 0.0000 17.9473
#
#
#
# Elastic Compliance Matrix: (Units=1/GPa)
#
#
# Indices 1 2 3 4 5 6 
#
# 1 0.004843 -0.000465 0.000497 0.000000 0.006786 0.000000
# 2 -0.000465 0.008855 0.000896 0.000000 0.005812 0.000000
# 3 0.000497 0.000896 0.012824 0.000000 0.012003 0.000000
# 4 0.000000 0.000000 0.000000 -0.024253 0.000000 -0.039971
# 5 0.006786 0.005812 0.012003 0.000000 0.048124 0.000000
# 6 0.000000 0.000000 0.000000 -0.039971 0.000000 -0.010157
#
#
# Mechanical properties :
#
#
# Convention : Reuss Voigt Hill
#
# Bulk Modulus (GPa) = 35.24059 79.77172 57.50615
# Shear Modulus (GPa) = 104.51503 41.41063 72.96283
#
# Velocity S-wave (km/s) = 6.14297 3.86674 5.13262
# Velocity P-wave (km/s) = 7.93969 6.98124 7.47584
#
# Compressibility (1/GPa) = 0.02837637
#
# Stress axis : x y z
#
# Youngs Moduli (GPa) = 206.48527 112.93391 77.97787
#
# Poissons Ratio (x) = 0.05257 -0.03877
# Poissons Ratio (y) = 0.09611 -0.06983
# Poissons Ratio (z) = -0.10266 -0.10113
#
# Static dielectric constant tensor:
#      x y z
#    x 2.175810 0.000000 0.077530 
#    y 0.000000 2.057260 0.000000 
#    z 0.077530 0.000000 2.339240 
# 
# From -- ./inp_files/171509.got.cif
#   From: 2010.05.17/outbox.cif.g08.bks.cpg/sg12_86_cif.got.tgz:171509.got - 2010.06.03 13:09:07.
