data_PCOD9213423
_publ_section_title
;
Structure prediction by ZEFSAII (Michael W. Deem and Ramdas Pophale) SiO2 
 PCOD9213423
Probable space group: C 2/M
;
_chemical_formula_sum "Si O2"
_cell_formula_units_Z 52
_cell_length_a 15.030710
_cell_length_b 15.110555
_cell_length_c 16.394412
_cell_angle_alpha 90.000000
_cell_angle_beta 57.897693
_cell_angle_gamma 90.000000
_cell_volume 3154.210746
_symmetry_space_group_name_H-M "C 2/M"
_symmetry_group_IT_number 12
_symmetry_cell_setting 'monoclinic'
loop_
_space_group_symop_operation_xyz
x,y,z
-x,y,-z
-x,-y,-z
x,-y,z
1/2+x,1/2+y,z
1/2-x,1/2+y,-z
1/2-x,1/2-y,-z
1/2+x,1/2-y,z
loop_
_atom_site_type_symbol
_atom_site_label
_atom_site_fract_x
_atom_site_fract_y
_atom_site_fract_z
Si Si1 0.219044 0.500000 0.002101
Si Si2 0.167312 0.893505 0.381922
Si Si3 0.556253 0.394713 0.597858
Si Si4 0.860160 0.317862 0.190104
Si Si5 0.999600 0.169124 0.797521
Si Si6 0.515917 0.000000 0.895172
Si Si7 0.050740 0.000000 0.063997
Si Si8 0.739872 0.307603 0.087234
O O1 0.099226 0.500000 0.090934
O O2 0.322216 0.500000 0.008602
O O3 0.233159 0.410250 0.943929
O O4 0.139874 0.867267 0.488257
O O5 0.260721 0.838945 0.296116
O O6 0.059782 0.879878 0.383546
O O7 0.189112 0.000000 0.368519
O O8 0.566748 0.500000 0.601400
O O9 0.560766 0.354323 0.685027
O O10 0.920888 0.411033 0.154194
O O11 0.816095 0.284033 0.124427
O O12 0.939313 0.245948 0.186422
O O13 0.982562 0.085197 0.865863
O O14 0.882000 0.197723 0.829753
O O15 0.500000 0.000000 0.000000
O O16 0.000000 0.000000 0.000000
O O17 0.750000 0.250000 0.000000
#
# Coordination Sequence:
#
# PCOD9213423 Si02
#       8
#     4   8   8   8   8   4   4   8
#     4  10  22  38  58  71 104 158 174 236 269 311
#     4   9  18  34  60  85 108 139 177 239 287 338
#     4   9  17  35  60  84 108 138 183 231 293 331
#     4  12  23  35  57  83 113 146 189 227 281 336
#     4  11  23  35  58  82 108 148 189 230 274 331
#     4  12  22  36  55  82 110 143 188 226 278 329
#     4  10  24  40  55  77 113 152 194 221 263 331
#     4  11  23  37  53  78 114 146 189 228 271 324
#
# _framework density 16.485899
#
# number of rings (size 3 to 8) (size 9 to 14) (size 15 to 20)
#    0.000    1.538    4.615    1.846    4.308    0.615 
#    0.000    0.000    0.000    0.000    0.000    0.000 
#    0.000    6.154    0.000    0.000    0.000    0.000 
#
# Total GULP energy -145006.009479 kJ/mol
# GULP energy per Si atom -5577.154211 kJ/mol
# Density = 1.644838 g / cm^3
# Si number density = 16.485899 Si / 1000 Ang^3
#
#
#
# Elastic Constant Matrix: (Units=GPa)
#
#
# Indices 1 2 3 4 5 6 
#
# 1 103.8510 42.6395 44.0701 0.0000 7.2254 0.0000
# 2 42.6395 82.6009 40.9861 0.0000 2.3242 0.0000
# 3 44.0701 40.9861 99.0977 0.0000 5.7869 0.0000
# 4 0.0000 0.0000 0.0000 12.2420 0.0000 -2.3206
# 5 7.2254 2.3242 5.7869 0.0000 30.7764 0.0000
# 6 0.0000 0.0000 0.0000 -2.3206 0.0000 27.3793
#
#
#
# Elastic Compliance Matrix: (Units=1/GPa)
#
#
# Indices 1 2 3 4 5 6 
#
# 1 0.013431 -0.004997 -0.003786 0.000000 -0.002064 0.000000
# 2 -0.004997 0.017091 -0.004894 0.000000 0.000802 0.000000
# 3 -0.003786 -0.004894 0.013878 0.000000 -0.001351 0.000000
# 4 0.000000 0.000000 0.000000 0.083020 0.000000 0.007037
# 5 -0.002064 0.000802 -0.001351 0.000000 0.033170 0.000000
# 6 0.000000 0.000000 0.000000 0.007037 0.000000 0.037120
#
#
# Mechanical properties :
#
#
# Convention : Reuss Voigt Hill
#
# Bulk Modulus (GPa) = 58.65929 60.10458 59.38194
# Shear Modulus (GPa) = 21.66894 24.60314 23.13604
#
# Velocity S-wave (km/s) = 3.62939 3.86732 3.75024
# Velocity P-wave (km/s) = 7.29534 7.51524 7.40611
#
# Compressibility (1/GPa) = 0.01704760
#
# Stress axis : x y z
#
# Youngs Moduli (GPa) = 74.45554 58.50919 72.05897
#
# Poissons Ratio (x) = 0.29235 0.27280
# Poissons Ratio (y) = 0.37202 0.35263
# Poissons Ratio (z) = 0.28187 0.28632
#
# Static dielectric constant tensor:
#      x y z
#    x 1.559360 0.000000 -0.004930 
#    y 0.000000 1.514060 0.000000 
#    z -0.004930 0.000000 1.571480 
# 
# From -- ./inp_files/214750.got.cif
#   From: 2010.05.17/outbox.cif.g08.bks.cpg/sg12_108_cif.got.tgz:214750.got - 2010.06.03 13:09:07.
