data_PCOD9213312
_publ_section_title
;
Structure prediction by ZEFSAII (Michael W. Deem and Ramdas Pophale) SiO2 
 PCOD9213312
Probable space group: C 2/M
;
_chemical_formula_sum "Si O2"
_cell_formula_units_Z 32
_cell_length_a 5.338259
_cell_length_b 30.247001
_cell_length_c 8.727527
_cell_angle_alpha 90.000000
_cell_angle_beta 88.768306
_cell_angle_gamma 90.000000
_cell_volume 1408.876112
_symmetry_space_group_name_H-M "C 2/M"
_symmetry_group_IT_number 12
_symmetry_cell_setting 'monoclinic'
loop_
_space_group_symop_operation_xyz
x,y,z
-x,y,-z
-x,-y,-z
x,-y,z
1/2+x,1/2+y,z
1/2-x,1/2+y,-z
1/2-x,1/2-y,-z
1/2+x,1/2-y,z
loop_
_atom_site_type_symbol
_atom_site_label
_atom_site_fract_x
_atom_site_fract_y
_atom_site_fract_z
Si Si1 0.094631 0.364853 0.171709
Si Si2 0.754898 0.596387 0.401891
Si Si3 0.925691 0.048509 0.179245
Si Si4 0.735098 0.268684 0.823377
O O1 0.862343 0.364631 0.292362
O O2 0.242662 0.410047 0.199559
O O3 0.263455 0.321433 0.181023
O O4 0.000000 0.365882 0.000000
O O5 0.500000 0.607119 0.500000
O O6 0.661628 0.558522 0.285856
O O7 0.000000 0.584253 0.500000
O O8 0.820597 0.000000 0.218189
O O9 0.000000 0.048437 0.000000
O O10 0.492986 0.248297 0.750634
O O11 0.750000 0.250000 0.000000
#
# Coordination Sequence:
#
# PCOD9213312 Si02
#       4
#     8   8   8   8
#     4  12  24  43  78 105 147 190 247 311 358 424
#     4  12  27  48  70 107 148 204 240 292 368 442
#     4  11  26  45  74 112 148 190 250 308 361 424
#     4  10  22  37  66 111 137 174 241 309 355 419
#
# _framework density 22.713139999999999
#
# number of rings (size 3 to 8) (size 9 to 14) (size 15 to 20)
#    0.000    0.750    7.500    0.000    7.000    2.500 
#    0.000    0.000    0.000    4.500    0.000    0.000 
#    0.000    0.000    0.000    0.000    0.000    0.000 
#
# Total GULP energy -89337.465483 kJ/mol
# GULP energy per Si atom -5583.591593 kJ/mol
# Density = 2.266144 g / cm^3
# Si number density = 22.713140 Si / 1000 Ang^3
#
#
#
# Elastic Constant Matrix: (Units=GPa)
#
#
# Indices 1 2 3 4 5 6 
#
# 1 160.3289 50.2809 39.2933 0.0000 9.0418 0.0000
# 2 50.2809 160.5132 11.1470 0.0000 -7.7845 0.0000
# 3 39.2933 11.1470 105.1400 0.0000 1.3636 0.0000
# 4 0.0000 0.0000 0.0000 -16.7314 0.0000 -5.5448
# 5 9.0418 -7.7845 1.3636 0.0000 30.2940 0.0000
# 6 0.0000 0.0000 0.0000 -5.5448 0.0000 38.3388
#
#
#
# Elastic Compliance Matrix: (Units=1/GPa)
#
#
# Indices 1 2 3 4 5 6 
#
# 1 0.007790 -0.002395 -0.002621 0.000000 -0.002822 0.000000
# 2 -0.002395 0.007095 0.000110 0.000000 0.002533 0.000000
# 3 -0.002621 0.000110 0.010474 0.000000 0.000339 0.000000
# 4 0.000000 0.000000 0.000000 -0.057034 0.000000 -0.008249
# 5 -0.002822 0.002533 0.000339 0.000000 0.034488 0.000000
# 6 0.000000 0.000000 0.000000 -0.008249 0.000000 0.024890
#
#
# Mechanical properties :
#
#
# Convention : Reuss Voigt Hill
#
# Bulk Modulus (GPa) = 64.31614 69.71383 67.01499
# Shear Modulus (GPa) = 117.10199 32.06435 74.58317
#
# Velocity S-wave (km/s) = 7.18811 3.76135 5.73658
# Velocity P-wave (km/s) = 9.86256 7.04439 8.57011
#
# Compressibility (1/GPa) = 0.01554820
#
# Stress axis : x y z
#
# Youngs Moduli (GPa) = 128.37415 140.93485 95.47010
#
# Poissons Ratio (x) = 0.33754 0.25020
# Poissons Ratio (y) = 0.30746 -0.01050
# Poissons Ratio (z) = 0.33643 -0.01550
#
# Static dielectric constant tensor:
#      x y z
#    x 1.939880 0.000000 -0.006080 
#    y 0.000000 1.844110 0.000000 
#    z -0.006080 0.000000 1.902100 
# 
# From -- ./inp_files/34319.got.cif
#   From: 2010.05.17/outbox.cif.g08.bks.cpg/sg12_18_cif.got.tgz:34319.got - 2010.06.03 13:09:07.
