data_PCOD9213656
_publ_section_title
;
Structure prediction by ZEFSAII (Michael W. Deem and Ramdas Pophale) SiO2 
 PCOD9213656
Probable space group: C 2/M
;
_chemical_formula_sum "Si O2"
_cell_formula_units_Z 32
_cell_length_a 12.859421
_cell_length_b 10.404695
_cell_length_c 10.171809
_cell_angle_alpha 90.000000
_cell_angle_beta 119.865361
_cell_angle_gamma 90.000000
_cell_volume 1180.231529
_symmetry_space_group_name_H-M "C 2/M"
_symmetry_group_IT_number 12
_symmetry_cell_setting 'monoclinic'
loop_
_space_group_symop_operation_xyz
x,y,z
-x,y,-z
-x,-y,-z
x,-y,z
1/2+x,1/2+y,z
1/2-x,1/2+y,-z
1/2-x,1/2-y,-z
1/2+x,1/2-y,z
loop_
_atom_site_type_symbol
_atom_site_label
_atom_site_fract_x
_atom_site_fract_y
_atom_site_fract_z
Si Si1 0.611184 0.000000 0.237986
Si Si2 0.842254 0.169578 0.091746
Si Si3 0.341704 0.000000 0.046240
Si Si4 0.094524 0.146275 0.306366
Si Si5 0.199631 0.784082 0.635545
O O1 0.690609 0.879981 0.331621
O O2 0.474285 0.000000 0.198584
O O3 0.624386 0.000000 0.088105
O O4 0.806539 0.336239 0.043292
O O5 0.846503 0.172546 0.253831
O O6 0.982794 0.182846 0.144385
O O7 0.818531 0.000000 0.048476
O O8 0.109574 0.212817 0.458635
O O9 0.220382 0.156272 0.306514
O O10 0.075226 0.000000 0.330977
#
# Coordination Sequence:
#
# PCOD9213656 Si02
#       5
#     4   8   4   8   8
#     4   9  16  33  57  82 114 152 202 249 291 349
#     4  11  22  38  59  89 125 161 204 249 305 367
#     4   9  18  31  53  81 112 157 195 240 289 353
#     4  11  22  40  65  92 124 162 207 256 306 364
#     4  10  22  38  63  91 119 162 210 254 304 362
#
# _framework density 27.113325
#
# number of rings (size 3 to 8) (size 9 to 14) (size 15 to 20)
#    0.000    1.750    2.500    2.250    0.000    4.000 
#    2.250    1.250    0.000    3.000    0.000    0.000 
#    0.000    0.000    0.000    0.000    0.000    0.000 
#
# Total GULP energy -89190.017904 kJ/mol
# GULP energy per Si atom -5574.376119 kJ/mol
# Density = 2.705161 g / cm^3
# Si number density = 27.113325 Si / 1000 Ang^3
#
#
#
# Elastic Constant Matrix: (Units=GPa)
#
#
# Indices 1 2 3 4 5 6 
#
# 1 109.0115 33.2510 46.0726 0.0000 51.0402 0.0000
# 2 33.2510 134.7571 42.3933 0.0000 16.8740 0.0000
# 3 46.0726 42.3933 92.6052 0.0000 23.3349 0.0000
# 4 0.0000 0.0000 0.0000 22.1640 0.0000 12.7498
# 5 51.0402 16.8740 23.3349 0.0000 63.5144 0.0000
# 6 0.0000 0.0000 0.0000 12.7498 0.0000 43.4276
#
#
#
# Elastic Compliance Matrix: (Units=1/GPa)
#
#
# Indices 1 2 3 4 5 6 
#
# 1 0.017075 -0.001180 -0.005043 0.000000 -0.011555 0.000000
# 2 -0.001180 0.008801 -0.003407 0.000000 -0.000138 0.000000
# 3 -0.005043 -0.003407 0.015007 0.000000 -0.000556 0.000000
# 4 0.000000 0.000000 0.000000 0.054286 0.000000 -0.015938
# 5 -0.011555 -0.000138 -0.000556 0.000000 0.025271 0.000000
# 6 0.000000 0.000000 0.000000 -0.015938 0.000000 0.027706
#
#
# Mechanical properties :
#
#
# Convention : Reuss Voigt Hill
#
# Bulk Modulus (GPa) = 46.24710 64.42308 55.33509
# Shear Modulus (GPa) = 28.63442 40.13164 34.38303
#
# Velocity S-wave (km/s) = 3.25330 3.85144 3.56493
# Velocity P-wave (km/s) = 5.58623 6.60230 6.11540
#
# Compressibility (1/GPa) = 0.02162298
#
# Stress axis : x y z
#
# Youngs Moduli (GPa) = 58.56549 113.62283 66.63363
#
# Poissons Ratio (x) = 0.13404 0.33605
# Poissons Ratio (y) = 0.06909 0.22703
# Poissons Ratio (z) = 0.29536 0.38714
#
# Static dielectric constant tensor:
#      x y z
#    x 2.111850 0.000000 0.063770 
#    y 0.000000 3.064700 0.000000 
#    z 0.063770 0.000000 1.954930 
# 
# From -- ./inp_files/138828.got.cif
#   From: 2010.05.17/outbox.cif.g08.bks.cpg/sg12_70_cif.got.tgz:138828.got - 2010.06.03 13:09:07.
