data_PCOD9213729
_publ_section_title
;
Structure prediction by ZEFSAII (Michael W. Deem and Ramdas Pophale) SiO2 
 PCOD9213729
Probable space group: C 2/M
;
_chemical_formula_sum "Si O2"
_cell_formula_units_Z 36
_cell_length_a 31.182214
_cell_length_b 14.571269
_cell_length_c 8.942656
_cell_angle_alpha 90.000000
_cell_angle_beta 28.685280
_cell_angle_gamma 90.000000
_cell_volume 1950.340304
_symmetry_space_group_name_H-M "C 2/M"
_symmetry_group_IT_number 12
_symmetry_cell_setting 'monoclinic'
loop_
_space_group_symop_operation_xyz
x,y,z
-x,y,-z
-x,-y,-z
x,-y,z
1/2+x,1/2+y,z
1/2-x,1/2+y,-z
1/2-x,1/2-y,-z
1/2+x,1/2-y,z
loop_
_atom_site_type_symbol
_atom_site_label
_atom_site_fract_x
_atom_site_fract_y
_atom_site_fract_z
Si Si1 0.093168 0.684403 0.627646
Si Si2 0.718692 0.500000 0.350145
Si Si3 0.318326 0.692946 0.392540
Si Si4 0.007814 0.812064 0.647929
Si Si5 0.891950 0.000000 0.598020
Si Si6 0.309545 0.000000 0.767253
O O1 0.155723 0.748256 0.539765
O O2 0.141100 0.590302 0.439891
O O3 0.066581 0.740325 0.561380
O O4 0.000000 0.667606 0.000000
O O5 0.717651 0.593126 0.448359
O O6 0.630441 0.500000 0.511860
O O7 0.797321 0.500000 0.985322
O O8 0.250000 0.750000 0.500000
O O9 0.410563 0.681423 0.020146
O O10 0.000000 0.785224 0.500000
O O11 0.054911 0.910235 0.519159
O O12 0.793433 0.000000 0.972107
#
# Coordination Sequence:
#
# PCOD9213729 Si02
#       6
#     8   4   8   8   4   4
#     4  10  22  43  64  92 128 176 214 265 314 374
#     4  10  23  40  66  96 125 169 205 267 325 379
#     4  11  25  41  67  94 131 169 214 265 319 383
#     4  11  24  40  67  95 130 166 216 264 322 381
#     4  10  22  38  66  95 125 169 200 275 322 381
#     4  10  23  38  71  90 130 168 223 255 321 384
#
# _framework density 18.458316
#
# number of rings (size 3 to 8) (size 9 to 14) (size 15 to 20)
#    0.667    0.889    2.222    1.333    6.222    3.556 
#    0.000    1.667    0.000    0.000    0.000    0.000 
#    0.000    0.000    0.000    0.000    0.000    0.000 
#
# Total GULP energy -100530.124245 kJ/mol
# GULP energy per Si atom -5585.006902 kJ/mol
# Density = 1.841630 g / cm^3
# Si number density = 18.458316 Si / 1000 Ang^3
#
#
#
# Elastic Constant Matrix: (Units=GPa)
#
#
# Indices 1 2 3 4 5 6 
#
# 1 153.0228 89.9473 56.4023 0.0000 3.8435 0.0000
# 2 89.9473 200.0811 97.9115 0.0000 0.3218 0.0000
# 3 56.4023 97.9115 69.6323 0.0000 -5.6796 0.0000
# 4 0.0000 0.0000 0.0000 -11.7178 0.0000 0.3333
# 5 3.8435 0.3218 -5.6796 0.0000 33.0529 0.0000
# 6 0.0000 0.0000 0.0000 0.3333 0.0000 31.8041
#
#
#
# Elastic Compliance Matrix: (Units=1/GPa)
#
#
# Indices 1 2 3 4 5 6 
#
# 1 0.009620 -0.001354 -0.006063 0.000000 -0.002147 0.000000
# 2 -0.001354 0.016778 -0.022815 0.000000 -0.003926 0.000000
# 3 -0.006063 -0.022815 0.052160 0.000000 0.009890 0.000000
# 4 0.000000 0.000000 0.000000 -0.085315 0.000000 0.000894
# 5 -0.002147 -0.003926 0.009890 0.000000 0.032242 0.000000
# 6 0.000000 0.000000 0.000000 0.000894 0.000000 0.031433
#
#
# Mechanical properties :
#
#
# Convention : Reuss Voigt Hill
#
# Bulk Modulus (GPa) = 55.27099 101.25095 78.26097
# Shear Modulus (GPa) = 40.51454 22.52616 31.52035
#
# Velocity S-wave (km/s) = 4.69008 3.49718 4.13686
# Velocity P-wave (km/s) = 7.70311 8.44275 8.08139
#
# Compressibility (1/GPa) = 0.01809267
#
# Stress axis : x y z
#
# Youngs Moduli (GPa) = 103.95444 59.60280 19.17194
#
# Poissons Ratio (x) = 0.08071 0.11624
# Poissons Ratio (y) = 0.14076 0.43741
# Poissons Ratio (z) = 0.63028 1.35984
#
# Static dielectric constant tensor:
#      x y z
#    x 1.636240 0.000000 0.010290 
#    y 0.000000 1.587080 0.000000 
#    z 0.010290 0.000000 1.625810 
# 
# From -- ./inp_files/73425.got.cif
#   From: 2010.05.17/outbox.cif.g08.bks.cpg/sg12_37_cif.got.tgz:73425.got - 2010.06.03 13:09:07.
