data_PCOD9213458
_publ_section_title
;
Structure prediction by ZEFSAII (Michael W. Deem and Ramdas Pophale) SiO2 
 PCOD9213458
Probable space group: C 2/M
;
_chemical_formula_sum "Si O2"
_cell_formula_units_Z 56
_cell_length_a 28.386531
_cell_length_b 15.919681
_cell_length_c 10.825925
_cell_angle_alpha 90.000000
_cell_angle_beta 33.515039
_cell_angle_gamma 90.000000
_cell_volume 2701.303437
_symmetry_space_group_name_H-M "C 2/M"
_symmetry_group_IT_number 12
_symmetry_cell_setting 'monoclinic'
loop_
_space_group_symop_operation_xyz
x,y,z
-x,y,-z
-x,-y,-z
x,-y,z
1/2+x,1/2+y,z
1/2-x,1/2+y,-z
1/2-x,1/2-y,-z
1/2+x,1/2-y,z
loop_
_atom_site_type_symbol
_atom_site_label
_atom_site_fract_x
_atom_site_fract_y
_atom_site_fract_z
Si Si1 0.177762 0.193365 0.892998
Si Si2 0.784716 0.595761 0.472549
Si Si3 0.617340 0.132352 0.986011
Si Si4 0.347993 0.749109 0.652219
Si Si5 0.046847 0.335174 0.773874
Si Si6 0.102667 0.903141 0.281484
Si Si7 0.897711 0.592087 0.708754
O O1 0.214280 0.155680 0.686586
O O2 0.111354 0.267102 0.013774
O O3 0.255729 0.239489 0.793230
O O4 0.141131 0.123703 0.065020
O O5 0.757773 0.500000 0.543580
O O6 0.812756 0.613567 0.270799
O O7 0.870858 0.612247 0.363148
O O8 0.523386 0.108332 0.142740
O O9 0.636519 0.094966 0.076783
O O10 0.416551 0.762727 0.393601
O O11 0.361565 0.664191 0.698466
O O12 0.362530 0.829815 0.709203
O O13 0.000000 0.304101 0.000000
O O14 0.000000 0.894463 0.500000
O O15 0.123654 0.000000 0.264322
O O16 0.879678 0.500000 0.692914
O O17 0.000000 0.602006 0.500000
#
# Coordination Sequence:
#
# PCOD9213458 Si02
#       7
#     8   8   8   8   8   8   8
#     4  11  23  39  61  84 119 158 199 241 298 353
#     4  10  22  38  58  88 121 154 197 244 292 352
#     4  11  20  37  57  84 120 162 197 237 285 352
#     4  11  21  40  58  87 123 155 194 244 299 352
#     4   9  20  35  60  85 114 158 193 236 289 352
#     4  11  23  39  62  86 111 152 203 250 294 343
#     4  11  22  34  57  91 125 160 193 238 301 361
#
# _framework density 20.730732
#
# number of rings (size 3 to 8) (size 9 to 14) (size 15 to 20)
#    0.000    1.429    2.857    3.000    0.000    6.000 
#    0.000    0.714    0.000    0.429    0.000    0.000 
#    0.000    0.000    0.000    0.000    0.000    0.000 
#
# Total GULP energy -156519.520466 kJ/mol
# GULP energy per Si atom -5589.982874 kJ/mol
# Density = 2.068355 g / cm^3
# Si number density = 20.730732 Si / 1000 Ang^3
#
#
#
# Elastic Constant Matrix: (Units=GPa)
#
#
# Indices 1 2 3 4 5 6 
#
# 1 53.0278 21.2596 14.7227 0.0000 12.6559 0.0000
# 2 21.2596 122.4778 13.6847 0.0000 7.5426 0.0000
# 3 14.7227 13.6847 80.2124 0.0000 13.4620 0.0000
# 4 0.0000 0.0000 0.0000 5.8616 0.0000 8.6234
# 5 12.6559 7.5426 13.4620 0.0000 32.3317 0.0000
# 6 0.0000 0.0000 0.0000 8.6234 0.0000 2.4485
#
#
#
# Elastic Compliance Matrix: (Units=1/GPa)
#
#
# Indices 1 2 3 4 5 6 
#
# 1 0.022492 -0.003202 -0.002397 0.000000 -0.007059 0.000000
# 2 -0.003202 0.008843 -0.000844 0.000000 -0.000458 0.000000
# 3 -0.002397 -0.000844 0.013827 0.000000 -0.004622 0.000000
# 4 0.000000 0.000000 0.000000 -0.040801 0.000000 0.143697
# 5 -0.007059 -0.000458 -0.004622 0.000000 0.035724 0.000000
# 6 0.000000 0.000000 0.000000 0.143697 0.000000 -0.097675
#
#
# Mechanical properties :
#
#
# Convention : Reuss Voigt Hill
#
# Bulk Modulus (GPa) = 30.98329 39.45023 35.21676
# Shear Modulus (GPa) = -147.29159 21.86508 -62.71326
#
# Velocity S-wave (km/s) = -8.43825 3.25117 -5.50609
# Velocity P-wave (km/s) = 8.94208 5.75887 4.83716
#
# Compressibility (1/GPa) = 0.03227546
#
# Stress axis : x y z
#
# Youngs Moduli (GPa) = 44.46026 113.08368 72.32432
#
# Poissons Ratio (x) = 0.36204 0.17339
# Poissons Ratio (y) = 0.14234 0.06105
# Poissons Ratio (z) = 0.10659 0.09546
#
# Static dielectric constant tensor:
#      x y z
#    x 1.769190 0.000000 0.008360 
#    y 0.000000 1.724990 0.000000 
#    z 0.008360 0.000000 1.757630 
# 
# From -- ./inp_files/189615.got.cif
#   From: 2010.05.17/outbox.cif.g08.bks.cpg/sg12_95_cif.got.tgz:189615.got - 2010.06.03 13:09:07.
