data_PCOD9213245
_publ_section_title
;
Structure prediction by ZEFSAII (Michael W. Deem and Ramdas Pophale) SiO2 
 PCOD9213245
Probable space group: C 2/M
;
_chemical_formula_sum "Si O2"
_cell_formula_units_Z 48
_cell_length_a 19.597621
_cell_length_b 19.823106
_cell_length_c 8.984186
_cell_angle_alpha 90.000000
_cell_angle_beta 38.691889
_cell_angle_gamma 90.000000
_cell_volume 2181.853772
_symmetry_space_group_name_H-M "C 2/M"
_symmetry_group_IT_number 12
_symmetry_cell_setting 'monoclinic'
loop_
_space_group_symop_operation_xyz
x,y,z
-x,y,-z
-x,-y,-z
x,-y,z
1/2+x,1/2+y,z
1/2-x,1/2+y,-z
1/2-x,1/2-y,-z
1/2+x,1/2-y,z
loop_
_atom_site_type_symbol
_atom_site_label
_atom_site_fract_x
_atom_site_fract_y
_atom_site_fract_z
Si Si1 0.276431 0.741601 0.781653
Si Si2 0.055928 0.363167 0.550501
Si Si3 0.442845 0.575988 0.743387
Si Si4 0.547142 0.232788 0.067208
Si Si5 0.225221 0.079572 0.720260
Si Si6 0.119011 0.858689 0.607708
O O1 0.372175 0.795629 0.599748
O O2 0.311431 0.669839 0.650319
O O3 0.250000 0.750000 0.000000
O O4 0.170155 0.758035 0.863991
O O5 0.145347 0.409879 0.476342
O O6 0.000000 0.393181 0.500000
O O7 0.958853 0.328447 0.806992
O O8 0.500000 0.610167 0.500000
O O9 0.414174 0.500000 0.746474
O O10 0.542069 0.579962 0.690866
O O11 0.338751 0.600745 0.016880
O O12 0.466290 0.296738 0.222826
O O13 0.500000 0.200064 0.000000
O O14 0.184324 0.119988 0.643743
O O15 0.200981 0.000000 0.742006
#
# Coordination Sequence:
#
# PCOD9213245 Si02
#       6
#     8   8   8   8   8   8
#     4  11  23  38  62  96 130 168 204 263 325 387
#     4  11  23  39  62  91 124 167 212 257 318 383
#     4  10  22  37  60  94 125 162 213 267 321 376
#     4  11  22  38  61  93 129 161 204 257 319 383
#     4  11  24  44  65  90 128 170 219 270 317 376
#     4  11  23  37  66  91 124 172 206 260 321 390
#
# _framework density 21.999641
#
# number of rings (size 3 to 8) (size 9 to 14) (size 15 to 20)
#    0.000    1.167    1.667    5.000    4.667    4.333 
#    0.000    0.000    0.000    5.500    0.000    0.000 
#    0.000    0.000    0.000    0.000    0.000    0.000 
#
# Total GULP energy -133674.453015 kJ/mol
# GULP energy per Si atom -5569.768876 kJ/mol
# Density = 2.194957 g / cm^3
# Si number density = 21.999641 Si / 1000 Ang^3
#
#
#
# Elastic Constant Matrix: (Units=GPa)
#
#
# Indices 1 2 3 4 5 6 
#
# 1 131.3237 0.4718 3.2869 0.0000 -12.7347 0.0000
# 2 0.4718 59.7238 13.6444 0.0000 3.2819 0.0000
# 3 3.2869 13.6444 50.6747 0.0000 2.1172 0.0000
# 4 0.0000 0.0000 0.0000 -1.7275 0.0000 -12.1442
# 5 -12.7347 3.2819 2.1172 0.0000 33.1878 0.0000
# 6 0.0000 0.0000 0.0000 -12.1442 0.0000 23.7614
#
#
#
# Elastic Compliance Matrix: (Units=1/GPa)
#
#
# Indices 1 2 3 4 5 6 
#
# 1 0.007930 -0.000091 -0.000619 0.000000 0.003092 0.000000
# 2 -0.000091 0.017913 -0.004755 0.000000 -0.001503 0.000000
# 3 -0.000619 -0.004755 0.021101 0.000000 -0.001113 0.000000
# 4 0.000000 0.000000 0.000000 -0.126037 0.000000 -0.064416
# 5 0.003092 -0.001503 -0.001113 0.000000 0.031537 0.000000
# 6 0.000000 0.000000 0.000000 -0.064416 0.000000 0.009163
#
#
# Mechanical properties :
#
#
# Convention : Reuss Voigt Hill
#
# Bulk Modulus (GPa) = 27.76629 30.72538 29.24584
# Shear Modulus (GPa) = -323.45341 25.99896 -148.72722
#
# Velocity S-wave (km/s) = -12.13861 3.44145 -8.23111
# Velocity P-wave (km/s) = 13.55775 5.45784 8.77566
#
# Compressibility (1/GPa) = 0.03601490
#
# Stress axis : x y z
#
# Youngs Moduli (GPa) = 126.09733 55.82454 47.39212
#
# Poissons Ratio (x) = 0.00509 0.02934
# Poissons Ratio (y) = 0.01149 0.22533
# Poissons Ratio (z) = 0.07806 0.26542
#
# Static dielectric constant tensor:
#      x y z
#    x 3.128790 0.000000 0.983280 
#    y 0.000000 1.842900 0.000000 
#    z 0.983280 0.000000 2.595260 
# 
# From -- ./inp_files/89442.got.cif
#   From: 2010.05.17/outbox.cif.g08.bks.cpg/sg12_45_cif.got.tgz:89442.got - 2010.06.03 13:09:07.
