data_PCOD9213977
_publ_section_title
;
Structure prediction by ZEFSAII (Michael W. Deem and Ramdas Pophale) SiO2 
 PCOD9213977
Probable space group: C 2/M
;
_chemical_formula_sum "Si O2"
_cell_formula_units_Z 64
_cell_length_a 8.309471
_cell_length_b 17.036256
_cell_length_c 31.157652
_cell_angle_alpha 90.000000
_cell_angle_beta 37.350346
_cell_angle_gamma 90.000000
_cell_volume 2675.944205
_symmetry_space_group_name_H-M "C 2/M"
_symmetry_group_IT_number 12
_symmetry_cell_setting 'monoclinic'
loop_
_space_group_symop_operation_xyz
x,y,z
-x,y,-z
-x,-y,-z
x,-y,z
1/2+x,1/2+y,z
1/2-x,1/2+y,-z
1/2-x,1/2-y,-z
1/2+x,1/2-y,z
loop_
_atom_site_type_symbol
_atom_site_label
_atom_site_fract_x
_atom_site_fract_y
_atom_site_fract_z
Si Si1 0.432338 0.091864 0.909592
Si Si2 0.493662 0.186293 0.331061
Si Si3 0.710045 0.904809 0.155287
Si Si4 0.271364 0.829929 0.468741
Si Si5 0.492199 0.586658 0.408251
Si Si6 0.607219 0.368489 0.294082
Si Si7 0.768716 0.831724 0.969752
Si Si8 0.999702 0.090155 0.781153
O O1 0.329029 0.121961 0.886299
O O2 0.724648 0.124979 0.857194
O O3 0.473976 0.000000 0.893547
O O4 0.245763 0.104332 0.989150
O O5 0.480706 0.175831 0.385936
O O6 0.222713 0.149811 0.370045
O O7 0.539663 0.276413 0.309516
O O8 0.742249 0.137753 0.261716
O O9 0.421599 0.884351 0.235922
O O10 0.969255 0.854276 0.112908
O O11 0.750843 0.000000 0.150111
O O12 0.250000 0.750000 0.500000
O O13 0.000000 0.841557 0.500000
O O14 0.259254 0.895218 0.508207
O O15 0.594312 0.500000 0.396825
O O16 0.444863 0.594597 0.367823
O O17 0.542224 0.404827 0.261613
O O18 0.500000 0.837907 0.000000
O O19 0.750000 0.750000 0.000000
O O20 0.034063 0.000000 0.787211
#
# Coordination Sequence:
#
# PCOD9213977 Si02
#       8
#     8   8   8   8   8   8   8   8
#     4   9  20  41  65  89 124 166 204 248 313 380
#     4  11  23  38  63  90 126 165 211 262 315 373
#     4  10  22  42  67  93 128 169 209 259 324 383
#     4  10  22  39  61  86 121 164 209 252 319 383
#     4  11  23  40  63  93 129 167 212 267 322 381
#     4  11  22  40  65  94 127 167 213 259 314 383
#     4  12  26  42  63  93 128 164 213 265 313 378
#     4  10  22  40  63  91 127 165 207 256 313 379
#
# _framework density 23.916792999999998
#
# number of rings (size 3 to 8) (size 9 to 14) (size 15 to 20)
#    0.000    1.500    1.250    4.500    3.500    5.750 
#    0.000    1.250    0.000    1.875    0.000    0.000 
#    0.000    0.000    0.000    0.000    0.000    0.000 
#
# Total GULP energy -178875.233119 kJ/mol
# GULP energy per Si atom -5589.851035 kJ/mol
# Density = 2.386236 g / cm^3
# Si number density = 23.916793 Si / 1000 Ang^3
#
#
#
# Elastic Constant Matrix: (Units=GPa)
#
#
# Indices 1 2 3 4 5 6 
#
# 1 60.3058 2.5862 14.6926 0.0064 -5.4368 0.0100
# 2 2.5862 102.6611 6.9864 -0.0059 -18.6416 -0.0084
# 3 14.6926 6.9864 89.5876 0.0120 -2.4140 0.0194
# 4 0.0064 -0.0059 0.0120 21.7016 -0.0155 -19.2051
# 5 -5.4368 -18.6416 -2.4140 -0.0155 47.0846 -0.0204
# 6 0.0100 -0.0084 0.0194 -19.2051 -0.0204 2.6945
#
#
#
# Elastic Compliance Matrix: (Units=1/GPa)
#
#
# Indices 1 2 3 4 5 6 
#
# 1 0.017436 0.000099 -0.002816 0.000005 0.001908 0.000008
# 2 0.000099 0.010541 -0.000726 -0.000013 0.004147 -0.000021
# 3 -0.002816 -0.000726 0.011680 0.000014 -0.000014 0.000022
# 4 0.000005 -0.000013 0.000014 -0.008682 -0.000033 -0.061880
# 5 0.001908 0.004147 -0.000014 -0.000033 0.023100 -0.000057
# 6 0.000008 -0.000021 0.000022 -0.061880 -0.000057 -0.069923
#
#
# Mechanical properties :
#
#
# Convention : Reuss Voigt Hill
#
# Bulk Modulus (GPa) = 30.51545 33.45387 31.98466
# Shear Modulus (GPa) = 2547.81637 29.51542 1288.66589
#
# Velocity S-wave (km/s) = 32.67409 3.51677 23.23751
# Velocity P-wave (km/s) = 37.89786 5.52342 27.08096
#
# Compressibility (1/GPa) = 0.03277028
#
# Stress axis : x y z
#
# Youngs Moduli (GPa) = 57.35265 94.86901 85.61398
#
# Poissons Ratio (x) = -0.00938 0.24108
# Poissons Ratio (y) = -0.00567 0.06220
# Poissons Ratio (z) = 0.16150 0.06892
#
# Static dielectric constant tensor:
#      x y z
#    x 1.956660 0.000000 -0.015550 
#    y 0.000000 1.702130 -0.000050 
#    z -0.015550 -0.000050 1.965870 
# 
# From -- ./inp_files/372962.got.cif
#   From: 2010.05.17/outbox.cif.g08.bks.cpg/sg12_187_cif.got.tgz:372962.got - 2010.06.03 13:09:07.
