data_PCOD9213380
_publ_section_title
;
Structure prediction by ZEFSAII (Michael W. Deem and Ramdas Pophale) SiO2 
 PCOD9213380
Probable space group: C 2/M
;
_chemical_formula_sum "Si O2"
_cell_formula_units_Z 24
_cell_length_a 10.974239
_cell_length_b 9.155930
_cell_length_c 11.254845
_cell_angle_alpha 90.000000
_cell_angle_beta 69.901438
_cell_angle_gamma 90.000000
_cell_volume 1062.012350
_symmetry_space_group_name_H-M "C 2/M"
_symmetry_group_IT_number 12
_symmetry_cell_setting 'monoclinic'
loop_
_space_group_symop_operation_xyz
x,y,z
-x,y,-z
-x,-y,-z
x,-y,z
1/2+x,1/2+y,z
1/2-x,1/2+y,-z
1/2-x,1/2-y,-z
1/2+x,1/2-y,z
loop_
_atom_site_type_symbol
_atom_site_label
_atom_site_fract_x
_atom_site_fract_y
_atom_site_fract_z
Si Si1 0.484885 0.500000 0.339717
Si Si2 0.191177 0.500000 0.527340
Si Si3 0.500000 0.755231 0.500000
Si Si4 0.000000 0.249743 0.000000
Si Si5 0.641339 0.500000 0.063548
Si Si6 0.126251 0.500000 0.824105
O O1 0.335017 0.500000 0.427298
O O2 0.541583 0.645930 0.380953
O O3 0.516014 0.500000 0.192324
O O4 0.115089 0.641356 0.504649
O O5 0.180710 0.500000 0.673365
O O6 0.960415 0.357075 0.120524
O O7 0.120190 0.144785 0.993184
O O8 0.763606 0.500000 0.109923
#
# Coordination Sequence:
#
# PCOD9213380 Si02
#       6
#     4   4   4   4   4   4
#     4  11  22  38  62  90 122 155 192 243 300 354
#     4  11  23  39  61  91 122 155 195 242 298 355
#     4  10  22  38  56  88 124 156 194 234 292 356
#     4  10  24  42  62  88 116 158 204 244 292 344
#     4  11  23  41  63  89 120 155 199 246 294 351
#     4  11  22  41  64  86 120 157 198 247 292 348
#
# _framework density 22.598607999999999
#
# number of rings (size 3 to 8) (size 9 to 14) (size 15 to 20)
#    0.000    1.333    0.000    6.000    0.000    2.667 
#    0.000   13.333    0.000    0.000    0.000    0.000 
#    0.000    0.000    0.000    0.000    0.000    0.000 
#
# Total GULP energy -67157.682104 kJ/mol
# GULP energy per Si atom -5596.473509 kJ/mol
# Density = 2.254717 g / cm^3
# Si number density = 22.598608 Si / 1000 Ang^3
#
#
#
# Elastic Constant Matrix: (Units=GPa)
#
#
# Indices 1 2 3 4 5 6 
#
# 1 91.2850 40.8159 -3.1228 0.0000 10.0520 0.0000
# 2 40.8159 165.0259 18.3145 0.0000 10.1627 0.0000
# 3 -3.1228 18.3145 66.4030 0.0000 -6.7751 0.0000
# 4 0.0000 0.0000 0.0000 15.7570 0.0000 6.8955
# 5 10.0520 10.1627 -6.7751 0.0000 31.9347 0.0000
# 6 0.0000 0.0000 0.0000 6.8955 0.0000 28.4186
#
#
#
# Elastic Compliance Matrix: (Units=1/GPa)
#
#
# Indices 1 2 3 4 5 6 
#
# 1 0.012683 -0.003097 0.001169 0.000000 -0.002759 0.000000
# 2 -0.003097 0.007194 -0.002314 0.000000 -0.001805 0.000000
# 3 0.001169 -0.002314 0.016140 0.000000 0.003792 0.000000
# 4 0.000000 0.000000 0.000000 0.071003 0.000000 -0.017228
# 5 -0.002759 -0.001805 0.003792 0.000000 0.033561 0.000000
# 6 0.000000 0.000000 0.000000 -0.017228 0.000000 0.039369
#
#
# Mechanical properties :
#
#
# Convention : Reuss Voigt Hill
#
# Bulk Modulus (GPa) = 36.31972 48.30324 42.31148
# Shear Modulus (GPa) = 25.30233 33.00248 29.15240
#
# Velocity S-wave (km/s) = 3.34973 3.82563 3.59557
# Velocity P-wave (km/s) = 5.57382 6.39803 6.00010
#
# Compressibility (1/GPa) = 0.02753325
#
# Stress axis : x y z
#
# Youngs Moduli (GPa) = 78.84492 139.01331 61.95909
#
# Poissons Ratio (x) = 0.43049 -0.07244
# Poissons Ratio (y) = 0.24417 0.14337
# Poissons Ratio (z) = -0.09218 0.32166
#
# Static dielectric constant tensor:
#      x y z
#    x 1.870960 0.000000 0.012230 
#    y 0.000000 1.845150 0.000000 
#    z 0.012230 0.000000 1.780530 
# 
# From -- ./inp_files/126404.got.cif
#   From: 2010.05.17/outbox.cif.g08.bks.cpg/sg12_64_cif.got.tgz:126404.got - 2010.06.03 13:09:07.
