data_PCOD9213009
_publ_section_title
;
Structure prediction by ZEFSAII (Michael W. Deem and Ramdas Pophale) SiO2 
 PCOD9213009
Probable space group: C 2/M
;
_chemical_formula_sum "Si O2"
_cell_formula_units_Z 36
_cell_length_a 7.932585
_cell_length_b 12.704111
_cell_length_c 15.772361
_cell_angle_alpha 90.000000
_cell_angle_beta 72.973586
_cell_angle_gamma 90.000000
_cell_volume 1519.815174
_symmetry_space_group_name_H-M "C 2/M"
_symmetry_group_IT_number 12
_symmetry_cell_setting 'monoclinic'
loop_
_space_group_symop_operation_xyz
x,y,z
-x,y,-z
-x,-y,-z
x,-y,z
1/2+x,1/2+y,z
1/2-x,1/2+y,-z
1/2-x,1/2-y,-z
1/2+x,1/2-y,z
loop_
_atom_site_type_symbol
_atom_site_label
_atom_site_fract_x
_atom_site_fract_y
_atom_site_fract_z
Si Si1 0.000000 0.189991 0.500000
Si Si2 0.539722 0.315215 0.196166
Si Si3 0.091023 0.616161 0.894946
Si Si4 0.327070 0.192775 0.676408
Si Si5 0.487606 0.000000 0.364553
Si Si6 0.302650 0.500000 0.457719
O O1 0.871054 0.264764 0.574870
O O2 0.912349 0.107228 0.447326
O O3 0.695855 0.375424 0.124839
O O4 0.488930 0.213217 0.147227
O O5 0.641943 0.290788 0.268025
O O6 0.354011 0.357246 0.260906
O O7 0.053557 0.500000 0.862560
O O8 0.000000 0.620941 0.000000
O O9 0.482489 0.112183 0.680098
O O10 0.654150 0.000000 0.407215
O O11 0.305947 0.000000 0.439136
#
# Coordination Sequence:
#
# PCOD9213009 Si02
#       6
#     4   8   8   8   4   4
#     4  11  22  41  56  82 118 167 218 247 302 362
#     4  10  23  41  62  96 126 166 202 265 309 376
#     4  10  22  43  71  97 127 164 203 255 321 391
#     4  11  23  38  60  85 124 166 207 259 306 355
#     4  11  22  34  54  82 111 156 204 260 311 354
#     4  10  22  36  56  78 108 156 216 268 296 354
#
# _framework density 23.687090999999999
#
# number of rings (size 3 to 8) (size 9 to 14) (size 15 to 20)
#    0.000    1.556    0.000    4.667    3.111    2.667 
#   16.000    0.000    0.000    6.667    0.000    0.000 
#    0.000    0.000    0.000    0.000    0.000    0.000 
#
# Total GULP energy -100265.398719 kJ/mol
# GULP energy per Si atom -5570.299929 kJ/mol
# Density = 2.363318 g / cm^3
# Si number density = 23.687091 Si / 1000 Ang^3
#
#
#
# Elastic Constant Matrix: (Units=GPa)
#
#
# Indices 1 2 3 4 5 6 
#
# 1 72.0164 20.9949 35.8028 0.0000 -28.1606 0.0000
# 2 20.9949 107.3017 44.5894 0.0000 -13.7926 0.0000
# 3 35.8028 44.5894 122.6506 0.0000 -43.1169 0.0000
# 4 0.0000 0.0000 0.0000 14.5444 0.0000 1.6697
# 5 -28.1606 -13.7926 -43.1169 0.0000 52.5148 0.0000
# 6 0.0000 0.0000 0.0000 1.6697 0.0000 34.5764
#
#
#
# Elastic Compliance Matrix: (Units=1/GPa)
#
#
# Indices 1 2 3 4 5 6 
#
# 1 0.018441 -0.001776 -0.002003 0.000000 0.007777 0.000000
# 2 -0.001776 0.011160 -0.003997 0.000000 -0.001303 0.000000
# 3 -0.002003 -0.003997 0.013276 0.000000 0.008777 0.000000
# 4 0.000000 0.000000 0.000000 0.069138 0.000000 -0.003339
# 5 0.007777 -0.001303 0.008777 0.000000 0.030077 0.000000
# 6 0.000000 0.000000 0.000000 -0.003339 0.000000 0.029083
#
#
# Mechanical properties :
#
#
# Convention : Reuss Voigt Hill
#
# Bulk Modulus (GPa) = 36.59628 56.08255 46.33941
# Shear Modulus (GPa) = 25.53163 33.69923 29.61543
#
# Velocity S-wave (km/s) = 3.28666 3.77594 3.53976
# Velocity P-wave (km/s) = 5.46683 6.53744 6.02596
#
# Compressibility (1/GPa) = 0.02732518
#
# Stress axis : x y z
#
# Youngs Moduli (GPa) = 54.22826 89.60187 75.32161
#
# Poissons Ratio (x) = 0.15913 0.15089
# Poissons Ratio (y) = 0.09631 0.30106
# Poissons Ratio (z) = 0.10863 0.35813
#
# Static dielectric constant tensor:
#      x y z
#    x 1.961810 0.000000 0.002400 
#    y 0.000000 2.067260 0.000000 
#    z 0.002400 0.000000 1.906740 
# 
# From -- ./inp_files/254570.got.cif
#   From: 2010.05.17/outbox.cif.g08.bks.cpg/sg12_128_cif.got.tgz:254570.got - 2010.06.03 13:09:07.
