data_PCOD9213251
_publ_section_title
;
Structure prediction by ZEFSAII (Michael W. Deem and Ramdas Pophale) SiO2 
 PCOD9213251
Probable space group: C 2/M
;
_chemical_formula_sum "Si O2"
_cell_formula_units_Z 58
_cell_length_a 21.377709
_cell_length_b 9.650826
_cell_length_c 16.985080
_cell_angle_alpha 90.000000
_cell_angle_beta 59.595492
_cell_angle_gamma 90.000000
_cell_volume 3022.311200
_symmetry_space_group_name_H-M "C 2/M"
_symmetry_group_IT_number 12
_symmetry_cell_setting 'monoclinic'
loop_
_space_group_symop_operation_xyz
x,y,z
-x,y,-z
-x,-y,-z
x,-y,z
1/2+x,1/2+y,z
1/2-x,1/2+y,-z
1/2-x,1/2-y,-z
1/2+x,1/2-y,z
loop_
_atom_site_type_symbol
_atom_site_label
_atom_site_fract_x
_atom_site_fract_y
_atom_site_fract_z
Si Si1 0.628559 0.833549 0.102467
Si Si2 0.467119 0.836745 0.275444
Si Si3 0.702207 0.657695 0.188108
Si Si4 0.554022 0.832871 0.533736
Si Si5 0.690257 0.162862 0.346159
Si Si6 0.139902 0.153884 0.757226
Si Si7 0.000000 0.500000 0.000000
Si Si8 0.130942 0.717370 0.923397
O O1 0.548305 0.824196 0.190441
O O2 0.682017 0.754626 0.127188
O O3 0.644435 0.000000 0.081877
O O4 0.628220 0.757983 0.018514
O O5 0.462039 0.782488 0.368195
O O6 0.410862 0.760864 0.254919
O O7 0.449517 0.000000 0.286711
O O8 0.675074 0.500000 0.197473
O O9 0.673372 0.737644 0.283571
O O10 0.789238 0.653029 0.140191
O O11 0.500000 0.780888 0.500000
O O12 0.635564 0.807280 0.452038
O O13 0.544035 0.000000 0.543266
O O14 0.774813 0.179863 0.312788
O O15 0.679719 0.000000 0.329916
O O16 0.128557 0.165084 0.858586
O O17 0.121946 0.000000 0.741422
O O18 0.063359 0.618266 0.950581
#
# Coordination Sequence:
#
# PCOD9213251 Si02
#       8
#     8   8   8   8   8   8   2   8
#     4  11  22  38  59  87 117 157 199 243 307 351
#     4  10  22  37  61  90 114 153 203 248 290 349
#     4  11  22  37  56  90 122 151 197 247 299 354
#     4   9  17  34  60  88 113 145 198 248 290 351
#     4   9  19  37  60  83 116 162 197 242 303 352
#     4  10  23  39  57  85 124 156 195 246 302 358
#     4  12  20  40  62  84 108 148 202 250 276 344
#     4  11  23  37  62  84 115 159 201 242 293 349
#
# _framework density 19.190612000000002
#
# number of rings (size 3 to 8) (size 9 to 14) (size 15 to 20)
#    0.000    1.793    1.379    2.483    2.897    4.966 
#    0.000    3.103    0.000    1.655    0.000    0.000 
#    0.000    0.000    0.000    0.000    0.000    0.000 
#
# Total GULP energy -161497.984501 kJ/mol
# GULP energy per Si atom -5568.896017 kJ/mol
# Density = 1.914693 g / cm^3
# Si number density = 19.190612 Si / 1000 Ang^3
#
#
#
# Elastic Constant Matrix: (Units=GPa)
#
#
# Indices 1 2 3 4 5 6 
#
# 1 66.8002 44.1595 24.2423 0.0000 4.2380 0.0000
# 2 44.1595 48.6329 24.2104 0.0000 0.1135 0.0000
# 3 24.2423 24.2104 87.6095 0.0000 17.6501 0.0000
# 4 0.0000 0.0000 0.0000 40.4565 0.0000 -15.5000
# 5 4.2380 0.1135 17.6501 0.0000 29.2328 0.0000
# 6 0.0000 0.0000 0.0000 -15.5000 0.0000 10.9967
#
#
#
# Elastic Compliance Matrix: (Units=1/GPa)
#
#
# Indices 1 2 3 4 5 6 
#
# 1 0.038289 -0.034822 0.000135 0.000000 -0.005498 0.000000
# 2 -0.034822 0.056024 -0.007764 0.000000 0.009519 0.000000
# 3 0.000135 -0.007764 0.015393 0.000000 -0.009283 0.000000
# 4 0.000000 0.000000 0.000000 0.053737 0.000000 0.075743
# 5 -0.005498 0.009519 -0.009283 0.000000 0.040573 0.000000
# 6 0.000000 0.000000 0.000000 0.075743 0.000000 0.197697
#
#
# Mechanical properties :
#
#
# Convention : Reuss Voigt Hill
#
# Bulk Modulus (GPa) = 40.31473 43.14074 41.72774
# Shear Modulus (GPa) = 10.10341 23.49926 16.80133
#
# Velocity S-wave (km/s) = 2.29700 3.50311 2.96209
# Velocity P-wave (km/s) = 5.29982 6.23629 5.78703
#
# Compressibility (1/GPa) = 0.02480483
#
# Stress axis : x y z
#
# Youngs Moduli (GPa) = 26.11696 17.84950 64.96641
#
# Poissons Ratio (x) = 0.62155 -0.00880
# Poissons Ratio (y) = 0.90944 0.50440
# Poissons Ratio (z) = -0.00354 0.13858
#
# Static dielectric constant tensor:
#      x y z
#    x 1.661600 0.000000 0.013320 
#    y 0.000000 1.649910 0.000000 
#    z 0.013320 0.000000 1.681950 
# 
# From -- ./inp_files/282125.got.cif
#   From: 2010.05.17/outbox.cif.g08.bks.cpg/sg12_142_cif.got.tgz:282125.got - 2010.06.03 13:09:07.
