data_PCOD9213077
_publ_section_title
;
Structure prediction by ZEFSAII (Michael W. Deem and Ramdas Pophale) SiO2 
 PCOD9213077
Probable space group: C 2/M
;
_chemical_formula_sum "Si O2"
_cell_formula_units_Z 56
_cell_length_a 22.841421
_cell_length_b 23.899840
_cell_length_c 5.140074
_cell_angle_alpha 90.000000
_cell_angle_beta 111.527622
_cell_angle_gamma 90.000000
_cell_volume 2610.254504
_symmetry_space_group_name_H-M "C 2/M"
_symmetry_group_IT_number 12
_symmetry_cell_setting 'monoclinic'
loop_
_space_group_symop_operation_xyz
x,y,z
-x,y,-z
-x,-y,-z
x,-y,z
1/2+x,1/2+y,z
1/2-x,1/2+y,-z
1/2-x,1/2-y,-z
1/2+x,1/2-y,z
loop_
_atom_site_type_symbol
_atom_site_label
_atom_site_fract_x
_atom_site_fract_y
_atom_site_fract_z
Si Si1 0.336488 0.601068 0.250560
Si Si2 0.042863 0.292802 0.325826
Si Si3 0.167481 0.365351 0.469294
Si Si4 0.458695 0.402117 0.172946
Si Si5 0.800243 0.436443 0.970126
Si Si6 0.604476 0.313982 0.256932
Si Si7 0.722003 0.705433 0.154202
O O1 0.391239 0.574063 0.161331
O O2 0.275418 0.564205 0.204568
O O3 0.368701 0.631271 0.550672
O O4 0.305678 0.653571 0.052312
O O5 0.101886 0.334408 0.408034
O O6 0.069049 0.229250 0.382529
O O7 0.000000 0.305718 0.500000
O O8 0.000000 0.296472 0.000000
O O9 0.170089 0.396946 0.200654
O O10 0.223630 0.319856 0.577095
O O11 0.183435 0.409402 0.724718
O O12 0.500000 0.400592 0.500000
O O13 0.500000 0.426894 0.000000
O O14 0.439238 0.340518 0.036967
O O15 0.822680 0.500000 0.991542
O O16 0.661422 0.278825 0.224390
O O17 0.750000 0.750000 0.000000
#
# Coordination Sequence:
#
# PCOD9213077 Si02
#       7
#     8   8   8   8   8   8   8
#     4  10  22  37  60  94 129 165 214 277 323 380
#     4  12  29  41  62  94 140 185 218 255 306 394
#     4  11  24  46  67  97 136 170 216 274 341 389
#     4  11  22  36  56  84 128 182 222 251 290 368
#     4  11  24  46  76 101 122 159 221 292 358 395
#     4  11  23  37  60  93 136 180 221 256 306 385
#     4  10  22  36  61  94 134 177 209 260 327 399
#
# _framework density 21.453847
#
# number of rings (size 3 to 8) (size 9 to 14) (size 15 to 20)
#    0.000    1.143    2.857    2.571   12.000    1.143 
#    0.000    0.000    0.000    9.429    0.000    0.000 
#    0.000    0.000    0.000    0.000    0.000    0.000 
#
# Total GULP energy -156530.610438 kJ/mol
# GULP energy per Si atom -5590.378944 kJ/mol
# Density = 2.140502 g / cm^3
# Si number density = 21.453847 Si / 1000 Ang^3
#
#
#
# Elastic Constant Matrix: (Units=GPa)
#
#
# Indices 1 2 3 4 5 6 
#
# 1 124.8497 0.0007 5.3508 0.0000 -5.1098 0.0000
# 2 0.0007 40.8168 -4.1854 0.0000 5.9159 0.0000
# 3 5.3508 -4.1854 78.8478 0.0000 -2.9083 0.0000
# 4 0.0000 0.0000 0.0000 9.7609 0.0000 0.3819
# 5 -5.1098 5.9159 -2.9083 0.0000 35.1878 0.0000
# 6 0.0000 0.0000 0.0000 0.3819 0.0000 4.2063
#
#
#
# Elastic Compliance Matrix: (Units=1/GPa)
#
#
# Indices 1 2 3 4 5 6 
#
# 1 0.008080 -0.000222 -0.000517 0.000000 0.001168 0.000000
# 2 -0.000222 0.025228 0.001200 0.000000 -0.004175 0.000000
# 3 -0.000517 0.001200 0.012810 0.000000 0.000782 0.000000
# 4 0.000000 0.000000 0.000000 0.102814 0.000000 -0.009334
# 5 0.001168 -0.004175 0.000782 0.000000 0.029355 0.000000
# 6 0.000000 0.000000 0.000000 -0.009334 0.000000 0.238586
#
#
# Mechanical properties :
#
#
# Convention : Reuss Voigt Hill
#
# Bulk Modulus (GPa) = 21.25882 27.42741 24.34312
# Shear Modulus (GPa) = 11.58397 26.05423 18.81910
#
# Velocity S-wave (km/s) = 2.32620 3.48865 2.96495
# Velocity P-wave (km/s) = 4.14072 5.38885 4.80548
#
# Compressibility (1/GPa) = 0.04703929
#
# Stress axis : x y z
#
# Youngs Moduli (GPa) = 123.76867 39.63876 78.06217
#
# Poissons Ratio (x) = 0.00882 0.04036
# Poissons Ratio (y) = 0.02753 -0.09369
# Poissons Ratio (z) = 0.06399 -0.04758
#
# Static dielectric constant tensor:
#      x y z
#    x 1.821690 0.000000 -0.002150 
#    y 0.000000 1.751850 0.000000 
#    z -0.002150 0.000000 1.810540 
# 
# From -- ./inp_files/26126.got.cif
#   From: 2010.05.17/outbox.cif.g08.bks.cpg/sg12_14_cif.got.tgz:26126.got - 2010.06.03 13:09:07.
