data_PCOD9213117
_publ_section_title
;
Structure prediction by ZEFSAII (Michael W. Deem and Ramdas Pophale) SiO2 
 PCOD9213117
Probable space group: C 2/M
;
_chemical_formula_sum "Si O2"
_cell_formula_units_Z 64
_cell_length_a 10.181961
_cell_length_b 19.495878
_cell_length_c 20.536553
_cell_angle_alpha 90.000000
_cell_angle_beta 123.834998
_cell_angle_gamma 90.000000
_cell_volume 3386.234095
_symmetry_space_group_name_H-M "C 2/M"
_symmetry_group_IT_number 12
_symmetry_cell_setting 'monoclinic'
loop_
_space_group_symop_operation_xyz
x,y,z
-x,y,-z
-x,-y,-z
x,-y,z
1/2+x,1/2+y,z
1/2-x,1/2+y,-z
1/2-x,1/2-y,-z
1/2+x,1/2-y,z
loop_
_atom_site_type_symbol
_atom_site_label
_atom_site_fract_x
_atom_site_fract_y
_atom_site_fract_z
Si Si1 0.038985 0.717869 0.584470
Si Si2 0.111371 0.083021 0.092123
Si Si3 0.148349 0.714786 0.351093
Si Si4 0.446022 0.871598 0.216971
Si Si5 0.153302 0.921374 0.587348
Si Si6 0.988885 0.082097 0.793016
Si Si7 0.872405 0.576518 0.338367
Si Si8 0.273466 0.419476 0.247752
O O1 0.213689 0.745510 0.646546
O O2 0.045505 0.636626 0.598843
O O3 0.000000 0.734887 0.500000
O O4 0.913539 0.748726 0.600092
O O5 0.281298 0.120060 0.134828
O O6 0.029013 0.105501 0.137264
O O7 0.138773 0.000000 0.103126
O O8 0.000000 0.096227 0.000000
O O9 0.226901 0.641069 0.391698
O O10 0.997392 0.700154 0.264041
O O11 0.421119 0.918044 0.275331
O O12 0.600049 0.890950 0.217429
O O13 0.124941 0.914764 0.657259
O O14 0.000000 0.913446 0.500000
O O15 0.213397 0.000000 0.593680
O O16 0.816130 0.090048 0.713209
O O17 0.127163 0.110530 0.784960
O O18 0.014523 0.000000 0.803958
O O19 0.904648 0.500000 0.370890
O O20 0.249166 0.500000 0.228870
#
# Coordination Sequence:
#
# PCOD9213117 Si02
#       8
#     8   8   8   8   8   8   8   8
#     4  11  23  36  52  72 101 139 176 222 268 309
#     4   9  16  28  48  74 105 137 165 201 256 318
#     4  10  22  37  53  73 100 137 177 218 263 312
#     4   9  17  31  51  71  95 132 170 207 248 305
#     4   9  18  32  51  75 103 137 178 222 267 312
#     4   8  15  27  43  68 100 130 165 207 251 303
#     4   9  18  33  51  72  99 132 171 214 261 311
#     4   9  15  24  42  67  95 129 166 208 252 293
#
# _framework density 18.900051999999999
#
# number of rings (size 3 to 8) (size 9 to 14) (size 15 to 20)
#    0.000    2.750    0.000    2.625    0.000    6.750 
#    0.000    1.875    0.000    3.000    0.000    7.875 
#    0.000    0.000    0.000    0.875    0.000    0.125 
#
# Total GULP energy -178220.368771 kJ/mol
# GULP energy per Si atom -5569.386524 kJ/mol
# Density = 1.885703 g / cm^3
# Si number density = 18.900052 Si / 1000 Ang^3
#
#
#
# Elastic Constant Matrix: (Units=GPa)
#
#
# Indices 1 2 3 4 5 6 
#
# 1 140.6598 4.9928 27.1305 0.0000 -3.7761 0.0000
# 2 4.9928 40.4710 -1.7161 0.0000 5.9493 0.0000
# 3 27.1305 -1.7161 74.5762 0.0000 12.5369 0.0000
# 4 0.0000 0.0000 0.0000 9.2833 0.0000 8.2257
# 5 -3.7761 5.9493 12.5369 0.0000 20.2205 0.0000
# 6 0.0000 0.0000 0.0000 8.2257 0.0000 19.7376
#
#
#
# Elastic Compliance Matrix: (Units=1/GPa)
#
#
# Indices 1 2 3 4 5 6 
#
# 1 0.007995 -0.001773 -0.003671 0.000000 0.004291 0.000000
# 2 -0.001773 0.026514 0.002927 0.000000 -0.009947 0.000000
# 3 -0.003671 0.002927 0.016826 0.000000 -0.011979 0.000000
# 4 0.000000 0.000000 0.000000 0.170788 0.000000 -0.071176
# 5 0.004291 -0.009947 -0.011979 0.000000 0.060610 0.000000
# 6 0.000000 0.000000 0.000000 -0.071176 0.000000 0.080328
#
#
# Mechanical properties :
#
#
# Convention : Reuss Voigt Hill
#
# Bulk Modulus (GPa) = 21.59711 35.16904 28.38307
# Shear Modulus (GPa) = 13.03689 24.86825 18.95257
#
# Velocity S-wave (km/s) = 2.62922 3.63130 3.17010
# Velocity P-wave (km/s) = 4.54630 6.01914 5.33380
#
# Compressibility (1/GPa) = 0.04630249
#
# Stress axis : x y z
#
# Youngs Moduli (GPa) = 125.07057 37.71577 59.43318
#
# Poissons Ratio (x) = 0.06686 0.21817
# Poissons Ratio (y) = 0.22172 -0.17397
# Poissons Ratio (z) = 0.45911 -0.11040
#
# Static dielectric constant tensor:
#      x y z
#    x 1.706230 0.000000 -0.006550 
#    y 0.000000 1.691390 0.000000 
#    z -0.006550 0.000000 1.652020 
# 
# From -- ./inp_files/302144.got.cif
#   From: 2010.05.17/outbox.cif.g08.bks.cpg/sg12_152_cif.got.tgz:302144.got - 2010.06.03 13:09:07.
