data_PCOD9213657
_publ_section_title
;
Structure prediction by ZEFSAII (Michael W. Deem and Ramdas Pophale) SiO2 
 PCOD9213657
Probable space group: C 2/M
;
_chemical_formula_sum "Si O2"
_cell_formula_units_Z 52
_cell_length_a 12.199883
_cell_length_b 19.921972
_cell_length_c 14.313162
_cell_angle_alpha 90.000000
_cell_angle_beta 50.070147
_cell_angle_gamma 90.000000
_cell_volume 2667.614956
_symmetry_space_group_name_H-M "C 2/M"
_symmetry_group_IT_number 12
_symmetry_cell_setting 'monoclinic'
loop_
_space_group_symop_operation_xyz
x,y,z
-x,y,-z
-x,-y,-z
x,-y,z
1/2+x,1/2+y,z
1/2-x,1/2+y,-z
1/2-x,1/2-y,-z
1/2+x,1/2-y,z
loop_
_atom_site_type_symbol
_atom_site_label
_atom_site_fract_x
_atom_site_fract_y
_atom_site_fract_z
Si Si1 0.944556 0.618333 0.178263
Si Si2 0.291938 0.924164 0.089443
Si Si3 0.748050 0.000000 0.209105
Si Si4 0.134422 0.734999 0.147514
Si Si5 0.583360 0.000000 0.662809
Si Si6 0.339069 0.500000 0.378220
Si Si7 0.147089 0.856212 0.869233
Si Si8 0.497436 0.372400 0.242493
O O1 0.827806 0.621776 0.159554
O O2 0.899409 0.566940 0.283548
O O3 0.005366 0.689204 0.178986
O O4 0.081939 0.584932 0.052696
O O5 0.141217 0.908087 0.125539
O O6 0.292148 0.000000 0.124618
O O7 0.577604 0.000000 0.289617
O O8 0.793928 0.000000 0.293287
O O9 0.811467 0.932689 0.129658
O O10 0.225576 0.691545 0.169987
O O11 0.063467 0.800424 0.233102
O O12 0.250000 0.750000 0.000000
O O13 0.700615 0.000000 0.518065
O O14 0.428744 0.430742 0.343965
O O15 0.114022 0.855833 0.777734
O O16 0.000000 0.836047 0.000000
#
# Coordination Sequence:
#
# PCOD9213657 Si02
#       8
#     8   8   4   8   4   4   8   8
#     4  11  22  35  60  97 124 162 201 256 304 385
#     4  11  20  37  61  93 132 158 200 250 328 369
#     4  10  22  38  63  91 125 163 211 262 305 355
#     4  12  23  36  58  94 131 165 195 246 315 390
#     4  12  21  42  66  91 120 161 229 256 306 355
#     4  10  25  45  63  87 117 171 217 274 301 351
#     4  11  21  35  59  97 128 162 196 245 312 382
#     4  11  24  39  60  88 129 163 203 251 317 369
#
# _framework density 19.493068000000001
#
# number of rings (size 3 to 8) (size 9 to 14) (size 15 to 20)
#    0.000    0.923    6.923    0.923    2.154    0.000 
#    0.000    2.308    0.000    0.000    4.000    0.000 
#    0.000    0.000    0.000    0.000    0.000    0.000 
#
# Total GULP energy -145081.489914 kJ/mol
# GULP energy per Si atom -5580.057304 kJ/mol
# Density = 1.944870 g / cm^3
# Si number density = 19.493068 Si / 1000 Ang^3
#
#
#
# Elastic Constant Matrix: (Units=GPa)
#
#
# Indices 1 2 3 4 5 6 
#
# 1 79.9921 44.5716 13.3599 0.0000 -6.4007 0.0000
# 2 44.5716 122.6784 16.7934 0.0000 -6.6575 0.0000
# 3 13.3599 16.7934 35.5721 0.0001 -0.2381 0.0000
# 4 0.0000 0.0000 0.0001 6.4880 0.0000 -9.6956
# 5 -6.4007 -6.6575 -0.2381 0.0000 11.9245 0.0000
# 6 0.0000 0.0000 0.0000 -9.6956 0.0000 17.9285
#
#
#
# Elastic Compliance Matrix: (Units=1/GPa)
#
#
# Indices 1 2 3 4 5 6 
#
# 1 0.016464 -0.005154 -0.003711 0.000000 0.005886 0.000000
# 2 -0.005154 0.010610 -0.003052 0.000000 0.003096 0.000000
# 3 -0.003711 -0.003052 0.030926 -0.000001 -0.003078 0.000000
# 4 0.000000 0.000000 -0.000001 0.803440 0.000001 0.434495
# 5 0.005886 0.003096 -0.003078 0.000001 0.088688 0.000000
# 6 0.000000 0.000000 0.000000 0.434495 0.000000 0.290749
#
#
# Mechanical properties :
#
#
# Convention : Reuss Voigt Hill
#
# Bulk Modulus (GPa) = 29.26967 43.07694 36.17330
# Shear Modulus (GPa) = 3.91819 18.16936 11.04378
#
# Velocity S-wave (km/s) = 1.41930 3.05633 2.38281
# Velocity P-wave (km/s) = 4.21116 5.88230 5.11544
#
# Compressibility (1/GPa) = 0.03416506
#
# Stress axis : x y z
#
# Youngs Moduli (GPa) = 60.73895 94.25139 32.33538
#
# Poissons Ratio (x) = 0.48580 0.11999
# Poissons Ratio (y) = 0.31307 0.09870
# Poissons Ratio (z) = 0.22538 0.28769
#
# Static dielectric constant tensor:
#      x y z
#    x 1.728040 0.000000 0.016470 
#    y 0.000000 1.753230 0.000000 
#    z 0.016470 0.000000 1.625760 
# 
# From -- ./inp_files/207624.got.cif
#   From: 2010.05.17/outbox.cif.g08.bks.cpg/sg12_104_cif.got.tgz:207624.got - 2010.06.03 13:09:07.
