data_PCOD9213018
_publ_section_title
;
Structure prediction by ZEFSAII (Michael W. Deem and Ramdas Pophale) SiO2 
 PCOD9213018
Probable space group: C 2/M
;
_chemical_formula_sum "Si O2"
_cell_formula_units_Z 56
_cell_length_a 10.066680
_cell_length_b 28.021718
_cell_length_c 18.545387
_cell_angle_alpha 90.000000
_cell_angle_beta 35.930603
_cell_angle_gamma 90.000000
_cell_volume 3069.804227
_symmetry_space_group_name_H-M "C 2/M"
_symmetry_group_IT_number 12
_symmetry_cell_setting 'monoclinic'
loop_
_space_group_symop_operation_xyz
x,y,z
-x,y,-z
-x,-y,-z
x,-y,z
1/2+x,1/2+y,z
1/2-x,1/2+y,-z
1/2-x,1/2-y,-z
1/2+x,1/2-y,z
loop_
_atom_site_type_symbol
_atom_site_label
_atom_site_fract_x
_atom_site_fract_y
_atom_site_fract_z
Si Si1 0.547586 0.898158 0.137662
Si Si2 0.677434 0.297333 0.489161
Si Si3 0.951556 0.122839 0.687783
Si Si4 0.634949 0.943025 0.516353
Si Si5 0.913857 0.366682 0.720950
Si Si6 0.471856 0.394655 0.845095
Si Si7 0.866751 0.500000 0.857077
Si Si8 0.075655 0.000000 0.846711
O O1 0.305753 0.877909 0.224392
O O2 0.632521 0.877316 0.175524
O O3 0.504969 0.953324 0.175352
O O4 0.740043 0.893225 0.992545
O O5 0.500000 0.290712 0.500000
O O6 0.750000 0.250000 0.500000
O O7 0.568073 0.333282 0.595669
O O8 0.907313 0.323852 0.362622
O O9 0.943136 0.123481 0.777412
O O10 0.108686 0.076675 0.601735
O O11 0.500000 0.932638 0.500000
O O12 0.527138 0.911274 0.627822
O O13 0.624818 0.000000 0.531830
O O14 0.668611 0.362486 0.793018
O O15 0.555620 0.450576 0.811557
O O16 0.785743 0.500000 0.809882
O O17 0.638702 0.500000 0.005398
#
# Coordination Sequence:
#
# PCOD9213018 Si02
#       8
#     8   8   8   8   8   8   4   4
#     4  11  22  38  58  91 133 170 210 258 302 361
#     4  11  26  47  72  95 119 153 205 265 319 384
#     4  11  24  41  61  93 125 158 209 258 320 373
#     4  10  22  36  56  85 122 170 215 262 303 352
#     4  11  22  39  63  92 122 162 213 250 311 372
#     4  11  22  36  63  90 129 178 211 250 301 367
#     4   9  18  31  51  82 123 178 216 247 280 333
#     4   9  18  31  51  84 121 174 228 239 268 347
#
# _framework density 18.242204000000001
#
# number of rings (size 3 to 8) (size 9 to 14) (size 15 to 20)
#    0.000    1.429    4.286    0.857    6.000    0.000 
#    0.000    2.857    0.000    5.143    0.000    0.000 
#    0.000    0.000    0.000    0.000    0.000    0.000 
#
# Total GULP energy -156198.956617 kJ/mol
# GULP energy per Si atom -5578.534165 kJ/mol
# Density = 1.820068 g / cm^3
# Si number density = 18.242204 Si / 1000 Ang^3
#
#
#
# Elastic Constant Matrix: (Units=GPa)
#
#
# Indices 1 2 3 4 5 6 
#
# 1 -32.5113 8.8422 -35.6397 0.0000 56.1672 0.0001
# 2 8.8422 80.9800 11.3320 0.0000 7.8139 0.0000
# 3 -35.6397 11.3320 55.6768 0.0000 22.3275 0.0000
# 4 0.0000 0.0000 0.0000 13.4215 0.0000 -4.8925
# 5 56.1672 7.8139 22.3275 0.0000 20.6012 -0.0001
# 6 0.0001 0.0000 0.0000 -4.8925 -0.0001 18.8180
#
#
#
# Elastic Compliance Matrix: (Units=1/GPa)
#
#
# Indices 1 2 3 4 5 6 
#
# 1 -0.002076 -0.000098 -0.006356 0.000000 0.012585 0.000000
# 2 -0.000098 0.012856 -0.001471 0.000000 -0.003014 0.000000
# 3 -0.006356 -0.001471 0.012415 0.000000 0.004430 0.000000
# 4 0.000000 0.000000 0.000000 0.082308 0.000000 0.021399
# 5 0.012585 -0.003014 0.004430 0.000000 0.010570 0.000000
# 6 0.000000 0.000000 0.000000 0.021399 0.000000 0.058704
#
#
# Mechanical properties :
#
#
# Convention : Reuss Voigt Hill
#
# Bulk Modulus (GPa) = 136.13176 8.13495 72.13336
# Shear Modulus (GPa) = 25.89651 18.54221 22.21936
#
# Velocity S-wave (km/s) = 3.77184 3.19163 3.49380
# Velocity P-wave (km/s) = 9.68275 4.24866 7.47686
#
# Compressibility (1/GPa) = 0.00734582
#
# Stress axis : x y z
#
# Youngs Moduli (GPa) = -481.73498 77.78399 80.54698
#
# Poissons Ratio (x) = 0.00765 0.51193
# Poissons Ratio (y) = -0.04736 0.11847
# Poissons Ratio (z) = -3.06173 0.11441
#
# Static dielectric constant tensor:
#      x y z
#    x 1.627560 0.000000 0.001430 
#    y 0.000000 1.637070 0.000000 
#    z 0.001430 0.000000 1.632030 
# 
# From -- ./inp_files/259844.got.cif
#   From: 2010.05.17/outbox.cif.g08.bks.cpg/sg12_130_cif.got.tgz:259844.got - 2010.06.03 13:09:07.
