data_PCOD9213573
_publ_section_title
;
Structure prediction by ZEFSAII (Michael W. Deem and Ramdas Pophale) SiO2 
 PCOD9213573
Probable space group: C 2/M
;
_chemical_formula_sum "Si O2"
_cell_formula_units_Z 32
_cell_length_a 8.968381
_cell_length_b 15.933991
_cell_length_c 12.410448
_cell_angle_alpha 90.000000
_cell_angle_beta 124.086158
_cell_angle_gamma 90.000000
_cell_volume 1468.787867
_symmetry_space_group_name_H-M "C 2/M"
_symmetry_group_IT_number 12
_symmetry_cell_setting 'monoclinic'
loop_
_space_group_symop_operation_xyz
x,y,z
-x,y,-z
-x,-y,-z
x,-y,z
1/2+x,1/2+y,z
1/2-x,1/2+y,-z
1/2-x,1/2-y,-z
1/2+x,1/2-y,z
loop_
_atom_site_type_symbol
_atom_site_label
_atom_site_fract_x
_atom_site_fract_y
_atom_site_fract_z
Si Si1 0.686941 0.500000 0.150757
Si Si2 0.682006 0.000000 0.010187
Si Si3 0.779202 0.816566 0.109570
Si Si4 0.866578 0.274764 0.722421
Si Si5 0.906789 0.636193 0.359125
O O1 0.741734 0.582124 0.241537
O O2 0.500000 0.500000 0.000000
O O3 0.845366 0.500000 0.126929
O O4 0.777349 0.087521 0.073873
O O5 0.500000 0.000000 0.000000
O O6 0.646203 0.805273 0.157878
O O7 0.976641 0.793008 0.227492
O O8 0.750000 0.750000 0.000000
O O9 0.682630 0.223268 0.633556
O O10 0.939491 0.344557 0.668808
O O11 0.000000 0.595438 0.500000
#
# Coordination Sequence:
#
# PCOD9213573 Si02
#       5
#     4   4   8   8   8
#     4  12  25  41  62  93 126 161 209 264 319 379
#     4  12  22  35  58  87 122 163 202 252 318 381
#     4  11  21  37  58  90 129 165 205 261 319 378
#     4  10  22  38  61  88 122 164 209 257 312 379
#     4  11  23  42  64  90 124 167 211 259 316 381
#
# _framework density 21.786670999999998
#
# number of rings (size 3 to 8) (size 9 to 14) (size 15 to 20)
#    0.000    1.000    0.000    9.375    0.000    0.000 
#    0.000    0.000    0.000    0.000    0.000   19.250 
#    0.000    0.000    0.000    0.000    0.000    0.000 
#
# Total GULP energy -89129.000502 kJ/mol
# GULP energy per Si atom -5570.562531 kJ/mol
# Density = 2.173708 g / cm^3
# Si number density = 21.786671 Si / 1000 Ang^3
#
#
#
# Elastic Constant Matrix: (Units=GPa)
#
#
# Indices 1 2 3 4 5 6 
#
# 1 142.1680 34.4901 51.1952 0.0000 -27.3262 0.0000
# 2 34.4901 133.3112 52.5493 0.0000 -13.4403 0.0000
# 3 51.1952 52.5493 119.6861 0.0000 -4.3051 0.0000
# 4 0.0000 0.0000 0.0000 11.4210 0.0000 6.8910
# 5 -27.3262 -13.4403 -4.3051 0.0000 31.9332 0.0000
# 6 0.0000 0.0000 0.0000 6.8910 0.0000 15.4967
#
#
#
# Elastic Compliance Matrix: (Units=1/GPa)
#
#
# Indices 1 2 3 4 5 6 
#
# 1 0.010024 -0.000260 -0.003888 0.000000 0.007944 0.000000
# 2 -0.000260 0.009437 -0.003916 0.000000 0.003222 0.000000
# 3 -0.003888 -0.003916 0.011615 0.000000 -0.003409 0.000000
# 4 0.000000 0.000000 0.000000 0.119664 0.000000 -0.053212
# 5 0.007944 0.003222 -0.003409 0.000000 0.039010 0.000000
# 6 0.000000 0.000000 0.000000 -0.053212 0.000000 0.088192
#
#
# Mechanical properties :
#
#
# Convention : Reuss Voigt Hill
#
# Bulk Modulus (GPa) = 66.89919 74.62605 70.76262
# Shear Modulus (GPa) = 16.71946 28.89888 22.80917
#
# Velocity S-wave (km/s) = 2.77323 3.64599 3.23914
# Velocity P-wave (km/s) = 6.40528 7.21469 6.82200
#
# Compressibility (1/GPa) = 0.01494786
#
# Stress axis : x y z
#
# Youngs Moduli (GPa) = 99.76063 105.96513 86.09494
#
# Poissons Ratio (x) = 0.02754 0.33472
# Poissons Ratio (y) = 0.02593 0.33718
# Poissons Ratio (z) = 0.38785 0.41500
#
# Static dielectric constant tensor:
#      x y z
#    x 1.852040 0.000000 0.005170 
#    y 0.000000 1.840150 0.000000 
#    z 0.005170 0.000000 1.865060 
# 
# From -- ./inp_files/118446.got.cif
#   From: 2010.05.17/outbox.cif.g08.bks.cpg/sg12_60_cif.got.tgz:118446.got - 2010.06.03 13:09:07.
