data_PCOD9213259
_publ_section_title
;
Structure prediction by ZEFSAII (Michael W. Deem and Ramdas Pophale) SiO2 
 PCOD9213259
Probable space group: C 2/M
;
_chemical_formula_sum "Si O2"
_cell_formula_units_Z 32
_cell_length_a 14.795018
_cell_length_b 23.614374
_cell_length_c 5.115202
_cell_angle_alpha 90.000000
_cell_angle_beta 119.851624
_cell_angle_gamma 90.000000
_cell_volume 1550.003735
_symmetry_space_group_name_H-M "C 2/M"
_symmetry_group_IT_number 12
_symmetry_cell_setting 'monoclinic'
loop_
_space_group_symop_operation_xyz
x,y,z
-x,y,-z
-x,-y,-z
x,-y,z
1/2+x,1/2+y,z
1/2-x,1/2+y,-z
1/2-x,1/2-y,-z
1/2+x,1/2-y,z
loop_
_atom_site_type_symbol
_atom_site_label
_atom_site_fract_x
_atom_site_fract_y
_atom_site_fract_z
Si Si1 0.610133 0.332346 0.775865
Si Si2 0.073748 0.000000 0.355924
Si Si3 0.300294 0.387339 0.572339
Si Si4 0.500000 0.223355 0.500000
Si Si5 0.436945 0.888009 0.654623
O O1 0.500000 0.355913 0.500000
O O2 0.694197 0.346248 0.672660
O O3 0.583316 0.265651 0.751670
O O4 0.640124 0.359023 0.095601
O O5 0.144516 0.055490 0.440548
O O6 0.000000 0.000000 0.500000
O O7 0.000000 0.000000 0.000000
O O8 0.183773 0.401084 0.494974
O O9 0.554041 0.180191 0.377863
O O10 0.500000 0.912643 0.500000
O O11 0.500000 0.904124 0.000000
#
# Coordination Sequence:
#
# PCOD9213259 Si02
#       5
#     8   4   8   4   8
#     4  10  22  37  61  92 126 159 207 254 312 378
#     4  12  26  44  68  96 126 156 204 268 313 380
#     4  12  23  41  66  89 125 171 207 252 329 357
#     4   8  24  38  62  88 138 156 214 254 316 344
#     4  10  23  42  59  91 130 164 214 264 288 374
#
# _framework density 20.645111
#
# number of rings (size 3 to 8) (size 9 to 14) (size 15 to 20)
#    1.500    0.000    0.000    6.000    3.500    2.000 
#    0.000    1.250    0.000    0.000    0.000    0.000 
#    0.000    0.000    0.000    0.000    0.000    0.000 
#
# Total GULP energy -89285.309977 kJ/mol
# GULP energy per Si atom -5580.331874 kJ/mol
# Density = 2.059812 g / cm^3
# Si number density = 20.645111 Si / 1000 Ang^3
#
#
#
# Elastic Constant Matrix: (Units=GPa)
#
#
# Indices 1 2 3 4 5 6 
#
# 1 170.5572 33.4881 45.5262 0.0000 -5.7053 0.0000
# 2 33.4881 30.6337 19.3852 0.0000 -5.8322 0.0000
# 3 45.5262 19.3852 89.9356 0.0000 -20.0264 0.0000
# 4 0.0000 0.0000 0.0000 -352.2073 0.0000 -77.3793
# 5 -5.7053 -5.8322 -20.0264 0.0000 42.4339 0.0000
# 6 0.0000 0.0000 0.0000 -77.3793 0.0000 23.8567
#
#
#
# Elastic Compliance Matrix: (Units=1/GPa)
#
#
# Indices 1 2 3 4 5 6 
#
# 1 0.007972 -0.007204 -0.002754 0.000000 -0.001218 0.000000
# 2 -0.007204 0.044396 -0.005341 0.000000 0.002613 0.000000
# 3 -0.002754 -0.005341 0.014994 0.000000 0.005972 0.000000
# 4 0.000000 0.000000 0.000000 -0.001658 0.000000 -0.005377
# 5 -0.001218 0.002613 0.005972 0.000000 0.026580 0.000000
# 6 0.000000 0.000000 0.000000 -0.005377 0.000000 0.024476
#
#
# Mechanical properties :
#
#
# Convention : Reuss Voigt Hill
#
# Bulk Modulus (GPa) = 27.19996 54.21395 40.70695
# Shear Modulus (GPa) = 31.32591 -44.33487 -6.50448
#
# Velocity S-wave (km/s) = 3.89955 -4.63911 -1.77692
# Velocity P-wave (km/s) = 5.78610 1.54215 3.94339
#
# Compressibility (1/GPa) = 0.03676476
#
# Stress axis : x y z
#
# Youngs Moduli (GPa) = 125.43989 22.52449 66.69280
#
# Poissons Ratio (x) = 0.16227 0.18367
# Poissons Ratio (y) = 0.90366 0.35620
# Poissons Ratio (z) = 0.34545 0.12030
#
# Static dielectric constant tensor:
#      x y z
#    x 1.728000 0.000000 0.016100 
#    y 0.000000 1.776510 0.000000 
#    z 0.016100 0.000000 1.701180 
# 
# From -- ./inp_files/11501.got.cif
#   From: 2010.05.17/outbox.cif.g08.bks.cpg/sg12_6_cif.got.tgz:11501.got - 2010.06.03 13:09:07.
