data_PCOD9213347
_publ_section_title
;
Structure prediction by ZEFSAII (Michael W. Deem and Ramdas Pophale) SiO2 
 PCOD9213347
Probable space group: C 2/M
;
_chemical_formula_sum "Si O2"
_cell_formula_units_Z 40
_cell_length_a 20.057027
_cell_length_b 15.485798
_cell_length_c 6.592644
_cell_angle_alpha 90.000000
_cell_angle_beta 74.823544
_cell_angle_gamma 90.000000
_cell_volume 1976.254890
_symmetry_space_group_name_H-M "C 2/M"
_symmetry_group_IT_number 12
_symmetry_cell_setting 'monoclinic'
loop_
_space_group_symop_operation_xyz
x,y,z
-x,y,-z
-x,-y,-z
x,-y,z
1/2+x,1/2+y,z
1/2-x,1/2+y,-z
1/2-x,1/2-y,-z
1/2+x,1/2-y,z
loop_
_atom_site_type_symbol
_atom_site_label
_atom_site_fract_x
_atom_site_fract_y
_atom_site_fract_z
Si Si1 0.716233 0.094571 0.281451
Si Si2 0.428897 0.149697 0.490442
Si Si3 0.157461 0.241275 0.153226
Si Si4 0.571719 0.706312 0.834362
Si Si5 0.335531 0.400350 0.520719
O O1 0.640890 0.095006 0.448737
O O2 0.710028 0.177761 0.138779
O O3 0.772825 0.107246 0.410202
O O4 0.727556 0.000000 0.175981
O O5 0.500000 0.106280 0.500000
O O6 0.411317 0.220065 0.679964
O O7 0.434917 0.202816 0.278431
O O8 0.178019 0.161241 0.277686
O O9 0.132261 0.216446 0.952244
O O10 0.597648 0.635835 0.651926
O O11 0.500000 0.683942 0.000000
O O12 0.343402 0.500000 0.571824
#
# Coordination Sequence:
#
# PCOD9213347 Si02
#       5
#     8   8   8   8   8
#     4   9  19  38  58  81 113 148 183 225 273 326
#     4   9  18  35  57  82 110 144 178 227 269 328
#     4   9  20  35  58  80 112 145 182 225 276 323
#     4  11  20  35  59  83 110 145 185 225 279 328
#     4  10  22  38  55  81 114 145 189 230 267 326
#
# _framework density 20.240303999999998
#
# number of rings (size 3 to 8) (size 9 to 14) (size 15 to 20)
#    1.200    1.200    2.000    0.600    0.000    2.400 
#    0.000    2.000    0.000    2.400    0.000    0.000 
#    0.000    0.000    0.000    0.000    0.000    0.000 
#
# Total GULP energy -111415.255937 kJ/mol
# GULP energy per Si atom -5570.762797 kJ/mol
# Density = 2.019424 g / cm^3
# Si number density = 20.240304 Si / 1000 Ang^3
#
#
#
# Elastic Constant Matrix: (Units=GPa)
#
#
# Indices 1 2 3 4 5 6 
#
# 1 85.3654 28.6896 15.6457 0.0000 -8.3484 0.0000
# 2 28.6896 143.5015 43.4051 0.0000 13.7034 0.0000
# 3 15.6457 43.4051 72.7062 0.0000 -0.5312 0.0000
# 4 0.0000 0.0000 0.0000 6.4860 0.0000 -2.7700
# 5 -8.3484 13.7034 -0.5312 0.0000 31.1423 0.0000
# 6 0.0000 0.0000 0.0000 -2.7700 0.0000 3.7147
#
#
#
# Elastic Compliance Matrix: (Units=1/GPa)
#
#
# Indices 1 2 3 4 5 6 
#
# 1 0.013326 -0.002761 -0.001184 0.000000 0.004767 0.000000
# 2 -0.002761 0.009559 -0.005149 0.000000 -0.005034 0.000000
# 3 -0.001184 -0.005149 0.017099 0.000000 0.002240 0.000000
# 4 0.000000 0.000000 0.000000 0.226223 0.000000 0.168690
# 5 0.004767 -0.005034 0.002240 0.000000 0.035642 0.000000
# 6 0.000000 0.000000 0.000000 0.168690 0.000000 0.394989
#
#
# Mechanical properties :
#
#
# Convention : Reuss Voigt Hill
#
# Bulk Modulus (GPa) = 45.88342 53.00599 49.44471
# Shear Modulus (GPa) = 6.92242 22.52411 14.72326
#
# Velocity S-wave (km/s) = 1.85136 3.33954 2.70000
# Velocity P-wave (km/s) = 5.22385 6.41211 5.84824
#
# Compressibility (1/GPa) = 0.02179437
#
# Stress axis : x y z
#
# Youngs Moduli (GPa) = 75.04381 104.61601 58.48220
#
# Poissons Ratio (x) = 0.28885 0.06926
# Poissons Ratio (y) = 0.20720 0.30113
# Poissons Ratio (z) = 0.08888 0.53868
#
# Static dielectric constant tensor:
#      x y z
#    x 1.739110 0.000000 -0.039140 
#    y 0.000000 1.720800 0.000000 
#    z -0.039140 0.000000 1.695800 
# 
# From -- ./inp_files/15140.got.cif
#   From: 2010.05.17/outbox.cif.g08.bks.cpg/sg12_8_cif.got.tgz:15140.got - 2010.06.03 13:09:07.
