data_PCOD9213288
_publ_section_title
;
Structure prediction by ZEFSAII (Michael W. Deem and Ramdas Pophale) SiO2 
 PCOD9213288
Probable space group: C 2/M
;
_chemical_formula_sum "Si O2"
_cell_formula_units_Z 56
_cell_length_a 14.505948
_cell_length_b 18.682387
_cell_length_c 11.466121
_cell_angle_alpha 90.000000
_cell_angle_beta 119.105862
_cell_angle_gamma 90.000000
_cell_volume 2714.991669
_symmetry_space_group_name_H-M "C 2/M"
_symmetry_group_IT_number 12
_symmetry_cell_setting 'monoclinic'
loop_
_space_group_symop_operation_xyz
x,y,z
-x,y,-z
-x,-y,-z
x,-y,z
1/2+x,1/2+y,z
1/2-x,1/2+y,-z
1/2-x,1/2-y,-z
1/2+x,1/2-y,z
loop_
_atom_site_type_symbol
_atom_site_label
_atom_site_fract_x
_atom_site_fract_y
_atom_site_fract_z
Si Si1 0.478979 0.348784 0.858365
Si Si2 0.210614 0.747288 0.248730
Si Si3 0.106770 0.662526 0.612837
Si Si4 0.702839 0.127654 0.426829
Si Si5 0.861946 0.715103 0.030777
Si Si6 0.945410 0.916037 0.584954
Si Si7 0.971966 0.419120 0.222679
O O1 0.361511 0.317351 0.791327
O O2 0.555044 0.279621 0.904381
O O3 0.484752 0.386107 0.735113
O O4 0.500000 0.384984 0.000000
O O5 0.325328 0.776027 0.284874
O O6 0.210817 0.704241 0.368062
O O7 0.159185 0.698732 0.118083
O O8 0.171954 0.636337 0.542346
O O9 0.071766 0.598114 0.674230
O O10 0.000000 0.696783 0.500000
O O11 0.818900 0.093928 0.492207
O O12 0.599156 0.090534 0.306304
O O13 0.912466 0.643909 0.116239
O O14 0.750000 0.750000 0.000000
O O15 0.000000 0.886205 0.500000
O O16 0.969105 0.000000 0.603469
O O17 0.946584 0.500000 0.171010
#
# Coordination Sequence:
#
# PCOD9213288 Si02
#       7
#     8   8   8   8   8   8   8
#     4  10  23  44  69  94 132 176 231 286 336 404
#     4  11  21  40  65  98 132 169 227 280 336 402
#     4  10  22  37  63 103 132 167 221 279 343 397
#     4  11  23  41  68  97 135 179 219 279 340 411
#     4  11  23  42  67  98 131 175 224 289 336 397
#     4  11  26  44  65 101 142 183 230 284 345 411
#     4  11  24  44  68 101 138 177 222 279 350 413
#
# _framework density 20.626213
#
# number of rings (size 3 to 8) (size 9 to 14) (size 15 to 20)
#    0.000    1.286    4.286    0.857    2.000    4.000 
#    0.000    2.857    0.000    0.000    0.000    0.000 
#    0.000    0.000    0.000    0.000    0.000    0.000 
#
# Total GULP energy -156086.457883 kJ/mol
# GULP energy per Si atom -5574.516353 kJ/mol
# Density = 2.057927 g / cm^3
# Si number density = 20.626213 Si / 1000 Ang^3
#
#
#
# Elastic Constant Matrix: (Units=GPa)
#
#
# Indices 1 2 3 4 5 6 
#
# 1 113.9734 33.3123 52.0993 0.0000 6.6996 0.0000
# 2 33.3123 80.2702 61.2683 0.0000 0.8911 0.0000
# 3 52.0993 61.2683 127.9081 0.0000 -6.2631 0.0000
# 4 0.0000 0.0000 0.0000 18.7979 0.0000 3.5599
# 5 6.6996 0.8911 -6.2631 0.0000 40.1741 0.0000
# 6 0.0000 0.0000 0.0000 3.5599 0.0000 12.0143
#
#
#
# Elastic Compliance Matrix: (Units=1/GPa)
#
#
# Indices 1 2 3 4 5 6 
#
# 1 0.011172 -0.001648 -0.003881 0.000000 -0.002432 0.000000
# 2 -0.001648 0.020028 -0.008999 0.000000 -0.001572 0.000000
# 3 -0.003881 -0.008999 0.013857 0.000000 0.003007 0.000000
# 4 0.000000 0.000000 0.000000 0.056360 0.000000 -0.016700
# 5 -0.002432 -0.001572 0.003007 0.000000 0.025801 0.000000
# 6 0.000000 0.000000 0.000000 -0.016700 0.000000 0.088183
#
#
# Mechanical properties :
#
#
# Convention : Reuss Voigt Hill
#
# Bulk Modulus (GPa) = 62.49206 68.39017 65.44112
# Shear Modulus (GPa) = 20.01680 25.89536 22.95608
#
# Velocity S-wave (km/s) = 3.11859 3.54709 3.33972
# Velocity P-wave (km/s) = 6.58260 7.07140 6.83137
#
# Compressibility (1/GPa) = 0.01600203
#
# Stress axis : x y z
#
# Youngs Moduli (GPa) = 89.50673 49.92959 72.16710
#
# Poissons Ratio (x) = 0.08227 0.28005
# Poissons Ratio (y) = 0.14747 0.64946
# Poissons Ratio (z) = 0.34733 0.44934
#
# Static dielectric constant tensor:
#      x y z
#    x 1.794780 0.000000 -0.029530 
#    y 0.000000 1.705040 0.000000 
#    z -0.029530 0.000000 1.831020 
# 
# From -- ./inp_files/146231.got.cif
#   From: 2010.05.17/outbox.cif.g08.bks.cpg/sg12_74_cif.got.tgz:146231.got - 2010.06.03 13:09:07.
