data_PCOD9213669
_publ_section_title
;
Structure prediction by ZEFSAII (Michael W. Deem and Ramdas Pophale) SiO2 
 PCOD9213669
Probable space group: C 2/M
;
_chemical_formula_sum "Si O2"
_cell_formula_units_Z 34
_cell_length_a 20.532229
_cell_length_b 14.865035
_cell_length_c 9.457959
_cell_angle_alpha 90.000000
_cell_angle_beta 31.063449
_cell_angle_gamma 90.000000
_cell_volume 1489.492107
_symmetry_space_group_name_H-M "C 2/M"
_symmetry_group_IT_number 12
_symmetry_cell_setting 'monoclinic'
loop_
_space_group_symop_operation_xyz
x,y,z
-x,y,-z
-x,-y,-z
x,-y,z
1/2+x,1/2+y,z
1/2-x,1/2+y,-z
1/2-x,1/2-y,-z
1/2+x,1/2-y,z
loop_
_atom_site_type_symbol
_atom_site_label
_atom_site_fract_x
_atom_site_fract_y
_atom_site_fract_z
Si Si1 0.138990 0.147714 0.594730
Si Si2 0.383613 0.142129 0.311525
Si Si3 0.857344 0.109224 0.730669
Si Si4 0.876017 0.605809 0.655457
Si Si5 0.500000 0.500000 0.000000
O O1 0.253595 0.112788 0.479443
O O2 0.112853 0.249264 0.689187
O O3 0.177568 0.145033 0.359570
O O4 0.025196 0.079523 0.834133
O O5 0.386698 0.113242 0.467819
O O6 0.500000 0.110395 0.000000
O O7 0.000000 0.136866 0.500000
O O8 0.856437 0.000000 0.725856
O O9 0.754945 0.140811 0.036106
O O10 0.874700 0.500000 0.692875
O O11 0.000000 0.645668 0.500000
#
# Coordination Sequence:
#
# PCOD9213669 Si02
#       5
#     8   8   8   8   2
#     4  11  25  41  69  97 134 172 224 271 337 393
#     4  11  25  43  65 100 136 171 221 279 331 395
#     4  10  22  38  63  95 128 169 222 270 321 394
#     4  10  23  41  63  91 130 175 221 267 330 398
#     4  12  24  44  72  96 130 184 216 284 320 412
#
# _framework density 22.826571000000001
#
# number of rings (size 3 to 8) (size 9 to 14) (size 15 to 20)
#    0.000    1.412    2.353    1.412    4.941    2.353 
#    0.000    0.000    0.000    0.000    0.000    0.000 
#    0.000    0.000    0.000    0.000    0.000    0.000 
#
# Total GULP energy -94853.571279 kJ/mol
# GULP energy per Si atom -5579.621840 kJ/mol
# Density = 2.277462 g / cm^3
# Si number density = 22.826571 Si / 1000 Ang^3
#
#
#
# Elastic Constant Matrix: (Units=GPa)
#
#
# Indices 1 2 3 4 5 6 
#
# 1 151.9919 -23.4006 73.1720 0.0000 8.4408 0.0000
# 2 -23.4006 77.2469 -6.8233 0.0000 -8.6453 0.0000
# 3 73.1720 -6.8233 187.0137 0.0000 19.5805 0.0000
# 4 0.0000 0.0000 0.0000 -26.7081 0.0000 46.9394
# 5 8.4408 -8.6453 19.5805 0.0000 38.7668 0.0000
# 6 0.0000 0.0000 0.0000 46.9394 0.0000 37.0497
#
#
#
# Elastic Compliance Matrix: (Units=1/GPa)
#
#
# Indices 1 2 3 4 5 6 
#
# 1 0.008494 0.002320 -0.003272 0.000000 0.000321 0.000000
# 2 0.002320 0.013917 -0.000710 0.000000 0.002957 0.000000
# 3 -0.003272 -0.000710 0.006909 0.000000 -0.002935 0.000000
# 4 0.000000 0.000000 0.000000 -0.011604 0.000000 0.014701
# 5 0.000321 0.002957 -0.002935 0.000000 0.027867 0.000000
# 6 0.000000 0.000000 0.000000 0.014701 0.000000 0.008365
#
#
# Mechanical properties :
#
#
# Convention : Reuss Voigt Hill
#
# Bulk Modulus (GPa) = 38.46791 55.79432 47.13112
# Shear Modulus (GPa) = 75.82978 34.70863 55.26920
#
# Velocity S-wave (km/s) = 5.76993 3.90364 4.92597
# Velocity P-wave (km/s) = 7.82804 6.69430 7.28326
#
# Compressibility (1/GPa) = 0.02599570
#
# Stress axis : x y z
#
# Youngs Moduli (GPa) = 117.72945 71.85701 144.73836
#
# Poissons Ratio (x) = -0.16671 0.47364
# Poissons Ratio (y) = -0.27313 0.10270
# Poissons Ratio (z) = 0.38525 0.05099
#
# Static dielectric constant tensor:
#      x y z
#    x 1.765050 0.000000 -0.036510 
#    y 0.000000 1.891960 0.000000 
#    z -0.036510 0.000000 1.894770 
# 
# From -- ./inp_files/46647.got.cif
#   From: 2010.05.17/outbox.cif.g08.bks.cpg/sg12_24_cif.got.tgz:46647.got - 2010.06.03 13:09:07.
