data_PCOD9213987
_publ_section_title
;
Structure prediction by ZEFSAII (Michael W. Deem and Ramdas Pophale) SiO2 
 PCOD9213987
Probable space group: C 2/M
;
_chemical_formula_sum "Si O2"
_cell_formula_units_Z 56
_cell_length_a 15.779082
_cell_length_b 18.019097
_cell_length_c 9.493135
_cell_angle_alpha 90.000000
_cell_angle_beta 108.485063
_cell_angle_gamma 90.000000
_cell_volume 2559.875617
_symmetry_space_group_name_H-M "C 2/M"
_symmetry_group_IT_number 12
_symmetry_cell_setting 'monoclinic'
loop_
_space_group_symop_operation_xyz
x,y,z
-x,y,-z
-x,-y,-z
x,-y,z
1/2+x,1/2+y,z
1/2-x,1/2+y,-z
1/2-x,1/2-y,-z
1/2+x,1/2-y,z
loop_
_atom_site_type_symbol
_atom_site_label
_atom_site_fract_x
_atom_site_fract_y
_atom_site_fract_z
Si Si1 0.551167 0.790498 0.378591
Si Si2 0.681006 0.917869 0.495898
Si Si3 0.885218 0.124387 0.558723
Si Si4 0.929302 0.661734 0.061266
Si Si5 0.167207 0.200196 0.014068
Si Si6 0.924646 0.914748 0.252423
Si Si7 0.711105 0.083382 0.824978
O O1 0.500000 0.797541 0.500000
O O2 0.623855 0.854497 0.394335
O O3 0.600912 0.711821 0.409385
O O4 0.476338 0.801848 0.221376
O O5 0.786724 0.903874 0.541205
O O6 0.658521 0.915348 0.650538
O O7 0.660396 0.000000 0.430430
O O8 0.899737 0.105866 0.400585
O O9 0.967196 0.089047 0.689738
O O10 0.894773 0.734690 0.959637
O O11 0.851355 0.609757 0.079613
O O12 0.000000 0.621346 0.000000
O O13 0.119817 0.146894 0.873170
O O14 0.250000 0.250000 0.000000
O O15 0.209603 0.142636 0.144400
O O16 0.897070 0.000000 0.207678
O O17 0.743691 0.000000 0.863753
#
# Coordination Sequence:
#
# PCOD9213987 Si02
#       7
#     8   8   8   8   8   8   8
#     4  12  22  43  70  95 132 176 218 265 333 391
#     4  11  25  41  64  97 132 169 218 271 327 394
#     4  11  22  40  65  96 130 165 218 272 329 390
#     4  11  24  42  65  94 126 168 217 267 315 383
#     4  10  22  39  61  87 128 166 210 256 320 383
#     4  11  21  38  66  96 131 170 213 275 334 386
#     4  10  23  42  63  90 127 168 211 264 322 384
#
# _framework density 21.876062999999998
#
# number of rings (size 3 to 8) (size 9 to 14) (size 15 to 20)
#    0.000    1.143    4.286    2.571    4.000    3.429 
#    0.000    1.429    0.000    3.429    0.000    0.000 
#    0.000    0.000    0.000    0.000    0.000    0.000 
#
# Total GULP energy -156391.820499 kJ/mol
# GULP energy per Si atom -5585.422161 kJ/mol
# Density = 2.182627 g / cm^3
# Si number density = 21.876063 Si / 1000 Ang^3
#
#
#
# Elastic Constant Matrix: (Units=GPa)
#
#
# Indices 1 2 3 4 5 6 
#
# 1 52.5269 12.2535 -21.7788 0.0000 -2.3927 0.0000
# 2 12.2535 148.6658 11.0615 0.0000 21.7996 0.0000
# 3 -21.7788 11.0615 21.4304 0.0000 8.3607 0.0000
# 4 0.0000 0.0000 0.0000 26.6790 0.0000 7.3970
# 5 -2.3927 21.7996 8.3607 0.0000 21.1551 0.0000
# 6 0.0000 0.0000 0.0000 7.3970 0.0000 20.6707
#
#
#
# Elastic Compliance Matrix: (Units=1/GPa)
#
#
# Indices 1 2 3 4 5 6 
#
# 1 0.038654 -0.005384 0.045154 0.000000 -0.007925 0.000000
# 2 -0.005384 0.008694 -0.007361 0.000000 -0.006659 0.000000
# 3 0.045154 -0.007361 0.108059 0.000000 -0.030014 0.000000
# 4 0.000000 0.000000 0.000000 0.041611 0.000000 -0.014891
# 5 -0.007925 -0.006659 -0.030014 0.000000 0.065097 0.000000
# 6 0.000000 0.000000 0.000000 -0.014891 0.000000 0.053706
#
#
# Mechanical properties :
#
#
# Convention : Reuss Voigt Hill
#
# Bulk Modulus (GPa) = 4.54079 25.07728 14.80904
# Shear Modulus (GPa) = 15.41248 28.44008 21.92628
#
# Velocity S-wave (km/s) = 2.65719 3.60954 3.16934
# Velocity P-wave (km/s) = 3.39034 5.37214 4.49190
#
# Compressibility (1/GPa) = 0.22022597
#
# Stress axis : x y z
#
# Youngs Moduli (GPa) = 25.87028 115.01706 9.25423
#
# Poissons Ratio (x) = 0.61920 -0.41786
# Poissons Ratio (y) = 0.13927 0.06812
# Poissons Ratio (z) = -1.16813 0.84662
#
# Static dielectric constant tensor:
#      x y z
#    x 1.806490 0.000000 0.014970 
#    y 0.000000 1.784260 0.000000 
#    z 0.014970 0.000000 1.795520 
# 
# From -- ./inp_files/146257.got.cif
#   From: 2010.05.17/outbox.cif.g08.bks.cpg/sg12_74_cif.got.tgz:146257.got - 2010.06.03 13:09:07.
