data_PCOD9213462
_publ_section_title
;
Structure prediction by ZEFSAII (Michael W. Deem and Ramdas Pophale) SiO2 
 PCOD9213462
Probable space group: C 2/M
;
_chemical_formula_sum "Si O2"
_cell_formula_units_Z 56
_cell_length_a 18.647829
_cell_length_b 26.847472
_cell_length_c 5.095424
_cell_angle_alpha 90.000000
_cell_angle_beta 113.190506
_cell_angle_gamma 90.000000
_cell_volume 2344.889086
_symmetry_space_group_name_H-M "C 2/M"
_symmetry_group_IT_number 12
_symmetry_cell_setting 'monoclinic'
loop_
_space_group_symop_operation_xyz
x,y,z
-x,y,-z
-x,-y,-z
x,-y,z
1/2+x,1/2+y,z
1/2-x,1/2+y,-z
1/2-x,1/2-y,-z
1/2+x,1/2-y,z
loop_
_atom_site_type_symbol
_atom_site_label
_atom_site_fract_x
_atom_site_fract_y
_atom_site_fract_z
Si Si1 0.674682 0.858264 0.300403
Si Si2 0.968193 0.444866 0.210532
Si Si3 0.812969 0.584565 0.154963
Si Si4 0.089864 0.878529 0.076447
Si Si5 0.946423 0.722988 0.670026
Si Si6 0.315598 0.294068 0.571539
Si Si7 0.142728 0.940136 0.669178
O O1 0.684943 0.902395 0.533634
O O2 0.612726 0.820926 0.334320
O O3 0.759683 0.835275 0.373139
O O4 0.653646 0.869766 0.971020
O O5 0.007770 0.500000 0.261171
O O6 0.878921 0.452088 0.145398
O O7 0.000000 0.415164 0.500000
O O8 0.000000 0.419212 0.000000
O O9 0.730417 0.568426 0.915116
O O10 0.143125 0.827956 0.140450
O O11 0.123158 0.913521 0.362823
O O12 0.092800 0.911326 0.817555
O O13 0.000000 0.865117 0.000000
O O14 0.888453 0.769579 0.531339
O O15 0.000000 0.712730 0.500000
O O16 0.000000 0.733436 0.000000
O O17 0.250000 0.250000 0.500000
O O18 0.129613 0.000000 0.633583
#
# Coordination Sequence:
#
# PCOD9213462 Si02
#       7
#     8   8   8   8   8   8   8
#     4  11  24  41  67  94 134 176 225 276 344 410
#     4  10  22  38  58  89 126 167 217 272 332 395
#     4  12  22  42  67  94 132 181 229 283 343 417
#     4  12  26  47  74 107 145 188 241 297 367 435
#     4  11  25  43  66 100 137 177 227 282 345 416
#     4  10  23  47  72 102 141 189 231 290 353 434
#     4  12  26  46  73 105 143 191 247 302 360 430
#
# _framework density 23.881727000000001
#
# number of rings (size 3 to 8) (size 9 to 14) (size 15 to 20)
#    0.000    0.857    2.857    3.429    0.000    8.571 
#    0.000   10.714    0.000    0.000    0.000    0.000 
#    0.000    0.000    0.000    0.000    0.000    0.000 
#
# Total GULP energy -155944.950357 kJ/mol
# GULP energy per Si atom -5569.462513 kJ/mol
# Density = 2.382737 g / cm^3
# Si number density = 23.881727 Si / 1000 Ang^3
#
#
#
# Elastic Constant Matrix: (Units=GPa)
#
#
# Indices 1 2 3 4 5 6 
#
# 1 100.9046 21.4229 40.4630 0.0000 15.7519 0.0000
# 2 21.4229 88.2647 15.1830 0.0000 6.8564 0.0000
# 3 40.4630 15.1830 102.6925 0.0000 -10.1622 0.0000
# 4 0.0000 0.0000 0.0000 16.8820 0.0000 7.6593
# 5 15.7519 6.8564 -10.1622 0.0000 47.6419 0.0000
# 6 0.0000 0.0000 0.0000 7.6593 0.0000 34.6262
#
#
#
# Elastic Compliance Matrix: (Units=1/GPa)
#
#
# Indices 1 2 3 4 5 6 
#
# 1 0.013348 -0.001879 -0.005508 0.000000 -0.005318 0.000000
# 2 -0.001879 0.012096 -0.001184 0.000000 -0.001372 0.000000
# 3 -0.005508 -0.001184 0.012545 0.000000 0.004667 0.000000
# 4 0.000000 0.000000 0.000000 0.065843 0.000000 -0.014564
# 5 -0.005318 -0.001372 0.004667 0.000000 0.023941 0.000000
# 6 0.000000 0.000000 0.000000 -0.014564 0.000000 0.032101
#
#
# Mechanical properties :
#
#
# Convention : Reuss Voigt Hill
#
# Bulk Modulus (GPa) = 47.96760 49.55549 48.76154
# Shear Modulus (GPa) = 27.17916 34.14953 30.66434
#
# Velocity S-wave (km/s) = 3.37719 3.78556 3.58719
# Velocity P-wave (km/s) = 5.94444 6.31686 6.13348
#
# Compressibility (1/GPa) = 0.02084741
#
# Stress axis : x y z
#
# Youngs Moduli (GPa) = 74.91710 82.67295 79.71389
#
# Poissons Ratio (x) = 0.15536 0.43905
# Poissons Ratio (y) = 0.14079 0.09435
# Poissons Ratio (z) = 0.41263 0.09786
#
# Static dielectric constant tensor:
#      x y z
#    x 1.855010 0.000000 0.186690 
#    y 0.000000 2.352370 0.000000 
#    z 0.186690 0.000000 1.961480 
# 
# From -- ./inp_files/18386.got.cif
#   From: 2010.05.17/outbox.cif.g08.bks.cpg/sg12_10_cif.got.tgz:18386.got - 2010.06.03 13:09:07.
