data_PCOD9213142
_publ_section_title
;
Structure prediction by ZEFSAII (Michael W. Deem and Ramdas Pophale) SiO2 
 PCOD9213142
Probable space group: C 2/M
;
_chemical_formula_sum "Si O2"
_cell_formula_units_Z 56
_cell_length_a 7.710107
_cell_length_b 29.656768
_cell_length_c 11.587592
_cell_angle_alpha 90.000000
_cell_angle_beta 109.431958
_cell_angle_gamma 90.000000
_cell_volume 2498.654818
_symmetry_space_group_name_H-M "C 2/M"
_symmetry_group_IT_number 12
_symmetry_cell_setting 'monoclinic'
loop_
_space_group_symop_operation_xyz
x,y,z
-x,y,-z
-x,-y,-z
x,-y,z
1/2+x,1/2+y,z
1/2-x,1/2+y,-z
1/2-x,1/2-y,-z
1/2+x,1/2-y,z
loop_
_atom_site_type_symbol
_atom_site_label
_atom_site_fract_x
_atom_site_fract_y
_atom_site_fract_z
Si Si1 0.275531 0.697098 0.133836
Si Si2 0.107936 0.141774 0.633601
Si Si3 0.838735 0.050573 0.270681
Si Si4 0.300129 0.445372 1.000000
Si Si5 0.025664 0.358226 0.633601
Si Si6 0.641695 0.197098 0.866164
Si Si7 0.431945 0.050573 0.270681
O O1 0.401411 0.670696 0.251971
O O2 0.321945 0.750000 0.143889
O O3 0.066359 0.692487 0.132717
O O4 0.272876 0.681115 1.000000
O O5 0.045758 0.090594 0.647732
O O6 0.321898 0.140014 0.643797
O O7 0.000000 0.160322 0.500000
O O8 0.649224 0.046576 0.298449
O O9 0.920436 0.000000 0.281494
O O10 0.781859 0.067177 0.129372
O O11 0.291009 0.500000 1.000000
O O12 0.152488 0.432823 0.870628
O O13 0.500000 0.431740 0.000000
O O14 0.000000 0.339678 0.500000
O O15 0.149440 0.329304 0.748029
O O16 0.101975 0.409406 0.647732
O O17 0.361058 0.000000 0.281494
#
# Coordination Sequence:
#
# PCOD9213142 Si02
#       7
#     8   8   8   8   8   8   8
#     4   9  19  37  60  83 107 138 177 223 273 325
#     4  10  22  37  55  80 112 147 183 225 271 321
#     4   9  18  33  53  76 105 146 189 222 262 321
#     4   9  17  29  47  75 106 135 174 227 278 313
#     4  10  22  37  55  80 112 147 183 225 271 321
#     4   9  19  37  60  83 107 138 177 223 273 325
#     4   9  18  33  53  76 105 146 189 222 262 321
#
# _framework density 22.412057000000001
#
# number of rings (size 3 to 8) (size 9 to 14) (size 15 to 20)
#    0.000    2.714    0.000    0.429    2.000    5.143 
#    0.000    2.857    0.000    0.000    0.000    0.000 
#    0.000    0.000    0.000    0.000    0.000    0.000 
#
# Total GULP energy -156249.365795 kJ/mol
# GULP energy per Si atom -5580.334493 kJ/mol
# Density = 2.236105 g / cm^3
# Si number density = 22.412057 Si / 1000 Ang^3
#
#
#
# Elastic Constant Matrix: (Units=GPa)
#
#
# Indices 1 2 3 4 5 6 
#
# 1 37.8250 0.1518 0.3144 0.0000 -0.2804 0.0000
# 2 0.1518 72.7229 83.5471 0.0000 1.3738 0.0000
# 3 0.3144 83.5471 179.9245 0.0000 2.6215 0.0000
# 4 0.0000 0.0000 0.0000 -5.8624 0.0000 -0.2783
# 5 -0.2804 1.3738 2.6215 0.0000 10.2850 0.0000
# 6 0.0000 0.0000 0.0000 -0.2783 0.0000 11.0408
#
#
#
# Elastic Compliance Matrix: (Units=1/GPa)
#
#
# Indices 1 2 3 4 5 6 
#
# 1 0.026443 -0.000008 -0.000053 0.000000 0.000736 0.000000
# 2 -0.000008 0.029476 -0.013681 0.000000 -0.000451 0.000000
# 3 -0.000053 -0.013681 0.011928 0.000000 -0.001214 0.000000
# 4 0.000000 0.000000 0.000000 -0.170376 0.000000 -0.004294
# 5 0.000736 -0.000451 -0.001214 0.000000 0.097619 0.000000
# 6 0.000000 0.000000 0.000000 -0.004294 0.000000 0.090465
#
#
# Mechanical properties :
#
#
# Convention : Reuss Voigt Hill
#
# Bulk Modulus (GPa) = 24.77433 50.94432 37.85932
# Shear Modulus (GPa) = 39.52761 16.85662 28.19212
#
# Velocity S-wave (km/s) = 4.20417 2.74546 3.55054
# Velocity P-wave (km/s) = 5.88598 5.72976 5.80840
#
# Compressibility (1/GPa) = 0.04036437
#
# Stress axis : x y z
#
# Youngs Moduli (GPa) = 37.81653 33.92578 83.83528
#
# Poissons Ratio (x) = 0.00027 0.00446
# Poissons Ratio (y) = 0.00030 1.14691
# Poissons Ratio (z) = 0.00201 0.46412
#
# Static dielectric constant tensor:
#      x y z
#    x 1.837190 0.000000 0.000090 
#    y 0.000000 1.849050 0.000000 
#    z 0.000090 0.000000 1.842430 
# 
# From -- ./inp_files/125325.got.cif
#   From: 2010.05.17/outbox.cif.g08.bks.cpg/sg12_63_cif.got.tgz:125325.got - 2010.06.03 13:09:07.
