data_PCOD9213938
_publ_section_title
;
Structure prediction by ZEFSAII (Michael W. Deem and Ramdas Pophale) SiO2 
 PCOD9213938
Probable space group: C 2/M
;
_chemical_formula_sum "Si O2"
_cell_formula_units_Z 42
_cell_length_a 9.672121
_cell_length_b 13.988945
_cell_length_c 18.793376
_cell_angle_alpha 90.000000
_cell_angle_beta 123.220591
_cell_angle_gamma 90.000000
_cell_volume 2127.220269
_symmetry_space_group_name_H-M "C 2/M"
_symmetry_group_IT_number 12
_symmetry_cell_setting 'monoclinic'
loop_
_space_group_symop_operation_xyz
x,y,z
-x,y,-z
-x,-y,-z
x,-y,z
1/2+x,1/2+y,z
1/2-x,1/2+y,-z
1/2-x,1/2-y,-z
1/2+x,1/2-y,z
loop_
_atom_site_type_symbol
_atom_site_label
_atom_site_fract_x
_atom_site_fract_y
_atom_site_fract_z
Si Si1 0.167608 0.383690 0.010626
Si Si2 0.478780 0.386073 0.829244
Si Si3 0.978660 0.806527 0.418193
Si Si4 0.500000 0.500000 0.500000
Si Si5 0.813735 0.614896 0.148711
Si Si6 0.101525 0.731339 0.306007
O O1 0.161250 0.500000 0.008706
O O2 0.332826 0.359297 0.100107
O O3 0.181329 0.355019 0.932208
O O4 0.000000 0.348391 0.000000
O O5 0.471251 0.500000 0.816003
O O6 0.359740 0.362511 0.862146
O O7 0.414761 0.328370 0.743722
O O8 0.783318 0.811218 0.346908
O O9 0.000000 0.753163 0.500000
O O10 0.068020 0.754823 0.378744
O O11 0.038256 0.913787 0.452422
O O12 0.832447 0.500000 0.155773
O O13 0.961454 0.662236 0.234650
#
# Coordination Sequence:
#
# PCOD9213938 Si02
#       6
#     8   8   8   2   8   8
#     4   9  19  36  59  90 124 168 216 260 305 355
#     4  10  22  39  60  88 127 170 209 256 310 366
#     4  10  24  44  65  93 125 160 201 254 313 380
#     4   8  24  44  72  94 118 166 196 254 324 368
#     4  10  22  39  60  88 127 170 209 256 310 366
#     4  12  23  41  64  96 126 162 206 261 303 378
#
# _framework density 19.744077999999998
#
# number of rings (size 3 to 8) (size 9 to 14) (size 15 to 20)
#    0.571    1.333    1.905    1.143    5.333    3.048 
#    0.000    0.000    0.000    2.286    0.000    0.000 
#    0.000    0.000    0.000    0.000    0.000    0.000 
#
# Total GULP energy -116996.916586 kJ/mol
# GULP energy per Si atom -5571.281742 kJ/mol
# Density = 1.969914 g / cm^3
# Si number density = 19.744078 Si / 1000 Ang^3
#
#
#
# Elastic Constant Matrix: (Units=GPa)
#
#
# Indices 1 2 3 4 5 6 
#
# 1 80.3578 -3.8944 2.4811 0.0000 -5.7122 0.0000
# 2 -3.8944 35.8080 -0.7717 0.0000 -7.8314 0.0000
# 3 2.4811 -0.7717 58.8748 0.0000 -17.8927 0.0000
# 4 0.0000 0.0000 0.0000 33.9111 0.0000 -4.4605
# 5 -5.7122 -7.8314 -17.8927 0.0000 43.1032 0.0000
# 6 0.0000 0.0000 0.0000 -4.4605 0.0000 10.5808
#
#
#
# Elastic Compliance Matrix: (Units=1/GPa)
#
#
# Indices 1 2 3 4 5 6 
#
# 1 0.012676 0.001832 0.000116 0.000000 0.002061 0.000000
# 2 0.001832 0.029616 0.002312 0.000000 0.006583 0.000000
# 3 0.000116 0.002312 0.019618 0.000000 0.008579 0.000000
# 4 0.000000 0.000000 0.000000 0.031220 0.000000 0.013161
# 5 0.002061 0.006583 0.008579 0.000000 0.028231 0.000000
# 6 0.000000 0.000000 0.000000 0.013161 0.000000 0.100060
#
#
# Mechanical properties :
#
#
# Convention : Reuss Voigt Hill
#
# Bulk Modulus (GPa) = 14.19872 18.96339 16.58105
# Shear Modulus (GPa) = 21.15267 29.33405 25.24336
#
# Velocity S-wave (km/s) = 3.27669 3.85868 3.57953
# Velocity P-wave (km/s) = 4.63924 5.42936 5.04978
#
# Compressibility (1/GPa) = 0.07042889
#
# Stress axis : x y z
#
# Youngs Moduli (GPa) = 78.88899 33.76606 50.97391
#
# Poissons Ratio (x) = -0.06185 -0.00592
# Poissons Ratio (y) = -0.14451 -0.11784
# Poissons Ratio (z) = -0.00916 -0.07806
#
# Static dielectric constant tensor:
#      x y z
#    x 1.696300 0.000000 -0.000180 
#    y 0.000000 1.690850 0.000000 
#    z -0.000180 0.000000 1.688370 
# 
# From -- ./inp_files/255684.got.cif
#   From: 2010.05.17/outbox.cif.g08.bks.cpg/sg12_128_cif.got.tgz:255684.got - 2010.06.03 13:09:07.
