data_PCOD9213368
_publ_section_title
;
Structure prediction by ZEFSAII (Michael W. Deem and Ramdas Pophale) SiO2 
 PCOD9213368
Probable space group: C 2/M
;
_chemical_formula_sum "Si O2"
_cell_formula_units_Z 36
_cell_length_a 14.470635
_cell_length_b 26.931665
_cell_length_c 15.443945
_cell_angle_alpha 90.000000
_cell_angle_beta 160.342684
_cell_angle_gamma 90.000000
_cell_volume 2024.682883
_symmetry_space_group_name_H-M "C 2/M"
_symmetry_group_IT_number 12
_symmetry_cell_setting 'monoclinic'
loop_
_space_group_symop_operation_xyz
x,y,z
-x,y,-z
-x,-y,-z
x,-y,z
1/2+x,1/2+y,z
1/2-x,1/2+y,-z
1/2-x,1/2-y,-z
1/2+x,1/2-y,z
loop_
_atom_site_type_symbol
_atom_site_label
_atom_site_fract_x
_atom_site_fract_y
_atom_site_fract_z
Si Si1 0.399769 0.635912 0.640939
Si Si2 0.527431 0.810843 0.626820
Si Si3 0.815515 0.500000 0.250539
Si Si4 0.814066 0.799612 0.250215
Si Si5 0.829623 0.597119 0.146172
O O1 0.263305 0.678217 0.582522
O O2 0.580914 0.661694 0.728078
O O3 0.126387 0.608530 0.364962
O O4 0.583782 0.599159 0.861118
O O5 0.500000 0.815859 0.500000
O O6 0.642414 0.756380 0.747028
O O7 0.711697 0.855288 0.827249
O O8 0.858255 0.548590 0.229514
O O9 0.000000 0.500000 0.500000
O O10 0.500000 0.500000 0.000000
O O11 0.000000 0.803617 0.500000
O O12 0.500000 0.806618 0.000000
#
# Coordination Sequence:
#
# PCOD9213368 Si02
#       5
#     8   8   4   8   8
#     4  10  22  38  56  82 117 155 194 238 283 343
#     4   9  22  34  57  80 122 151 193 221 288 345
#     4  12  24  38  60  90 122 154 196 232 282 354
#     4  11  23  36  58  85 114 154 197 242 290 335
#     4  10  23  35  59  79 119 154 189 228 288 334
#
# _framework density 17.780562
#
# number of rings (size 3 to 8) (size 9 to 14) (size 15 to 20)
#    1.333    0.444    0.000    4.000    9.333    0.889 
#    0.000    0.000    0.000    0.000    0.000   15.556 
#    0.000    0.000    0.000    0.000    0.000    0.000 
#
# Total GULP energy -100325.108321 kJ/mol
# GULP energy per Si atom -5573.617129 kJ/mol
# Density = 1.774009 g / cm^3
# Si number density = 17.780562 Si / 1000 Ang^3
#
#
#
# Elastic Constant Matrix: (Units=GPa)
#
#
# Indices 1 2 3 4 5 6 
#
# 1 87.9599 42.3446 39.3205 -0.1134 22.6860 -0.0245
# 2 42.3446 71.1158 11.6100 -0.0011 6.1911 -0.0066
# 3 39.3205 11.6100 89.4097 -0.2786 26.0898 -0.0699
# 4 -0.1134 -0.0011 -0.2786 509.2964 -0.2224 118.3802
# 5 22.6860 6.1911 26.0898 -0.2224 30.4545 -0.0475
# 6 -0.0245 -0.0066 -0.0699 118.3802 -0.0475 69.0230
#
#
#
# Elastic Compliance Matrix: (Units=1/GPa)
#
#
# Indices 1 2 3 4 5 6 
#
# 1 0.021461 -0.011112 -0.005319 -0.000002 -0.009171 -0.000002
# 2 -0.011112 0.020191 0.001396 -0.000001 0.002977 0.000003
# 3 -0.005319 0.001396 0.016358 0.000002 -0.010335 0.000004
# 4 -0.000002 -0.000001 0.000002 0.003265 0.000014 -0.005600
# 5 -0.009171 0.002977 -0.010335 0.000014 0.047917 -0.000005
# 6 -0.000002 0.000003 0.000004 -0.005600 -0.000005 0.024092
#
#
# Mechanical properties :
#
#
# Convention : Reuss Voigt Hill
#
# Bulk Modulus (GPa) = 35.78971 48.33729 42.06350
# Shear Modulus (GPa) = 28.95728 132.10214 80.52971
#
# Velocity S-wave (km/s) = 4.03996 8.62885 6.73715
# Velocity P-wave (km/s) = 6.47564 11.24814 9.17754
#
# Compressibility (1/GPa) = 0.02794099
#
# Stress axis : x y z
#
# Youngs Moduli (GPa) = 46.59523 49.52722 61.13104
#
# Poissons Ratio (x) = 0.55035 0.32517
# Poissons Ratio (y) = 0.51777 -0.08537
# Poissons Ratio (z) = 0.24785 -0.06916
#
# Static dielectric constant tensor:
#      x y z
#    x 1.563300 0.000000 0.014640 
#    y 0.000000 1.604060 0.000000 
#    z 0.014640 0.000000 1.616230 
# 
# From -- ./inp_files/12001.got.cif
#   From: 2010.05.17/outbox.cif.g08.bks.cpg/sg12_7_cif.got.tgz:12001.got - 2010.06.03 13:09:07.
