data_PCOD9213088
_publ_section_title
;
Structure prediction by ZEFSAII (Michael W. Deem and Ramdas Pophale) SiO2 
 PCOD9213088
Probable space group: C 2/M
;
_chemical_formula_sum "Si O2"
_cell_formula_units_Z 32
_cell_length_a 17.038414
_cell_length_b 8.469412
_cell_length_c 10.520405
_cell_angle_alpha 90.000000
_cell_angle_beta 65.393158
_cell_angle_gamma 90.000000
_cell_volume 1380.281962
_symmetry_space_group_name_H-M "C 2/M"
_symmetry_group_IT_number 12
_symmetry_cell_setting 'monoclinic'
loop_
_space_group_symop_operation_xyz
x,y,z
-x,y,-z
-x,-y,-z
x,-y,z
1/2+x,1/2+y,z
1/2-x,1/2+y,-z
1/2-x,1/2-y,-z
1/2+x,1/2-y,z
loop_
_atom_site_type_symbol
_atom_site_label
_atom_site_fract_x
_atom_site_fract_y
_atom_site_fract_z
Si Si1 0.895445 0.175078 0.552236
Si Si2 0.075507 0.500000 0.559911
Si Si3 0.250464 0.815662 0.144036
Si Si4 0.408866 0.673023 0.991264
Si Si5 0.464445 0.000000 0.880782
O O1 0.876035 0.334266 0.488557
O O2 0.837553 0.196022 0.718021
O O3 0.000000 0.172552 0.500000
O O4 0.873459 0.000000 0.515037
O O5 0.034798 0.500000 0.725246
O O6 0.000000 0.500000 0.500000
O O7 0.274341 0.000000 0.129146
O O8 0.250000 0.750000 0.000000
O O9 0.331201 0.713290 0.140865
O O10 0.393107 0.500000 0.940786
O O11 0.417670 0.830925 0.900529
O O12 0.500000 0.661828 0.000000
O O13 0.500000 0.000000 0.000000
#
# Coordination Sequence:
#
# PCOD9213088 Si02
#       5
#     8   4   8   8   4
#     4   9  21  38  55  89 133 170 207 261 339 393
#     4  10  22  36  64  90 131 168 210 270 335 396
#     4  11  23  36  62 100 134 172 224 283 333 400
#     4  10  22  40  64  95 129 172 225 276 331 394
#     4  10  22  42  66  96 125 170 226 270 331 404
#
# _framework density 23.183668999999998
#
# number of rings (size 3 to 8) (size 9 to 14) (size 15 to 20)
#    0.000    2.000    1.250    0.750   10.500    1.000 
#    0.000    0.000    0.000    6.000    0.000    0.000 
#    0.000    0.000    0.000    0.000    0.000    0.000 
#
# Total GULP energy -89120.750827 kJ/mol
# GULP energy per Si atom -5570.046927 kJ/mol
# Density = 2.313090 g / cm^3
# Si number density = 23.183669 Si / 1000 Ang^3
#
#
#
# Elastic Constant Matrix: (Units=GPa)
#
#
# Indices 1 2 3 4 5 6 
#
# 1 66.7159 12.1879 35.7363 0.0000 -25.2475 0.0000
# 2 12.1879 282.8043 89.3671 0.0000 -11.9209 0.0000
# 3 35.7363 89.3671 157.9098 0.0000 -30.2975 0.0000
# 4 0.0000 0.0000 0.0000 14.0374 0.0000 1.5020
# 5 -25.2475 -11.9209 -30.2975 0.0000 35.8987 0.0000
# 6 0.0000 0.0000 0.0000 1.5020 0.0000 8.0799
#
#
#
# Elastic Compliance Matrix: (Units=1/GPa)
#
#
# Indices 1 2 3 4 5 6 
#
# 1 0.021148 0.000443 -0.002571 0.000000 0.012851 0.000000
# 2 0.000443 0.004332 -0.002644 0.000000 -0.000482 0.000000
# 3 -0.002571 -0.002644 0.009421 0.000000 0.005265 0.000000
# 4 0.000000 0.000000 0.000000 0.072684 0.000000 -0.013511
# 5 0.012851 -0.000482 0.005265 0.000000 0.041178 0.000000
# 6 0.000000 0.000000 0.000000 -0.013511 0.000000 0.126276
#
#
# Mechanical properties :
#
#
# Convention : Reuss Voigt Hill
#
# Bulk Modulus (GPa) = 39.43751 86.89029 63.16390
# Shear Modulus (GPa) = 17.06267 36.27911 26.67089
#
# Velocity S-wave (km/s) = 2.71583 3.96012 3.39546
# Velocity P-wave (km/s) = 5.18480 7.64660 6.53271
#
# Compressibility (1/GPa) = 0.02535657
#
# Stress axis : x y z
#
# Youngs Moduli (GPa) = 47.28499 230.82568 106.14211
#
# Poissons Ratio (x) = -0.10219 0.27289
# Poissons Ratio (y) = -0.02093 0.28069
# Poissons Ratio (z) = 0.12157 0.61040
#
# Static dielectric constant tensor:
#      x y z
#    x 2.156580 0.000000 -0.096670 
#    y 0.000000 1.920730 0.000000 
#    z -0.096670 0.000000 1.883140 
# 
# From -- ./inp_files/162235.got.cif
#   From: 2010.05.17/outbox.cif.g08.bks.cpg/sg12_82_cif.got.tgz:162235.got - 2010.06.03 13:09:07.
