data_PCOD9213766
_publ_section_title
;
Structure prediction by ZEFSAII (Michael W. Deem and Ramdas Pophale) SiO2 
 PCOD9213766
Probable space group: C 2/M
;
_chemical_formula_sum "Si O2"
_cell_formula_units_Z 64
_cell_length_a 15.051176
_cell_length_b 7.626250
_cell_length_c 25.390890
_cell_angle_alpha 90.000000
_cell_angle_beta 81.731272
_cell_angle_gamma 90.000000
_cell_volume 2884.171144
_symmetry_space_group_name_H-M "C 2/M"
_symmetry_group_IT_number 12
_symmetry_cell_setting 'monoclinic'
loop_
_space_group_symop_operation_xyz
x,y,z
-x,y,-z
-x,-y,-z
x,-y,z
1/2+x,1/2+y,z
1/2-x,1/2+y,-z
1/2-x,1/2-y,-z
1/2+x,1/2-y,z
loop_
_atom_site_type_symbol
_atom_site_label
_atom_site_fract_x
_atom_site_fract_y
_atom_site_fract_z
Si Si1 0.757318 0.708990 0.561158
Si Si2 0.043233 0.207425 0.156157
Si Si3 0.914955 0.699074 0.360027
Si Si4 0.459074 0.214873 0.559634
Si Si5 0.885101 0.792347 0.243063
Si Si6 0.260823 0.789111 0.818981
Si Si7 0.804808 0.786929 0.064576
Si Si8 0.105052 0.203184 0.041889
O O1 0.749217 0.500000 0.568821
O O2 0.750000 0.750000 0.500000
O O3 0.678555 0.795538 0.600769
O O4 0.855631 0.764902 0.571141
O O5 0.140252 0.221732 0.176057
O O6 0.051930 0.282447 0.095979
O O7 0.966478 0.280414 0.200691
O O8 0.026216 0.000000 0.150471
O O9 0.944460 0.500000 0.349162
O O10 0.902271 0.772883 0.303172
O O11 0.985287 0.780882 0.395121
O O12 0.500000 0.271762 0.500000
O O13 0.464022 0.000000 0.558781
O O14 0.789594 0.725741 0.229101
O O15 0.882657 0.000000 0.233277
O O16 0.194665 0.745635 0.873775
O O17 0.270917 0.000000 0.817120
O O18 0.709175 0.712261 0.052869
O O19 0.800820 0.000000 0.060502
O O20 0.883993 0.725903 0.018576
O O21 0.077429 0.000000 0.039428
#
# Coordination Sequence:
#
# PCOD9213766 Si02
#       8
#     8   8   8   8   8   8   8   8
#     4  11  21  37  62  90 120 150 179 214 260 312
#     4   9  18  33  53  75 103 139 178 225 275 321
#     4  11  23  40  60  83 110 145 187 226 265 315
#     4   9  18  36  60  84 114 147 174 206 257 315
#     4  10  22  39  54  74 108 144 180 224 274 320
#     4   9  18  33  53  74 102 141 180 219 271 331
#     4   8  13  23  42  69  97 128 169 214 262 324
#     4   8  13  23  42  69  98 128 166 215 270 319
#
# _framework density 22.190085
#
# number of rings (size 3 to 8) (size 9 to 14) (size 15 to 20)
#    0.000    2.625    1.250    0.750    0.000    2.000 
#    0.000    7.500    0.000    3.750    0.000    0.000 
#    0.000   21.000    0.000    0.000    0.000    0.000 
#
# Total GULP energy -178533.208120 kJ/mol
# GULP energy per Si atom -5579.162754 kJ/mol
# Density = 2.213958 g / cm^3
# Si number density = 22.190085 Si / 1000 Ang^3
#
#
#
# Elastic Constant Matrix: (Units=GPa)
#
#
# Indices 1 2 3 4 5 6 
#
# 1 88.9202 -5.0631 33.0322 0.0000 15.8254 0.0000
# 2 -5.0631 45.8927 -4.0543 0.0000 3.8576 0.0000
# 3 33.0322 -4.0543 81.9747 0.0000 8.6090 0.0000
# 4 0.0000 0.0000 0.0000 14.9682 0.0000 2.6783
# 5 15.8254 3.8576 8.6090 0.0000 34.4420 0.0000
# 6 0.0000 0.0000 0.0000 2.6783 0.0000 9.5328
#
#
#
# Elastic Compliance Matrix: (Units=1/GPa)
#
#
# Indices 1 2 3 4 5 6 
#
# 1 0.014184 0.001573 -0.005068 0.000000 -0.005427 0.000000
# 2 0.001573 0.022325 0.000831 0.000000 -0.003431 0.000000
# 3 -0.005068 0.000831 0.014426 0.000000 -0.001370 0.000000
# 4 0.000000 0.000000 0.000000 0.070345 0.000000 -0.019764
# 5 -0.005427 -0.003431 -0.001370 0.000000 0.032255 0.000000
# 6 0.000000 0.000000 0.000000 -0.019764 0.000000 0.110454
#
#
# Mechanical properties :
#
#
# Convention : Reuss Voigt Hill
#
# Bulk Modulus (GPa) = 21.92629 29.40190 25.66410
# Shear Modulus (GPa) = 17.57350 24.64678 21.11014
#
# Velocity S-wave (km/s) = 2.81722 3.33635 3.08771
# Velocity P-wave (km/s) = 4.52602 5.30287 4.92977
#
# Compressibility (1/GPa) = 0.04560735
#
# Stress axis : x y z
#
# Youngs Moduli (GPa) = 70.50174 44.79224 69.31936
#
# Poissons Ratio (x) = -0.07047 0.35130
# Poissons Ratio (y) = -0.11092 -0.05757
# Poissons Ratio (z) = 0.35729 -0.03720
#
# Static dielectric constant tensor:
#      x y z
#    x 1.832530 0.000000 0.009430 
#    y 0.000000 3.382190 0.000000 
#    z 0.009430 0.000000 1.822690 
# 
# From -- ./inp_files/359772.got.cif
#   From: 2010.05.17/outbox.cif.g08.bks.cpg/sg12_180_cif.got.tgz:359772.got - 2010.06.03 13:09:07.
