data_PCOD9213954
_publ_section_title
;
Structure prediction by ZEFSAII (Michael W. Deem and Ramdas Pophale) SiO2 
 PCOD9213954
Probable space group: C 2/M
;
_chemical_formula_sum "Si O2"
_cell_formula_units_Z 32
_cell_length_a 11.776863
_cell_length_b 12.102739
_cell_length_c 14.046715
_cell_angle_alpha 90.000000
_cell_angle_beta 34.187053
_cell_angle_gamma 90.000000
_cell_volume 1124.978870
_symmetry_space_group_name_H-M "C 2/M"
_symmetry_group_IT_number 12
_symmetry_cell_setting 'monoclinic'
loop_
_space_group_symop_operation_xyz
x,y,z
-x,y,-z
-x,-y,-z
x,-y,z
1/2+x,1/2+y,z
1/2-x,1/2+y,-z
1/2-x,1/2-y,-z
1/2+x,1/2-y,z
loop_
_atom_site_type_symbol
_atom_site_label
_atom_site_fract_x
_atom_site_fract_y
_atom_site_fract_z
Si Si1 0.035804 0.127721 0.363023
Si Si2 0.558802 0.878464 0.070632
Si Si3 0.533577 0.664030 0.775509
Si Si4 0.854877 0.381171 0.693077
O O1 0.871861 0.128845 0.390795
O O2 0.120788 0.255341 0.284681
O O3 0.000000 0.130774 0.500000
O O4 0.122700 0.000000 0.290300
O O5 0.448506 0.792505 0.213909
O O6 0.494000 0.000000 0.139513
O O7 0.500000 0.859740 0.000000
O O8 0.797700 0.866969 0.926520
O O9 0.632957 0.614383 0.799653
O O10 0.884638 0.500000 0.724484
O O11 0.000000 0.382475 0.500000
#
# Coordination Sequence:
#
# PCOD9213954 Si02
#       4
#     8   8   8   8
#     4  10  22  40  63  91 126 171 219 264 314 379
#     4  10  22  41  66  95 126 167 220 272 322 381
#     4  11  22  39  65  94 129 169 211 265 327 383
#     4  10  22  39  60  90 128 167 208 259 320 384
#
# _framework density 28.444979
#
# number of rings (size 3 to 8) (size 9 to 14) (size 15 to 20)
#    0.000    1.750    0.000    3.750    0.000    8.000 
#    0.000    2.500    0.000   12.000    0.000    0.000 
#    0.000    0.000    0.000    0.000    0.000    0.000 
#
# Total GULP energy -89176.594460 kJ/mol
# GULP energy per Si atom -5573.537154 kJ/mol
# Density = 2.838024 g / cm^3
# Si number density = 28.444979 Si / 1000 Ang^3
#
#
#
# Elastic Constant Matrix: (Units=GPa)
#
#
# Indices 1 2 3 4 5 6 
#
# 1 133.3355 53.9687 18.8449 -0.0008 19.6229 0.0003
# 2 53.9687 353.4959 37.0217 -0.0001 20.7288 0.0002
# 3 18.8449 37.0217 36.3302 -0.0003 16.6827 0.0007
# 4 -0.0008 -0.0001 -0.0003 54.5983 0.0009 12.0354
# 5 19.6229 20.7288 16.6827 0.0009 49.9830 -0.0005
# 6 0.0003 0.0002 0.0007 12.0354 -0.0005 27.8031
#
#
#
# Elastic Compliance Matrix: (Units=1/GPa)
#
#
# Indices 1 2 3 4 5 6 
#
# 1 0.008540 -0.000915 -0.002518 0.000000 -0.002133 0.000000
# 2 -0.000915 0.003268 -0.002832 0.000000 -0.000051 0.000000
# 3 -0.002518 -0.002832 0.036286 0.000001 -0.009948 -0.000001
# 4 0.000000 0.000000 0.000001 0.020248 -0.000001 -0.008765
# 5 -0.002133 -0.000051 -0.009948 -0.000001 0.024185 0.000001
# 6 0.000000 0.000000 -0.000001 -0.008765 0.000001 0.039761
#
#
# Mechanical properties :
#
#
# Convention : Reuss Voigt Hill
#
# Bulk Modulus (GPa) = 28.11910 82.53693 55.32801
# Shear Modulus (GPa) = 31.91348 54.03197 42.97272
#
# Velocity S-wave (km/s) = 3.35317 4.36308 3.89103
# Velocity P-wave (km/s) = 4.98984 7.37979 6.29920
#
# Compressibility (1/GPa) = 0.03556302
#
# Stress axis : x y z
#
# Youngs Moduli (GPa) = 117.09582 305.97804 27.55906
#
# Poissons Ratio (x) = 0.27998 0.06939
# Poissons Ratio (y) = 0.10715 0.07806
# Poissons Ratio (z) = 0.29484 0.86667
#
# Static dielectric constant tensor:
#      x y z
#    x 2.269720 0.000000 -0.135470 
#    y 0.000000 2.192290 0.000000 
#    z -0.135470 0.000000 2.394660 
# 
# From -- ./inp_files/202712.got.cif
#   From: 2010.05.17/outbox.cif.g08.bks.cpg/sg12_102_cif.got.tgz:202712.got - 2010.06.03 13:09:07.
