data_PCOD9213102
_publ_section_title
;
Structure prediction by ZEFSAII (Michael W. Deem and Ramdas Pophale) SiO2 
 PCOD9213102
Probable space group: C 2/M
;
_chemical_formula_sum "Si O2"
_cell_formula_units_Z 64
_cell_length_a 16.354883
_cell_length_b 16.408839
_cell_length_c 12.642202
_cell_angle_alpha 90.000000
_cell_angle_beta 90.000000
_cell_angle_gamma 90.000000
_cell_volume 3392.720014
_symmetry_space_group_name_H-M "C 2/M"
_symmetry_group_IT_number 12
_symmetry_cell_setting 'monoclinic'
loop_
_space_group_symop_operation_xyz
x,y,z
-x,y,-z
-x,-y,-z
x,-y,z
1/2+x,1/2+y,z
1/2-x,1/2+y,-z
1/2-x,1/2-y,-z
1/2+x,1/2-y,z
loop_
_atom_site_type_symbol
_atom_site_label
_atom_site_fract_x
_atom_site_fract_y
_atom_site_fract_z
Si Si1 0.745511 0.593913 0.378210
Si Si2 0.831741 0.700568 0.792646
Si Si3 0.668259 0.200568 0.792646
Si Si4 0.594843 0.629967 0.766742
Si Si5 0.904796 0.328840 0.000000
Si Si6 0.903720 0.869259 0.000000
Si Si7 0.254489 0.406087 0.378210
Si Si8 0.094844 0.129967 0.233258
O O1 0.771628 0.500000 0.375312
O O2 0.805641 0.649323 0.308901
O O3 0.740942 0.620685 0.500000
O O4 0.656840 0.599858 0.322019
O O5 0.750000 0.750000 0.825672
O O6 0.861787 0.647016 0.891036
O O7 0.805640 0.649323 0.691099
O O8 0.897094 0.771305 0.767370
O O9 0.602906 0.271305 0.767370
O O10 0.638213 0.147016 0.891035
O O11 0.656839 0.599858 0.677980
O O12 0.500000 0.606940 0.753334
O O13 0.625553 0.602787 0.884486
O O14 0.897171 0.229362 0.000000
O O15 0.000000 0.349660 0.000000
O O16 0.874447 0.897213 0.884486
O O17 0.000000 0.888456 0.000000
O O18 0.228372 0.500000 0.375312
#
# Coordination Sequence:
#
# PCOD9213102 Si02
#       8
#     8   8   8   8   8   8   8   8
#     4  10  22  37  49  65  97 140 176 205 244 294
#     4   9  17  30  52  77 101 131 166 200 240 295
#     4   9  17  30  52  77 101 131 166 200 240 295
#     4   9  17  31  54  80 102 126 161 207 251 291
#     4   9  15  27  51  80 104 123 150 199 256 299
#     4   7  12  25  45  72 102 124 144 181 242 302
#     4  10  22  37  49  65  97 140 176 205 244 294
#     4   9  17  31  54  80 102 126 161 207 251 291
#
# _framework density 18.86392
#
# number of rings (size 3 to 8) (size 9 to 14) (size 15 to 20)
#    0.000    3.000    0.000    2.625    0.000    8.500 
#    0.000    3.750    0.000    8.250    0.000    7.000 
#    0.000    0.000    0.000    0.000    0.000    0.000 
#
# Total GULP energy -178271.718190 kJ/mol
# GULP energy per Si atom -5570.991193 kJ/mol
# Density = 1.882098 g / cm^3
# Si number density = 18.863920 Si / 1000 Ang^3
#
#
#
# Elastic Constant Matrix: (Units=GPa)
#
#
# Indices 1 2 3 4 5 6 
#
# 1 50.0790 13.9642 54.7418 0.0000 0.0000 0.0000
# 2 13.9642 34.7228 36.1022 0.0000 0.0000 0.0000
# 3 54.7418 36.1022 197.1133 0.0000 -0.0002 0.0000
# 4 0.0000 0.0000 0.0000 81.0415 0.0000 -0.0002
# 5 0.0000 0.0000 -0.0002 0.0000 21.0373 0.0000
# 6 0.0000 0.0000 0.0000 -0.0002 0.0000 0.6186
#
#
#
# Elastic Compliance Matrix: (Units=1/GPa)
#
#
# Indices 1 2 3 4 5 6 
#
# 1 0.029134 -0.004081 -0.007343 0.000000 0.000000 0.000000
# 2 -0.004081 0.036146 -0.005487 0.000000 0.000000 0.000000
# 3 -0.007343 -0.005487 0.008118 0.000000 0.000000 0.000000
# 4 0.000000 0.000000 0.000000 0.012339 0.000000 0.000004
# 5 0.000000 0.000000 0.000000 0.000000 0.047535 0.000000
# 6 0.000000 0.000000 0.000000 0.000004 0.000000 1.616425
#
#
# Mechanical properties :
#
#
# Convention : Reuss Voigt Hill
#
# Bulk Modulus (GPa) = 25.26919 54.61459 39.94189
# Shear Modulus (GPa) = 2.78286 32.34661 17.56474
#
# Velocity S-wave (km/s) = 1.21591 4.14543 3.05475
# Velocity P-wave (km/s) = 3.92375 7.20607 5.80187
#
# Compressibility (1/GPa) = 0.03957388
#
# Stress axis : x y z
#
# Youngs Moduli (GPa) = 34.32455 27.66583 123.18986
#
# Poissons Ratio (x) = 0.11291 0.90464
# Poissons Ratio (y) = 0.14009 0.67592
# Poissons Ratio (z) = 0.25206 0.15180
#
# Static dielectric constant tensor:
#      x y z
#    x 1.650670 0.000000 0.000000 
#    y 0.000000 1.683980 0.000000 
#    z 0.000000 0.000000 1.691650 
# 
# From -- ./inp_files/157858.got.cif
#   From: 2010.05.17/outbox.cif.g08.bks.cpg/sg12_79_cif.got.tgz:157858.got - 2010.06.03 13:09:07.
