data_PCOD9213513
_publ_section_title
;
Structure prediction by ZEFSAII (Michael W. Deem and Ramdas Pophale) SiO2 
 PCOD9213513
Probable space group: C 2/M
;
_chemical_formula_sum "Si O2"
_cell_formula_units_Z 48
_cell_length_a 7.248510
_cell_length_b 21.760171
_cell_length_c 18.621580
_cell_angle_alpha 90.000000
_cell_angle_beta 50.438202
_cell_angle_gamma 90.000000
_cell_volume 2264.368309
_symmetry_space_group_name_H-M "C 2/M"
_symmetry_group_IT_number 12
_symmetry_cell_setting 'monoclinic'
loop_
_space_group_symop_operation_xyz
x,y,z
-x,y,-z
-x,-y,-z
x,-y,z
1/2+x,1/2+y,z
1/2-x,1/2+y,-z
1/2-x,1/2-y,-z
1/2+x,1/2-y,z
loop_
_atom_site_type_symbol
_atom_site_label
_atom_site_fract_x
_atom_site_fract_y
_atom_site_fract_z
Si Si1 0.594512 0.069853 0.601610
Si Si2 0.930323 0.118486 0.295252
Si Si3 0.146159 0.188375 0.117881
Si Si4 0.243207 0.819891 0.528777
Si Si5 0.639665 0.171650 0.080403
Si Si6 0.574031 0.068366 0.778187
O O1 0.318595 0.081371 0.645121
O O2 0.754862 0.124558 0.528813
O O3 0.601527 0.074635 0.685879
O O4 0.666601 0.000000 0.562802
O O5 0.935030 0.165699 0.361722
O O6 0.949421 0.156696 0.216512
O O7 0.165309 0.077717 0.249869
O O8 0.393360 0.170809 0.095644
O O9 0.142181 0.262104 0.117408
O O10 0.157565 0.168656 0.031506
O O11 0.500000 0.827125 0.500000
O O12 0.250000 0.750000 0.500000
O O13 0.608571 0.117597 0.144266
O O14 0.486896 0.000000 0.815359
#
# Coordination Sequence:
#
# PCOD9213513 Si02
#       6
#     8   8   8   8   8   8
#     4  10  23  41  59  84 116 153 194 234 284 341
#     4  10  22  38  60  83 113 151 192 236 282 338
#     4   9  19  34  56  86 109 151 184 234 290 329
#     4  10  24  38  59  88 117 150 190 241 288 332
#     4   9  19  35  55  84 116 143 190 231 283 340
#     4  10  22  38  60  85 114 153 188 232 282 336
#
# _framework density 21.197963999999999
#
# number of rings (size 3 to 8) (size 9 to 14) (size 15 to 20)
#    0.000    2.333    0.000    0.500    7.000    6.333 
#    0.000    9.167    0.000    2.000    0.000    0.000 
#    0.000    0.000    0.000    0.000    0.000    0.000 
#
# Total GULP energy -133930.104042 kJ/mol
# GULP energy per Si atom -5580.421002 kJ/mol
# Density = 2.114972 g / cm^3
# Si number density = 21.197964 Si / 1000 Ang^3
#
#
#
# Elastic Constant Matrix: (Units=GPa)
#
#
# Indices 1 2 3 4 5 6 
#
# 1 57.7689 22.9515 6.1220 0.0000 5.4132 0.0000
# 2 22.9515 157.9640 85.1416 0.0000 23.0241 0.0000
# 3 6.1220 85.1416 89.8909 0.0000 15.3303 0.0000
# 4 0.0000 0.0000 0.0000 34.4401 0.0000 -0.5681
# 5 5.4132 23.0241 15.3303 0.0000 26.6386 0.0000
# 6 0.0000 0.0000 0.0000 -0.5681 0.0000 26.2089
#
#
#
# Elastic Compliance Matrix: (Units=1/GPa)
#
#
# Indices 1 2 3 4 5 6 
#
# 1 0.018769 -0.003942 0.002799 0.000000 -0.002018 0.000000
# 2 -0.003942 0.014285 -0.012522 0.000000 -0.004339 0.000000
# 3 0.002799 -0.012522 0.023336 0.000000 -0.003176 0.000000
# 4 0.000000 0.000000 0.000000 0.029046 0.000000 0.000630
# 5 -0.002018 -0.004339 -0.003176 0.000000 0.043528 0.000000
# 6 0.000000 0.000000 0.000000 0.000630 0.000000 0.038169
#
#
# Mechanical properties :
#
#
# Convention : Reuss Voigt Hill
#
# Bulk Modulus (GPa) = 34.40989 59.33936 46.87463
# Shear Modulus (GPa) = 24.49214 30.21809 27.35512
#
# Velocity S-wave (km/s) = 3.40281 3.77970 3.59619
# Velocity P-wave (km/s) = 5.63087 6.86308 6.27728
#
# Compressibility (1/GPa) = 0.02906141
#
# Stress axis : x y z
#
# Youngs Moduli (GPa) = 53.27978 70.00426 42.85302
#
# Poissons Ratio (x) = 0.27594 -0.11996
# Poissons Ratio (y) = 0.21002 0.53659
# Poissons Ratio (z) = -0.14915 0.87657
#
# Static dielectric constant tensor:
#      x y z
#    x 1.803990 0.000000 -0.002470 
#    y 0.000000 1.858120 0.000000 
#    z -0.002470 0.000000 1.837090 
# 
# From -- ./inp_files/257900.got.cif
#   From: 2010.05.17/outbox.cif.g08.bks.cpg/sg12_129_cif.got.tgz:257900.got - 2010.06.03 13:09:07.
