data_PCOD9213047
_publ_section_title
;
Structure prediction by ZEFSAII (Michael W. Deem and Ramdas Pophale) SiO2 
 PCOD9213047
Probable space group: C 2/M
;
_chemical_formula_sum "Si O2"
_cell_formula_units_Z 56
_cell_length_a 28.349570
_cell_length_b 14.448138
_cell_length_c 9.371607
_cell_angle_alpha 90.000000
_cell_angle_beta 52.018236
_cell_angle_gamma 90.000000
_cell_volume 3025.607084
_symmetry_space_group_name_H-M "C 2/M"
_symmetry_group_IT_number 12
_symmetry_cell_setting 'monoclinic'
loop_
_space_group_symop_operation_xyz
x,y,z
-x,y,-z
-x,-y,-z
x,-y,z
1/2+x,1/2+y,z
1/2-x,1/2+y,-z
1/2-x,1/2-y,-z
1/2+x,1/2-y,z
loop_
_atom_site_type_symbol
_atom_site_label
_atom_site_fract_x
_atom_site_fract_y
_atom_site_fract_z
Si Si1 0.407472 0.893939 0.738570
Si Si2 0.681054 0.728392 0.094262
Si Si3 0.677374 0.715256 0.781669
Si Si4 0.025411 0.607252 0.691339
Si Si5 0.868111 0.893861 0.558440
Si Si6 0.750206 0.394255 0.419011
Si Si7 0.059899 0.783574 0.806341
O O1 0.353098 0.825358 0.847446
O O2 0.436560 0.886778 0.526439
O O3 0.458128 0.871354 0.762130
O O4 0.389774 0.000000 0.793258
O O5 0.648583 0.665824 0.272556
O O6 0.750000 0.750000 0.000000
O O7 0.674122 0.685410 0.950798
O O8 0.724728 0.649355 0.612668
O O9 0.702189 0.820348 0.726725
O O10 0.614911 0.713598 0.814397
O O11 0.027908 0.500000 0.735060
O O12 0.047950 0.681216 0.763750
O O13 0.807142 0.893936 0.578483
O O14 0.919160 0.846451 0.366297
O O15 0.883314 0.000000 0.563725
O O16 0.771458 0.500000 0.394355
O O17 0.000000 0.813877 0.000000
#
# Coordination Sequence:
#
# PCOD9213047 Si02
#       7
#     8   8   8   8   8   8   8
#     4   9  19  35  59  90 122 155 194 242 301 361
#     4  12  22  37  61  89 121 157 198 250 300 362
#     4  10  22  36  58  90 120 151 202 246 295 361
#     4   9  18  36  61  89 121 157 195 242 302 360
#     4  10  22  41  62  85 119 158 201 252 300 351
#     4   9  19  39  60  81 117 158 193 241 299 354
#     4  11  22  39  62  88 121 163 202 248 300 359
#
# _framework density 18.508682
#
# number of rings (size 3 to 8) (size 9 to 14) (size 15 to 20)
#    0.000    2.000    2.857    1.714    0.000    2.857 
#    0.000    1.429    0.000    6.000    0.000    0.000 
#    0.000    0.000    0.000    0.000    0.000    0.000 
#
# Total GULP energy -156282.645397 kJ/mol
# GULP energy per Si atom -5581.523050 kJ/mol
# Density = 1.846656 g / cm^3
# Si number density = 18.508682 Si / 1000 Ang^3
#
#
#
# Elastic Constant Matrix: (Units=GPa)
#
#
# Indices 1 2 3 4 5 6 
#
# 1 47.5909 17.7935 37.0232 0.0000 5.5330 0.0000
# 2 17.7935 59.6600 41.3059 0.0000 4.5079 0.0000
# 3 37.0232 41.3059 121.8230 0.0000 9.6330 0.0000
# 4 0.0000 0.0000 0.0000 9.4797 0.0000 -4.9541
# 5 5.5330 4.5079 9.6330 0.0000 33.3419 0.0000
# 6 0.0000 0.0000 0.0000 -4.9541 0.0000 29.4887
#
#
#
# Elastic Compliance Matrix: (Units=1/GPa)
#
#
# Indices 1 2 3 4 5 6 
#
# 1 0.028128 -0.003171 -0.007305 0.000000 -0.002129 0.000000
# 2 -0.003171 0.022284 -0.006545 0.000000 -0.000596 0.000000
# 3 -0.007305 -0.006545 0.012774 0.000000 -0.001593 0.000000
# 4 0.000000 0.000000 0.000000 0.115641 0.000000 0.019428
# 5 -0.002129 -0.000596 -0.001593 0.000000 0.030886 0.000000
# 6 0.000000 0.000000 0.000000 0.019428 0.000000 0.037175
#
#
# Mechanical properties :
#
#
# Convention : Reuss Voigt Hill
#
# Bulk Modulus (GPa) = 34.31176 46.81324 40.56250
# Shear Modulus (GPa) = 17.20311 23.32548 20.26430
#
# Velocity S-wave (km/s) = 3.05202 3.55384 3.31245
# Velocity P-wave (km/s) = 5.56760 6.49517 6.04919
#
# Compressibility (1/GPa) = 0.02914453
#
# Stress axis : x y z
#
# Youngs Moduli (GPa) = 35.55134 44.87578 78.28473
#
# Poissons Ratio (x) = 0.14229 0.57188
# Poissons Ratio (y) = 0.11272 0.51237
# Poissons Ratio (z) = 0.25971 0.29371
#
# Static dielectric constant tensor:
#      x y z
#    x 1.619180 0.000000 0.005230 
#    y 0.000000 1.623400 0.000000 
#    z 0.005230 0.000000 1.673840 
# 
# From -- ./inp_files/86331.got.cif
#   From: 2010.05.17/outbox.cif.g08.bks.cpg/sg12_44_cif.got.tgz:86331.got - 2010.06.03 13:09:07.
