data_PCOD9213902
_publ_section_title
;
Structure prediction by ZEFSAII (Michael W. Deem and Ramdas Pophale) SiO2 
 PCOD9213902
Probable space group: C 2/M
;
_chemical_formula_sum "Si O2"
_cell_formula_units_Z 52
_cell_length_a 11.549453
_cell_length_b 35.036215
_cell_length_c 7.253202
_cell_angle_alpha 90.000000
_cell_angle_beta 131.092814
_cell_angle_gamma 90.000000
_cell_volume 2211.951876
_symmetry_space_group_name_H-M "C 2/M"
_symmetry_group_IT_number 12
_symmetry_cell_setting 'monoclinic'
loop_
_space_group_symop_operation_xyz
x,y,z
-x,y,-z
-x,-y,-z
x,-y,z
1/2+x,1/2+y,z
1/2-x,1/2+y,-z
1/2-x,1/2-y,-z
1/2+x,1/2-y,z
loop_
_atom_site_type_symbol
_atom_site_label
_atom_site_fract_x
_atom_site_fract_y
_atom_site_fract_z
Si Si1 0.570695 0.262469 0.282325
Si Si2 0.160735 0.384434 0.556646
Si Si3 0.000000 0.172703 0.500000
Si Si4 0.345848 0.541803 0.090368
Si Si5 0.501452 0.818523 0.219077
Si Si6 0.771525 0.877413 0.036225
Si Si7 0.296970 0.542242 0.595623
O O1 0.750000 0.250000 0.500000
O O2 0.546549 0.299072 0.383214
O O3 0.483990 0.224490 0.269098
O O4 0.500000 0.268601 0.000000
O O5 0.195810 0.419912 0.460289
O O6 0.000000 0.394021 0.500000
O O7 0.143085 0.343256 0.443011
O O8 0.301827 0.381127 0.848720
O O9 0.120446 0.144055 0.712975
O O10 0.307073 0.500000 0.125714
O O11 0.257802 0.578330 0.078094
O O12 0.530061 0.547478 0.299959
O O13 0.311663 0.540168 0.834981
O O14 0.500000 0.814447 0.000000
O O15 0.367662 0.847844 0.119971
O O16 0.240022 0.500000 0.479820
#
# Coordination Sequence:
#
# PCOD9213902 Si02
#       7
#     8   8   4   8   8   8   8
#     4  11  27  46  69 100 132 179 228 274 340 403
#     4   9  19  34  58  85 118 165 209 257 317 385
#     4  12  26  42  69  94 136 164 215 282 324 396
#     4   8  15  31  55  83 122 164 205 259 315 379
#     4  10  22  41  62  84 124 164 209 262 322 391
#     4  10  22  39  59  95 122 161 212 258 329 384
#     4   8  14  27  51  86 122 158 206 260 314 371
#
# _framework density 23.508649999999999
#
# number of rings (size 3 to 8) (size 9 to 14) (size 15 to 20)
#    0.000    2.462    0.000    2.769    5.385    4.000 
#    2.769    2.692    0.000    1.846    0.000    0.000 
#    0.000    0.000    0.000    0.000    0.000    0.000 
#
# Total GULP energy -144834.803668 kJ/mol
# GULP energy per Si atom -5570.569372 kJ/mol
# Density = 2.345514 g / cm^3
# Si number density = 23.508650 Si / 1000 Ang^3
#
#
#
# Elastic Constant Matrix: (Units=GPa)
#
#
# Indices 1 2 3 4 5 6 
#
# 1 32.3568 20.3615 22.5987 0.0000 -16.0288 0.0000
# 2 20.3615 187.6037 43.0690 0.0000 -9.0661 0.0000
# 3 22.5987 43.0690 113.9174 0.0000 -19.0317 0.0000
# 4 0.0000 0.0000 0.0000 33.7070 0.0000 5.7615
# 5 -16.0288 -9.0661 -19.0317 0.0000 27.7877 0.0000
# 6 0.0000 0.0000 0.0000 5.7615 0.0000 27.3798
#
#
#
# Elastic Compliance Matrix: (Units=1/GPa)
#
#
# Indices 1 2 3 4 5 6 
#
# 1 0.047438 -0.003017 -0.004362 0.000000 0.023392 0.000000
# 2 -0.003017 0.006034 -0.001857 0.000000 -0.001044 0.000000
# 3 -0.004362 -0.001857 0.011093 0.000000 0.004476 0.000000
# 4 0.000000 0.000000 0.000000 0.030774 0.000000 -0.006476
# 5 0.023392 -0.001044 0.004476 0.000000 0.052206 0.000000
# 6 0.000000 0.000000 0.000000 -0.006476 0.000000 0.037886
#
#
# Mechanical properties :
#
#
# Convention : Reuss Voigt Hill
#
# Bulk Modulus (GPa) = 21.69499 56.21516 38.95507
# Shear Modulus (GPa) = 22.80315 34.29815 28.55065
#
# Velocity S-wave (km/s) = 3.11784 3.82378 3.48871
# Velocity P-wave (km/s) = 4.71273 6.59238 5.73015
#
# Compressibility (1/GPa) = 0.04609359
#
# Stress axis : x y z
#
# Youngs Moduli (GPa) = 21.07997 165.73527 90.14304
#
# Poissons Ratio (x) = 0.50000 0.39321
# Poissons Ratio (y) = 0.06360 0.16740
# Poissons Ratio (z) = 0.09195 0.30778
#
# Static dielectric constant tensor:
#      x y z
#    x 1.998080 0.000000 -0.094550 
#    y 0.000000 1.960320 0.000000 
#    z -0.094550 0.000000 2.186630 
# 
# From -- ./inp_files/68669.got.cif
#   From: 2010.05.17/outbox.cif.g08.bks.cpg/sg12_35_cif.got.tgz:68669.got - 2010.06.03 13:09:07.
