data_PCOD9213049
_publ_section_title
;
Structure prediction by ZEFSAII (Michael W. Deem and Ramdas Pophale) SiO2 
 PCOD9213049
Probable space group: C 2/M
;
_chemical_formula_sum "Si O2"
_cell_formula_units_Z 32
_cell_length_a 16.120055
_cell_length_b 10.811373
_cell_length_c 8.484306
_cell_angle_alpha 90.000000
_cell_angle_beta 56.761604
_cell_angle_gamma 90.000000
_cell_volume 1236.733872
_symmetry_space_group_name_H-M "C 2/M"
_symmetry_group_IT_number 12
_symmetry_cell_setting 'monoclinic'
loop_
_space_group_symop_operation_xyz
x,y,z
-x,y,-z
-x,-y,-z
x,-y,z
1/2+x,1/2+y,z
1/2-x,1/2+y,-z
1/2-x,1/2-y,-z
1/2+x,1/2-y,z
loop_
_atom_site_type_symbol
_atom_site_label
_atom_site_fract_x
_atom_site_fract_y
_atom_site_fract_z
Si Si1 0.782170 0.642639 0.092727
Si Si2 0.961457 0.000000 0.801616
Si Si3 0.540779 0.780476 0.241574
Si Si4 0.168982 0.000000 0.743154
Si Si5 0.662651 0.800105 0.417922
O O1 0.767879 0.500000 0.061598
O O2 0.717218 0.672657 0.313505
O O3 0.750000 0.750000 0.000000
O O4 0.899660 0.672457 0.972506
O O5 0.944708 0.866674 0.742614
O O6 0.077870 0.000000 0.719768
O O7 0.890904 0.000000 0.028867
O O8 0.597732 0.841387 0.331278
O O9 0.423313 0.800648 0.363021
O O10 0.244080 0.886752 0.652945
#
# Coordination Sequence:
#
# PCOD9213049 Si02
#       5
#     8   4   8   4   8
#     4  10  22  36  58  93 133 163 201 267 323 367
#     4  11  24  43  64  91 130 177 216 257 320 394
#     4  10  23  37  65  95 129 162 221 264 320 372
#     4  11  24  43  64  91 130 177 216 257 320 394
#     4  10  23  37  65  95 129 162 221 264 320 372
#
# _framework density 25.874606
#
# number of rings (size 3 to 8) (size 9 to 14) (size 15 to 20)
#    0.000    1.750    2.500    0.000   17.500    3.000 
#    0.000    0.000    0.000    1.500    0.000    0.000 
#    0.000    0.000    0.000    0.000    0.000    0.000 
#
# Total GULP energy -89352.995324 kJ/mol
# GULP energy per Si atom -5584.562208 kJ/mol
# Density = 2.581571 g / cm^3
# Si number density = 25.874606 Si / 1000 Ang^3
#
#
#
# Elastic Constant Matrix: (Units=GPa)
#
#
# Indices 1 2 3 4 5 6 
#
# 1 114.2864 49.6078 55.3092 0.0000 -38.3888 0.0000
# 2 49.6078 169.5264 35.1258 0.0000 -26.2780 0.0000
# 3 55.3092 35.1258 193.8205 0.0000 -68.5671 0.0000
# 4 0.0000 0.0000 0.0000 29.0345 0.0000 -33.4823
# 5 -38.3888 -26.2780 -68.5671 0.0000 51.9802 0.0000
# 6 0.0000 0.0000 0.0000 -33.4823 0.0000 41.8829
#
#
#
# Elastic Compliance Matrix: (Units=1/GPa)
#
#
# Indices 1 2 3 4 5 6 
#
# 1 0.012516 -0.002418 -0.000555 0.000000 0.007290 0.000000
# 2 -0.002418 0.006867 0.000079 0.000000 0.001790 0.000000
# 3 -0.000555 0.000079 0.009698 0.000000 0.012423 0.000000
# 4 0.000000 0.000000 0.000000 0.440955 0.000000 0.352511
# 5 0.007290 0.001790 0.012423 0.000000 0.041914 0.000000
# 6 0.000000 0.000000 0.000000 0.352511 0.000000 0.305683
#
#
# Mechanical properties :
#
#
# Convention : Reuss Voigt Hill
#
# Bulk Modulus (GPa) = 42.92861 84.19098 63.55979
# Shear Modulus (GPa) = 6.01549 47.08553 26.55051
#
# Velocity S-wave (km/s) = 1.52640 4.27049 3.20679
# Velocity P-wave (km/s) = 4.44225 7.54485 6.19106
#
# Compressibility (1/GPa) = 0.02329449
#
# Stress axis : x y z
#
# Youngs Moduli (GPa) = 79.89455 145.61474 103.11012
#
# Poissons Ratio (x) = 0.35206 0.05719
# Poissons Ratio (y) = 0.19316 -0.00810
# Poissons Ratio (z) = 0.04432 -0.01143
#
# Static dielectric constant tensor:
#      x y z
#    x 2.053060 0.000000 0.004880 
#    y 0.000000 2.039350 0.000000 
#    z 0.004880 0.000000 2.187400 
# 
# From -- ./inp_files/152569.got.cif
#   From: 2010.05.17/outbox.cif.g08.bks.cpg/sg12_77_cif.got.tgz:152569.got - 2010.06.03 13:09:07.
