data_PCOD9213473
_publ_section_title
;
Structure prediction by ZEFSAII (Michael W. Deem and Ramdas Pophale) SiO2 
 PCOD9213473
Probable space group: C 2/M
;
_chemical_formula_sum "Si O2"
_cell_formula_units_Z 28
_cell_length_a 29.917580
_cell_length_b 8.235734
_cell_length_c 13.288823
_cell_angle_alpha 90.000000
_cell_angle_beta 21.482300
_cell_angle_gamma 90.000000
_cell_volume 1199.085008
_symmetry_space_group_name_H-M "C 2/M"
_symmetry_group_IT_number 12
_symmetry_cell_setting 'monoclinic'
loop_
_space_group_symop_operation_xyz
x,y,z
-x,y,-z
-x,-y,-z
x,-y,z
1/2+x,1/2+y,z
1/2-x,1/2+y,-z
1/2-x,1/2-y,-z
1/2+x,1/2-y,z
loop_
_atom_site_type_symbol
_atom_site_label
_atom_site_fract_x
_atom_site_fract_y
_atom_site_fract_z
Si Si1 0.500000 0.741313 0.000000
Si Si2 0.871216 0.500000 0.503584
Si Si3 0.698808 0.000000 0.575013
Si Si4 0.378208 0.500000 0.373351
Si Si5 0.634955 0.000000 0.016319
Si Si6 0.704481 0.313577 0.987954
O O1 0.465240 0.653492 0.178243
O O2 0.381937 0.847626 0.224614
O O3 0.800699 0.500000 0.545985
O O4 0.821694 0.347824 0.671562
O O5 0.016174 0.500000 0.194775
O O6 0.822570 0.000000 0.375784
O O7 0.264494 0.500000 0.685357
O O8 0.631142 0.165241 0.091004
O O9 0.650194 0.500000 0.108731
O O10 0.750000 0.250000 0.000000
#
# Coordination Sequence:
#
# PCOD9213473 Si02
#       6
#     4   4   4   4   4   8
#     4  10  22  38  58  94 124 176 226 260 316 382
#     4  10  25  41  66 103 134 177 228 273 330 408
#     4  11  21  41  64  90 138 177 215 271 323 377
#     4  11  24  38  65  93 135 180 216 269 320 391
#     4  12  22  45  69  98 139 176 221 278 333 395
#     4  10  23  45  70 100 131 170 220 280 340 405
#
# _framework density 23.351139
#
# number of rings (size 3 to 8) (size 9 to 14) (size 15 to 20)
#    0.857    0.571    1.429    4.286    0.000    4.571 
#    2.571    1.429    0.000    0.000    0.000    0.000 
#    0.000    0.000    0.000    0.000    0.000    0.000 
#
# Total GULP energy -78067.413042 kJ/mol
# GULP energy per Si atom -5576.243789 kJ/mol
# Density = 2.329799 g / cm^3
# Si number density = 23.351139 Si / 1000 Ang^3
#
#
#
# Elastic Constant Matrix: (Units=GPa)
#
#
# Indices 1 2 3 4 5 6 
#
# 1 99.4019 20.3085 25.6095 0.0000 30.8768 0.0000
# 2 20.3085 144.8903 2.8753 0.0000 9.2224 0.0000
# 3 25.6095 2.8753 39.7603 0.0000 9.2542 0.0000
# 4 0.0000 0.0000 0.0000 38.7567 0.0000 7.6220
# 5 30.8768 9.2224 9.2542 0.0000 24.1731 0.0000
# 6 0.0000 0.0000 0.0000 7.6220 0.0000 47.4317
#
#
#
# Elastic Compliance Matrix: (Units=1/GPa)
#
#
# Indices 1 2 3 4 5 6 
#
# 1 0.018461 -0.001146 -0.007049 0.000000 -0.020445 0.000000
# 2 -0.001146 0.007145 0.000566 0.000000 -0.001478 0.000000
# 3 -0.007049 0.000566 0.030305 0.000000 -0.002813 0.000000
# 4 0.000000 0.000000 0.000000 0.026644 0.000000 -0.004282
# 5 -0.020445 -0.001478 -0.002813 0.000000 0.069124 0.000000
# 6 0.000000 0.000000 0.000000 -0.004282 0.000000 0.021771
#
#
# Mechanical properties :
#
#
# Convention : Reuss Voigt Hill
#
# Bulk Modulus (GPa) = 24.59928 42.40435 33.50182
# Shear Modulus (GPa) = 24.72056 37.75626 31.23841
#
# Velocity S-wave (km/s) = 3.25721 4.02542 3.66152
# Velocity P-wave (km/s) = 4.97024 6.30906 5.67924
#
# Compressibility (1/GPa) = 0.04065159
#
# Stress axis : x y z
#
# Youngs Moduli (GPa) = 54.16766 139.95165 32.99778
#
# Poissons Ratio (x) = 0.16044 0.23261
# Poissons Ratio (y) = 0.06210 -0.01867
# Poissons Ratio (z) = 0.38185 -0.07918
#
# Static dielectric constant tensor:
#      x y z
#    x 1.844910 0.000000 0.034940 
#    y 0.000000 2.077630 0.000000 
#    z 0.034940 0.000000 1.847440 
# 
# From -- ./inp_files/179583.got.cif
#   From: 2010.05.17/outbox.cif.g08.bks.cpg/sg12_90_cif.got.tgz:179583.got - 2010.06.03 13:09:07.
