data_PCOD9213126
_publ_section_title
;
Structure prediction by ZEFSAII (Michael W. Deem and Ramdas Pophale) SiO2 
 PCOD9213126
Probable space group: C 2/M
;
_chemical_formula_sum "Si O2"
_cell_formula_units_Z 56
_cell_length_a 8.437542
_cell_length_b 27.294094
_cell_length_c 15.001527
_cell_angle_alpha 90.000000
_cell_angle_beta 120.356660
_cell_angle_gamma 90.000000
_cell_volume 2981.114485
_symmetry_space_group_name_H-M "C 2/M"
_symmetry_group_IT_number 12
_symmetry_cell_setting 'monoclinic'
loop_
_space_group_symop_operation_xyz
x,y,z
-x,y,-z
-x,-y,-z
x,-y,z
1/2+x,1/2+y,z
1/2-x,1/2+y,-z
1/2-x,1/2-y,-z
1/2+x,1/2-y,z
loop_
_atom_site_type_symbol
_atom_site_label
_atom_site_fract_x
_atom_site_fract_y
_atom_site_fract_z
Si Si1 0.097499 0.657409 0.200413
Si Si2 0.185236 0.689077 0.597149
Si Si3 0.564086 0.281781 0.678707
Si Si4 0.718365 0.346040 0.195476
Si Si5 0.442849 0.256808 0.108735
Si Si6 0.659778 0.054851 0.118627
Si Si7 0.536516 0.447860 0.114807
O O1 0.291867 0.674689 0.294591
O O2 0.123612 0.603841 0.165608
O O3 0.923944 0.658538 0.216687
O O4 0.044169 0.704470 0.123233
O O5 0.359726 0.704629 0.589056
O O6 0.129704 0.736124 0.640097
O O7 0.272149 0.653893 0.695208
O O8 0.000000 0.670766 0.500000
O O9 0.568229 0.266622 0.786001
O O10 0.576785 0.303157 0.122121
O O11 0.651448 0.399162 0.151765
O O12 0.250000 0.250000 0.000000
O O13 0.851528 0.059202 0.119798
O O14 0.657271 0.000000 0.161470
O O15 0.500000 0.054412 0.000000
O O16 0.621255 0.500000 0.168314
O O17 0.500000 0.452374 0.000000
#
# Coordination Sequence:
#
# PCOD9213126 Si02
#       7
#     8   8   8   8   8   8   8
#     4  12  22  36  55  81 120 149 190 236 283 341
#     4  11  21  38  59  80 113 152 192 242 294 341
#     4  11  21  38  52  83 114 149 195 235 281 350
#     4  11  23  38  57  84 117 148 197 240 285 346
#     4  11  24  37  53  81 121 161 192 228 285 349
#     4  10  22  37  53  79 110 151 200 236 273 327
#     4  10  22  40  60  82 114 156 197 236 282 338
#
# _framework density 18.784921000000001
#
# number of rings (size 3 to 8) (size 9 to 14) (size 15 to 20)
#    0.000    1.143    4.286    3.000    6.000    2.857 
#    0.000    0.000    0.000    0.429    0.000    0.000 
#    0.000    5.143    0.000    0.000    0.000    0.000 
#
# Total GULP energy -156006.239789 kJ/mol
# GULP energy per Si atom -5571.651421 kJ/mol
# Density = 1.874217 g / cm^3
# Si number density = 18.784921 Si / 1000 Ang^3
#
#
#
# Elastic Constant Matrix: (Units=GPa)
#
#
# Indices 1 2 3 4 5 6 
#
# 1 82.5405 22.5161 -0.7390 0.0000 16.4838 0.0000
# 2 22.5161 121.1763 7.3328 0.0000 2.1527 0.0000
# 3 -0.7390 7.3328 43.4321 0.0000 22.8398 0.0000
# 4 0.0000 0.0000 0.0000 13.4338 0.0000 -10.0657
# 5 16.4838 2.1527 22.8398 0.0000 30.4291 0.0000
# 6 0.0000 0.0000 0.0000 -10.0657 0.0000 -4.0743
#
#
#
# Elastic Compliance Matrix: (Units=1/GPa)
#
#
# Indices 1 2 3 4 5 6 
#
# 1 0.016082 -0.003249 0.008727 0.000000 -0.015033 0.000000
# 2 -0.003249 0.009005 -0.003579 0.000000 0.003809 0.000000
# 3 0.008727 -0.003579 0.043170 0.000000 -0.036878 0.000000
# 4 0.000000 0.000000 0.000000 0.026109 0.000000 -0.064502
# 5 -0.015033 0.003809 -0.036878 0.000000 0.068417 0.000000
# 6 0.000000 0.000000 0.000000 -0.064502 0.000000 -0.086086
#
#
# Mechanical properties :
#
#
# Convention : Reuss Voigt Hill
#
# Bulk Modulus (GPa) = 13.87817 33.92986 23.90401
# Shear Modulus (GPa) = 51.59040 22.49365 37.04203
#
# Velocity S-wave (km/s) = 5.24627 3.46415 4.44543
# Velocity P-wave (km/s) = 6.64092 5.83968 6.25315
#
# Compressibility (1/GPa) = 0.07205562
#
# Stress axis : x y z
#
# Youngs Moduli (GPa) = 62.18185 111.04826 23.16416
#
# Poissons Ratio (x) = 0.36083 -0.20216
# Poissons Ratio (y) = 0.20205 0.08290
# Poissons Ratio (z) = -0.54269 0.39743
#
# Static dielectric constant tensor:
#      x y z
#    x 1.766880 0.000000 0.000230 
#    y 0.000000 1.719220 0.000000 
#    z 0.000230 0.000000 1.684210 
# 
# From -- ./inp_files/199930.got.cif
#   From: 2010.05.17/outbox.cif.g08.bks.cpg/sg12_100_cif.got.tgz:199930.got - 2010.06.03 13:09:07.
