data_PCOD9213124
_publ_section_title
;
Structure prediction by ZEFSAII (Michael W. Deem and Ramdas Pophale) SiO2 
 PCOD9213124
Probable space group: C 2/M
;
_chemical_formula_sum "Si O2"
_cell_formula_units_Z 56
_cell_length_a 14.832274
_cell_length_b 7.908275
_cell_length_c 25.153580
_cell_angle_alpha 90.000000
_cell_angle_beta 116.080760
_cell_angle_gamma 90.000000
_cell_volume 2650.027585
_symmetry_space_group_name_H-M "C 2/M"
_symmetry_group_IT_number 12
_symmetry_cell_setting 'monoclinic'
loop_
_space_group_symop_operation_xyz
x,y,z
-x,y,-z
-x,-y,-z
x,-y,z
1/2+x,1/2+y,z
1/2-x,1/2+y,-z
1/2-x,1/2-y,-z
1/2+x,1/2-y,z
loop_
_atom_site_type_symbol
_atom_site_label
_atom_site_fract_x
_atom_site_fract_y
_atom_site_fract_z
Si Si1 0.600424 0.197121 0.488749
Si Si2 0.435498 0.701543 0.715951
Si Si3 0.224090 0.707555 0.616193
Si Si4 0.757402 0.305959 0.063135
Si Si5 0.976042 0.802448 0.151312
Si Si6 0.032894 0.295240 0.637004
Si Si7 0.935440 0.305570 0.933596
O O1 0.500000 0.199737 0.500000
O O2 0.688733 0.269060 0.548524
O O3 0.560655 0.271675 0.423162
O O4 0.624423 0.000000 0.485509
O O5 0.421803 0.500000 0.717759
O O6 0.330650 0.768980 0.665131
O O7 0.468281 0.766633 0.782040
O O8 0.519261 0.736294 0.693306
O O9 0.224784 0.500000 0.613909
O O10 0.135906 0.754638 0.634722
O O11 0.726051 0.500000 0.058407
O O12 0.870488 0.285269 0.112170
O O13 0.679299 0.202884 0.078289
O O14 0.750000 0.250000 0.000000
O O15 0.042537 0.785516 0.115706
O O16 0.954101 0.000000 0.154651
O O17 0.029553 0.500000 0.634787
O O18 0.967897 0.500000 0.934613
O O19 0.000000 0.235736 0.000000
#
# Coordination Sequence:
#
# PCOD9213124 Si02
#       7
#     8   8   8   8   8   8   8
#     4   7  11  23  47  77 103 135 183 236 281 327
#     4  10  22  37  53  78 112 150 187 229 281 336
#     4   8  15  31  53  75 106 146 188 231 280 338
#     4  12  24  40  65  93 120 151 187 232 287 342
#     4  11  24  41  59  84 120 158 200 242 285 343
#     4   9  17  31  54  80 106 142 191 238 280 333
#     4  11  23  40  65  94 121 150 186 232 289 345
#
# _framework density 21.131855999999999
#
# number of rings (size 3 to 8) (size 9 to 14) (size 15 to 20)
#    0.000    2.286    1.429    3.857    0.000    3.429 
#    0.000    2.143    0.000    3.857    0.000    0.000 
#    0.000    0.000    0.000    0.000    0.000    0.000 
#
# Total GULP energy -156336.847159 kJ/mol
# GULP energy per Si atom -5583.458827 kJ/mol
# Density = 2.108376 g / cm^3
# Si number density = 21.131856 Si / 1000 Ang^3
#
#
#
# Elastic Constant Matrix: (Units=GPa)
#
#
# Indices 1 2 3 4 5 6 
#
# 1 72.4762 -11.1264 32.5946 0.0000 -2.3980 0.0000
# 2 -11.1264 31.7840 8.0567 0.0000 4.7270 0.0000
# 3 32.5946 8.0567 126.5504 0.0000 -12.8831 0.0000
# 4 0.0000 0.0000 0.0000 7.5252 0.0000 -0.0294
# 5 -2.3980 4.7270 -12.8831 0.0000 31.6560 0.0000
# 6 0.0000 0.0000 0.0000 -0.0294 0.0000 21.0907
#
#
#
# Elastic Compliance Matrix: (Units=1/GPa)
#
#
# Indices 1 2 3 4 5 6 
#
# 1 0.017198 0.007599 -0.005108 0.000000 -0.001911 0.000000
# 2 0.007599 0.036408 -0.004976 0.000000 -0.006886 0.000000
# 3 -0.005108 -0.004976 0.009984 0.000000 0.004419 0.000000
# 4 0.000000 0.000000 0.000000 0.132888 0.000000 0.000185
# 5 -0.001911 -0.006886 0.004419 0.000000 0.034272 0.000000
# 6 0.000000 0.000000 0.000000 0.000185 0.000000 0.047415
#
#
# Mechanical properties :
#
#
# Convention : Reuss Voigt Hill
#
# Bulk Modulus (GPa) = 17.05866 32.20670 24.63268
# Shear Modulus (GPa) = 16.51937 25.47342 20.99639
#
# Velocity S-wave (km/s) = 2.79897 3.47573 3.15555
# Velocity P-wave (km/s) = 4.30531 5.60192 4.99586
#
# Compressibility (1/GPa) = 0.05862127
#
# Stress axis : x y z
#
# Youngs Moduli (GPa) = 58.14541 27.46635 100.15702
#
# Poissons Ratio (x) = -0.20873 0.51160
# Poissons Ratio (y) = -0.44187 0.49840
# Poissons Ratio (z) = 0.29700 0.13668
#
# Static dielectric constant tensor:
#      x y z
#    x 1.747040 0.000000 0.010740 
#    y 0.000000 1.766040 0.000000 
#    z 0.010740 0.000000 1.772850 
# 
# From -- ./inp_files/339104.got.cif
#   From: 2010.05.17/outbox.cif.g08.bks.cpg/sg12_170_cif.got.tgz:339104.got - 2010.06.03 13:09:07.
