data_PCOD9213864
_publ_section_title
;
Structure prediction by ZEFSAII (Michael W. Deem and Ramdas Pophale) SiO2 
 PCOD9213864
Probable space group: C 2/M
;
_chemical_formula_sum "Si O2"
_cell_formula_units_Z 64
_cell_length_a 20.664965
_cell_length_b 8.574616
_cell_length_c 22.423321
_cell_angle_alpha 90.000000
_cell_angle_beta 59.570803
_cell_angle_gamma 90.000000
_cell_volume 3425.984213
_symmetry_space_group_name_H-M "C 2/M"
_symmetry_group_IT_number 12
_symmetry_cell_setting 'monoclinic'
loop_
_space_group_symop_operation_xyz
x,y,z
-x,y,-z
-x,-y,-z
x,-y,z
1/2+x,1/2+y,z
1/2-x,1/2+y,-z
1/2-x,1/2-y,-z
1/2+x,1/2-y,z
loop_
_atom_site_type_symbol
_atom_site_label
_atom_site_fract_x
_atom_site_fract_y
_atom_site_fract_z
Si Si1 0.032851 0.813827 0.697432
Si Si2 0.946153 0.311659 0.437276
Si Si3 0.733491 0.809710 0.260033
Si Si4 0.975355 0.686795 0.945606
Si Si5 0.369842 0.813338 0.801215
Si Si6 0.597282 0.688434 0.795518
Si Si7 0.332312 0.685005 0.948682
Si Si8 0.110270 0.310486 0.411008
O O1 0.951454 0.733501 0.738959
O O2 0.071456 0.761579 0.618134
O O3 0.077310 0.769881 0.736707
O O4 0.022940 0.000000 0.702206
O O5 0.943733 0.500000 0.433821
O O6 0.895349 0.262336 0.517303
O O7 0.031721 0.267905 0.415824
O O8 0.692839 0.764250 0.217609
O O9 0.819147 0.758296 0.226225
O O10 0.680755 0.756718 0.339394
O O11 0.733663 0.000000 0.261203
O O12 0.973571 0.500000 0.945432
O O13 0.893920 0.749264 0.965484
O O14 0.035062 0.744758 0.868942
O O15 0.000000 0.739171 0.000000
O O16 0.356912 0.735886 0.871019
O O17 0.366472 0.000000 0.809437
O O18 0.594747 0.500000 0.800912
O O19 0.331545 0.500000 0.953223
O O20 0.250000 0.750000 0.000000
O O21 0.111515 0.500000 0.410608
#
# Coordination Sequence:
#
# PCOD9213864 Si02
#       8
#     8   8   8   8   8   8   8   8
#     4  11  21  34  53  82 117 154 191 236 292 352
#     4   9  16  29  54  81 107 144 194 245 293 343
#     4   9  18  34  58  86 112 147 197 242 288 347
#     4  11  25  44  64  89 120 157 199 245 294 347
#     4  11  21  37  63  89 114 149 196 249 292 336
#     4  10  22  39  59  83 114 156 196 235 289 355
#     4  12  26  44  65  92 125 158 195 242 295 351
#     4   8  14  28  52  82 109 140 191 248 290 341
#
# _framework density 18.680762000000001
#
# number of rings (size 3 to 8) (size 9 to 14) (size 15 to 20)
#    0.000    1.875    2.500    3.000    1.750    1.500 
#    0.000    2.500    0.000    0.000    0.000    0.000 
#    0.000    0.000    0.000    0.000    0.000    0.000 
#
# Total GULP energy -178696.950396 kJ/mol
# GULP energy per Si atom -5584.279700 kJ/mol
# Density = 1.863824 g / cm^3
# Si number density = 18.680762 Si / 1000 Ang^3
#
#
#
# Elastic Constant Matrix: (Units=GPa)
#
#
# Indices 1 2 3 4 5 6 
#
# 1 147.4671 33.1259 56.5823 0.0000 14.8254 -0.0002
# 2 33.1259 29.4756 23.3993 -0.0001 8.4402 -0.0008
# 3 56.5823 23.3993 101.3413 0.0001 24.2591 0.0001
# 4 0.0000 -0.0001 0.0001 -6.3410 0.0000 -13.3939
# 5 14.8254 8.4402 24.2591 0.0000 34.3183 -0.0001
# 6 -0.0002 -0.0008 0.0001 -13.3939 -0.0001 12.3235
#
#
#
# Elastic Compliance Matrix: (Units=1/GPa)
#
#
# Indices 1 2 3 4 5 6 
#
# 1 0.010089 -0.008454 -0.003774 0.000000 0.000389 0.000000
# 2 -0.008454 0.049118 -0.005541 -0.000002 -0.004511 0.000001
# 3 -0.003774 -0.005541 0.015092 0.000000 -0.007675 0.000000
# 4 0.000000 -0.000002 0.000000 -0.047851 0.000000 -0.052007
# 5 0.000389 -0.004511 -0.007675 0.000000 0.035506 0.000000
# 6 0.000000 0.000001 0.000000 -0.052007 0.000000 0.024621
#
#
# Mechanical properties :
#
#
# Convention : Reuss Voigt Hill
#
# Bulk Modulus (GPa) = 25.79981 56.05545 40.92763
# Shear Modulus (GPa) = 37.02795 19.07192 28.04994
#
# Velocity S-wave (km/s) = 4.45696 3.19868 3.87918
# Velocity P-wave (km/s) = 6.35034 6.61168 6.48233
#
# Compressibility (1/GPa) = 0.03875998
#
# Stress axis : x y z
#
# Youngs Moduli (GPa) = 99.11516 20.35930 66.26225
#
# Poissons Ratio (x) = 0.17211 0.25009
# Poissons Ratio (y) = 0.83790 0.36717
# Poissons Ratio (z) = 0.37409 0.11281
#
# Static dielectric constant tensor:
#      x y z
#    x 1.710030 0.000000 0.067000 
#    y 0.000000 1.632910 0.000000 
#    z 0.067000 0.000000 1.690850 
# 
# From -- ./inp_files/319838.got.cif
#   From: 2010.05.17/outbox.cif.g08.bks.cpg/sg12_160_cif.got.tgz:319838.got - 2010.06.03 13:09:07.
