data_PCOD9213974
_publ_section_title
;
Structure prediction by ZEFSAII (Michael W. Deem and Ramdas Pophale) SiO2 
 PCOD9213974
Probable space group: C 2/M
;
_chemical_formula_sum "Si O2"
_cell_formula_units_Z 40
_cell_length_a 13.857243
_cell_length_b 10.207714
_cell_length_c 12.414373
_cell_angle_alpha 90.000000
_cell_angle_beta 98.802043
_cell_angle_gamma 90.000000
_cell_volume 1735.341853
_symmetry_space_group_name_H-M "C 2/M"
_symmetry_group_IT_number 12
_symmetry_cell_setting 'monoclinic'
loop_
_space_group_symop_operation_xyz
x,y,z
-x,y,-z
-x,-y,-z
x,-y,z
1/2+x,1/2+y,z
1/2-x,1/2+y,-z
1/2-x,1/2-y,-z
1/2+x,1/2-y,z
loop_
_atom_site_type_symbol
_atom_site_label
_atom_site_fract_x
_atom_site_fract_y
_atom_site_fract_z
Si Si1 0.401426 0.850882 0.625798
Si Si2 0.571153 0.351117 0.184746
Si Si3 0.146001 0.638946 0.037832
Si Si4 0.364550 0.852536 0.377734
Si Si5 0.150859 0.786174 0.835188
O O1 0.388294 0.736050 0.709547
O O2 0.354097 0.820833 0.501810
O O3 0.518522 0.855830 0.625260
O O4 0.372550 0.000000 0.654194
O O5 0.607448 0.500000 0.185039
O O6 0.597568 0.264516 0.085283
O O7 0.453894 0.354257 0.177862
O O8 0.102758 0.500000 0.065021
O O9 0.258430 0.642149 0.094726
O O10 0.139504 0.657764 0.908766
O O11 0.325489 0.752403 0.282891
O O12 0.327046 0.000000 0.354019
#
# Coordination Sequence:
#
# PCOD9213974 Si02
#       5
#     8   8   8   8   8
#     4   8  15  31  56  85 115 147 189 235 283 344
#     4  11  23  39  60  87 120 154 191 239 292 340
#     4  11  24  40  60  87 118 155 198 238 283 346
#     4   8  14  29  56  86 113 147 189 235 287 342
#     4  10  22  39  61  86 118 152 191 241 293 340
#
# _framework density 23.050211999999998
#
# number of rings (size 3 to 8) (size 9 to 14) (size 15 to 20)
#    0.000    2.400    0.000    3.600    0.000    8.800 
#    0.000   10.000    0.000    0.000    0.000    0.000 
#    0.000    0.000    0.000    0.000    0.000    0.000 
#
# Total GULP energy -111741.958219 kJ/mol
# GULP energy per Si atom -5587.097911 kJ/mol
# Density = 2.299775 g / cm^3
# Si number density = 23.050212 Si / 1000 Ang^3
#
#
#
# Elastic Constant Matrix: (Units=GPa)
#
#
# Indices 1 2 3 4 5 6 
#
# 1 93.6737 23.9169 3.8282 0.0000 3.6763 0.0000
# 2 23.9169 171.0769 60.1436 0.0000 -1.5916 0.0000
# 3 3.8282 60.1436 118.4297 0.0000 13.3953 0.0000
# 4 0.0000 0.0000 0.0000 4.3010 0.0000 -22.3332
# 5 3.6763 -1.5916 13.3953 0.0000 8.2881 0.0000
# 6 0.0000 0.0000 0.0000 -22.3332 0.0000 1.6543
#
#
#
# Elastic Compliance Matrix: (Units=1/GPa)
#
#
# Indices 1 2 3 4 5 6 
#
# 1 0.011520 -0.002301 0.001743 0.000000 -0.008368 0.000000
# 2 -0.002301 0.008144 -0.005328 0.000000 0.011196 0.000000
# 3 0.001743 -0.005328 0.013823 0.000000 -0.024138 0.000000
# 4 0.000000 0.000000 0.000000 -0.003365 0.000000 -0.045424
# 5 -0.008368 0.011196 -0.024138 0.000000 0.165528 0.000000
# 6 0.000000 0.000000 0.000000 -0.045424 0.000000 -0.008748
#
#
# Mechanical properties :
#
#
# Convention : Reuss Voigt Hill
#
# Bulk Modulus (GPa) = 46.05073 62.10641 54.07857
# Shear Modulus (GPa) = 24.28195 22.53478 23.40837
#
# Velocity S-wave (km/s) = 3.24919 3.13011 3.19021
# Velocity P-wave (km/s) = 5.83936 6.32977 6.08950
#
# Compressibility (1/GPa) = 0.02171518
#
# Stress axis : x y z
#
# Youngs Moduli (GPa) = 86.80507 122.78582 72.34102
#
# Poissons Ratio (x) = 0.28254 -0.12607
# Poissons Ratio (y) = 0.19974 0.38543
# Poissons Ratio (z) = -0.15128 0.65420
#
# Static dielectric constant tensor:
#      x y z
#    x 1.900590 0.000000 0.006000 
#    y 0.000000 1.866710 0.000000 
#    z 0.006000 0.000000 1.849940 
# 
# From -- ./inp_files/140490.got.cif
#   From: 2010.05.17/outbox.cif.g08.bks.cpg/sg12_71_cif.got.tgz:140490.got - 2010.06.03 13:09:07.
