data_PCOD9213685
_publ_section_title
;
Structure prediction by ZEFSAII (Michael W. Deem and Ramdas Pophale) SiO2 
 PCOD9213685
Probable space group: C 2/M
;
_chemical_formula_sum "Si O2"
_cell_formula_units_Z 44
_cell_length_a 5.242125
_cell_length_b 22.787325
_cell_length_c 19.773643
_cell_angle_alpha 90.000000
_cell_angle_beta 118.033573
_cell_angle_gamma 90.000000
_cell_volume 2084.908166
_symmetry_space_group_name_H-M "C 2/M"
_symmetry_group_IT_number 12
_symmetry_cell_setting 'monoclinic'
loop_
_space_group_symop_operation_xyz
x,y,z
-x,y,-z
-x,-y,-z
x,-y,z
1/2+x,1/2+y,z
1/2-x,1/2+y,-z
1/2-x,1/2-y,-z
1/2+x,1/2-y,z
loop_
_atom_site_type_symbol
_atom_site_label
_atom_site_fract_x
_atom_site_fract_y
_atom_site_fract_z
Si Si1 0.817465 0.216062 0.851574
Si Si2 0.150024 0.000000 0.948037
Si Si3 0.248067 0.616109 0.087086
Si Si4 0.720401 0.428375 0.763698
Si Si5 0.188881 0.682564 0.465525
Si Si6 0.114134 0.363135 0.705108
O O1 0.538210 0.230680 0.861591
O O2 0.716051 0.188208 0.768467
O O3 0.043120 0.168727 0.906043
O O4 0.061411 0.942247 0.898802
O O5 0.500000 0.000000 0.000000
O O6 0.000000 0.000000 0.000000
O O7 0.151314 0.604051 0.152420
O O8 0.000000 0.617238 0.000000
O O9 0.732243 0.500000 0.770409
O O10 0.393269 0.402261 0.719780
O O11 0.895306 0.403940 0.720788
O O12 0.500000 0.654197 0.500000
O O13 0.250000 0.750000 0.500000
O O14 0.000000 0.654206 0.500000
O O15 0.029105 0.671432 0.375373
#
# Coordination Sequence:
#
# PCOD9213685 Si02
#       6
#     8   4   8   8   8   8
#     4  11  25  41  64  92 135 186 218 271 341 416
#     4  10  22  38  64  92 122 162 214 304 348 368
#     4  10  23  44  65  98 132 177 238 297 341 391
#     4  11  23  43  69  98 134 183 230 279 345 399
#     4  10  22  38  66 102 130 169 209 272 327 390
#     4  11  24  42  68  99 141 174 223 278 335 409
#
# _framework density 21.104047000000001
#
# number of rings (size 3 to 8) (size 9 to 14) (size 15 to 20)
#    0.000    1.455    0.909    3.818    5.091    9.455 
#    0.000    0.000    0.000   10.909    0.000    0.000 
#    0.000    0.000    0.000    0.000    0.000    0.000 
#
# Total GULP energy -122664.977397 kJ/mol
# GULP energy per Si atom -5575.680791 kJ/mol
# Density = 2.105601 g / cm^3
# Si number density = 21.104047 Si / 1000 Ang^3
#
#
#
# Elastic Constant Matrix: (Units=GPa)
#
#
# Indices 1 2 3 4 5 6 
#
# 1 138.0247 9.2951 22.8640 0.0000 -6.4459 0.0000
# 2 9.2951 111.1714 19.6121 0.0000 4.6372 0.0000
# 3 22.8640 19.6121 107.4269 0.0000 13.1694 0.0000
# 4 0.0000 0.0000 0.0000 28.6746 0.0000 -1.6648
# 5 -6.4459 4.6372 13.1694 0.0000 30.4429 0.0000
# 6 0.0000 0.0000 0.0000 -1.6648 0.0000 -15.3734
#
#
#
# Elastic Compliance Matrix: (Units=1/GPa)
#
#
# Indices 1 2 3 4 5 6 
#
# 1 0.007700 -0.000418 -0.001869 0.000000 0.002503 0.000000
# 2 -0.000418 0.009332 -0.001510 0.000000 -0.000857 0.000000
# 3 -0.001869 -0.001510 0.010563 0.000000 -0.004735 0.000000
# 4 0.000000 0.000000 0.000000 0.034656 0.000000 -0.003753
# 5 0.002503 -0.000857 -0.004735 0.000000 0.035557 0.000000
# 6 0.000000 0.000000 0.000000 -0.003753 0.000000 -0.064641
#
#
# Mechanical properties :
#
#
# Convention : Reuss Voigt Hill
#
# Bulk Modulus (GPa) = 49.99972 51.12950 50.56461
# Shear Modulus (GPa) = 105.42366 29.07229 67.24797
#
# Velocity S-wave (km/s) = 7.07550 3.71559 5.65103
# Velocity P-wave (km/s) = 9.51282 6.53356 8.16030
#
# Compressibility (1/GPa) = 0.02000011
#
# Stress axis : x y z
#
# Youngs Moduli (GPa) = 129.87408 107.15628 94.67415
#
# Poissons Ratio (x) = 0.04484 0.17696
# Poissons Ratio (y) = 0.05434 0.14292
# Poissons Ratio (z) = 0.24276 0.16176
#
# Static dielectric constant tensor:
#      x y z
#    x 1.806430 0.000000 0.000500 
#    y 0.000000 1.820470 0.000000 
#    z 0.000500 0.000000 1.823130 
# 
# From -- ./inp_files/253264.got.cif
#   From: 2010.05.17/outbox.cif.g08.bks.cpg/sg12_127_cif.got.tgz:253264.got - 2010.06.03 13:09:07.
