data_PCOD9213854
_publ_section_title
;
Structure prediction by ZEFSAII (Michael W. Deem and Ramdas Pophale) SiO2 
 PCOD9213854
Probable space group: C 2/M
;
_chemical_formula_sum "Si O2"
_cell_formula_units_Z 56
_cell_length_a 9.715847
_cell_length_b 28.864145
_cell_length_c 14.930016
_cell_angle_alpha 90.000000
_cell_angle_beta 130.023284
_cell_angle_gamma 90.000000
_cell_volume 3206.309567
_symmetry_space_group_name_H-M "C 2/M"
_symmetry_group_IT_number 12
_symmetry_cell_setting 'monoclinic'
loop_
_space_group_symop_operation_xyz
x,y,z
-x,y,-z
-x,-y,-z
x,-y,z
1/2+x,1/2+y,z
1/2-x,1/2+y,-z
1/2-x,1/2-y,-z
1/2+x,1/2-y,z
loop_
_atom_site_type_symbol
_atom_site_label
_atom_site_fract_x
_atom_site_fract_y
_atom_site_fract_z
Si Si1 0.533482 0.811258 0.753144
Si Si2 0.340509 0.350055 0.359190
Si Si3 0.175818 0.650245 0.634185
Si Si4 0.516146 0.298606 0.742292
Si Si5 0.533698 0.449215 0.620271
Si Si6 0.659306 0.298358 0.992531
Si Si7 0.206188 0.550182 0.619368
O O1 0.353103 0.841291 0.678548
O O2 0.636509 0.819691 0.704220
O O3 0.490387 0.756435 0.740011
O O4 0.674255 0.824022 0.890458
O O5 0.500000 0.344938 0.500000
O O6 0.356886 0.312278 0.286757
O O7 0.358917 0.401312 0.323362
O O8 0.332447 0.674819 0.644925
O O9 0.226909 0.597701 0.681849
O O10 0.000000 0.648273 0.500000
O O11 0.583262 0.317252 0.866992
O O12 0.500000 0.450802 0.500000
O O13 0.612625 0.500000 0.678589
O O14 0.345304 0.445506 0.594758
O O15 0.500000 0.292542 0.000000
O O16 0.750000 0.250000 0.000000
O O17 0.242166 0.500000 0.678027
O O18 0.000000 0.549016 0.500000
#
# Coordination Sequence:
#
# PCOD9213854 Si02
#       7
#     8   8   8   8   8   8   8
#     4  11  24  36  55  78 112 146 188 228 265 321
#     4  11  23  36  53  85 116 148 182 218 275 341
#     4  11  21  34  53  81 113 148 177 220 274 335
#     4  11  22  38  56  77 111 149 187 229 267 317
#     4   9  18  33  52  75 107 143 180 225 268 319
#     4  10  22  39  59  79 102 141 197 244 268 304
#     4   9  18  32  52  77 105 142 184 222 268 323
#
# _framework density 17.465561999999998
#
# number of rings (size 3 to 8) (size 9 to 14) (size 15 to 20)
#    0.000    1.714    2.857    1.714   12.000    3.429 
#    0.000    0.000    0.000    0.000    0.000    6.000 
#    0.000    0.000    0.000    0.000    0.000    0.000 
#
# Total GULP energy -155913.172304 kJ/mol
# GULP energy per Si atom -5568.327582 kJ/mol
# Density = 1.742581 g / cm^3
# Si number density = 17.465562 Si / 1000 Ang^3
#
#
#
# Elastic Constant Matrix: (Units=GPa)
#
#
# Indices 1 2 3 4 5 6 
#
# 1 35.7932 -0.9337 1.1705 0.0000 4.1409 0.0000
# 2 -0.9337 93.3457 11.5651 0.0000 9.1776 0.0000
# 3 1.1705 11.5651 55.8665 0.0000 -2.1668 0.0000
# 4 0.0000 0.0000 0.0000 -5.1493 0.0000 1.2072
# 5 4.1409 9.1776 -2.1668 0.0000 25.4653 0.0000
# 6 0.0000 0.0000 0.0000 1.2072 0.0000 24.4094
#
#
#
# Elastic Compliance Matrix: (Units=1/GPa)
#
#
# Indices 1 2 3 4 5 6 
#
# 1 0.028579 0.000905 -0.000982 0.000000 -0.005057 0.000000
# 2 0.000905 0.011483 -0.002571 0.000000 -0.004504 0.000000
# 3 -0.000982 -0.002571 0.018556 0.000000 0.002665 0.000000
# 4 0.000000 0.000000 0.000000 -0.191977 0.000000 0.009495
# 5 -0.005057 -0.004504 0.002665 0.000000 0.041941 0.000000
# 6 0.000000 0.000000 0.000000 0.009495 0.000000 0.040498
#
#
# Mechanical properties :
#
#
# Convention : Reuss Voigt Hill
#
# Bulk Modulus (GPa) = 18.75413 23.17881 20.96647
# Shear Modulus (GPa) = -179.54602 20.49199 -79.52701
#
# Velocity S-wave (km/s) = -10.15003 3.42903 -6.75518
# Velocity P-wave (km/s) = 11.25181 5.38309 6.98661
#
# Compressibility (1/GPa) = 0.05332160
#
# Stress axis : x y z
#
# Youngs Moduli (GPa) = 34.99071 87.08305 53.89098
#
# Poissons Ratio (x) = -0.07879 0.05293
# Poissons Ratio (y) = -0.03166 0.13855
# Poissons Ratio (z) = 0.03437 0.22388
#
# Static dielectric constant tensor:
#      x y z
#    x 1.600470 0.000000 0.045110 
#    y 0.000000 1.636320 0.000000 
#    z 0.045110 0.000000 1.682980 
# 
# From -- ./inp_files/185192.got.cif
#   From: 2010.05.17/outbox.cif.g08.bks.cpg/sg12_93_cif.got.tgz:185192.got - 2010.06.03 13:09:07.
