data_PCOD9213374
_publ_section_title
;
Structure prediction by ZEFSAII (Michael W. Deem and Ramdas Pophale) SiO2 
 PCOD9213374
Probable space group: C 2/M
;
_chemical_formula_sum "Si O2"
_cell_formula_units_Z 52
_cell_length_a 5.997833
_cell_length_b 26.808531
_cell_length_c 15.917747
_cell_angle_alpha 90.000000
_cell_angle_beta 83.649865
_cell_angle_gamma 90.000000
_cell_volume 2543.760308
_symmetry_space_group_name_H-M "C 2/M"
_symmetry_group_IT_number 12
_symmetry_cell_setting 'monoclinic'
loop_
_space_group_symop_operation_xyz
x,y,z
-x,y,-z
-x,-y,-z
x,-y,z
1/2+x,1/2+y,z
1/2-x,1/2+y,-z
1/2-x,1/2-y,-z
1/2+x,1/2-y,z
loop_
_atom_site_type_symbol
_atom_site_label
_atom_site_fract_x
_atom_site_fract_y
_atom_site_fract_z
Si Si1 0.703094 0.702159 0.943873
Si Si2 0.625310 0.271672 0.757582
Si Si3 0.945629 0.553329 0.276365
Si Si4 0.347670 0.557080 0.879982
Si Si5 0.653227 0.385909 0.745608
Si Si6 0.000000 0.621802 0.000000
Si Si7 0.039557 0.057198 0.406111
O O1 0.621983 0.723797 0.859019
O O2 0.901229 0.661327 0.935406
O O3 0.500000 0.675084 0.000000
O O4 0.750000 0.750000 0.000000
O O5 0.389894 0.246274 0.733792
O O6 0.602341 0.328927 0.732427
O O7 0.074628 0.500000 0.271460
O O8 0.793068 0.551553 0.200334
O O9 0.798033 0.555852 0.366323
O O10 0.086295 0.602716 0.260715
O O11 0.408685 0.500000 0.903464
O O12 0.549363 0.591180 0.835755
O O13 0.191612 0.586203 0.952754
O O14 0.576459 0.415446 0.666149
O O15 0.000000 0.078923 0.500000
O O16 0.958185 0.000000 0.411678
#
# Coordination Sequence:
#
# PCOD9213374 Si02
#       7
#     8   8   8   8   8   4   8
#     4  12  22  37  58  84 118 157 210 280 338 381
#     4  12  27  42  65  94 125 163 218 276 327 386
#     4   9  18  34  58  87 122 162 204 252 310 381
#     4  10  22  38  56  85 122 164 213 259 314 387
#     4  11  22  37  64  86 125 164 211 258 324 383
#     4  12  23  36  58  84 124 170 213 266 330 378
#     4   9  19  36  62  99 133 160 200 255 317 386
#
# _framework density 20.442178999999999
#
# number of rings (size 3 to 8) (size 9 to 14) (size 15 to 20)
#    0.000    1.385    2.308    4.385    6.462    0.615 
#    0.000    2.308    0.000    5.538    0.000    0.000 
#    0.000    0.000    0.000    0.000    0.000    0.000 
#
# Total GULP energy -144817.066349 kJ/mol
# GULP energy per Si atom -5569.887167 kJ/mol
# Density = 2.039565 g / cm^3
# Si number density = 20.442179 Si / 1000 Ang^3
#
#
#
# Elastic Constant Matrix: (Units=GPa)
#
#
# Indices 1 2 3 4 5 6 
#
# 1 56.5645 24.3139 5.7144 0.0000 -7.8603 0.0000
# 2 24.3139 103.8040 21.2346 0.0000 -6.2632 0.0000
# 3 5.7144 21.2346 81.1078 0.0000 -1.6861 0.0000
# 4 0.0000 0.0000 0.0000 21.1365 0.0000 3.6705
# 5 -7.8603 -6.2632 -1.6861 0.0000 15.6535 0.0000
# 6 0.0000 0.0000 0.0000 3.6705 0.0000 63.9582
#
#
#
# Elastic Compliance Matrix: (Units=1/GPa)
#
#
# Indices 1 2 3 4 5 6 
#
# 1 0.020751 -0.004305 -0.000154 0.000000 0.008681 0.000000
# 2 -0.004305 0.011302 -0.002612 0.000000 0.002079 0.000000
# 3 -0.000154 -0.002612 0.013030 0.000000 0.000281 0.000000
# 4 0.000000 0.000000 0.000000 0.047788 0.000000 -0.002743
# 5 0.008681 0.002079 0.000281 0.000000 0.069104 0.000000
# 6 0.000000 0.000000 0.000000 -0.002743 0.000000 0.015793
#
#
# Mechanical properties :
#
#
# Convention : Reuss Voigt Hill
#
# Bulk Modulus (GPa) = 32.32153 38.22246 35.27199
# Shear Modulus (GPa) = 24.72494 32.83054 28.77774
#
# Velocity S-wave (km/s) = 3.48157 4.01186 3.75609
# Velocity P-wave (km/s) = 5.65750 6.34023 6.00857
#
# Compressibility (1/GPa) = 0.03093913
#
# Stress axis : x y z
#
# Youngs Moduli (GPa) = 48.18948 88.48170 76.74646
#
# Poissons Ratio (x) = 0.38093 0.01185
# Poissons Ratio (y) = 0.20747 0.20049
# Poissons Ratio (z) = 0.00744 0.23114
#
# Static dielectric constant tensor:
#      x y z
#    x 1.880690 0.000000 -0.049380 
#    y 0.000000 1.785800 0.000000 
#    z -0.049380 0.000000 1.749740 
# 
# From -- ./inp_files/253435.got.cif
#   From: 2010.05.17/outbox.cif.g08.bks.cpg/sg12_127_cif.got.tgz:253435.got - 2010.06.03 13:09:07.
