data_PCOD9213996
_publ_section_title
;
Structure prediction by ZEFSAII (Michael W. Deem and Ramdas Pophale) SiO2 
 PCOD9213996
Probable space group: C 2/M
;
_chemical_formula_sum "Si O2"
_cell_formula_units_Z 58
_cell_length_a 9.688471
_cell_length_b 13.974471
_cell_length_c 22.507564
_cell_angle_alpha 90.000000
_cell_angle_beta 90.744944
_cell_angle_gamma 90.000000
_cell_volume 3047.069819
_symmetry_space_group_name_H-M "C 2/M"
_symmetry_group_IT_number 12
_symmetry_cell_setting 'monoclinic'
loop_
_space_group_symop_operation_xyz
x,y,z
-x,y,-z
-x,-y,-z
x,-y,z
1/2+x,1/2+y,z
1/2-x,1/2+y,-z
1/2-x,1/2-y,-z
1/2+x,1/2-y,z
loop_
_atom_site_type_symbol
_atom_site_label
_atom_site_fract_x
_atom_site_fract_y
_atom_site_fract_z
Si Si1 0.568292 0.280850 0.376335
Si Si2 0.734149 0.253344 0.100367
Si Si3 0.335625 0.608077 0.006544
Si Si4 0.882869 0.608450 0.713567
Si Si5 0.483803 0.219349 0.181471
Si Si6 0.331814 0.812843 0.451798
Si Si7 0.557000 0.608710 0.733176
Si Si8 0.500000 0.000000 0.500000
O O1 0.595822 0.183698 0.339082
O O2 0.458966 0.249324 0.425994
O O3 0.712799 0.322282 0.400866
O O4 0.498558 0.354380 0.330251
O O5 0.798726 0.162831 0.066712
O O6 0.589003 0.223093 0.127384
O O7 0.831772 0.287939 0.154001
O O8 0.721913 0.333815 0.049903
O O9 0.283470 0.500000 0.007311
O O10 0.500000 0.607309 0.000000
O O11 0.912883 0.500000 0.694472
O O12 0.974985 0.639681 0.770221
O O13 0.723260 0.613898 0.732282
O O14 0.495060 0.319044 0.217106
O O15 0.250000 0.750000 0.500000
O O16 0.392521 0.913277 0.475942
O O17 0.515483 0.500000 0.744227
#
# Coordination Sequence:
#
# PCOD9213996 Si02
#       8
#     8   8   8   8   8   8   8   2
#     4  11  23  44  67  95 136 175 213 276 330 385
#     4  11  22  39  61  87 124 160 203 260 320 373
#     4  10  22  39  61  89 116 161 211 253 312 384
#     4  10  22  39  65  95 127 167 216 263 325 391
#     4  11  22  39  61  91 125 164 201 262 321 376
#     4  12  25  47  69 102 140 178 227 280 332 400
#     4  10  22  40  63  95 125 167 218 256 318 393
#     4  12  28  44  74 106 136 180 230 276 344 394
#
# _framework density 19.034680000000002
#
# number of rings (size 3 to 8) (size 9 to 14) (size 15 to 20)
#    0.000    1.241    5.517    0.000    1.931    2.207 
#    1.241    2.759    0.000    0.000    0.000    0.000 
#    0.000    0.000    0.000    0.000    0.000    0.000 
#
# Total GULP energy -161674.756592 kJ/mol
# GULP energy per Si atom -5574.991607 kJ/mol
# Density = 1.899136 g / cm^3
# Si number density = 19.034680 Si / 1000 Ang^3
#
#
#
# Elastic Constant Matrix: (Units=GPa)
#
#
# Indices 1 2 3 4 5 6 
#
# 1 49.8579 19.7243 3.8920 0.0000 2.3913 0.0000
# 2 19.7243 106.6278 26.1052 0.0000 7.7237 0.0000
# 3 3.8920 26.1052 59.3525 0.0000 9.2243 0.0000
# 4 0.0000 0.0000 0.0000 8.4348 0.0000 3.7709
# 5 2.3913 7.7237 9.2243 0.0000 43.9980 0.0000
# 6 0.0000 0.0000 0.0000 3.7709 0.0000 23.6843
#
#
#
# Elastic Compliance Matrix: (Units=1/GPa)
#
#
# Indices 1 2 3 4 5 6 
#
# 1 0.021662 -0.004079 0.000460 0.000000 -0.000558 0.000000
# 2 -0.004079 0.011313 -0.004584 0.000000 -0.000803 0.000000
# 3 0.000460 -0.004584 0.019343 0.000000 -0.003276 0.000000
# 4 0.000000 0.000000 0.000000 0.127643 0.000000 -0.020323
# 5 -0.000558 -0.000803 -0.003276 0.000000 0.023586 0.000000
# 6 0.000000 0.000000 0.000000 -0.020323 0.000000 0.045458
#
#
# Mechanical properties :
#
#
# Convention : Reuss Voigt Hill
#
# Bulk Modulus (GPa) = 27.84477 35.03125 31.43801
# Shear Modulus (GPa) = 18.02570 26.29785 22.16177
#
# Velocity S-wave (km/s) = 3.08066 3.72099 3.41586
# Velocity P-wave (km/s) = 5.22630 6.07494 5.66653
#
# Compressibility (1/GPa) = 0.03591339
#
# Stress axis : x y z
#
# Youngs Moduli (GPa) = 46.16454 88.39062 51.69704
#
# Poissons Ratio (x) = 0.36058 -0.02380
# Poissons Ratio (y) = 0.18832 0.23696
# Poissons Ratio (z) = -0.02126 0.40515
#
# Static dielectric constant tensor:
#      x y z
#    x 1.648250 0.000000 0.010430 
#    y 0.000000 1.632650 0.000000 
#    z 0.010430 0.000000 1.681370 
# 
# From -- ./inp_files/332658.got.cif
#   From: 2010.05.17/outbox.cif.g08.bks.cpg/sg12_167_cif.got.tgz:332658.got - 2010.06.03 13:09:07.
