data_PCOD9213681
_publ_section_title
;
Structure prediction by ZEFSAII (Michael W. Deem and Ramdas Pophale) SiO2 
 PCOD9213681
Probable space group: C 2/M
;
_chemical_formula_sum "Si O2"
_cell_formula_units_Z 40
_cell_length_a 8.936001
_cell_length_b 21.785956
_cell_length_c 12.910086
_cell_angle_alpha 90.000000
_cell_angle_beta 127.586709
_cell_angle_gamma 90.000000
_cell_volume 1991.638486
_symmetry_space_group_name_H-M "C 2/M"
_symmetry_group_IT_number 12
_symmetry_cell_setting 'monoclinic'
loop_
_space_group_symop_operation_xyz
x,y,z
-x,y,-z
-x,-y,-z
x,-y,z
1/2+x,1/2+y,z
1/2-x,1/2+y,-z
1/2-x,1/2-y,-z
1/2+x,1/2-y,z
loop_
_atom_site_type_symbol
_atom_site_label
_atom_site_fract_x
_atom_site_fract_y
_atom_site_fract_z
Si Si1 0.810847 0.927692 0.856068
Si Si2 0.382631 0.827700 0.112383
Si Si3 0.742552 0.293592 0.837955
Si Si4 0.619636 0.689467 0.446235
Si Si5 0.725618 0.069506 0.582673
O O1 0.639974 0.889145 0.832620
O O2 0.815399 0.917925 0.734403
O O3 0.782230 0.000000 0.859750
O O4 0.000000 0.909982 0.000000
O O5 0.263800 0.776283 0.124030
O O6 0.595318 0.805130 0.178831
O O7 0.293019 0.833204 0.960311
O O8 0.536733 0.306236 0.709107
O O9 0.500000 0.689143 0.500000
O O10 0.750000 0.750000 0.500000
O O11 0.725185 0.625320 0.472347
O O12 0.500000 0.068985 0.500000
O O13 0.783060 0.000000 0.574672
#
# Coordination Sequence:
#
# PCOD9213681 Si02
#       5
#     8   8   8   8   8
#     4  10  22  40  67  93 121 164 210 256 307 373
#     4  10  22  38  64  88 125 159 199 259 312 376
#     4  10  23  39  57  95 123 160 203 254 320 363
#     4  12  26  40  63  93 127 167 209 264 307 375
#     4  10  24  44  65  91 126 168 212 257 315 381
#
# _framework density 20.083967000000001
#
# number of rings (size 3 to 8) (size 9 to 14) (size 15 to 20)
#    0.000    1.600    0.000    3.000   16.800    0.400 
#    0.000    3.000    0.000    0.000    0.000    0.000 
#    0.000    0.000    0.000    0.000    0.000    0.000 
#
# Total GULP energy -111705.309522 kJ/mol
# GULP energy per Si atom -5585.265476 kJ/mol
# Density = 2.003826 g / cm^3
# Si number density = 20.083967 Si / 1000 Ang^3
#
#
#
# Elastic Constant Matrix: (Units=GPa)
#
#
# Indices 1 2 3 4 5 6 
#
# 1 117.7689 95.1186 7.1478 0.0000 6.5366 0.0000
# 2 95.1186 134.6812 25.6034 0.0000 -6.8934 0.0000
# 3 7.1478 25.6034 66.3976 0.0000 19.5247 0.0000
# 4 0.0000 0.0000 0.0000 15.3190 0.0000 -5.3963
# 5 6.5366 -6.8934 19.5247 0.0000 21.0171 0.0000
# 6 0.0000 0.0000 0.0000 -5.3963 0.0000 40.0841
#
#
#
# Elastic Compliance Matrix: (Units=1/GPa)
#
#
# Indices 1 2 3 4 5 6 
#
# 1 0.031371 -0.027239 0.017367 0.000000 -0.034825 0.000000
# 2 -0.027239 0.032646 -0.021045 0.000000 0.038730 0.000000
# 3 0.017367 -0.021045 0.034292 0.000000 -0.044161 0.000000
# 4 0.000000 0.000000 0.000000 0.068528 0.000000 0.009226
# 5 -0.034825 0.038730 -0.044161 0.000000 0.112139 0.000000
# 6 0.000000 0.000000 0.000000 0.009226 0.000000 0.026190
#
#
# Mechanical properties :
#
#
# Convention : Reuss Voigt Hill
#
# Bulk Modulus (GPa) = 27.41669 63.84303 45.62986
# Shear Modulus (GPa) = 13.18711 28.01590 20.60150
#
# Velocity S-wave (km/s) = 2.56520 3.73894 3.20624
# Velocity P-wave (km/s) = 4.73860 7.10610 6.03949
#
# Compressibility (1/GPa) = 0.03647413
#
# Stress axis : x y z
#
# Youngs Moduli (GPa) = 31.87701 30.63177 29.16118
#
# Poissons Ratio (x) = 0.83439 -0.50645
# Poissons Ratio (y) = 0.86831 0.61370
# Poissons Ratio (z) = -0.55361 0.64464
#
# Static dielectric constant tensor:
#      x y z
#    x 1.700220 0.000000 -0.013650 
#    y 0.000000 1.709420 0.000000 
#    z -0.013650 0.000000 1.793010 
# 
# From -- ./inp_files/170357.got.cif
#   From: 2010.05.17/outbox.cif.g08.bks.cpg/sg12_86_cif.got.tgz:170357.got - 2010.06.03 13:09:07.
