data_PCOD9213491
_publ_section_title
;
Structure prediction by ZEFSAII (Michael W. Deem and Ramdas Pophale) SiO2 
 PCOD9213491
Probable space group: C 2/M
;
_chemical_formula_sum "Si O2"
_cell_formula_units_Z 48
_cell_length_a 19.431676
_cell_length_b 13.508671
_cell_length_c 22.044169
_cell_angle_alpha 90.000000
_cell_angle_beta 156.495756
_cell_angle_gamma 90.000000
_cell_volume 2307.758053
_symmetry_space_group_name_H-M "C 2/M"
_symmetry_group_IT_number 12
_symmetry_cell_setting 'monoclinic'
loop_
_space_group_symop_operation_xyz
x,y,z
-x,y,-z
-x,-y,-z
x,-y,z
1/2+x,1/2+y,z
1/2-x,1/2+y,-z
1/2-x,1/2-y,-z
1/2+x,1/2-y,z
loop_
_atom_site_type_symbol
_atom_site_label
_atom_site_fract_x
_atom_site_fract_y
_atom_site_fract_z
Si Si1 0.835812 0.117220 0.507882
Si Si2 0.666824 0.260145 0.803189
Si Si3 0.698024 0.268491 0.642737
Si Si4 0.196182 0.884074 0.183877
Si Si5 0.546259 0.109630 0.795665
Si Si6 0.989656 0.611548 0.086715
O O1 0.802106 0.193864 0.425889
O O2 0.649000 0.118376 0.389333
O O3 0.007369 0.162850 0.675704
O O4 0.860773 0.000000 0.510589
O O5 0.677099 0.180609 0.756711
O O6 0.658002 0.195027 0.856807
O O7 0.842648 0.320295 0.941415
O O8 0.500000 0.272166 0.500000
O O9 0.780190 0.164851 0.730484
O O10 0.820739 0.348295 0.774978
O O11 0.239174 0.000000 0.218461
O O12 0.000000 0.874244 0.000000
O O13 0.532272 0.114298 0.857340
O O14 0.613274 0.000000 0.834428
O O15 0.969034 0.500000 0.050073
#
# Coordination Sequence:
#
# PCOD9213491 Si02
#       6
#     8   8   8   8   8   8
#     4  10  22  38  59  88 122 153 190 243 289 341
#     4  12  20  38  61  88 114 159 196 237 291 348
#     4  11  21  41  60  85 116 156 193 231 296 344
#     4  11  24  42  60  85 119 149 192 244 287 342
#     4   9  20  38  59  84 115 155 195 239 294 341
#     4  10  22  38  59  88 120 151 194 246 288 343
#
# _framework density 20.799408
#
# number of rings (size 3 to 8) (size 9 to 14) (size 15 to 20)
#    0.000    1.500    3.333    3.500    0.000    1.667 
#    0.000    0.833    0.000    4.000    0.000    0.000 
#    0.000    0.000    0.000    0.000    0.000    0.000 
#
# Total GULP energy -133812.376869 kJ/mol
# GULP energy per Si atom -5575.515703 kJ/mol
# Density = 2.075207 g / cm^3
# Si number density = 20.799408 Si / 1000 Ang^3
#
#
#
# Elastic Constant Matrix: (Units=GPa)
#
#
# Indices 1 2 3 4 5 6 
#
# 1 25.3319 27.0062 12.0368 -0.0026 -8.6659 0.0000
# 2 27.0062 157.3172 55.1977 -0.0128 0.6786 -0.0026
# 3 12.0368 55.1977 63.3001 -0.0026 2.8717 -0.0010
# 4 -0.0026 -0.0128 -0.0026 29.4432 -0.0028 -0.5317
# 5 -8.6659 0.6786 2.8717 -0.0028 16.3633 0.0003
# 6 0.0000 -0.0026 -0.0010 -0.5317 0.0003 23.6109
#
#
#
# Elastic Compliance Matrix: (Units=1/GPa)
#
#
# Indices 1 2 3 4 5 6 
#
# 1 0.064027 -0.009091 -0.005849 0.000004 0.035312 -0.000001
# 2 -0.009091 0.010467 -0.007218 0.000003 -0.003982 0.000001
# 3 -0.005849 -0.007218 0.023518 -0.000002 -0.006926 0.000000
# 4 0.000004 0.000003 -0.000002 0.033978 0.000009 0.000765
# 5 0.035312 -0.003982 -0.006926 0.000009 0.081194 -0.000001
# 6 -0.000001 0.000001 0.000000 0.000765 -0.000001 0.042371
#
#
# Mechanical properties :
#
#
# Convention : Reuss Voigt Hill
#
# Bulk Modulus (GPa) = 18.62354 48.27007 33.44681
# Shear Modulus (GPa) = 15.73463 23.99737 19.86600
#
# Velocity S-wave (km/s) = 2.75343 3.40038 3.09386
# Velocity P-wave (km/s) = 4.36827 6.21889 5.37384
#
# Compressibility (1/GPa) = 0.05369547
#
# Stress axis : x y z
#
# Youngs Moduli (GPa) = 15.61830 95.53903 42.52027
#
# Poissons Ratio (x) = 0.86857 0.24872
# Poissons Ratio (y) = 0.14199 0.30690
# Poissons Ratio (z) = 0.09136 0.68958
#
# Static dielectric constant tensor:
#      x y z
#    x 1.800750 0.000000 -0.024460 
#    y 0.000000 1.729320 0.000000 
#    z -0.024460 0.000000 1.766630 
# 
# From -- ./inp_files/94920.got.cif
#   From: 2010.05.17/outbox.cif.g08.bks.cpg/sg12_48_cif.got.tgz:94920.got - 2010.06.03 13:09:07.
