data_PCOD9213250
_publ_section_title
;
Structure prediction by ZEFSAII (Michael W. Deem and Ramdas Pophale) SiO2 
 PCOD9213250
Probable space group: C 2/M
;
_chemical_formula_sum "Si O2"
_cell_formula_units_Z 60
_cell_length_a 23.984055
_cell_length_b 9.417415
_cell_length_c 20.175348
_cell_angle_alpha 90.000000
_cell_angle_beta 136.940698
_cell_angle_gamma 90.000000
_cell_volume 3111.288020
_symmetry_space_group_name_H-M "C 2/M"
_symmetry_group_IT_number 12
_symmetry_cell_setting 'monoclinic'
loop_
_space_group_symop_operation_xyz
x,y,z
-x,y,-z
-x,-y,-z
x,-y,z
1/2+x,1/2+y,z
1/2-x,1/2+y,-z
1/2-x,1/2-y,-z
1/2+x,1/2-y,z
loop_
_atom_site_type_symbol
_atom_site_label
_atom_site_fract_x
_atom_site_fract_y
_atom_site_fract_z
Si Si1 0.244970 0.500000 0.967706
Si Si2 0.630970 0.837721 0.569449
Si Si3 0.134299 0.269266 0.938227
Si Si4 0.372981 0.166971 0.277673
Si Si5 0.030606 0.831745 0.376037
Si Si6 0.046866 0.830416 0.242305
Si Si7 0.176837 0.832120 0.243566
Si Si8 0.705360 0.836239 0.138868
O O1 0.175886 0.376517 0.923184
O O2 0.316089 0.623054 0.023321
O O3 0.607423 0.825044 0.626400
O O4 0.585014 0.728875 0.482651
O O5 0.728672 0.816657 0.652569
O O6 0.611924 0.000000 0.532099
O O7 0.038861 0.245500 0.844378
O O8 0.150470 0.328326 0.026121
O O9 0.445416 0.246747 0.303757
O O10 0.287853 0.248423 0.194839
O O11 0.362179 0.000000 0.251733
O O12 0.071551 0.806300 0.340125
O O13 0.015780 0.000000 0.370743
O O14 0.115539 0.790802 0.248723
O O15 0.033686 0.000000 0.223865
O O16 0.166008 0.739447 0.168235
O O17 0.165895 0.000000 0.218219
O O18 0.725966 0.000000 0.171094
#
# Coordination Sequence:
#
# PCOD9213250 Si02
#       8
#     4   8   8   8   8   8   8   8
#     4  10  24  38  62  88 126 160 196 232 296 358
#     4   9  19  39  59  84 114 152 198 247 292 352
#     4  11  23  40  61  90 124 164 191 243 290 352
#     4  10  22  37  61  88 120 156 200 240 288 358
#     4  11  23  35  58  89 123 154 192 244 306 351
#     4  10  23  42  60  86 117 157 202 248 290 345
#     4   9  21  43  66  82 112 156 207 246 287 351
#     4  11  23  39  60  90 120 156 194 246 301 346
#
# _framework density 19.284617000000001
#
# number of rings (size 3 to 8) (size 9 to 14) (size 15 to 20)
#    0.000    1.867    1.333    2.400    5.600    5.333 
#    2.400    2.000    0.000    0.000    0.000    0.000 
#    0.000    0.000    0.000    0.000    0.000    0.000 
#
# Total GULP energy -167122.441787 kJ/mol
# GULP energy per Si atom -5570.748060 kJ/mol
# Density = 1.924072 g / cm^3
# Si number density = 19.284617 Si / 1000 Ang^3
#
#
#
# Elastic Constant Matrix: (Units=GPa)
#
#
# Indices 1 2 3 4 5 6 
#
# 1 118.7261 51.2776 26.5532 0.0000 -2.9180 0.0000
# 2 51.2776 115.3415 22.9164 0.0000 -4.7966 0.0000
# 3 26.5532 22.9164 43.6630 0.0000 -14.0759 0.0000
# 4 0.0000 0.0000 0.0000 20.5673 0.0000 2.1693
# 5 -2.9180 -4.7966 -14.0759 0.0000 19.8428 0.0000
# 6 0.0000 0.0000 0.0000 2.1693 0.0000 16.3916
#
#
#
# Elastic Compliance Matrix: (Units=1/GPa)
#
#
# Indices 1 2 3 4 5 6 
#
# 1 0.011412 -0.004036 -0.005957 0.000000 -0.003524 0.000000
# 2 -0.004036 0.011148 -0.003525 0.000000 -0.000399 0.000000
# 3 -0.005957 -0.003525 0.036067 0.000000 0.023856 0.000000
# 4 0.000000 0.000000 0.000000 0.049309 0.000000 -0.006526
# 5 -0.003524 -0.000399 0.023856 0.000000 0.066705 0.000000
# 6 0.000000 0.000000 0.000000 -0.006526 0.000000 0.061870
#
#
# Mechanical properties :
#
#
# Convention : Reuss Voigt Hill
#
# Bulk Modulus (GPa) = 31.65695 53.24722 42.45209
# Shear Modulus (GPa) = 18.24299 23.15924 20.70112
#
# Velocity S-wave (km/s) = 3.07903 3.46919 3.27991
# Velocity P-wave (km/s) = 5.39368 6.61197 6.03366
#
# Compressibility (1/GPa) = 0.03158864
#
# Stress axis : x y z
#
# Youngs Moduli (GPa) = 87.62872 89.70142 27.72653
#
# Poissons Ratio (x) = 0.36206 0.16518
# Poissons Ratio (y) = 0.35369 0.09774
# Poissons Ratio (z) = 0.52204 0.31621
#
# Static dielectric constant tensor:
#      x y z
#    x 1.665750 0.000000 -0.033770 
#    y 0.000000 1.651770 0.000000 
#    z -0.033770 0.000000 1.680870 
# 
# From -- ./inp_files/324665.got.cif
#   From: 2010.05.17/outbox.cif.g08.bks.cpg/sg12_163_cif.got.tgz:324665.got - 2010.06.03 13:09:07.
