data_PCOD9213094
_publ_section_title
;
Structure prediction by ZEFSAII (Michael W. Deem and Ramdas Pophale) SiO2 
 PCOD9213094
Probable space group: C 2/M
;
_chemical_formula_sum "Si O2"
_cell_formula_units_Z 28
_cell_length_a 16.375638
_cell_length_b 17.759644
_cell_length_c 11.970811
_cell_angle_alpha 90.000000
_cell_angle_beta 156.333008
_cell_angle_gamma 90.000000
_cell_volume 1397.511146
_symmetry_space_group_name_H-M "C 2/M"
_symmetry_group_IT_number 12
_symmetry_cell_setting 'monoclinic'
loop_
_space_group_symop_operation_xyz
x,y,z
-x,y,-z
-x,-y,-z
x,-y,z
1/2+x,1/2+y,z
1/2-x,1/2+y,-z
1/2-x,1/2-y,-z
1/2+x,1/2-y,z
loop_
_atom_site_type_symbol
_atom_site_label
_atom_site_fract_x
_atom_site_fract_y
_atom_site_fract_z
Si Si1 0.000000 0.363920 0.500000
Si Si2 0.746704 0.500000 0.445833
Si Si3 0.147481 0.647583 0.288044
Si Si4 0.770867 0.000000 0.843394
Si Si5 0.494000 0.246062 0.293702
O O1 0.170623 0.422145 0.757818
O O2 0.069074 0.310381 0.485732
O O3 0.833807 0.574006 0.612468
O O4 0.770776 0.500000 0.342448
O O5 0.505669 0.500000 0.162347
O O6 0.369524 0.678518 0.528516
O O7 0.045837 0.711349 0.238247
O O8 0.000000 0.633291 0.000000
O O9 0.250000 0.250000 0.000000
#
# Coordination Sequence:
#
# PCOD9213094 Si02
#       5
#     4   4   8   4   8
#     4  11  20  40  62  91 120 156 212 267 300 364
#     4  11  21  42  59  91 125 165 207 257 308 374
#     4  11  24  41  62  93 129 166 204 254 316 378
#     4  10  22  36  67  90 120 160 216 261 307 358
#     4  11  23  40  64  92 125 165 209 256 311 368
#
# _framework density 20.035619000000001
#
# number of rings (size 3 to 8) (size 9 to 14) (size 15 to 20)
#    0.000    1.143    2.857    3.857    0.000    2.286 
#    0.000    0.000    0.000    6.000    0.000    0.000 
#    0.000    0.000    0.000    0.000    0.000    0.000 
#
# Total GULP energy -78200.419471 kJ/mol
# GULP energy per Si atom -5585.744248 kJ/mol
# Density = 1.999002 g / cm^3
# Si number density = 20.035619 Si / 1000 Ang^3
#
#
#
# Elastic Constant Matrix: (Units=GPa)
#
#
# Indices 1 2 3 4 5 6 
#
# 1 37.0003 -9.2992 10.9452 0.0000 8.3021 0.0000
# 2 -9.2992 66.8424 12.4663 0.0000 0.5641 0.0000
# 3 10.9452 12.4663 98.8641 0.0000 6.4094 0.0000
# 4 0.0000 0.0000 0.0000 12.0937 0.0000 4.4632
# 5 8.3021 0.5641 6.4094 0.0000 45.2390 0.0000
# 6 0.0000 0.0000 0.0000 4.4632 0.0000 25.4285
#
#
#
# Elastic Compliance Matrix: (Units=1/GPa)
#
#
# Indices 1 2 3 4 5 6 
#
# 1 0.030517 0.004974 -0.003672 0.000000 -0.005142 0.000000
# 2 0.004974 0.016132 -0.002536 0.000000 -0.000755 0.000000
# 3 -0.003672 -0.002536 0.010896 0.000000 -0.000838 0.000000
# 4 0.000000 0.000000 0.000000 0.088415 0.000000 -0.015518
# 5 -0.005142 -0.000755 -0.000838 0.000000 0.023177 0.000000
# 6 0.000000 0.000000 0.000000 -0.015518 0.000000 0.042050
#
#
# Mechanical properties :
#
#
# Convention : Reuss Voigt Hill
#
# Bulk Modulus (GPa) = 18.15684 25.65905 21.90794
# Shear Modulus (GPa) = 21.55056 29.12522 25.33789
#
# Velocity S-wave (km/s) = 3.28321 3.81684 3.56004
# Velocity P-wave (km/s) = 4.84299 5.67969 5.27795
#
# Compressibility (1/GPa) = 0.05507568
#
# Stress axis : x y z
#
# Youngs Moduli (GPa) = 32.76863 61.98919 91.78061
#
# Poissons Ratio (x) = -0.30832 0.33705
# Poissons Ratio (y) = -0.16299 0.23274
# Poissons Ratio (z) = 0.12034 0.15720
#
# Static dielectric constant tensor:
#      x y z
#    x 1.704580 0.000000 0.025400 
#    y 0.000000 1.701210 0.000000 
#    z 0.025400 0.000000 1.698500 
# 
# From -- ./inp_files/72742.got.cif
#   From: 2010.05.17/outbox.cif.g08.bks.cpg/sg12_37_cif.got.tgz:72742.got - 2010.06.03 13:09:07.
