data_PCOD9213790
_publ_section_title
;
Structure prediction by ZEFSAII (Michael W. Deem and Ramdas Pophale) SiO2 
 PCOD9213790
Probable space group: C 2/M
;
_chemical_formula_sum "Si O2"
_cell_formula_units_Z 60
_cell_length_a 22.986511
_cell_length_b 16.288439
_cell_length_c 9.579355
_cell_angle_alpha 90.000000
_cell_angle_beta 42.004631
_cell_angle_gamma 90.000000
_cell_volume 2400.151568
_symmetry_space_group_name_H-M "C 2/M"
_symmetry_group_IT_number 12
_symmetry_cell_setting 'monoclinic'
loop_
_space_group_symop_operation_xyz
x,y,z
-x,y,-z
-x,-y,-z
x,-y,z
1/2+x,1/2+y,z
1/2-x,1/2+y,-z
1/2-x,1/2-y,-z
1/2+x,1/2-y,z
loop_
_atom_site_type_symbol
_atom_site_label
_atom_site_fract_x
_atom_site_fract_y
_atom_site_fract_z
Si Si1 0.042822 0.593776 0.558753
Si Si2 0.732781 0.588940 0.642443
Si Si3 0.862959 0.857655 0.912024
Si Si4 0.198570 0.590612 0.081694
Si Si5 0.161660 0.138375 0.480675
Si Si6 0.110227 0.000000 0.340415
Si Si7 0.859533 0.312419 0.055148
Si Si8 0.899466 0.302726 0.304312
O O1 0.012179 0.500000 0.625121
O O2 0.141066 0.588437 0.322513
O O3 0.039975 0.639588 0.709284
O O4 0.000000 0.635976 0.500000
O O5 0.777228 0.500000 0.568244
O O6 0.671135 0.601352 0.883967
O O7 0.679244 0.594097 0.595805
O O8 0.803982 0.659664 0.504626
O O9 0.775251 0.847216 0.975045
O O10 0.888694 0.766707 0.913642
O O11 0.914707 0.926082 0.733744
O O12 0.243965 0.500000 0.981210
O O13 0.138902 0.610662 0.055660
O O14 0.255151 0.180094 0.273493
O O15 0.097490 0.212761 0.634345
O O16 0.130805 0.073667 0.421559
O O17 0.903923 0.306857 0.128469
#
# Coordination Sequence:
#
# PCOD9213790 Si02
#       8
#     8   8   8   8   8   4   8   8
#     4  10  22  39  57  78 103 136 183 229 266 308
#     4  11  18  30  49  69 110 145 176 204 250 308
#     4  12  19  31  45  77 110 144 175 209 251 311
#     4  11  20  33  50  76 107 144 179 215 260 302
#     4  11  20  34  44  77 109 146 175 215 245 318
#     4  12  24  28  48  74 114 150 175 207 257 303
#     4  11  21  31  49  77 107 142 177 214 252 311
#     4  11  21  34  54  74 102 145 183 214 266 309
#
# _framework density 24.998422000000001
#
# number of rings (size 3 to 8) (size 9 to 14) (size 15 to 20)
#    0.000    0.933    7.333    1.600    1.867    1.067 
#    0.000    0.667    0.000    2.400    0.000    0.467 
#    0.000    1.067    0.000    0.000    0.000    0.000 
#
# Total GULP energy -167147.503220 kJ/mol
# GULP energy per Si atom -5571.583441 kJ/mol
# Density = 2.494152 g / cm^3
# Si number density = 24.998422 Si / 1000 Ang^3
#
#
#
# Elastic Constant Matrix: (Units=GPa)
#
#
# Indices 1 2 3 4 5 6 
#
# 1 117.7850 41.8235 45.9515 0.0000 47.0117 0.0000
# 2 41.8235 158.2921 52.4893 0.0000 32.4824 0.0000
# 3 45.9515 52.4893 131.9188 0.0000 46.2537 0.0000
# 4 0.0000 0.0000 0.0000 35.3557 0.0000 18.3559
# 5 47.0117 32.4824 46.2537 0.0000 51.4014 0.0000
# 6 0.0000 0.0000 0.0000 18.3559 0.0000 33.8333
#
#
#
# Elastic Compliance Matrix: (Units=1/GPa)
#
#
# Indices 1 2 3 4 5 6 
#
# 1 0.013570 -0.001151 -0.000252 0.000000 -0.011457 0.000000
# 2 -0.001151 0.007686 -0.001933 0.000000 -0.002065 0.000000
# 3 -0.000252 -0.001933 0.011583 0.000000 -0.008971 0.000000
# 4 0.000000 0.000000 0.000000 0.039375 0.000000 -0.021362
# 5 -0.011457 -0.002065 -0.008971 0.000000 0.039311 0.000000
# 6 0.000000 0.000000 0.000000 -0.021362 0.000000 0.041147
#
#
# Mechanical properties :
#
#
# Convention : Reuss Voigt Hill
#
# Bulk Modulus (GPa) = 38.21633 76.50273 57.35953
# Shear Modulus (GPa) = 29.75036 41.96687 35.85861
#
# Velocity S-wave (km/s) = 3.45351 4.10174 3.79150
# Velocity P-wave (km/s) = 5.58775 7.28710 6.49326
#
# Compressibility (1/GPa) = 0.02616683
#
# Stress axis : x y z
#
# Youngs Moduli (GPa) = 73.69298 130.10049 86.33542
#
# Poissons Ratio (x) = 0.14972 0.02174
# Poissons Ratio (y) = 0.08481 0.16693
# Poissons Ratio (z) = 0.01855 0.25154
#
# Static dielectric constant tensor:
#      x y z
#    x 3.013610 0.000000 -1.401290 
#    y 0.000000 1.963710 0.000000 
#    z -1.401290 0.000000 3.757330 
# 
# From -- ./inp_files/87931.got.cif
#   From: 2010.05.17/outbox.cif.g08.bks.cpg/sg12_44_cif.got.tgz:87931.got - 2010.06.03 13:09:07.
