data_PCOD9213723
_publ_section_title
;
Structure prediction by ZEFSAII (Michael W. Deem and Ramdas Pophale) SiO2 
 PCOD9213723
Probable space group: C 2/M
;
_chemical_formula_sum "Si O2"
_cell_formula_units_Z 56
_cell_length_a 12.897168
_cell_length_b 15.179073
_cell_length_c 15.443357
_cell_angle_alpha 90.000000
_cell_angle_beta 127.626869
_cell_angle_gamma 90.000000
_cell_volume 2394.464367
_symmetry_space_group_name_H-M "C 2/M"
_symmetry_group_IT_number 12
_symmetry_cell_setting 'monoclinic'
loop_
_space_group_symop_operation_xyz
x,y,z
-x,y,-z
-x,-y,-z
x,-y,z
1/2+x,1/2+y,z
1/2-x,1/2+y,-z
1/2-x,1/2-y,-z
1/2+x,1/2-y,z
loop_
_atom_site_type_symbol
_atom_site_label
_atom_site_fract_x
_atom_site_fract_y
_atom_site_fract_z
Si Si1 0.716357 0.097836 0.610987
Si Si2 0.071452 0.147530 0.414204
Si Si3 0.801779 0.902383 0.339051
Si Si4 0.307581 0.899293 0.981311
Si Si5 0.495497 0.846625 0.375218
Si Si6 0.113076 0.791872 0.991672
Si Si7 0.529872 0.834963 0.194090
O O1 0.841519 0.135685 0.625966
O O2 0.646638 0.146410 0.654570
O O3 0.600538 0.094742 0.479707
O O4 0.748748 0.000000 0.656626
O O5 0.144570 0.108948 0.535685
O O6 0.051525 0.249856 0.420338
O O7 0.926161 0.107815 0.339986
O O8 0.684721 0.835783 0.264272
O O9 0.746351 0.000000 0.302491
O O10 0.317021 0.800674 0.938944
O O11 0.456428 0.901178 0.092072
O O12 0.274987 0.000000 0.933971
O O13 0.211685 0.868109 0.011431
O O14 0.496595 0.861851 0.274481
O O15 0.036514 0.756906 0.866931
O O16 0.000000 0.818683 0.000000
#
# Coordination Sequence:
#
# PCOD9213723 Si02
#       7
#     8   8   8   8   8   8   8
#     4  11  22  38  59  85 122 167 220 269 308 364
#     4  11  23  37  57  85 126 174 215 259 314 365
#     4  11  21  36  60  89 123 169 218 267 313 365
#     4   9  20  41  69  99 128 164 202 258 330 399
#     4  11  23  37  61  85 123 170 219 256 318 369
#     4   9  21  43  68  98 129 163 204 259 330 400
#     4  10  22  38  66  93 128 163 217 264 316 386
#
# _framework density 23.387274999999999
#
# number of rings (size 3 to 8) (size 9 to 14) (size 15 to 20)
#    0.857    0.857    1.429    5.143    2.000    3.429 
#    0.000    0.000    0.000    1.714    0.000    0.000 
#    0.000    0.000    0.000    0.000    0.000    0.000 
#
# Total GULP energy -156171.244598 kJ/mol
# GULP energy per Si atom -5577.544450 kJ/mol
# Density = 2.333404 g / cm^3
# Si number density = 23.387275 Si / 1000 Ang^3
#
#
#
# Elastic Constant Matrix: (Units=GPa)
#
#
# Indices 1 2 3 4 5 6 
#
# 1 186.9596 17.2314 24.4992 0.0000 13.7471 0.0000
# 2 17.2314 105.1426 -2.9608 0.0000 9.7955 0.0000
# 3 24.4992 -2.9608 44.1645 0.0000 7.1871 0.0000
# 4 0.0000 0.0000 0.0000 13.2733 0.0000 3.3274
# 5 13.7471 9.7955 7.1871 0.0000 34.5731 0.0000
# 6 0.0000 0.0000 0.0000 3.3274 0.0000 18.4771
#
#
#
# Elastic Compliance Matrix: (Units=1/GPa)
#
#
# Indices 1 2 3 4 5 6 
#
# 1 0.005951 -0.000928 -0.003127 0.000000 -0.001453 0.000000
# 2 -0.000928 0.009970 0.001638 0.000000 -0.002796 0.000000
# 3 -0.003127 0.001638 0.025213 0.000000 -0.004462 0.000000
# 4 0.000000 0.000000 0.000000 0.078901 0.000000 -0.014209
# 5 -0.001453 -0.002796 -0.004462 0.000000 0.031222 0.000000
# 6 0.000000 0.000000 0.000000 -0.014209 0.000000 0.056680
#
#
# Mechanical properties :
#
#
# Convention : Reuss Voigt Hill
#
# Bulk Modulus (GPa) = 27.54790 45.97848 36.76319
# Shear Modulus (GPa) = 22.23510 33.09783 27.66647
#
# Velocity S-wave (km/s) = 3.08674 3.76600 3.44317
# Velocity P-wave (km/s) = 4.95061 6.21391 5.61788
#
# Compressibility (1/GPa) = 0.03630041
#
# Stress axis : x y z
#
# Youngs Moduli (GPa) = 168.04258 100.30493 39.66191
#
# Poissons Ratio (x) = 0.09307 0.12402
# Poissons Ratio (y) = 0.15593 -0.06497
# Poissons Ratio (z) = 0.52544 -0.16431
#
# Static dielectric constant tensor:
#      x y z
#    x 1.853950 0.000000 -0.000930 
#    y 0.000000 1.949760 0.000000 
#    z -0.000930 0.000000 1.912730 
# 
# From -- ./inp_files/263440.got.cif
#   From: 2010.05.17/outbox.cif.g08.bks.cpg/sg12_132_cif.got.tgz:263440.got - 2010.06.03 13:09:07.
