data_PCOD9213742
_publ_section_title
;
Structure prediction by ZEFSAII (Michael W. Deem and Ramdas Pophale) SiO2 
 PCOD9213742
Probable space group: C 2/M
;
_chemical_formula_sum "Si O2"
_cell_formula_units_Z 40
_cell_length_a 17.907814
_cell_length_b 12.849294
_cell_length_c 8.805021
_cell_angle_alpha 90.000000
_cell_angle_beta 112.380423
_cell_angle_gamma 90.000000
_cell_volume 1873.449150
_symmetry_space_group_name_H-M "C 2/M"
_symmetry_group_IT_number 12
_symmetry_cell_setting 'monoclinic'
loop_
_space_group_symop_operation_xyz
x,y,z
-x,y,-z
-x,-y,-z
x,-y,z
1/2+x,1/2+y,z
1/2-x,1/2+y,-z
1/2-x,1/2-y,-z
1/2+x,1/2-y,z
loop_
_atom_site_type_symbol
_atom_site_label
_atom_site_fract_x
_atom_site_fract_y
_atom_site_fract_z
Si Si1 0.973084 0.000000 0.731013
Si Si2 0.167843 0.282443 0.723169
Si Si3 0.367806 0.000000 0.411742
Si Si4 0.167402 0.766228 0.073571
Si Si5 0.500000 0.177473 0.000000
Si Si6 0.631900 0.500000 0.063529
Si Si7 0.500167 0.000000 0.246910
Si Si8 0.500000 0.673159 0.500000
O O1 0.896637 0.000000 0.783266
O O2 0.978880 0.900063 0.626595
O O3 0.051838 0.000000 0.897826
O O4 0.177516 0.392858 0.649002
O O5 0.254937 0.225704 0.772668
O O6 0.082094 0.236225 0.601560
O O7 0.164214 0.285242 0.904266
O O8 0.434587 0.000000 0.328743
O O9 0.413491 0.000000 0.605975
O O10 0.080590 0.744815 0.079928
O O11 0.174934 0.891094 0.059987
O O12 0.491470 0.101194 0.136512
#
# Coordination Sequence:
#
# PCOD9213742 Si02
#       8
#     4   8   4   8   4   4   4   4
#     4  10  22  38  67  93 127 167 211 249 323 369
#     4  11  24  41  66  94 126 169 212 256 314 382
#     4  11  21  40  63  94 126 166 207 268 303 383
#     4  11  24  41  66  94 126 169 212 256 314 382
#     4  11  22  43  64  96 126 169 204 263 310 380
#     4  11  21  40  63  94 126 166 207 268 303 383
#     4  10  22  38  67  93 127 167 211 249 323 369
#     4  11  22  43  64  96 126 169 204 263 310 380
#
# _framework density 21.350992000000002
#
# number of rings (size 3 to 8) (size 9 to 14) (size 15 to 20)
#    0.000    1.200    4.000    3.000    0.000    0.000 
#    0.000   10.000    0.000    0.000    0.000    0.000 
#    0.000    0.000    0.000    0.000    0.000    0.000 
#
# Total GULP energy -111673.308724 kJ/mol
# GULP energy per Si atom -5583.665436 kJ/mol
# Density = 2.130240 g / cm^3
# Si number density = 21.350992 Si / 1000 Ang^3
#
#
#
# Elastic Constant Matrix: (Units=GPa)
#
#
# Indices 1 2 3 4 5 6 
#
# 1 97.7678 18.4615 37.9687 0.0000 37.4416 0.0000
# 2 18.4615 85.3772 36.9898 0.0000 16.5428 0.0000
# 3 37.9687 36.9898 114.9505 0.0000 31.9773 0.0000
# 4 0.0000 0.0000 0.0000 -19.2171 0.0000 6.8523
# 5 37.4416 16.5428 31.9773 0.0000 51.8398 0.0000
# 6 0.0000 0.0000 0.0000 6.8523 0.0000 17.8313
#
#
#
# Elastic Compliance Matrix: (Units=1/GPa)
#
#
# Indices 1 2 3 4 5 6 
#
# 1 0.014635 -0.000470 -0.002154 0.000000 -0.009092 0.000000
# 2 -0.000470 0.013796 -0.003807 0.000000 -0.001715 0.000000
# 3 -0.002154 -0.003807 0.011909 0.000000 -0.004575 0.000000
# 4 0.000000 0.000000 0.000000 -0.045766 0.000000 0.017587
# 5 -0.009092 -0.001715 -0.004575 0.000000 0.029226 0.000000
# 6 0.000000 0.000000 0.000000 0.017587 0.000000 0.049323
#
#
# Mechanical properties :
#
#
# Convention : Reuss Voigt Hill
#
# Bulk Modulus (GPa) = 36.39206 53.88173 45.13690
# Shear Modulus (GPa) = 52.55165 23.73584 38.14374
#
# Velocity S-wave (km/s) = 4.96655 3.33783 4.23130
# Velocity P-wave (km/s) = 7.06898 6.33607 6.71254
#
# Compressibility (1/GPa) = 0.02747852
#
# Stress axis : x y z
#
# Youngs Moduli (GPa) = 68.32763 72.48455 83.97230
#
# Poissons Ratio (x) = 0.03406 0.18085
# Poissons Ratio (y) = 0.03211 0.31970
# Poissons Ratio (z) = 0.14716 0.27596
#
# Static dielectric constant tensor:
#      x y z
#    x 1.844410 0.000000 0.037560 
#    y 0.000000 1.793260 0.000000 
#    z 0.037560 0.000000 1.762830 
# 
# From -- ./inp_files/85341.got.cif
#   From: 2010.05.17/outbox.cif.g08.bks.cpg/sg12_43_cif.got.tgz:85341.got - 2010.06.03 13:09:07.
