data_PCOD9213479
_publ_section_title
;
Structure prediction by ZEFSAII (Michael W. Deem and Ramdas Pophale) SiO2 
 PCOD9213479
Probable space group: C 2/M
;
_chemical_formula_sum "Si O2"
_cell_formula_units_Z 64
_cell_length_a 18.632855
_cell_length_b 28.539829
_cell_length_c 9.037430
_cell_angle_alpha 90.000000
_cell_angle_beta 41.109496
_cell_angle_gamma 90.000000
_cell_volume 3159.887059
_symmetry_space_group_name_H-M "C 2/M"
_symmetry_group_IT_number 12
_symmetry_cell_setting 'monoclinic'
loop_
_space_group_symop_operation_xyz
x,y,z
-x,y,-z
-x,-y,-z
x,-y,z
1/2+x,1/2+y,z
1/2-x,1/2+y,-z
1/2-x,1/2-y,-z
1/2+x,1/2-y,z
loop_
_atom_site_type_symbol
_atom_site_label
_atom_site_fract_x
_atom_site_fract_y
_atom_site_fract_z
Si Si1 0.353957 0.944478 0.862923
Si Si2 0.111394 0.825819 0.542936
Si Si3 0.425059 0.376253 0.990061
Si Si4 0.671705 0.620288 0.170757
Si Si5 0.432244 0.783240 0.395289
Si Si6 0.214821 0.640738 0.511450
Si Si7 0.333081 0.206309 0.866766
Si Si8 0.597529 0.056310 0.557542
O O1 0.359549 0.934208 0.677020
O O2 0.469902 0.929604 0.751495
O O3 0.351451 0.000000 0.878628
O O4 0.247697 0.922554 0.101374
O O5 0.101370 0.853931 0.405302
O O6 0.111795 0.769951 0.537764
O O7 0.221578 0.847427 0.438398
O O8 0.009063 0.836594 0.807244
O O9 0.389202 0.396169 0.885268
O O10 0.500000 0.402480 0.000000
O O11 0.314205 0.358349 0.237315
O O12 0.761079 0.660555 0.999906
O O13 0.373805 0.818805 0.375842
O O14 0.563790 0.785328 0.184948
O O15 0.390215 0.799688 0.620338
O O16 0.160975 0.589863 0.571618
O O17 0.250000 0.250000 0.000000
O O18 0.607201 0.000000 0.568841
#
# Coordination Sequence:
#
# PCOD9213479 Si02
#       8
#     8   8   8   8   8   8   8   8
#     4   9  18  33  62  95 115 145 190 243 302 350
#     4  11  25  36  56  84 119 163 196 235 292 346
#     4  10  22  38  59  82 112 155 201 242 289 340
#     4  12  20  38  61  84 120 151 196 242 289 355
#     4  11  22  36  57  83 119 155 204 241 276 348
#     4  11  21  40  58  86 119 153 199 243 290 340
#     4  11  21  34  58  86 111 151 202 237 291 339
#     4   9  17  35  63  92 116 144 192 243 295 353
#
# _framework density 20.253888
#
# number of rings (size 3 to 8) (size 9 to 14) (size 15 to 20)
#    0.000    1.500    3.750    3.000    1.750    2.000 
#    0.000    3.125    0.000   10.500    0.000    0.000 
#    0.000    0.000    0.000    0.000    0.000    0.000 
#
# Total GULP energy -178289.031131 kJ/mol
# GULP energy per Si atom -5571.532223 kJ/mol
# Density = 2.020779 g / cm^3
# Si number density = 20.253888 Si / 1000 Ang^3
#
#
#
# Elastic Constant Matrix: (Units=GPa)
#
#
# Indices 1 2 3 4 5 6 
#
# 1 144.5122 49.5349 32.5892 0.0000 -26.8387 0.0000
# 2 49.5349 41.8052 14.6803 0.0000 -14.0059 0.0000
# 3 32.5892 14.6803 43.3239 0.0000 -15.2800 0.0000
# 4 0.0000 0.0000 0.0000 127.3549 0.0000 5.2437
# 5 -26.8387 -14.0059 -15.2800 0.0000 28.8262 0.0000
# 6 0.0000 0.0000 0.0000 5.2437 0.0000 18.3314
#
#
#
# Elastic Compliance Matrix: (Units=1/GPa)
#
#
# Indices 1 2 3 4 5 6 
#
# 1 0.012818 -0.012515 -0.004104 0.000000 0.003678 0.000000
# 2 -0.012515 0.042064 -0.002141 0.000000 0.007651 0.000000
# 3 -0.004104 -0.002141 0.030970 0.000000 0.011555 0.000000
# 4 0.000000 0.000000 0.000000 0.007946 0.000000 -0.002273
# 5 0.003678 0.007651 0.011555 0.000000 0.047958 0.000000
# 6 0.000000 0.000000 0.000000 -0.002273 0.000000 0.055201
#
#
# Mechanical properties :
#
#
# Convention : Reuss Voigt Hill
#
# Bulk Modulus (GPa) = 20.69007 47.02778 33.85893
# Shear Modulus (GPa) = 19.95307 43.75830 31.85569
#
# Velocity S-wave (km/s) = 3.14211 4.65315 3.97018
# Velocity P-wave (km/s) = 4.83749 7.22071 6.14573
#
# Compressibility (1/GPa) = 0.04833236
#
# Stress axis : x y z
#
# Youngs Moduli (GPa) = 78.01404 23.77316 32.28924
#
# Poissons Ratio (x) = 0.29751 0.13252
# Poissons Ratio (y) = 0.97632 0.06914
# Poissons Ratio (z) = 0.32019 0.05090
#
# Static dielectric constant tensor:
#      x y z
#    x 1.801940 0.000000 -0.022370 
#    y 0.000000 1.734050 0.000000 
#    z -0.022370 0.000000 1.799870 
# 
# From -- ./inp_files/80710.got.cif
#   From: 2010.05.17/outbox.cif.g08.bks.cpg/sg12_41_cif.got.tgz:80710.got - 2010.06.03 13:09:07.
