data_PCOD9213879
_publ_section_title
;
Structure prediction by ZEFSAII (Michael W. Deem and Ramdas Pophale) SiO2 
 PCOD9213879
Probable space group: C 2/M
;
_chemical_formula_sum "Si O2"
_cell_formula_units_Z 64
_cell_length_a 25.529402
_cell_length_b 9.063233
_cell_length_c 14.899559
_cell_angle_alpha 90.000000
_cell_angle_beta 111.279902
_cell_angle_gamma 90.000000
_cell_volume 3212.392268
_symmetry_space_group_name_H-M "C 2/M"
_symmetry_group_IT_number 12
_symmetry_cell_setting 'monoclinic'
loop_
_space_group_symop_operation_xyz
x,y,z
-x,y,-z
-x,-y,-z
x,-y,z
1/2+x,1/2+y,z
1/2-x,1/2+y,-z
1/2-x,1/2-y,-z
1/2+x,1/2-y,z
loop_
_atom_site_type_symbol
_atom_site_label
_atom_site_fract_x
_atom_site_fract_y
_atom_site_fract_z
Si Si1 0.061965 0.171677 0.882851
Si Si2 0.874462 0.674247 0.638426
Si Si3 0.622233 0.322870 0.744013
Si Si4 0.142210 0.323747 0.577049
Si Si5 0.050330 0.672965 0.154470
Si Si6 0.645206 0.328648 0.095030
Si Si7 0.254942 0.322531 0.101488
Si Si8 0.764518 0.175776 0.604173
O O1 0.078736 0.223814 0.794135
O O2 0.011892 0.264420 0.894497
O O3 0.044174 0.000000 0.868575
O O4 0.117671 0.176765 0.978446
O O5 0.860096 0.500000 0.628117
O O6 0.875640 0.723130 0.535085
O O7 0.930998 0.692588 0.729844
O O8 0.824992 0.756685 0.662006
O O9 0.619926 0.500000 0.736723
O O10 0.612065 0.253595 0.640705
O O11 0.684828 0.284074 0.817949
O O12 0.134964 0.500000 0.577708
O O13 0.209218 0.291211 0.627609
O O14 0.052867 0.500000 0.134268
O O15 0.096629 0.759268 0.125949
O O16 0.655387 0.500000 0.124932
O O17 0.703199 0.239777 0.127850
O O18 0.251326 0.500000 0.091934
O O19 0.250000 0.250000 0.000000
O O20 0.750000 0.250000 0.500000
O O21 0.768714 0.000000 0.598479
#
# Coordination Sequence:
#
# PCOD9213879 Si02
#       8
#     8   8   8   8   8   8   8   8
#     4  10  22  43  62  82 116 157 196 240 297 356
#     4   9  20  38  55  78 117 153 190 243 295 344
#     4  10  22  39  59  85 119 157 195 237 291 347
#     4   9  19  35  55  82 113 151 195 236 285 347
#     4  11  24  40  61  90 117 151 200 252 298 347
#     4  11  23  41  63  88 121 159 195 241 298 357
#     4  11  22  39  61  90 124 159 195 240 296 353
#     4   9  17  30  50  77 109 146 187 230 282 342
#
# _framework density 19.922847999999998
#
# number of rings (size 3 to 8) (size 9 to 14) (size 15 to 20)
#    0.000    2.000    1.250    2.625    1.750    7.500 
#    0.000    0.625    0.000    3.750    0.000    0.000 
#    0.000    0.000    0.000    0.000    0.000    0.000 
#
# Total GULP energy -178664.071296 kJ/mol
# GULP energy per Si atom -5583.252228 kJ/mol
# Density = 1.987750 g / cm^3
# Si number density = 19.922848 Si / 1000 Ang^3
#
#
#
# Elastic Constant Matrix: (Units=GPa)
#
#
# Indices 1 2 3 4 5 6 
#
# 1 76.5057 27.3276 7.3967 0.0000 -15.0099 0.0000
# 2 27.3276 46.2642 15.0660 0.0000 -6.3970 0.0000
# 3 7.3967 15.0660 56.8929 0.0000 -18.4237 0.0000
# 4 0.0000 0.0000 0.0000 26.7407 0.0000 -5.1865
# 5 -15.0099 -6.3970 -18.4237 0.0000 35.6565 0.0000
# 6 0.0000 0.0000 0.0000 -5.1865 0.0000 30.9546
#
#
#
# Elastic Compliance Matrix: (Units=1/GPa)
#
#
# Indices 1 2 3 4 5 6 
#
# 1 0.017954 -0.010519 0.002748 0.000000 0.007090 0.000000
# 2 -0.010519 0.029862 -0.007493 0.000000 -0.002943 0.000000
# 3 0.002748 -0.007493 0.022990 0.000000 0.011691 0.000000
# 4 0.000000 0.000000 0.000000 0.038652 0.000000 0.006476
# 5 0.007090 -0.002943 0.011691 0.000000 0.036543 0.000000
# 6 0.000000 0.000000 0.000000 0.006476 0.000000 0.033390
#
#
# Mechanical properties :
#
#
# Convention : Reuss Voigt Hill
#
# Bulk Modulus (GPa) = 24.82886 31.02706 27.92796
# Shear Modulus (GPa) = 22.38672 27.32853 24.85762
#
# Velocity S-wave (km/s) = 3.35576 3.70769 3.53610
# Velocity P-wave (km/s) = 5.24446 5.82552 5.54261
#
# Compressibility (1/GPa) = 0.04027571
#
# Stress axis : x y z
#
# Youngs Moduli (GPa) = 55.69835 33.48746 43.49732
#
# Poissons Ratio (x) = 0.35227 -0.11951
# Poissons Ratio (y) = 0.58592 0.32593
# Poissons Ratio (z) = -0.15303 0.25092
#
# Static dielectric constant tensor:
#      x y z
#    x 1.713440 0.000000 0.039190 
#    y 0.000000 1.666890 0.000000 
#    z 0.039190 0.000000 1.793920 
# 
# From -- ./inp_files/244140.got.cif
#   From: 2010.05.17/outbox.cif.g08.bks.cpg/sg12_123_cif.got.tgz:244140.got - 2010.06.03 13:09:07.
