data_PCOD9213306
_publ_section_title
;
Structure prediction by ZEFSAII (Michael W. Deem and Ramdas Pophale) SiO2 
 PCOD9213306
Probable space group: C 2/M
;
_chemical_formula_sum "Si O2"
_cell_formula_units_Z 56
_cell_length_a 13.820128
_cell_length_b 19.190953
_cell_length_c 11.495983
_cell_angle_alpha 90.000000
_cell_angle_beta 68.375299
_cell_angle_gamma 90.000000
_cell_volume 2834.386706
_symmetry_space_group_name_H-M "C 2/M"
_symmetry_group_IT_number 12
_symmetry_cell_setting 'monoclinic'
loop_
_space_group_symop_operation_xyz
x,y,z
-x,y,-z
-x,-y,-z
x,-y,z
1/2+x,1/2+y,z
1/2-x,1/2+y,-z
1/2-x,1/2-y,-z
1/2+x,1/2-y,z
loop_
_atom_site_type_symbol
_atom_site_label
_atom_site_fract_x
_atom_site_fract_y
_atom_site_fract_z
Si Si1 0.250675 0.422070 0.053449
Si Si2 0.810532 0.580356 0.354467
Si Si3 0.480705 0.121380 0.870977
Si Si4 0.012694 0.236553 0.729263
Si Si5 0.214269 0.795855 0.792454
Si Si6 0.806436 0.152759 0.796554
Si Si7 0.161154 0.700167 0.485494
O O1 0.284983 0.500000 0.069486
O O2 0.125443 0.418116 0.109737
O O3 0.290354 0.360639 0.119564
O O4 0.285095 0.401549 0.908193
O O5 0.785872 0.500000 0.383178
O O6 0.725673 0.619193 0.311834
O O7 0.823882 0.623869 0.466388
O O8 0.918784 0.588623 0.236036
O O9 0.470008 0.199394 0.825173
O O10 0.500000 0.122233 0.000000
O O11 0.111251 0.208014 0.758898
O O12 0.057642 0.268264 0.589178
O O13 0.923842 0.180162 0.748980
O O14 0.232144 0.720962 0.845613
O O15 0.313855 0.801947 0.661602
O O16 0.250000 0.750000 0.500000
#
# Coordination Sequence:
#
# PCOD9213306 Si02
#       7
#     8   8   8   8   8   8   8
#     4  12  26  40  59  93 131 167 203 251 316 376
#     4  11  22  38  61  93 128 159 200 261 320 367
#     4  11  20  36  63  89 123 156 204 260 312 363
#     4  10  22  37  64  96 116 157 215 257 303 365
#     4  11  22  43  65  90 124 161 210 255 309 366
#     4  12  22  38  64  91 123 163 208 254 304 371
#     4   9  19  42  63  90 121 161 205 259 305 360
#
# _framework density 19.757359999999998
#
# number of rings (size 3 to 8) (size 9 to 14) (size 15 to 20)
#    0.000    1.143    7.143    1.286    2.000    1.714 
#    0.000    2.143    0.000    7.714    0.000    0.000 
#    0.000    0.000    0.000    0.000    0.000    0.000 
#
# Total GULP energy -156507.692701 kJ/mol
# GULP energy per Si atom -5589.560454 kJ/mol
# Density = 1.971239 g / cm^3
# Si number density = 19.757360 Si / 1000 Ang^3
#
#
#
# Elastic Constant Matrix: (Units=GPa)
#
#
# Indices 1 2 3 4 5 6 
#
# 1 85.3720 18.0228 -10.0968 0.0000 -10.7901 0.0000
# 2 18.0228 114.4036 3.1202 0.0000 -0.5454 0.0000
# 3 -10.0968 3.1202 32.7866 0.0000 4.4082 0.0000
# 4 0.0000 0.0000 0.0000 12.0787 0.0000 2.1654
# 5 -10.7901 -0.5454 4.4082 0.0000 28.0174 0.0000
# 6 0.0000 0.0000 0.0000 2.1654 0.0000 19.2350
#
#
#
# Elastic Compliance Matrix: (Units=1/GPa)
#
#
# Indices 1 2 3 4 5 6 
#
# 1 0.013163 -0.002152 0.003660 0.000000 0.004452 0.000000
# 2 -0.002152 0.009118 -0.001474 0.000000 -0.000419 0.000000
# 3 0.003660 -0.001474 0.032265 0.000000 -0.003696 0.000000
# 4 0.000000 0.000000 0.000000 0.084495 0.000000 -0.009512
# 5 0.004452 -0.000419 -0.003696 0.000000 0.037980 0.000000
# 6 0.000000 0.000000 0.000000 -0.009512 0.000000 0.053060
#
#
# Mechanical properties :
#
#
# Convention : Reuss Voigt Hill
#
# Bulk Modulus (GPa) = 18.31061 28.29496 23.30278
# Shear Modulus (GPa) = 20.14356 26.63395 23.38875
#
# Velocity S-wave (km/s) = 3.19650 3.67557 3.44437
# Velocity P-wave (km/s) = 4.78658 5.68906 5.25722
#
# Compressibility (1/GPa) = 0.05461316
#
# Stress axis : x y z
#
# Youngs Moduli (GPa) = 75.96857 109.67003 30.99378
#
# Poissons Ratio (x) = 0.23604 -0.11344
# Poissons Ratio (y) = 0.16351 0.04569
# Poissons Ratio (z) = -0.27805 0.16167
#
# Static dielectric constant tensor:
#      x y z
#    x 1.718560 0.000000 -0.007010 
#    y 0.000000 1.682420 0.000000 
#    z -0.007010 0.000000 1.698640 
# 
# From -- ./inp_files/146013.got.cif
#   From: 2010.05.17/outbox.cif.g08.bks.cpg/sg12_74_cif.got.tgz:146013.got - 2010.06.03 13:09:07.
