data_PCOD9213696
_publ_section_title
;
Structure prediction by ZEFSAII (Michael W. Deem and Ramdas Pophale) SiO2 
 PCOD9213696
Probable space group: C 2/M
;
_chemical_formula_sum "Si O2"
_cell_formula_units_Z 56
_cell_length_a 18.830746
_cell_length_b 13.926400
_cell_length_c 22.931188
_cell_angle_alpha 90.000000
_cell_angle_beta 155.033656
_cell_angle_gamma 90.000000
_cell_volume 2538.245961
_symmetry_space_group_name_H-M "C 2/M"
_symmetry_group_IT_number 12
_symmetry_cell_setting 'monoclinic'
loop_
_space_group_symop_operation_xyz
x,y,z
-x,y,-z
-x,-y,-z
x,-y,z
1/2+x,1/2+y,z
1/2-x,1/2+y,-z
1/2-x,1/2-y,-z
1/2+x,1/2-y,z
loop_
_atom_site_type_symbol
_atom_site_label
_atom_site_fract_x
_atom_site_fract_y
_atom_site_fract_z
Si Si1 0.243836 0.613184 0.926951
Si Si2 0.219152 0.893871 0.837105
Si Si3 0.178103 0.108820 0.470961
Si Si4 0.728780 0.195329 0.787022
Si Si5 0.101501 0.193602 0.200318
Si Si6 0.655530 0.195103 0.517210
Si Si7 0.017911 0.609730 0.863682
O O1 0.267885 0.500000 0.950350
O O2 0.221673 0.641731 0.843359
O O3 0.084991 0.637025 0.849306
O O4 0.412513 0.664019 0.074890
O O5 0.270964 0.805231 0.835503
O O6 0.017792 0.885611 0.695196
O O7 0.254173 0.000000 0.838100
O O8 0.319850 0.887203 0.972504
O O9 0.293946 0.134780 0.502350
O O10 0.197596 0.193819 0.532214
O O11 0.209965 0.000000 0.515045
O O12 0.856797 0.158801 0.833670
O O13 0.543235 0.190764 0.621245
O O14 0.235020 0.160043 0.347192
O O15 0.105963 0.309465 0.204999
O O16 0.956038 0.500000 0.817914
#
# Coordination Sequence:
#
# PCOD9213696 Si02
#       7
#     8   8   8   8   8   8   8
#     4  11  25  43  65  91 123 163 208 256 303 358
#     4   9  18  36  61  91 124 159 200 252 311 365
#     4   9  19  37  62  90 120 158 203 253 306 355
#     4  11  24  41  60  89 128 167 202 251 304 365
#     4  12  24  40  63  91 126 165 203 248 310 369
#     4  10  23  38  61  89 123 161 203 251 299 364
#     4  10  22  38  64  96 123 154 205 263 310 357
#
# _framework density 22.062480000000001
#
# number of rings (size 3 to 8) (size 9 to 14) (size 15 to 20)
#    0.000    1.714    1.429    2.143    6.000    4.571 
#    0.000    1.429    0.000    6.857    0.000    0.000 
#    0.000    0.000    0.000    0.000    0.000    0.000 
#
# Total GULP energy -156575.883706 kJ/mol
# GULP energy per Si atom -5591.995847 kJ/mol
# Density = 2.201226 g / cm^3
# Si number density = 22.062480 Si / 1000 Ang^3
#
#
#
# Elastic Constant Matrix: (Units=GPa)
#
#
# Indices 1 2 3 4 5 6 
#
# 1 47.3082 -5.5146 -8.0874 0.0057 -11.6630 0.0013
# 2 -5.5146 43.9694 -5.6608 -0.0045 0.9554 0.0017
# 3 -8.0874 -5.6608 69.3117 -0.0063 -11.8979 0.0040
# 4 0.0057 -0.0045 -0.0063 13.9840 -0.0016 1.3356
# 5 -11.6630 0.9554 -11.8979 -0.0016 22.7528 0.0021
# 6 0.0013 0.0017 0.0040 1.3356 0.0021 2.6963
#
#
#
# Elastic Compliance Matrix: (Units=1/GPa)
#
#
# Indices 1 2 3 4 5 6 
#
# 1 0.026838 0.003816 0.006347 -0.000001 0.016916 -0.000037
# 2 0.003816 0.023527 0.002783 0.000010 0.002423 -0.000028
# 3 0.006347 0.002783 0.017505 0.000012 0.012290 -0.000046
# 4 -0.000001 0.000010 0.000012 0.075062 0.000014 -0.037182
# 5 0.016916 0.002423 0.012290 0.000014 0.058947 -0.000080
# 6 -0.000037 -0.000028 -0.000046 -0.037182 -0.000080 0.389293
#
#
# Mechanical properties :
#
#
# Convention : Reuss Voigt Hill
#
# Bulk Modulus (GPa) = 10.66546 13.56264 12.11405
# Shear Modulus (GPa) = 8.38174 19.87677 14.12925
#
# Velocity S-wave (km/s) = 1.95124 3.00481 2.53340
# Velocity P-wave (km/s) = 3.14979 4.26605 3.74969
#
# Compressibility (1/GPa) = 0.09376059
#
# Stress axis : x y z
#
# Youngs Moduli (GPa) = 37.26046 42.50396 57.12618
#
# Poissons Ratio (x) = -0.16218 -0.36257
# Poissons Ratio (y) = -0.14217 -0.15896
# Poissons Ratio (z) = -0.23649 -0.11827
#
# Static dielectric constant tensor:
#      x y z
#    x 1.782410 0.000000 -0.016650 
#    y 0.000000 1.814330 0.000000 
#    z -0.016650 0.000000 1.795950 
# 
# From -- ./inp_files/316747.got.cif
#   From: 2010.05.17/outbox.cif.g08.bks.cpg/sg12_159_cif.got.tgz:316747.got - 2010.06.03 13:09:07.
