data_PCOD9213895
_publ_section_title
;
Structure prediction by ZEFSAII (Michael W. Deem and Ramdas Pophale) SiO2 
 PCOD9213895
Probable space group: C 2/M
;
_chemical_formula_sum "Si O2"
_cell_formula_units_Z 48
_cell_length_a 15.868785
_cell_length_b 13.697617
_cell_length_c 11.972899
_cell_angle_alpha 90.000000
_cell_angle_beta 128.831474
_cell_angle_gamma 90.000000
_cell_volume 2027.318226
_symmetry_space_group_name_H-M "C 2/M"
_symmetry_group_IT_number 12
_symmetry_cell_setting 'monoclinic'
loop_
_space_group_symop_operation_xyz
x,y,z
-x,y,-z
-x,-y,-z
x,-y,z
1/2+x,1/2+y,z
1/2-x,1/2+y,-z
1/2-x,1/2-y,-z
1/2+x,1/2-y,z
loop_
_atom_site_type_symbol
_atom_site_label
_atom_site_fract_x
_atom_site_fract_y
_atom_site_fract_z
Si Si1 0.228455 0.886200 0.097039
Si Si2 0.067412 0.385127 0.169757
Si Si3 0.496669 0.387294 0.364170
Si Si4 0.118739 0.384416 0.560746
Si Si5 0.604578 0.756926 0.877747
Si Si6 0.241793 0.117946 0.535672
O O1 0.299155 0.877127 0.267186
O O2 0.304158 0.839078 0.063757
O O3 0.203269 0.000000 0.059445
O O4 0.127142 0.813403 0.002389
O O5 0.056475 0.500000 0.187333
O O6 0.193501 0.360140 0.295051
O O7 0.003079 0.318700 0.201738
O O8 0.000000 0.371412 0.000000
O O9 0.500000 0.384857 0.500000
O O10 0.476379 0.500000 0.313372
O O11 0.409237 0.316496 0.237032
O O12 0.616501 0.355966 0.425365
O O13 0.099653 0.500000 0.522015
O O14 0.186149 0.347679 0.509489
O O15 0.000000 0.345023 0.500000
O O16 0.238104 0.000000 0.526573
#
# Coordination Sequence:
#
# PCOD9213895 Si02
#       6
#     8   8   8   8   8   8
#     4  10  22  39  59  88 126 163 204 261 323 380
#     4  10  22  40  61  89 127 167 209 261 318 378
#     4  10  23  43  64  90 127 168 212 264 320 379
#     4   9  17  33  60  90 119 153 196 250 313 377
#     4  11  23  38  62  90 120 165 217 260 314 383
#     4   9  19  37  62  90 120 160 205 252 312 375
#
# _framework density 23.676597999999998
#
# number of rings (size 3 to 8) (size 9 to 14) (size 15 to 20)
#    0.000    2.167    0.000    2.000    0.000    9.333 
#    0.000    5.000    0.000    5.500    0.000    0.000 
#    0.000    0.000    0.000    0.000    0.000    0.000 
#
# Total GULP energy -133986.704689 kJ/mol
# GULP energy per Si atom -5582.779362 kJ/mol
# Density = 2.362271 g / cm^3
# Si number density = 23.676598 Si / 1000 Ang^3
#
#
#
# Elastic Constant Matrix: (Units=GPa)
#
#
# Indices 1 2 3 4 5 6 
#
# 1 75.5666 3.9424 15.6503 0.0000 2.9035 0.0000
# 2 3.9424 87.9500 7.9375 0.0000 -4.6735 0.0000
# 3 15.6503 7.9375 96.2831 0.0000 2.6686 0.0000
# 4 0.0000 0.0000 0.0000 25.7740 0.0000 9.9065
# 5 2.9035 -4.6735 2.6686 0.0000 23.0965 0.0000
# 6 0.0000 0.0000 0.0000 9.9065 0.0000 -7.2811
#
#
#
# Elastic Compliance Matrix: (Units=1/GPa)
#
#
# Indices 1 2 3 4 5 6 
#
# 1 0.013766 -0.000507 -0.002152 0.000000 -0.001585 0.000000
# 2 -0.000507 0.011612 -0.000945 0.000000 0.002523 0.000000
# 3 -0.002152 -0.000945 0.010846 0.000000 -0.001174 0.000000
# 4 0.000000 0.000000 0.000000 0.025476 0.000000 0.034662
# 5 -0.001585 0.002523 -0.001174 0.000000 0.044142 0.000000
# 6 0.000000 0.000000 0.000000 0.034662 0.000000 -0.090181
#
#
# Mechanical properties :
#
#
# Convention : Reuss Voigt Hill
#
# Bulk Modulus (GPa) = 34.46234 34.98445 34.72339
# Shear Modulus (GPa) = 153.65134 23.80253 88.72693
#
# Velocity S-wave (km/s) = 8.06454 3.17412 6.12829
# Velocity P-wave (km/s) = 10.06492 5.31426 8.04811
#
# Compressibility (1/GPa) = 0.02901718
#
# Stress axis : x y z
#
# Youngs Moduli (GPa) = 72.64079 86.11676 92.19780
#
# Poissons Ratio (x) = 0.04367 0.19840
# Poissons Ratio (y) = 0.03683 0.08711
# Poissons Ratio (z) = 0.15632 0.08136
#
# Static dielectric constant tensor:
#      x y z
#    x 1.915690 0.000000 -0.009020 
#    y 0.000000 1.882040 0.000000 
#    z -0.009020 0.000000 1.924630 
# 
# From -- ./inp_files/143892.got.cif
#   From: 2010.05.17/outbox.cif.g08.bks.cpg/sg12_72_cif.got.tgz:143892.got - 2010.06.03 13:09:07.
