data_PCOD9213383
_publ_section_title
;
Structure prediction by ZEFSAII (Michael W. Deem and Ramdas Pophale) SiO2 
 PCOD9213383
Probable space group: C 2/M
;
_chemical_formula_sum "Si O2"
_cell_formula_units_Z 40
_cell_length_a 25.706802
_cell_length_b 11.419830
_cell_length_c 9.784891
_cell_angle_alpha 90.000000
_cell_angle_beta 139.673380
_cell_angle_gamma 90.000000
_cell_volume 1858.936892
_symmetry_space_group_name_H-M "C 2/M"
_symmetry_group_IT_number 12
_symmetry_cell_setting 'monoclinic'
loop_
_space_group_symop_operation_xyz
x,y,z
-x,y,-z
-x,-y,-z
x,-y,z
1/2+x,1/2+y,z
1/2-x,1/2+y,-z
1/2-x,1/2-y,-z
1/2+x,1/2-y,z
loop_
_atom_site_type_symbol
_atom_site_label
_atom_site_fract_x
_atom_site_fract_y
_atom_site_fract_z
Si Si1 0.770940 0.365226 0.456267
Si Si2 0.998533 0.857924 0.835993
Si Si3 0.426028 0.000000 0.755939
Si Si4 0.157604 0.138165 0.990769
Si Si5 0.586794 0.256573 0.592772
Si Si6 0.572576 0.000000 0.543120
O O1 0.737619 0.500000 0.426376
O O2 0.750000 0.250000 0.500000
O O3 0.865541 0.391177 0.651528
O O4 0.737082 0.339537 0.237708
O O5 0.931938 0.808772 0.595045
O O6 0.992576 0.000000 0.820555
O O7 0.000000 0.824443 0.000000
O O8 0.083233 0.819262 0.937222
O O9 0.461209 0.000000 0.676138
O O10 0.500000 0.000000 0.000000
O O11 0.147668 0.000000 0.962497
O O12 0.148062 0.181572 0.817884
O O13 0.500000 0.262634 0.500000
O O14 0.615454 0.122554 0.645221
O O15 0.500000 0.000000 0.500000
#
# Coordination Sequence:
#
# PCOD9213383 Si02
#       6
#     8   8   4   8   8   4
#     4   9  21  41  67 102 142 183 232 291 363 425
#     4   9  17  29  51  88 126 165 213 278 337 402
#     4  10  24  44  72 100 136 186 237 295 356 431
#     4   9  17  34  58  80 120 174 217 269 342 405
#     4   9  18  32  52  82 120 167 217 265 326 401
#     4  10  22  38  56  90 132 174 230 283 331 409
#
# _framework density 21.517675000000001
#
# number of rings (size 3 to 8) (size 9 to 14) (size 15 to 20)
#    0.600    2.200    0.000    0.600    0.000    9.600 
#    1.800    1.000    0.000    4.200    0.000    0.000 
#    0.000    0.000    0.000    0.000    0.000    0.000 
#
# Total GULP energy -111389.371865 kJ/mol
# GULP energy per Si atom -5569.468593 kJ/mol
# Density = 2.146870 g / cm^3
# Si number density = 21.517675 Si / 1000 Ang^3
#
#
#
# Elastic Constant Matrix: (Units=GPa)
#
#
# Indices 1 2 3 4 5 6 
#
# 1 86.1040 41.3547 68.6536 0.0000 -18.8361 0.0000
# 2 41.3547 92.2361 80.7055 0.0000 -18.0724 0.0000
# 3 68.6536 80.7055 213.5873 0.0000 -18.5497 0.0000
# 4 0.0000 0.0000 0.0000 12.1533 0.0000 -18.4526
# 5 -18.8361 -18.0724 -18.5497 0.0000 38.7030 0.0000
# 6 0.0000 0.0000 0.0000 -18.4526 0.0000 20.7326
#
#
#
# Elastic Compliance Matrix: (Units=1/GPa)
#
#
# Indices 1 2 3 4 5 6 
#
# 1 0.017459 -0.003458 -0.003869 0.000000 0.005028 0.000000
# 2 -0.003458 0.017796 -0.005256 0.000000 0.004108 0.000000
# 3 -0.003869 -0.005256 0.007862 0.000000 -0.000569 0.000000
# 4 0.000000 0.000000 0.000000 -0.234187 0.000000 -0.208433
# 5 0.005028 0.004108 -0.000569 0.000000 0.029930 0.000000
# 6 0.000000 0.000000 0.000000 -0.208433 0.000000 -0.137278
#
#
# Mechanical properties :
#
#
# Convention : Reuss Voigt Hill
#
# Bulk Modulus (GPa) = 55.70352 85.92834 70.81593
# Shear Modulus (GPa) = -18.70777 27.73202 4.51212
#
# Velocity S-wave (km/s) = -2.95178 3.59388 1.44965
# Velocity P-wave (km/s) = 3.78499 7.56584 5.98197
#
# Compressibility (1/GPa) = 0.01795219
#
# Stress axis : x y z
#
# Youngs Moduli (GPa) = 57.27650 56.19255 127.19208
#
# Poissons Ratio (x) = 0.19429 0.49207
# Poissons Ratio (y) = 0.19804 0.66855
# Poissons Ratio (z) = 0.22159 0.29536
#
# Static dielectric constant tensor:
#      x y z
#    x 1.889710 0.000000 -0.016070 
#    y 0.000000 1.876650 0.000000 
#    z -0.016070 0.000000 1.814110 
# 
# From -- ./inp_files/110236.got.cif
#   From: 2010.05.17/outbox.cif.g08.bks.cpg/sg12_56_cif.got.tgz:110236.got - 2010.06.03 13:09:07.
