data_PCOD9213591
_publ_section_title
;
Structure prediction by ZEFSAII (Michael W. Deem and Ramdas Pophale) SiO2 
 PCOD9213591
Probable space group: C 2/M
;
_chemical_formula_sum "Si O2"
_cell_formula_units_Z 48
_cell_length_a 25.372978
_cell_length_b 11.802892
_cell_length_c 9.590077
_cell_angle_alpha 90.000000
_cell_angle_beta 55.983949
_cell_angle_gamma 90.000000
_cell_volume 2380.532392
_symmetry_space_group_name_H-M "C 2/M"
_symmetry_group_IT_number 12
_symmetry_cell_setting 'monoclinic'
loop_
_space_group_symop_operation_xyz
x,y,z
-x,y,-z
-x,-y,-z
x,-y,z
1/2+x,1/2+y,z
1/2-x,1/2+y,-z
1/2-x,1/2-y,-z
1/2+x,1/2-y,z
loop_
_atom_site_type_symbol
_atom_site_label
_atom_site_fract_x
_atom_site_fract_y
_atom_site_fract_z
Si Si1 0.065671 0.134436 0.492192
Si Si2 0.277672 0.126882 0.505178
Si Si3 0.060370 0.627165 0.054955
Si Si4 0.234082 0.117409 0.880195
Si Si5 0.353948 0.213855 0.832969
Si Si6 0.920412 0.704383 0.267263
O O1 0.117477 0.202177 0.324620
O O2 0.067819 0.190339 0.644223
O O3 0.000000 0.149279 0.500000
O O4 0.077607 0.000000 0.483927
O O5 0.250000 0.250000 0.500000
O O6 0.243240 0.116336 0.703392
O O7 0.353647 0.146385 0.404208
O O8 0.268017 0.000000 0.449598
O O9 0.079403 0.500000 0.983262
O O10 0.092417 0.656798 0.153469
O O11 0.984767 0.632173 0.188072
O O12 0.080208 0.714550 0.901832
O O13 0.305018 0.129124 0.834325
O O14 0.204665 0.000000 0.974296
O O15 0.190399 0.217561 0.995234
#
# Coordination Sequence:
#
# PCOD9213591 Si02
#       6
#     8   8   8   8   8   8
#     4  11  23  42  65  93 128 167 212 264 320 384
#     4  11  23  41  63  93 130 169 215 263 319 386
#     4  11  23  40  65  94 126 161 205 263 325 385
#     4  10  22  38  61  91 125 164 211 263 313 375
#     4  11  21  41  64  92 127 162 212 257 321 382
#     4  11  22  42  63  93 126 166 209 263 318 381
#
# _framework density 20.163556
#
# number of rings (size 3 to 8) (size 9 to 14) (size 15 to 20)
#    0.000    1.167    3.333    4.000    0.000    0.667 
#    0.000    5.000    0.000    0.000    0.000    0.000 
#    0.000    0.000    0.000    0.000    0.000    0.000 
#
# Total GULP energy -133650.916632 kJ/mol
# GULP energy per Si atom -5568.788193 kJ/mol
# Density = 2.011766 g / cm^3
# Si number density = 20.163556 Si / 1000 Ang^3
#
#
#
# Elastic Constant Matrix: (Units=GPa)
#
#
# Indices 1 2 3 4 5 6 
#
# 1 54.1109 35.2465 6.4357 0.0000 5.2057 0.0000
# 2 35.2465 129.8580 39.1193 0.0000 14.5502 0.0000
# 3 6.4357 39.1193 78.6143 0.0000 -0.1285 0.0000
# 4 0.0000 0.0000 0.0000 56.0606 0.0000 61.4411
# 5 5.2057 14.5502 -0.1285 0.0000 33.9835 0.0000
# 6 0.0000 0.0000 0.0000 61.4411 0.0000 64.8160
#
#
#
# Elastic Compliance Matrix: (Units=1/GPa)
#
#
# Indices 1 2 3 4 5 6 
#
# 1 0.022597 -0.006469 0.001368 0.000000 -0.000687 0.000000
# 2 -0.006469 0.011457 -0.005178 0.000000 -0.003934 0.000000
# 3 0.001368 -0.005178 0.015188 0.000000 0.002065 0.000000
# 4 0.000000 0.000000 0.000000 -0.458425 0.000000 0.434556
# 5 -0.000687 -0.003934 0.002065 0.000000 0.031223 0.000000
# 6 0.000000 0.000000 0.000000 0.434556 0.000000 -0.396501
#
#
# Mechanical properties :
#
#
# Convention : Reuss Voigt Hill
#
# Bulk Modulus (GPa) = 34.86116 47.13183 40.99649
# Shear Modulus (GPa) = -6.71736 43.09080 18.18672
#
# Velocity S-wave (km/s) = -1.82720 4.62785 3.00652
# Velocity P-wave (km/s) = 3.58820 7.20982 5.69459
#
# Compressibility (1/GPa) = 0.02868522
#
# Stress axis : x y z
#
# Youngs Moduli (GPa) = 44.25290 87.28198 65.83967
#
# Poissons Ratio (x) = 0.56459 -0.09005
# Poissons Ratio (y) = 0.28625 0.34092
# Poissons Ratio (z) = -0.06053 0.45195
#
# Static dielectric constant tensor:
#      x y z
#    x 1.725940 0.000000 0.020710 
#    y 0.000000 1.751400 0.000000 
#    z 0.020710 0.000000 1.698960 
# 
# From -- ./inp_files/102394.got.cif
#   From: 2010.05.17/outbox.cif.g08.bks.cpg/sg12_52_cif.got.tgz:102394.got - 2010.06.03 13:09:07.
