data_PCOD9213981
_publ_section_title
;
Structure prediction by ZEFSAII (Michael W. Deem and Ramdas Pophale) SiO2 
 PCOD9213981
Probable space group: C 2/M
;
_chemical_formula_sum "Si O2"
_cell_formula_units_Z 48
_cell_length_a 9.574423
_cell_length_b 14.408197
_cell_length_c 26.236346
_cell_angle_alpha 90.000000
_cell_angle_beta 147.575866
_cell_angle_gamma 90.000000
_cell_volume 1940.609474
_symmetry_space_group_name_H-M "C 2/M"
_symmetry_group_IT_number 12
_symmetry_cell_setting 'monoclinic'
loop_
_space_group_symop_operation_xyz
x,y,z
-x,y,-z
-x,-y,-z
x,-y,z
1/2+x,1/2+y,z
1/2-x,1/2+y,-z
1/2-x,1/2-y,-z
1/2+x,1/2-y,z
loop_
_atom_site_type_symbol
_atom_site_label
_atom_site_fract_x
_atom_site_fract_y
_atom_site_fract_z
Si Si1 0.224056 0.257261 0.291738
Si Si2 0.121679 0.396087 0.592524
Si Si3 0.172088 0.899062 0.208026
Si Si4 0.631660 0.302748 0.095720
Si Si5 0.554039 0.606768 0.459883
Si Si6 0.873340 0.597764 0.905225
O O1 0.200522 0.185130 0.331911
O O2 0.318989 0.191475 0.274234
O O3 0.419472 0.333958 0.373880
O O4 0.947291 0.300666 0.190428
O O5 0.237921 0.500000 0.629362
O O6 0.863269 0.394358 0.547572
O O7 0.000000 0.380345 0.500000
O O8 0.068197 0.877355 0.119543
O O9 0.929612 0.902808 0.172078
O O10 0.303641 0.000000 0.249696
O O11 0.556389 0.199393 0.093501
O O12 0.500000 0.316211 0.000000
O O13 0.500000 0.642998 0.500000
O O14 0.461986 0.500000 0.428473
O O15 0.935842 0.500000 0.897337
O O16 0.000000 0.595234 0.000000
#
# Coordination Sequence:
#
# PCOD9213981 Si02
#       6
#     8   8   8   8   8   8
#     4  11  23  38  65  94 127 171 217 263 330 393
#     4  10  22  40  66  99 133 172 221 271 326 403
#     4  10  22  39  61  87 121 166 217 271 331 393
#     4  10  23  39  60  92 126 169 222 276 323 389
#     4  10  23  42  66 100 139 174 215 271 336 402
#     4   8  16  34  57  81 111 152 203 257 316 376
#
# _framework density 24.734496
#
# number of rings (size 3 to 8) (size 9 to 14) (size 15 to 20)
#    0.000    2.167    0.000    1.500    4.667    7.667 
#    0.000    0.833    0.000    1.000    0.000    0.000 
#    0.000    0.000    0.000    0.000    0.000    0.000 
#
# Total GULP energy -134061.529362 kJ/mol
# GULP energy per Si atom -5585.897057 kJ/mol
# Density = 2.467820 g / cm^3
# Si number density = 24.734496 Si / 1000 Ang^3
#
#
#
# Elastic Constant Matrix: (Units=GPa)
#
#
# Indices 1 2 3 4 5 6 
#
# 1 55.3201 14.9191 18.4648 0.0002 -16.2817 0.0000
# 2 14.9191 123.6883 51.2839 0.0004 -11.0961 0.0000
# 3 18.4648 51.2839 140.7793 0.0017 -17.2512 0.0003
# 4 0.0002 0.0004 0.0017 -28.5519 0.0006 -9.6851
# 5 -16.2817 -11.0961 -17.2512 0.0006 34.0330 0.0001
# 6 0.0000 0.0000 0.0003 -9.6851 0.0001 24.5494
#
#
#
# Elastic Compliance Matrix: (Units=1/GPa)
#
#
# Indices 1 2 3 4 5 6 
#
# 1 0.021558 -0.001257 -0.001233 0.000000 0.009279 0.000000
# 2 -0.001257 0.009663 -0.003244 0.000000 0.000905 0.000000
# 3 -0.001233 -0.003244 0.008791 0.000000 0.002809 0.000000
# 4 0.000000 0.000000 0.000000 -0.030890 0.000001 -0.012187
# 5 0.009279 0.000905 0.002809 0.000001 0.035541 0.000000
# 6 0.000000 0.000000 0.000000 -0.012187 0.000000 0.035926
#
#
# Mechanical properties :
#
#
# Convention : Reuss Voigt Hill
#
# Bulk Modulus (GPa) = 35.03341 54.34701 44.69021
# Shear Modulus (GPa) = 49.22651 21.68076 35.45364
#
# Velocity S-wave (km/s) = 4.46600 2.96385 3.79009
# Velocity P-wave (km/s) = 6.38656 5.80796 6.10412
#
# Compressibility (1/GPa) = 0.02854418
#
# Stress axis : x y z
#
# Youngs Moduli (GPa) = 46.38658 103.49023 113.75239
#
# Poissons Ratio (x) = 0.13006 0.14022
# Poissons Ratio (y) = 0.05830 0.36905
# Poissons Ratio (z) = 0.05718 0.33575
#
# Static dielectric constant tensor:
#      x y z
#    x 2.003730 0.000000 0.031700 
#    y 0.000000 2.045220 0.000000 
#    z 0.031700 0.000000 1.990570 
# 
# From -- ./inp_files/358496.got.cif
#   From: 2010.05.17/outbox.cif.g08.bks.cpg/sg12_180_cif.got.tgz:358496.got - 2010.06.03 13:09:07.
