data_PCOD9213560
_publ_section_title
;
Structure prediction by ZEFSAII (Michael W. Deem and Ramdas Pophale) SiO2 
 PCOD9213560
Probable space group: C 2/M
;
_chemical_formula_sum "Si O2"
_cell_formula_units_Z 32
_cell_length_a 9.740314
_cell_length_b 13.841375
_cell_length_c 14.118054
_cell_angle_alpha 90.000000
_cell_angle_beta 134.909846
_cell_angle_gamma 90.000000
_cell_volume 1348.013727
_symmetry_space_group_name_H-M "C 2/M"
_symmetry_group_IT_number 12
_symmetry_cell_setting 'monoclinic'
loop_
_space_group_symop_operation_xyz
x,y,z
-x,y,-z
-x,-y,-z
x,-y,z
1/2+x,1/2+y,z
1/2-x,1/2+y,-z
1/2-x,1/2-y,-z
1/2+x,1/2-y,z
loop_
_atom_site_type_symbol
_atom_site_label
_atom_site_fract_x
_atom_site_fract_y
_atom_site_fract_z
Si Si1 0.695870 0.110430 0.538650
Si Si2 0.999404 0.242226 0.784030
Si Si3 0.690054 0.392301 0.030187
Si Si4 0.778523 0.108799 0.363187
O O1 0.500000 0.136827 0.500000
O O2 0.872563 0.181461 0.648251
O O3 0.672479 0.109250 0.414272
O O4 0.744586 0.000000 0.591539
O O5 0.829908 0.309464 0.749855
O O6 0.159968 0.323482 0.842896
O O7 0.115159 0.163483 0.901274
O O8 0.769181 0.500000 0.050490
O O9 0.500000 0.401425 0.000000
O O10 0.000000 0.129189 0.500000
O O11 0.772237 0.000000 0.320261
#
# Coordination Sequence:
#
# PCOD9213560 Si02
#       4
#     8   8   8   8
#     4  10  22  38  62  97 128 160 204 257 310 373
#     4  11  22  38  64  88 120 160 210 252 313 370
#     4  10  24  42  62  88 120 163 214 267 311 360
#     4  10  22  38  60  93 129 161 199 253 318 378
#
# _framework density 23.738629
#
# number of rings (size 3 to 8) (size 9 to 14) (size 15 to 20)
#    0.000    1.750    0.000    3.000    7.000    0.000 
#    0.000    0.000    0.000    4.500    0.000    0.000 
#    0.000    0.000    0.000    0.000    0.000    0.000 
#
# Total GULP energy -89318.378860 kJ/mol
# GULP energy per Si atom -5582.398679 kJ/mol
# Density = 2.368460 g / cm^3
# Si number density = 23.738629 Si / 1000 Ang^3
#
#
#
# Elastic Constant Matrix: (Units=GPa)
#
#
# Indices 1 2 3 4 5 6 
#
# 1 57.8869 14.4640 20.2401 0.0000 13.2559 0.0000
# 2 14.4640 204.7988 64.8036 0.0000 10.7166 0.0000
# 3 20.2401 64.8036 112.9462 0.0000 21.5943 0.0000
# 4 0.0000 0.0000 0.0000 38.1129 0.0000 12.2507
# 5 13.2559 10.7166 21.5943 0.0000 23.7851 0.0000
# 6 0.0000 0.0000 0.0000 12.2507 0.0000 24.9757
#
#
#
# Elastic Compliance Matrix: (Units=1/GPa)
#
#
# Indices 1 2 3 4 5 6 
#
# 1 0.020121 -0.000439 -0.001510 0.000000 -0.009645 0.000000
# 2 -0.000439 0.005981 -0.003490 0.000000 0.000719 0.000000
# 3 -0.001510 -0.003490 0.012905 0.000000 -0.009303 0.000000
# 4 0.000000 0.000000 0.000000 0.031149 0.000000 -0.015279
# 5 -0.009645 0.000719 -0.009303 0.000000 0.055541 0.000000
# 6 0.000000 0.000000 0.000000 -0.015279 0.000000 0.047533
#
#
# Mechanical properties :
#
#
# Convention : Reuss Voigt Hill
#
# Bulk Modulus (GPa) = 35.54933 63.84972 49.69953
# Shear Modulus (GPa) = 25.84190 35.78304 30.81247
#
# Velocity S-wave (km/s) = 3.30298 3.88671 3.60667
# Velocity P-wave (km/s) = 5.43636 6.86275 6.19077
#
# Compressibility (1/GPa) = 0.02812992
#
# Stress axis : x y z
#
# Youngs Moduli (GPa) = 49.69830 167.20719 77.48650
#
# Poissons Ratio (x) = 0.07333 0.11701
# Poissons Ratio (y) = 0.02179 0.27044
# Poissons Ratio (z) = 0.07505 0.58359
#
# Static dielectric constant tensor:
#      x y z
#    x 1.948170 0.000000 0.003830 
#    y 0.000000 1.990410 0.000000 
#    z 0.003830 0.000000 1.911070 
# 
# From -- ./inp_files/96705.got.cif
#   From: 2010.05.17/outbox.cif.g08.bks.cpg/sg12_49_cif.got.tgz:96705.got - 2010.06.03 13:09:07.
