data_PCOD9213763
_publ_section_title
;
Structure prediction by ZEFSAII (Michael W. Deem and Ramdas Pophale) SiO2 
 PCOD9213763
Probable space group: C 2/M
;
_chemical_formula_sum "Si O2"
_cell_formula_units_Z 52
_cell_length_a 15.240052
_cell_length_b 15.508040
_cell_length_c 12.121173
_cell_angle_alpha 90.000000
_cell_angle_beta 44.760958
_cell_angle_gamma 90.000000
_cell_volume 2017.221210
_symmetry_space_group_name_H-M "C 2/M"
_symmetry_group_IT_number 12
_symmetry_cell_setting 'monoclinic'
loop_
_space_group_symop_operation_xyz
x,y,z
-x,y,-z
-x,-y,-z
x,-y,z
1/2+x,1/2+y,z
1/2-x,1/2+y,-z
1/2-x,1/2-y,-z
1/2+x,1/2-y,z
loop_
_atom_site_type_symbol
_atom_site_label
_atom_site_fract_x
_atom_site_fract_y
_atom_site_fract_z
Si Si1 0.271603 0.099921 0.561790
Si Si2 0.262625 0.094022 0.931016
Si Si3 0.232142 0.595313 0.807834
Si Si4 0.404851 0.258268 0.174117
Si Si5 0.093331 0.873376 0.530977
Si Si6 0.960052 0.000000 0.823061
Si Si7 0.009187 0.695650 0.314289
O O1 0.194078 0.168456 0.702642
O O2 0.226624 0.122064 0.477614
O O3 0.417721 0.119008 0.434042
O O4 0.239461 0.000000 0.616411
O O5 0.261716 0.101633 0.065484
O O6 0.118250 0.074845 0.037352
O O7 0.323492 0.000000 0.851823
O O8 0.347086 0.168241 0.805411
O O9 0.177777 0.500000 0.831506
O O10 0.159469 0.676536 0.827066
O O11 0.366835 0.596283 0.626146
O O12 0.477099 0.221943 0.216975
O O13 0.500000 0.292764 0.000000
O O14 0.038548 0.778476 0.578619
O O15 0.015863 0.927471 0.688387
#
# Coordination Sequence:
#
# PCOD9213763 Si02
#       7
#     8   8   8   8   8   4   8
#     4  11  21  35  57  85 108 145 187 224 279 335
#     4   9  22  35  52  82 111 142 183 223 270 327
#     4  11  19  33  55  83 111 146 175 222 288 324
#     4  11  21  34  54  84 117 141 181 226 280 340
#     4  11  20  34  57  79 111 148 180 229 276 326
#     4  10  22  39  52  81 114 145 191 224 269 326
#     4  11  20  35  56  83 112 139 185 226 276 342
#
# _framework density 25.778036
#
# number of rings (size 3 to 8) (size 9 to 14) (size 15 to 20)
#    0.462    0.923    6.154    1.385    0.000    3.077 
#    0.000    0.000    0.000    0.000    0.000    0.000 
#    0.000    7.385    0.000    0.000    0.000    0.000 
#
# Total GULP energy -144888.242965 kJ/mol
# GULP energy per Si atom -5572.624729 kJ/mol
# Density = 2.571936 g / cm^3
# Si number density = 25.778036 Si / 1000 Ang^3
#
#
#
# Elastic Constant Matrix: (Units=GPa)
#
#
# Indices 1 2 3 4 5 6 
#
# 1 46.6677 27.4256 0.9467 0.0000 5.8764 0.0000
# 2 27.4256 145.6242 23.0178 0.0000 6.9331 0.0000
# 3 0.9467 23.0178 118.6560 0.0000 -2.7536 0.0000
# 4 0.0000 0.0000 0.0000 36.5276 0.0000 13.4622
# 5 5.8764 6.9331 -2.7536 0.0000 15.4417 0.0000
# 6 0.0000 0.0000 0.0000 13.4622 0.0000 38.1426
#
#
#
# Elastic Compliance Matrix: (Units=1/GPa)
#
#
# Indices 1 2 3 4 5 6 
#
# 1 0.024952 -0.004423 0.000487 0.000000 -0.007423 0.000000
# 2 -0.004423 0.008055 -0.001579 0.000000 -0.002215 0.000000
# 3 0.000487 -0.001579 0.008779 0.000000 0.002089 0.000000
# 4 0.000000 0.000000 0.000000 0.031470 0.000000 -0.011107
# 5 -0.007423 -0.002215 0.002089 0.000000 0.068952 0.000000
# 6 0.000000 0.000000 0.000000 -0.011107 0.000000 0.030138
#
#
# Mechanical properties :
#
#
# Convention : Reuss Voigt Hill
#
# Bulk Modulus (GPa) = 32.51400 45.96977 39.24189
# Shear Modulus (GPa) = 25.82290 35.32623 30.57456
#
# Velocity S-wave (km/s) = 3.16846 3.70591 3.44767
# Velocity P-wave (km/s) = 5.10157 6.01526 5.57715
#
# Compressibility (1/GPa) = 0.03075598
#
# Stress axis : x y z
#
# Youngs Moduli (GPa) = 40.07673 124.14763 113.91386
#
# Poissons Ratio (x) = 0.54908 -0.05543
# Poissons Ratio (y) = 0.17725 0.17983
# Poissons Ratio (z) = -0.01950 0.19599
#
# Static dielectric constant tensor:
#      x y z
#    x 2.178740 0.000000 -0.108840 
#    y 0.000000 2.053150 0.000000 
#    z -0.108840 0.000000 2.042590 
# 
# From -- ./inp_files/328289.got.cif
#   From: 2010.05.17/outbox.cif.g08.bks.cpg/sg12_165_cif.got.tgz:328289.got - 2010.06.03 13:09:07.
