data_PCOD9213840
_publ_section_title
;
Structure prediction by ZEFSAII (Michael W. Deem and Ramdas Pophale) SiO2 
 PCOD9213840
Probable space group: C 2/M
;
_chemical_formula_sum "Si O2"
_cell_formula_units_Z 56
_cell_length_a 15.800468
_cell_length_b 14.133038
_cell_length_c 15.913700
_cell_angle_alpha 90.000000
_cell_angle_beta 59.338568
_cell_angle_gamma 90.000000
_cell_volume 3056.848624
_symmetry_space_group_name_H-M "C 2/M"
_symmetry_group_IT_number 12
_symmetry_cell_setting 'monoclinic'
loop_
_space_group_symop_operation_xyz
x,y,z
-x,y,-z
-x,-y,-z
x,-y,z
1/2+x,1/2+y,z
1/2-x,1/2+y,-z
1/2-x,1/2-y,-z
1/2+x,1/2-y,z
loop_
_atom_site_type_symbol
_atom_site_label
_atom_site_fract_x
_atom_site_fract_y
_atom_site_fract_z
Si Si1 0.133234 0.886478 0.606152
Si Si2 0.402500 0.792130 0.882865
Si Si3 0.753189 0.885634 0.620568
Si Si4 0.221543 0.706786 0.881197
Si Si5 0.058023 0.892562 0.381942
Si Si6 0.841205 0.500000 0.116402
Si Si7 0.122583 0.236337 0.763371
Si Si8 0.037549 0.500000 0.119316
O O1 0.207942 0.861987 0.492751
O O2 0.158321 0.846546 0.684033
O O3 0.023536 0.848685 0.637548
O O4 0.127568 0.000000 0.609008
O O5 0.326997 0.747221 0.854656
O O6 0.505710 0.737973 0.834117
O O7 0.429584 0.902573 0.853679
O O8 0.348152 0.786437 0.001004
O O9 0.838225 0.850613 0.642538
O O10 0.656259 0.830816 0.696046
O O11 0.747074 0.000000 0.629132
O O12 0.220661 0.596204 0.854899
O O13 0.172730 0.761930 0.828753
O O14 0.000000 0.899913 0.500000
O O15 0.077373 0.000000 0.342815
O O16 0.922921 0.500000 0.148987
O O17 0.904077 0.500000 0.998807
#
# Coordination Sequence:
#
# PCOD9213840 Si02
#       8
#     8   8   8   8   8   4   8   4
#     4   9  19  37  53  75 116 155 184 230 295 347
#     4  10  22  39  58  85 119 151 186 240 301 345
#     4   9  19  33  55  84 112 140 183 244 295 341
#     4  10  22  39  58  85 119 150 188 243 296 345
#     4   7  12  28  52  73  98 134 172 221 283 330
#     4   9  16  34  62  83 107 146 192 239 292 331
#     4  12  22  32  59  86 110 149 199 239 283 355
#     4   9  16  34  62  81 109 152 184 235 294 345
#
# _framework density 18.319521000000002
#
# number of rings (size 3 to 8) (size 9 to 14) (size 15 to 20)
#    0.000    2.571    1.429    2.571    4.000    0.000 
#    2.571    0.000    0.000    0.857    0.000    2.000 
#    0.000    0.000    0.000    0.000    0.000    0.000 
#
# Total GULP energy -156060.559417 kJ/mol
# GULP energy per Si atom -5573.591408 kJ/mol
# Density = 1.827782 g / cm^3
# Si number density = 18.319521 Si / 1000 Ang^3
#
#
#
# Elastic Constant Matrix: (Units=GPa)
#
#
# Indices 1 2 3 4 5 6 
#
# 1 130.0506 45.6162 53.7226 0.0000 8.1916 0.0000
# 2 45.6162 52.9271 22.2875 0.0000 6.9122 0.0000
# 3 53.7226 22.2875 80.4836 0.0000 0.7218 0.0000
# 4 0.0000 0.0000 0.0000 25.5807 0.0000 2.5507
# 5 8.1916 6.9122 0.7218 0.0000 31.7665 0.0000
# 6 0.0000 0.0000 0.0000 2.5507 0.0000 27.0681
#
#
#
# Elastic Compliance Matrix: (Units=1/GPa)
#
#
# Indices 1 2 3 4 5 6 
#
# 1 0.013582 -0.008721 -0.006638 0.000000 -0.001454 0.000000
# 2 -0.008721 0.027657 -0.001804 0.000000 -0.003728 0.000000
# 3 -0.006638 -0.001804 0.017340 0.000000 0.001710 0.000000
# 4 0.000000 0.000000 0.000000 0.039463 0.000000 -0.003719
# 5 -0.001454 -0.003728 0.001710 0.000000 0.032627 0.000000
# 6 0.000000 0.000000 0.000000 -0.003719 0.000000 0.037294
#
#
# Mechanical properties :
#
#
# Convention : Reuss Voigt Hill
#
# Bulk Modulus (GPa) = 41.23222 56.30156 48.76689
# Shear Modulus (GPa) = 23.76745 26.33874 25.05309
#
# Velocity S-wave (km/s) = 3.60583 3.79587 3.70207
# Velocity P-wave (km/s) = 6.31602 7.07187 6.70460
#
# Compressibility (1/GPa) = 0.02425288
#
# Stress axis : x y z
#
# Youngs Moduli (GPa) = 73.62838 36.15779 57.67043
#
# Poissons Ratio (x) = 0.31532 0.38281
# Poissons Ratio (y) = 0.64208 0.10405
# Poissons Ratio (z) = 0.48873 0.06524
#
# Static dielectric constant tensor:
#      x y z
#    x 1.649220 0.000000 -0.015750 
#    y 0.000000 1.641330 0.000000 
#    z -0.015750 0.000000 1.656100 
# 
# From -- ./inp_files/224697.got.cif
#   From: 2010.05.17/outbox.cif.g08.bks.cpg/sg12_113_cif.got.tgz:224697.got - 2010.06.03 13:09:07.
