data_PCOD9213584
_publ_section_title
;
Structure prediction by ZEFSAII (Michael W. Deem and Ramdas Pophale) SiO2 
 PCOD9213584
Probable space group: C 2/M
;
_chemical_formula_sum "Si O2"
_cell_formula_units_Z 64
_cell_length_a 20.368659
_cell_length_b 7.698518
_cell_length_c 22.990293
_cell_angle_alpha 90.000000
_cell_angle_beta 52.752411
_cell_angle_gamma 90.000000
_cell_volume 2869.737214
_symmetry_space_group_name_H-M "C 2/M"
_symmetry_group_IT_number 12
_symmetry_cell_setting 'monoclinic'
loop_
_space_group_symop_operation_xyz
x,y,z
-x,y,-z
-x,-y,-z
x,-y,z
1/2+x,1/2+y,z
1/2-x,1/2+y,-z
1/2-x,1/2-y,-z
1/2+x,1/2-y,z
loop_
_atom_site_type_symbol
_atom_site_label
_atom_site_fract_x
_atom_site_fract_y
_atom_site_fract_z
Si Si1 0.468831 0.295649 0.391578
Si Si2 0.701893 0.803031 0.467497
Si Si3 0.583295 0.799217 0.982719
Si Si4 0.545376 0.789749 0.736358
Si Si5 0.282739 0.197743 0.309142
Si Si6 0.733206 0.712809 0.123773
Si Si7 0.652699 0.713099 0.287178
Si Si8 0.893604 0.796245 0.899653
O O1 0.466084 0.500000 0.406256
O O2 0.394625 0.211773 0.466889
O O3 0.453871 0.271381 0.330651
O O4 0.561145 0.228445 0.353253
O O5 0.750000 0.750000 0.500000
O O6 0.732505 0.694597 0.396386
O O7 0.723980 0.000000 0.441737
O O8 0.673176 0.724593 0.918746
O O9 0.585397 0.000000 0.961515
O O10 0.500000 0.721073 0.000000
O O11 0.582089 0.793533 0.053326
O O12 0.628088 0.725973 0.724341
O O13 0.466136 0.725976 0.813736
O O14 0.545737 0.000000 0.735134
O O15 0.223323 0.277043 0.292751
O O16 0.298772 0.000000 0.280874
O O17 0.734606 0.500000 0.121009
O O18 0.677547 0.762696 0.208600
O O19 0.688698 0.770897 0.088430
O O20 0.650553 0.500000 0.290058
O O21 0.883307 0.000000 0.918060
#
# Coordination Sequence:
#
# PCOD9213584 Si02
#       8
#     8   8   8   8   8   8   8   8
#     4  11  21  38  64  89 118 154 200 247 296 355
#     4  12  24  39  60  86 121 159 200 248 299 356
#     4  10  22  38  61  90 120 153 195 245 296 351
#     4  11  22  36  60  91 120 152 201 251 295 348
#     4  10  22  39  62  89 118 155 199 247 300 356
#     4   9  18  36  61  87 115 153 197 240 289 349
#     4   9  19  37  62  89 118 155 197 242 295 360
#     4  11  22  38  61  85 119 159 199 242 292 353
#
# _framework density 22.301694999999999
#
# number of rings (size 3 to 8) (size 9 to 14) (size 15 to 20)
#    0.000    1.625    2.500    2.625    1.750    1.250 
#    0.000    4.375    0.000    0.000    0.000    0.000 
#    0.000    0.000    0.000    0.000    0.000    0.000 
#
# Total GULP energy -178867.158474 kJ/mol
# GULP energy per Si atom -5589.598702 kJ/mol
# Density = 2.225094 g / cm^3
# Si number density = 22.301695 Si / 1000 Ang^3
#
#
#
# Elastic Constant Matrix: (Units=GPa)
#
#
# Indices 1 2 3 4 5 6 
#
# 1 155.5322 -5.4846 19.3108 0.0000 -22.8441 -0.0002
# 2 -5.4846 55.3231 -14.3929 -0.0004 -5.2240 -0.0003
# 3 19.3108 -14.3929 64.3410 -0.0002 -20.9100 -0.0004
# 4 0.0000 -0.0004 -0.0002 17.0960 0.0002 4.5136
# 5 -22.8441 -5.2240 -20.9100 0.0002 40.8087 -0.0001
# 6 -0.0002 -0.0003 -0.0004 4.5136 -0.0001 9.1686
#
#
#
# Elastic Compliance Matrix: (Units=1/GPa)
#
#
# Indices 1 2 3 4 5 6 
#
# 1 0.007095 0.000863 -0.000732 0.000000 0.003708 0.000000
# 2 0.000863 0.020422 0.006378 0.000000 0.006365 0.000001
# 3 -0.000732 0.006378 0.020781 0.000000 0.011055 0.000001
# 4 0.000000 0.000000 0.000000 0.067232 -0.000001 -0.033098
# 5 0.003708 0.006365 0.011055 -0.000001 0.033059 0.000001
# 6 0.000000 0.000001 0.000001 -0.033098 0.000001 0.125362
#
#
# Mechanical properties :
#
#
# Convention : Reuss Voigt Hill
#
# Bulk Modulus (GPa) = 16.30870 30.45143 23.38007
# Shear Modulus (GPa) = 17.77014 31.79885 24.78450
#
# Velocity S-wave (km/s) = 2.82584 3.78014 3.33728
# Velocity P-wave (km/s) = 4.23979 5.72159 5.03549
#
# Compressibility (1/GPa) = 0.06131695
#
# Stress axis : x y z
#
# Youngs Moduli (GPa) = 140.93732 48.96793 48.12046
#
# Poissons Ratio (x) = -0.04227 0.03520
# Poissons Ratio (y) = -0.12166 -0.30690
# Poissons Ratio (z) = 0.10310 -0.31231
#
# Static dielectric constant tensor:
#      x y z
#    x 1.606870 0.000080 -0.790330 
#    y 0.000080 1.747730 0.000270 
#    z -0.790330 0.000270 -0.876310 
# 
# From -- ./inp_files/345995.got.cif
#   From: 2010.05.17/outbox.cif.g08.bks.cpg/sg12_173_cif.got.tgz:345995.got - 2010.06.03 13:09:07.
