data_PCOD9213405
_publ_section_title
;
Structure prediction by ZEFSAII (Michael W. Deem and Ramdas Pophale) SiO2 
 PCOD9213405
Probable space group: C 2/M
;
_chemical_formula_sum "Si O2"
_cell_formula_units_Z 64
_cell_length_a 23.250728
_cell_length_b 22.669595
_cell_length_c 11.677259
_cell_angle_alpha 90.000000
_cell_angle_beta 33.213673
_cell_angle_gamma 90.000000
_cell_volume 3371.427601
_symmetry_space_group_name_H-M "C 2/M"
_symmetry_group_IT_number 12
_symmetry_cell_setting 'monoclinic'
loop_
_space_group_symop_operation_xyz
x,y,z
-x,y,-z
-x,-y,-z
x,-y,z
1/2+x,1/2+y,z
1/2-x,1/2+y,-z
1/2-x,1/2-y,-z
1/2+x,1/2-y,z
loop_
_atom_site_type_symbol
_atom_site_label
_atom_site_fract_x
_atom_site_fract_y
_atom_site_fract_z
Si Si1 0.115880 0.734540 0.308416
Si Si2 0.389715 0.565983 0.620135
Si Si3 0.380667 0.816890 0.240740
Si Si4 0.344724 0.429904 0.070033
Si Si5 0.776910 0.567765 0.503042
Si Si6 0.173099 0.773977 0.469925
Si Si7 0.424127 0.398134 0.306509
Si Si8 0.197639 0.152936 0.075627
O O1 0.153496 0.754345 0.372225
O O2 0.115879 0.793647 0.230421
O O3 0.000000 0.709656 0.500000
O O4 0.195319 0.687125 0.125174
O O5 0.500000 0.578011 0.500000
O O6 0.356307 0.500000 0.706037
O O7 0.411196 0.571089 0.451007
O O8 0.307585 0.613653 0.801750
O O9 0.353468 0.884264 0.319848
O O10 0.293618 0.793872 0.294027
O O11 0.356647 0.778467 0.394044
O O12 0.500000 0.810000 0.000000
O O13 0.349246 0.500000 0.037656
O O14 0.252506 0.419704 0.315586
O O15 0.457857 0.410040 0.930444
O O16 0.327636 0.390562 0.986279
O O17 0.811764 0.500000 0.433757
O O18 0.665106 0.575976 0.626079
O O19 0.101835 0.829691 0.626077
#
# Coordination Sequence:
#
# PCOD9213405 Si02
#       8
#     8   8   8   8   8   8   8   8
#     4  11  23  40  58  86 121 160 202 248 299 360
#     4  11  20  34  56  86 121 154 194 243 301 363
#     4  10  23  41  63  88 117 162 201 250 306 355
#     4  11  21  36  59  87 120 157 197 244 304 362
#     4  10  22  38  57  86 120 155 203 251 294 355
#     4  10  22  40  60  88 125 152 202 249 301 367
#     4  11  20  34  58  88 120 154 193 244 311 360
#     4  11  22  35  58  85 113 155 199 241 296 353
#
# _framework density 18.983056000000001
#
# number of rings (size 3 to 8) (size 9 to 14) (size 15 to 20)
#    0.000    1.375    2.500    3.750    0.000    7.250 
#    0.000    0.000    0.000    1.500    0.000    0.000 
#    0.000    0.000    0.000    0.000    0.000    0.000 
#
# Total GULP energy -178756.828668 kJ/mol
# GULP energy per Si atom -5586.150896 kJ/mol
# Density = 1.893985 g / cm^3
# Si number density = 18.983056 Si / 1000 Ang^3
#
#
#
# Elastic Constant Matrix: (Units=GPa)
#
#
# Indices 1 2 3 4 5 6 
#
# 1 55.9924 12.8916 19.9737 0.0000 10.2714 0.0000
# 2 12.8916 100.3960 44.6463 0.0000 -5.9135 0.0000
# 3 19.9737 44.6463 94.4519 0.0000 -7.5751 0.0000
# 4 0.0000 0.0000 0.0000 23.2393 0.0000 5.4307
# 5 10.2714 -5.9135 -7.5751 0.0000 22.4229 0.0000
# 6 0.0000 0.0000 0.0000 5.4307 0.0000 19.5628
#
#
#
# Elastic Compliance Matrix: (Units=1/GPa)
#
#
# Indices 1 2 3 4 5 6 
#
# 1 0.022210 -0.001326 -0.005051 0.000000 -0.012230 0.000000
# 2 -0.001326 0.012731 -0.005570 0.000000 0.002083 0.000000
# 3 -0.005051 -0.005570 0.014756 0.000000 0.005830 0.000000
# 4 0.000000 0.000000 0.000000 0.046016 0.000000 -0.012774
# 5 -0.012230 0.002083 0.005830 0.000000 0.052718 0.000000
# 6 0.000000 0.000000 0.000000 -0.012774 0.000000 0.054664
#
#
# Mechanical properties :
#
#
# Convention : Reuss Voigt Hill
#
# Bulk Modulus (GPa) = 38.75582 45.09594 41.92588
# Shear Modulus (GPa) = 21.22339 24.60024 22.91182
#
# Velocity S-wave (km/s) = 3.34730 3.60377 3.47790
# Velocity P-wave (km/s) = 5.94976 6.41278 6.18560
#
# Compressibility (1/GPa) = 0.02580257
#
# Stress axis : x y z
#
# Youngs Moduli (GPa) = 45.02455 78.55106 67.76943
#
# Poissons Ratio (x) = 0.10418 0.34228
# Poissons Ratio (y) = 0.05971 0.37748
# Poissons Ratio (z) = 0.22741 0.43753
#
# Static dielectric constant tensor:
#      x y z
#    x 1.665910 0.000000 0.005590 
#    y 0.000000 1.671200 0.000000 
#    z 0.005590 0.000000 1.648260 
# 
# From -- ./inp_files/178411.got.cif
#   From: 2010.05.17/outbox.cif.g08.bks.cpg/sg12_90_cif.got.tgz:178411.got - 2010.06.03 13:09:07.
