data_PCOD9213311
_publ_section_title
;
Structure prediction by ZEFSAII (Michael W. Deem and Ramdas Pophale) SiO2 
 PCOD9213311
Probable space group: C 2/M
;
_chemical_formula_sum "Si O2"
_cell_formula_units_Z 32
_cell_length_a 19.797694
_cell_length_b 14.361053
_cell_length_c 5.672265
_cell_angle_alpha 90.000000
_cell_angle_beta 67.381132
_cell_angle_gamma 90.000000
_cell_volume 1488.670036
_symmetry_space_group_name_H-M "C 2/M"
_symmetry_group_IT_number 12
_symmetry_cell_setting 'monoclinic'
loop_
_space_group_symop_operation_xyz
x,y,z
-x,y,-z
-x,-y,-z
x,-y,z
1/2+x,1/2+y,z
1/2-x,1/2+y,-z
1/2-x,1/2-y,-z
1/2+x,1/2-y,z
loop_
_atom_site_type_symbol
_atom_site_label
_atom_site_fract_x
_atom_site_fract_y
_atom_site_fract_z
Si Si1 0.044684 0.102086 0.192544
Si Si2 0.312516 0.733474 0.610300
Si Si3 0.706438 0.892488 0.982282
Si Si4 0.083946 0.280849 0.910464
O O1 0.000000 0.106318 0.500000
O O2 0.082172 0.000000 0.144551
O O3 0.088940 0.198235 0.098907
O O4 0.000000 0.102030 0.000000
O O5 0.250000 0.750000 0.500000
O O6 0.305719 0.822597 0.785869
O O7 0.388154 0.735092 0.369830
O O8 0.284122 0.639000 0.768269
O O9 0.704642 0.000000 0.044084
O O10 0.639239 0.863610 0.900510
O O11 0.000000 0.310795 0.000000
#
# Coordination Sequence:
#
# PCOD9213311 Si02
#       4
#     8   8   8   8
#     4   9  19  35  57  87 127 172 211 255 319 389
#     4   9  21  42  62  88 122 171 217 266 324 380
#     4  10  22  41  66  93 125 170 222 268 323 395
#     4  10  22  37  65  96 136 169 207 267 335 397
#
# _framework density 21.495697
#
# number of rings (size 3 to 8) (size 9 to 14) (size 15 to 20)
#    0.000    2.500    0.000    0.000    7.000    5.500 
#    0.000   11.250    0.000    0.000    0.000    0.000 
#    0.000    0.000    0.000    0.000    0.000    0.000 
#
# Total GULP energy -89189.918226 kJ/mol
# GULP energy per Si atom -5574.369889 kJ/mol
# Density = 2.144677 g / cm^3
# Si number density = 21.495697 Si / 1000 Ang^3
#
#
#
# Elastic Constant Matrix: (Units=GPa)
#
#
# Indices 1 2 3 4 5 6 
#
# 1 96.3289 16.9120 21.2961 0.0000 -5.7619 0.0000
# 2 16.9120 140.7837 19.8728 0.0000 1.9269 0.0000
# 3 21.2961 19.8728 126.6659 0.0000 -12.7847 0.0000
# 4 0.0000 0.0000 0.0000 7.2597 0.0000 -2.8166
# 5 -5.7619 1.9269 -12.7847 0.0000 33.1008 0.0000
# 6 0.0000 0.0000 0.0000 -2.8166 0.0000 28.9225
#
#
#
# Elastic Compliance Matrix: (Units=1/GPa)
#
#
# Indices 1 2 3 4 5 6 
#
# 1 0.011000 -0.001124 -0.001533 0.000000 0.001388 0.000000
# 2 -0.001124 0.007405 -0.001078 0.000000 -0.001043 0.000000
# 3 -0.001533 -0.001078 0.008638 0.000000 0.003132 0.000000
# 4 0.000000 0.000000 0.000000 0.143155 0.000000 0.013941
# 5 0.001388 -0.001043 0.003132 0.000000 0.031723 0.000000
# 6 0.000000 0.000000 0.000000 0.013941 0.000000 0.035933
#
#
# Mechanical properties :
#
#
# Convention : Reuss Voigt Hill
#
# Bulk Modulus (GPa) = 51.09180 53.32670 52.20925
# Shear Modulus (GPa) = 19.85325 34.23643 27.04484
#
# Velocity S-wave (km/s) = 3.04236 3.99521 3.55089
# Velocity P-wave (km/s) = 6.01342 6.79295 6.41504
#
# Compressibility (1/GPa) = 0.01957261
#
# Stress axis : x y z
#
# Youngs Moduli (GPa) = 90.90587 135.05172 115.77031
#
# Poissons Ratio (x) = 0.15181 0.17748
# Poissons Ratio (y) = 0.10218 0.12480
# Poissons Ratio (z) = 0.13936 0.14559
#
# Static dielectric constant tensor:
#      x y z
#    x 1.870050 0.000000 0.053830 
#    y 0.000000 1.753380 0.000000 
#    z 0.053830 0.000000 1.869860 
# 
# From -- ./inp_files/14337.got.cif
#   From: 2010.05.17/outbox.cif.g08.bks.cpg/sg12_8_cif.got.tgz:14337.got - 2010.06.03 13:09:07.
