data_PCOD9213101
_publ_section_title
;
Structure prediction by ZEFSAII (Michael W. Deem and Ramdas Pophale) SiO2 
 PCOD9213101
Probable space group: C 2/M
;
_chemical_formula_sum "Si O2"
_cell_formula_units_Z 44
_cell_length_a 8.825164
_cell_length_b 17.718321
_cell_length_c 14.281837
_cell_angle_alpha 90.000000
_cell_angle_beta 79.963865
_cell_angle_gamma 90.000000
_cell_volume 2199.036797
_symmetry_space_group_name_H-M "C 2/M"
_symmetry_group_IT_number 12
_symmetry_cell_setting 'monoclinic'
loop_
_space_group_symop_operation_xyz
x,y,z
-x,y,-z
-x,-y,-z
x,-y,z
1/2+x,1/2+y,z
1/2-x,1/2+y,-z
1/2-x,1/2-y,-z
1/2+x,1/2-y,z
loop_
_atom_site_type_symbol
_atom_site_label
_atom_site_fract_x
_atom_site_fract_y
_atom_site_fract_z
Si Si1 0.000000 0.283891 0.500000
Si Si2 0.827466 0.585416 0.089255
Si Si3 0.070785 0.083486 0.274645
Si Si4 0.612228 0.828772 0.101384
Si Si5 0.384558 0.712632 0.206465
Si Si6 0.741069 0.178149 0.621869
O O1 0.872848 0.230965 0.562818
O O2 0.902006 0.329269 0.433237
O O3 0.835073 0.500000 0.050004
O O4 0.682832 0.587318 0.172544
O O5 0.983259 0.606002 0.128812
O O6 0.824325 0.648735 0.008169
O O7 0.175561 0.102823 0.352619
O O8 0.951199 0.150040 0.269278
O O9 0.003366 0.000000 0.287901
O O10 0.515972 0.751638 0.128138
O O11 0.752569 0.823768 0.157346
O O12 0.316209 0.778377 0.279049
#
# Coordination Sequence:
#
# PCOD9213101 Si02
#       6
#     4   8   8   8   8   8
#     4  10  22  36  76  88 120 146 210 254 308 370
#     4  10  23  40  57  86 130 173 208 256 308 348
#     4  11  24  42  61  91 134 166 197 258 315 358
#     4  11  21  36  59  88 120 166 217 256 286 353
#     4  12  22  38  64  92 123 161 217 253 300 366
#     4  11  20  42  62  99 115 159 198 257 307 377
#
# _framework density 20.008759000000001
#
# number of rings (size 3 to 8) (size 9 to 14) (size 15 to 20)
#    0.000    1.091    5.455    1.091    0.000    8.727 
#    0.000    2.727    0.000    0.000    0.000    0.000 
#    0.000    0.000    0.000    0.000    0.000    0.000 
#
# Total GULP energy -122764.020930 kJ/mol
# GULP energy per Si atom -5580.182770 kJ/mol
# Density = 1.996322 g / cm^3
# Si number density = 20.008759 Si / 1000 Ang^3
#
#
#
# Elastic Constant Matrix: (Units=GPa)
#
#
# Indices 1 2 3 4 5 6 
#
# 1 76.4070 9.7177 20.6732 0.0000 29.6561 0.0000
# 2 9.7177 88.0579 16.4546 0.0000 17.2743 0.0000
# 3 20.6732 16.4546 65.9430 0.0000 20.8470 0.0000
# 4 0.0000 0.0000 0.0000 14.5618 0.0000 -0.4027
# 5 29.6561 17.2743 20.8470 0.0000 42.4228 0.0000
# 6 0.0000 0.0000 0.0000 -0.4027 0.0000 12.5442
#
#
#
# Elastic Compliance Matrix: (Units=1/GPa)
#
#
# Indices 1 2 3 4 5 6 
#
# 1 0.018223 0.000737 -0.002101 0.000000 -0.012006 0.000000
# 2 0.000737 0.012548 -0.001875 0.000000 -0.004703 0.000000
# 3 -0.002101 -0.001875 0.018452 0.000000 -0.006835 0.000000
# 4 0.000000 0.000000 0.000000 0.068734 0.000000 0.002206
# 5 -0.012006 -0.004703 -0.006835 0.000000 0.037239 0.000000
# 6 0.000000 0.000000 0.000000 0.002206 0.000000 0.079789
#
#
# Mechanical properties :
#
#
# Convention : Reuss Voigt Hill
#
# Bulk Modulus (GPa) = 23.39528 36.01100 29.70314
# Shear Modulus (GPa) = 19.55331 26.14326 22.84828
#
# Velocity S-wave (km/s) = 3.12947 3.61860 3.38289
# Velocity P-wave (km/s) = 4.97755 5.95783 5.48961
#
# Compressibility (1/GPa) = 0.04274367
#
# Stress axis : x y z
#
# Youngs Moduli (GPa) = 54.87693 79.69496 54.19446
#
# Poissons Ratio (x) = -0.05873 0.11387
# Poissons Ratio (y) = -0.04044 0.10163
# Poissons Ratio (z) = 0.11530 0.14945
#
# Static dielectric constant tensor:
#      x y z
#    x 1.721900 0.000000 -0.012990 
#    y 0.000000 1.702610 0.000000 
#    z -0.012990 0.000000 1.742840 
# 
# From -- ./inp_files/195516.got.cif
#   From: 2010.05.17/outbox.cif.g08.bks.cpg/sg12_98_cif.got.tgz:195516.got - 2010.06.03 13:09:07.
