data_PCOD9213392
_publ_section_title
;
Structure prediction by ZEFSAII (Michael W. Deem and Ramdas Pophale) SiO2 
 PCOD9213392
Probable space group: C 2/M
;
_chemical_formula_sum "Si O2"
_cell_formula_units_Z 64
_cell_length_a 24.812558
_cell_length_b 22.533045
_cell_length_c 11.598228
_cell_angle_alpha 90.000000
_cell_angle_beta 32.747510
_cell_angle_gamma 90.000000
_cell_volume 3507.765015
_symmetry_space_group_name_H-M "C 2/M"
_symmetry_group_IT_number 12
_symmetry_cell_setting 'monoclinic'
loop_
_space_group_symop_operation_xyz
x,y,z
-x,y,-z
-x,-y,-z
x,-y,z
1/2+x,1/2+y,z
1/2-x,1/2+y,-z
1/2-x,1/2-y,-z
1/2+x,1/2-y,z
loop_
_atom_site_type_symbol
_atom_site_label
_atom_site_fract_x
_atom_site_fract_y
_atom_site_fract_z
Si Si1 0.631656 0.244223 0.206074
Si Si2 0.126201 0.845419 0.516829
Si Si3 0.287548 0.235751 0.304222
Si Si4 0.107919 0.122498 0.291863
Si Si5 0.715620 0.570034 0.884387
Si Si6 0.851148 0.322765 0.587897
Si Si7 0.478881 0.768659 0.823994
Si Si8 0.982721 0.929020 0.901052
O O1 0.591979 0.311607 0.269216
O O2 0.608301 0.208794 0.366686
O O3 0.593435 0.218093 0.155112
O O4 0.750000 0.250000 0.000000
O O5 0.231188 0.825670 0.379274
O O6 0.146245 0.861017 0.348499
O O7 0.047300 0.790764 0.681407
O O8 0.071407 0.901312 0.668770
O O9 0.250000 0.250000 0.500000
O O10 0.238597 0.282771 0.302250
O O11 0.405167 0.235422 0.065432
O O12 0.000000 0.092842 0.500000
O O13 0.176938 0.086127 0.082173
O O14 0.735265 0.500000 0.838145
O O15 0.807724 0.612928 0.692337
O O16 0.623504 0.586677 0.964876
O O17 0.937427 0.319387 0.336853
O O18 0.987737 0.000000 0.891030
O O19 0.000000 0.907399 0.000000
#
# Coordination Sequence:
#
# PCOD9213392 Si02
#       8
#     8   8   8   8   8   8   8   8
#     4  12  17  32  58  86 114 145 185 226 288 354
#     4  11  22  34  58  83 117 154 187 236 294 349
#     4  11  24  36  55  88 121 154 188 235 300 350
#     4  12  18  33  54  84 115 143 185 233 292 353
#     4  11  24  39  58  85 118 155 199 244 288 346
#     4  11  22  35  60  84 115 156 192 237 288 358
#     4  11  21  36  55  87 118 152 188 233 293 353
#     4  10  22  38  57  80 110 153 197 238 288 344
#
# _framework density 18.245236999999999
#
# number of rings (size 3 to 8) (size 9 to 14) (size 15 to 20)
#    0.000    0.875    7.500    1.125    3.500    2.250 
#    0.000    0.000    0.000    2.250    0.000    0.875 
#    0.000    0.000    0.000    0.000    0.000    0.000 
#
# Total GULP energy -178439.760483 kJ/mol
# GULP energy per Si atom -5576.242515 kJ/mol
# Density = 1.820371 g / cm^3
# Si number density = 18.245237 Si / 1000 Ang^3
#
#
#
# Elastic Constant Matrix: (Units=GPa)
#
#
# Indices 1 2 3 4 5 6 
#
# 1 47.5139 6.5890 20.3164 0.0000 13.5399 0.0000
# 2 6.5890 40.3051 23.2908 0.0000 1.6567 0.0000
# 3 20.3164 23.2908 132.1699 0.0000 -0.1360 0.0000
# 4 0.0000 0.0000 0.0000 13.0538 0.0000 -2.2462
# 5 13.5399 1.6567 -0.1360 0.0000 29.5663 0.0000
# 6 0.0000 0.0000 0.0000 -2.2462 0.0000 6.3043
#
#
#
# Elastic Compliance Matrix: (Units=1/GPa)
#
#
# Indices 1 2 3 4 5 6 
#
# 1 0.026293 -0.001630 -0.003767 0.000000 -0.011967 0.000000
# 2 -0.001630 0.027798 -0.004649 0.000000 -0.000833 0.000000
# 3 -0.003767 -0.004649 0.008966 0.000000 0.002027 0.000000
# 4 0.000000 0.000000 0.000000 0.081610 0.000000 0.029078
# 5 -0.011967 -0.000833 0.002027 0.000000 0.039359 0.000000
# 6 0.000000 0.000000 0.000000 0.029078 0.000000 0.168984
#
#
# Mechanical properties :
#
#
# Convention : Reuss Voigt Hill
#
# Bulk Modulus (GPa) = 23.27387 35.59792 29.43590
# Shear Modulus (GPa) = 12.90581 21.10438 17.00509
#
# Velocity S-wave (km/s) = 2.66249 3.40473 3.05623
# Velocity P-wave (km/s) = 4.71547 5.91687 5.35000
#
# Compressibility (1/GPa) = 0.04296664
#
# Stress axis : x y z
#
# Youngs Moduli (GPa) = 38.03245 35.97403 111.52849
#
# Poissons Ratio (x) = 0.05863 0.42010
# Poissons Ratio (y) = 0.06199 0.51848
# Poissons Ratio (z) = 0.14326 0.16724
#
# Static dielectric constant tensor:
#      x y z
#    x 1.706170 0.000000 0.014800 
#    y 0.000000 1.626140 0.000000 
#    z 0.014800 0.000000 1.601150 
# 
# From -- ./inp_files/184950.got.cif
#   From: 2010.05.17/outbox.cif.g08.bks.cpg/sg12_93_cif.got.tgz:184950.got - 2010.06.03 13:09:07.
