data_PCOD9213833
_publ_section_title
;
Structure prediction by ZEFSAII (Michael W. Deem and Ramdas Pophale) SiO2 
 PCOD9213833
Probable space group: C 2/M
;
_chemical_formula_sum "Si O2"
_cell_formula_units_Z 40
_cell_length_a 13.992486
_cell_length_b 22.363372
_cell_length_c 9.023954
_cell_angle_alpha 90.000000
_cell_angle_beta 41.609568
_cell_angle_gamma 90.000000
_cell_volume 1875.126319
_symmetry_space_group_name_H-M "C 2/M"
_symmetry_group_IT_number 12
_symmetry_cell_setting 'monoclinic'
loop_
_space_group_symop_operation_xyz
x,y,z
-x,y,-z
-x,-y,-z
x,-y,z
1/2+x,1/2+y,z
1/2-x,1/2+y,-z
1/2-x,1/2-y,-z
1/2+x,1/2-y,z
loop_
_atom_site_type_symbol
_atom_site_label
_atom_site_fract_x
_atom_site_fract_y
_atom_site_fract_z
Si Si1 0.776399 0.433045 0.535095
Si Si2 0.142547 0.245011 0.420863
Si Si3 0.022749 0.932291 0.299290
Si Si4 0.611248 0.173429 0.742284
Si Si5 0.647365 0.654093 0.922679
O O1 0.822467 0.500000 0.513527
O O2 0.630484 0.434586 0.607116
O O3 0.891677 0.393751 0.313390
O O4 0.733450 0.396025 0.729999
O O5 0.231694 0.188726 0.374846
O O6 0.096415 0.282560 0.619983
O O7 0.251923 0.287434 0.200370
O O8 0.000000 0.229654 0.500000
O O9 0.000000 0.924086 0.500000
O O10 0.086697 0.000000 0.202958
O O11 0.108189 0.877848 0.122350
O O12 0.500000 0.184543 0.000000
O O13 0.500000 0.666343 0.000000
#
# Coordination Sequence:
#
# PCOD9213833 Si02
#       5
#     8   8   8   8   8
#     4   9  18  33  54  80 111 149 187 224 276 336
#     4  10  22  39  59  83 111 147 190 235 286 339
#     4   9  17  29  50  83 116 145 184 230 273 325
#     4  10  22  39  58  83 113 145 188 238 283 335
#     4   9  17  33  58  82 112 149 186 226 275 335
#
# _framework density 21.331897000000001
#
# number of rings (size 3 to 8) (size 9 to 14) (size 15 to 20)
#    0.000    2.600    0.000    1.200    0.000    7.600 
#    0.000    0.000    0.000   15.000    0.000    0.000 
#    0.000    0.000    0.000    0.000    0.000    0.000 
#
# Total GULP energy -111772.058811 kJ/mol
# GULP energy per Si atom -5588.602941 kJ/mol
# Density = 2.128334 g / cm^3
# Si number density = 21.331897 Si / 1000 Ang^3
#
#
#
# Elastic Constant Matrix: (Units=GPa)
#
#
# Indices 1 2 3 4 5 6 
#
# 1 57.1122 -7.7308 0.0122 0.0000 4.8890 0.0000
# 2 -7.7308 95.5397 15.0139 0.0000 1.9325 0.0000
# 3 0.0122 15.0139 84.5912 0.0000 15.3529 0.0000
# 4 0.0000 0.0000 0.0000 -17.3139 0.0000 -3.7039
# 5 4.8890 1.9325 15.3529 0.0000 19.1867 0.0000
# 6 0.0000 0.0000 0.0000 -3.7039 0.0000 -2.6128
#
#
#
# Elastic Compliance Matrix: (Units=1/GPa)
#
#
# Indices 1 2 3 4 5 6 
#
# 1 0.018165 0.001467 0.000707 0.000000 -0.005342 0.000000
# 2 0.001467 0.010890 -0.001949 0.000000 0.000089 0.000000
# 3 0.000707 -0.001949 0.014231 0.000000 -0.011371 0.000000
# 4 0.000000 0.000000 0.000000 -0.082896 0.000000 0.117513
# 5 -0.005342 0.000089 -0.011371 0.000000 0.062571 0.000000
# 6 0.000000 0.000000 0.000000 0.117513 0.000000 -0.549313
#
#
# Mechanical properties :
#
#
# Convention : Reuss Voigt Hill
#
# Bulk Modulus (GPa) = 22.86509 27.98151 25.42330
# Shear Modulus (GPa) = -9.76138 15.18185 2.71024
#
# Velocity S-wave (km/s) = -2.14147 2.67066 1.12839
# Velocity P-wave (km/s) = 2.15116 4.75979 3.69345
#
# Compressibility (1/GPa) = 0.04373479
#
# Stress axis : x y z
#
# Youngs Moduli (GPa) = 55.05072 91.82677 70.26777
#
# Poissons Ratio (x) = -0.13470 -0.04965
# Poissons Ratio (y) = -0.08075 0.13697
# Poissons Ratio (z) = -0.03890 0.17899
#
# Static dielectric constant tensor:
#      x y z
#    x 1.750060 0.000000 0.014100 
#    y 0.000000 1.796030 0.000000 
#    z 0.014100 0.000000 1.774880 
# 
# From -- ./inp_files/65077.got.cif
#   From: 2010.05.17/outbox.cif.g08.bks.cpg/sg12_33_cif.got.tgz:65077.got - 2010.06.03 13:09:07.
