data_PCOD9213248
_publ_section_title
;
Structure prediction by ZEFSAII (Michael W. Deem and Ramdas Pophale) SiO2 
 PCOD9213248
Probable space group: C 2/M
;
_chemical_formula_sum "Si O2"
_cell_formula_units_Z 40
_cell_length_a 31.251726
_cell_length_b 15.020678
_cell_length_c 9.052813
_cell_angle_alpha 90.000000
_cell_angle_beta 27.578025
_cell_angle_gamma 90.000000
_cell_volume 1967.373937
_symmetry_space_group_name_H-M "C 2/M"
_symmetry_group_IT_number 12
_symmetry_cell_setting 'monoclinic'
loop_
_space_group_symop_operation_xyz
x,y,z
-x,y,-z
-x,-y,-z
x,-y,z
1/2+x,1/2+y,z
1/2-x,1/2+y,-z
1/2-x,1/2-y,-z
1/2+x,1/2-y,z
loop_
_atom_site_type_symbol
_atom_site_label
_atom_site_fract_x
_atom_site_fract_y
_atom_site_fract_z
Si Si1 0.488755 0.605670 0.860310
Si Si2 0.700354 0.662917 0.714626
Si Si3 0.081547 0.607510 0.533226
Si Si4 0.590741 0.731738 0.322135
Si Si5 0.886868 0.600283 0.232344
O O1 0.503668 0.500000 0.788081
O O2 0.559275 0.665490 0.549360
O O3 0.500000 0.623100 0.000000
O O4 0.385413 0.630499 0.120860
O O5 0.750000 0.750000 0.500000
O O6 0.788220 0.599688 0.459619
O O7 0.661887 0.684366 0.994959
O O8 0.092992 0.500000 0.471465
O O9 0.124556 0.673432 0.281568
O O10 0.117162 0.634703 0.587629
O O11 0.972310 0.636467 0.875442
O O12 0.500000 0.747569 0.500000
O O13 0.917974 0.500000 0.160093
#
# Coordination Sequence:
#
# PCOD9213248 Si02
#       5
#     8   8   8   8   8
#     4  10  23  43  65  89 121 163 206 254 306 361
#     4  11  23  38  59  90 121 157 203 250 304 356
#     4   9  19  36  59  87 119 157 197 239 299 362
#     4  10  22  37  61  88 116 161 200 247 302 359
#     4   9  18  34  58  84 114 154 194 242 297 354
#
# _framework density 20.331669999999999
#
# number of rings (size 3 to 8) (size 9 to 14) (size 15 to 20)
#    0.000    2.200    0.000    4.200    5.600    5.600 
#    0.000    2.000    0.000    0.000    0.000    0.000 
#    0.000    0.000    0.000    0.000    0.000    0.000 
#
# Total GULP energy -111475.864840 kJ/mol
# GULP energy per Si atom -5573.793242 kJ/mol
# Density = 2.028539 g / cm^3
# Si number density = 20.331670 Si / 1000 Ang^3
#
#
#
# Elastic Constant Matrix: (Units=GPa)
#
#
# Indices 1 2 3 4 5 6 
#
# 1 91.4707 50.3388 45.4053 0.0000 8.3910 0.0000
# 2 50.3388 102.7273 22.0590 0.0000 14.1339 0.0000
# 3 45.4053 22.0590 54.7028 0.0000 -7.7647 0.0000
# 4 0.0000 0.0000 0.0000 -8.9261 0.0000 2.4604
# 5 8.3910 14.1339 -7.7647 0.0000 32.1389 0.0000
# 6 0.0000 0.0000 0.0000 2.4604 0.0000 34.2412
#
#
#
# Elastic Compliance Matrix: (Units=1/GPa)
#
#
# Indices 1 2 3 4 5 6 
#
# 1 0.025013 -0.007061 -0.019054 0.000000 -0.008029 0.000000
# 2 -0.007061 0.013866 -0.000346 0.000000 -0.004338 0.000000
# 3 -0.019054 -0.000346 0.036205 0.000000 0.013874 0.000000
# 4 0.000000 0.000000 0.000000 -0.109855 0.000000 0.007894
# 5 -0.008029 -0.004338 0.013874 0.000000 0.038471 0.000000
# 6 0.000000 0.000000 0.000000 0.007894 0.000000 0.028637
#
#
# Mechanical properties :
#
#
# Convention : Reuss Voigt Hill
#
# Bulk Modulus (GPa) = 45.12348 53.83408 49.47878
# Shear Modulus (GPa) = 53.96870 20.23066 37.09968
#
# Velocity S-wave (km/s) = 5.15769 3.15783 4.27631
# Velocity P-wave (km/s) = 7.59677 6.31121 6.98363
#
# Compressibility (1/GPa) = 0.02216141
#
# Stress axis : x y z
#
# Youngs Moduli (GPa) = 39.97929 72.12047 27.62036
#
# Poissons Ratio (x) = 0.50922 0.52628
# Poissons Ratio (y) = 0.28228 0.00957
# Poissons Ratio (z) = 0.76177 0.02498
#
# Static dielectric constant tensor:
#      x y z
#    x 1.833920 0.000000 0.020690 
#    y 0.000000 0.885230 0.000000 
#    z 0.020690 0.000000 1.746370 
# 
# From -- ./inp_files/59236.got.cif
#   From: 2010.05.17/outbox.cif.g08.bks.cpg/sg12_30_cif.got.tgz:59236.got - 2010.06.03 13:09:07.
