data_PCOD9213470
_publ_section_title
;
Structure prediction by ZEFSAII (Michael W. Deem and Ramdas Pophale) SiO2 
 PCOD9213470
Probable space group: C 2/M
;
_chemical_formula_sum "Si O2"
_cell_formula_units_Z 56
_cell_length_a 21.757479
_cell_length_b 13.357836
_cell_length_c 9.716657
_cell_angle_alpha 90.000000
_cell_angle_beta 114.713997
_cell_angle_gamma 90.000000
_cell_volume 2565.320189
_symmetry_space_group_name_H-M "C 2/M"
_symmetry_group_IT_number 12
_symmetry_cell_setting 'monoclinic'
loop_
_space_group_symop_operation_xyz
x,y,z
-x,y,-z
-x,-y,-z
x,-y,z
1/2+x,1/2+y,z
1/2-x,1/2+y,-z
1/2-x,1/2-y,-z
1/2+x,1/2-y,z
loop_
_atom_site_type_symbol
_atom_site_label
_atom_site_fract_x
_atom_site_fract_y
_atom_site_fract_z
Si Si1 0.989747 0.383554 0.639955
Si Si2 0.693096 0.619361 0.338332
Si Si3 0.699909 0.882789 0.096258
Si Si4 0.809351 0.223716 0.375576
Si Si5 0.117290 0.278126 0.816859
Si Si6 0.433317 0.120735 0.854851
Si Si7 0.925954 0.116400 0.999750
O O1 0.972541 0.500000 0.605154
O O2 0.063192 0.368340 0.776897
O O3 0.000000 0.338325 0.500000
O O4 0.937821 0.340690 0.702729
O O5 0.706023 0.500000 0.364790
O O6 0.760859 0.680112 0.358263
O O7 0.673429 0.668883 0.466011
O O8 0.633065 0.631371 0.170008
O O9 0.764777 0.852298 0.242391
O O10 0.635579 0.857061 0.132877
O O11 0.699882 0.000000 0.065455
O O12 0.686401 0.819364 0.947176
O O13 0.869266 0.252236 0.328630
O O14 0.089112 0.187966 0.884394
O O15 0.437247 0.000000 0.850844
O O16 0.500000 0.153111 0.000000
O O17 0.922871 0.000000 0.040122
O O18 0.000000 0.131570 0.000000
#
# Coordination Sequence:
#
# PCOD9213470 Si02
#       7
#     8   8   8   8   8   8   8
#     4  10  22  38  58  93 134 166 202 256 328 393
#     4  10  23  46  70  91 128 171 212 272 325 384
#     4  11  22  37  62  94 128 167 209 261 321 386
#     4  11  25  42  62  99 131 165 221 256 325 393
#     4  12  24  39  63  95 127 169 215 268 315 378
#     4   9  17  33  57  84 116 160 208 247 305 381
#     4  10  24  45  69  94 123 169 226 273 320 370
#
# _framework density 21.829633000000001
#
# number of rings (size 3 to 8) (size 9 to 14) (size 15 to 20)
#    0.000    1.571    2.857    1.286    2.000    5.714 
#    0.000    1.429    0.000    3.000    0.000    0.000 
#    0.000    0.000    0.000    0.000    0.000    0.000 
#
# Total GULP energy -156427.445457 kJ/mol
# GULP energy per Si atom -5586.694481 kJ/mol
# Density = 2.177995 g / cm^3
# Si number density = 21.829633 Si / 1000 Ang^3
#
#
#
# Elastic Constant Matrix: (Units=GPa)
#
#
# Indices 1 2 3 4 5 6 
#
# 1 66.1806 25.2243 23.1726 0.0000 -13.0791 0.0000
# 2 25.2243 117.9827 16.9371 0.0000 -11.3538 0.0000
# 3 23.1726 16.9371 73.2721 0.0000 -25.7669 0.0000
# 4 0.0000 0.0000 0.0000 11.8680 0.0000 9.5261
# 5 -13.0791 -11.3538 -25.7669 0.0000 41.2635 0.0000
# 6 0.0000 0.0000 0.0000 9.5261 0.0000 25.6585
#
#
#
# Elastic Compliance Matrix: (Units=1/GPa)
#
#
# Indices 1 2 3 4 5 6 
#
# 1 0.018217 -0.003065 -0.004253 0.000000 0.002275 0.000000
# 2 -0.003065 0.009353 -0.000806 0.000000 0.001098 0.000000
# 3 -0.004253 -0.000806 0.018743 0.000000 0.010134 0.000000
# 4 0.000000 0.000000 0.000000 0.120029 0.000000 -0.044562
# 5 0.002275 0.001098 0.010134 0.000000 0.031586 0.000000
# 6 0.000000 0.000000 0.000000 -0.044562 0.000000 0.055518
#
#
# Mechanical properties :
#
#
# Convention : Reuss Voigt Hill
#
# Bulk Modulus (GPa) = 33.26201 43.12261 38.19231
# Shear Modulus (GPa) = 17.87534 28.56477 23.22005
#
# Velocity S-wave (km/s) = 2.86467 3.62129 3.26497
# Velocity P-wave (km/s) = 5.11976 6.10590 5.63445
#
# Compressibility (1/GPa) = 0.03006433
#
# Stress axis : x y z
#
# Youngs Moduli (GPa) = 54.89334 106.92201 53.35387
#
# Poissons Ratio (x) = 0.32775 0.22689
# Poissons Ratio (y) = 0.16827 0.04301
# Poissons Ratio (z) = 0.23344 0.08620
#
# Static dielectric constant tensor:
#      x y z
#    x 1.883000 0.000000 0.072900 
#    y 0.000000 1.790000 0.000000 
#    z 0.072900 0.000000 1.897780 
# 
# From -- ./inp_files/104715.got.cif
#   From: 2010.05.17/outbox.cif.g08.bks.cpg/sg12_53_cif.got.tgz:104715.got - 2010.06.03 13:09:07.
