data_PCOD9213107
_publ_section_title
;
Structure prediction by ZEFSAII (Michael W. Deem and Ramdas Pophale) SiO2 
 PCOD9213107
Probable space group: C 2/M
;
_chemical_formula_sum "Si O2"
_cell_formula_units_Z 34
_cell_length_a 9.120462
_cell_length_b 13.845003
_cell_length_c 14.448205
_cell_angle_alpha 90.000000
_cell_angle_beta 42.076638
_cell_angle_gamma 90.000000
_cell_volume 1222.584758
_symmetry_space_group_name_H-M "C 2/M"
_symmetry_group_IT_number 12
_symmetry_cell_setting 'monoclinic'
loop_
_space_group_symop_operation_xyz
x,y,z
-x,y,-z
-x,-y,-z
x,-y,z
1/2+x,1/2+y,z
1/2-x,1/2+y,-z
1/2-x,1/2-y,-z
1/2+x,1/2-y,z
loop_
_atom_site_type_symbol
_atom_site_label
_atom_site_fract_x
_atom_site_fract_y
_atom_site_fract_z
Si Si1 0.000000 0.500000 0.500000
Si Si2 0.552324 0.179395 0.338940
Si Si3 0.469584 0.395802 0.624747
Si Si4 0.970124 0.387962 0.858987
Si Si5 0.514250 0.612354 0.105316
O O1 0.033932 0.588179 0.562548
O O2 0.457596 0.286103 0.395657
O O3 0.527288 0.156751 0.243217
O O4 0.814976 0.174787 0.237237
O O5 0.500000 0.405874 0.500000
O O6 0.546146 0.500000 0.629094
O O7 0.217093 0.389005 0.777286
O O8 0.910807 0.500000 0.871561
O O9 0.759504 0.354753 0.016424
O O10 0.471810 0.500000 0.151003
O O11 0.500000 0.618284 0.000000
#
# Coordination Sequence:
#
# PCOD9213107 Si02
#       5
#     2   8   8   8   8
#     4  12  20  32  52  96 106 130 162 244 270 292
#     4  11  19  34  56  81 114 129 174 229 263 308
#     4  10  22  37  51  76 107 148 183 203 259 324
#     4   9  18  35  58  78 103 143 180 213 262 315
#     4   8  14  28  53  81 103 133 173 218 264 308
#
# _framework density 27.809930999999999
#
# number of rings (size 3 to 8) (size 9 to 14) (size 15 to 20)
#    0.000    2.353    3.529    1.412    0.000    1.882 
#    0.000    0.000    0.000    6.353    0.000    0.000 
#    0.000    0.000    0.000    0.000    0.000    0.000 
#
# Total GULP energy -94791.725914 kJ/mol
# GULP energy per Si atom -5575.983877 kJ/mol
# Density = 2.774663 g / cm^3
# Si number density = 27.809931 Si / 1000 Ang^3
#
#
#
# Elastic Constant Matrix: (Units=GPa)
#
#
# Indices 1 2 3 4 5 6 
#
# 1 50.7578 34.7568 84.2960 0.0002 -2.8204 0.0001
# 2 34.7568 314.8370 72.5135 -0.0007 -3.9341 0.0003
# 3 84.2960 72.5135 84.6015 -0.0029 -35.3938 0.0013
# 4 0.0002 -0.0007 -0.0029 -16.4736 0.0005 17.1039
# 5 -2.8204 -3.9341 -35.3938 0.0005 71.6336 -0.0003
# 6 0.0001 0.0003 0.0013 17.1039 -0.0003 29.2255
#
#
#
# Elastic Compliance Matrix: (Units=1/GPa)
#
#
# Indices 1 2 3 4 5 6 
#
# 1 -0.015809 -0.003457 0.023163 -0.000003 0.010633 0.000001
# 2 -0.003457 0.003404 0.000691 0.000000 0.000392 0.000000
# 3 0.023163 0.000691 -0.014440 0.000002 -0.006185 -0.000001
# 4 -0.000003 0.000000 0.000002 -0.037759 0.000001 0.022098
# 5 0.010633 0.000392 -0.006185 0.000001 0.011344 0.000000
# 6 0.000001 0.000000 -0.000001 0.022098 0.000000 0.021284
#
#
# Mechanical properties :
#
#
# Convention : Reuss Voigt Hill
#
# Bulk Modulus (GPa) = 71.68250 92.59210 82.13730
# Shear Modulus (GPa) = -73.39783 34.11909 -19.63937
#
# Velocity S-wave (km/s) = -5.14295 3.50647 -2.66033
# Velocity P-wave (km/s) = 3.07161 7.05412 4.49031
#
# Compressibility (1/GPa) = 0.01395041
#
# Stress axis : x y z
#
# Youngs Moduli (GPa) = -63.25377 293.81031 -69.25439
#
# Poissons Ratio (x) = 1.01566 1.60417
# Poissons Ratio (y) = -0.21866 0.04787
# Poissons Ratio (z) = 1.46517 -0.20311
#
# Static dielectric constant tensor:
#      x y z
#    x 2.565320 0.000000 -0.265740 
#    y 0.000000 2.537360 0.000000 
#    z -0.265740 0.000000 2.252330 
# 
# From -- ./inp_files/127789.got.cif
#   From: 2010.05.17/outbox.cif.g08.bks.cpg/sg12_64_cif.got.tgz:127789.got - 2010.06.03 13:09:07.
