data_PCOD9213516
_publ_section_title
;
Structure prediction by ZEFSAII (Michael W. Deem and Ramdas Pophale) SiO2 
 PCOD9213516
Probable space group: C 2/M
;
_chemical_formula_sum "Si O2"
_cell_formula_units_Z 56
_cell_length_a 11.029905
_cell_length_b 18.469766
_cell_length_c 14.535992
_cell_angle_alpha 90.000000
_cell_angle_beta 115.416145
_cell_angle_gamma 90.000000
_cell_volume 2674.660652
_symmetry_space_group_name_H-M "C 2/M"
_symmetry_group_IT_number 12
_symmetry_cell_setting 'monoclinic'
loop_
_space_group_symop_operation_xyz
x,y,z
-x,y,-z
-x,-y,-z
x,-y,z
1/2+x,1/2+y,z
1/2-x,1/2+y,-z
1/2-x,1/2-y,-z
1/2+x,1/2-y,z
loop_
_atom_site_type_symbol
_atom_site_label
_atom_site_fract_x
_atom_site_fract_y
_atom_site_fract_z
Si Si1 0.005267 0.707810 0.110531
Si Si2 0.593221 0.733523 0.445546
Si Si3 0.249984 0.379927 0.204874
Si Si4 0.864372 0.861857 0.794094
Si Si5 0.836697 0.500000 0.963422
Si Si6 0.980383 0.080588 0.640109
Si Si7 0.875870 0.722531 0.237575
Si Si8 0.654810 0.500000 0.082794
O O1 0.103928 0.647231 0.186056
O O2 0.052636 0.791465 0.142104
O O3 0.876250 0.696275 0.132194
O O4 0.000000 0.695891 0.000000
O O5 0.500000 0.758396 0.500000
O O6 0.750000 0.750000 0.500000
O O7 0.577811 0.646604 0.436376
O O8 0.520951 0.766566 0.331445
O O9 0.225599 0.431077 0.110156
O O10 0.357131 0.416418 0.307121
O O11 0.316838 0.302553 0.208777
O O12 0.934590 0.898593 0.729301
O O13 0.719323 0.825320 0.729355
O O14 0.837984 0.926324 0.856307
O O15 0.771442 0.500000 0.043301
O O16 0.000000 0.500000 0.000000
O O17 0.935343 0.000000 0.601442
O O18 0.500000 0.500000 0.000000
#
# Coordination Sequence:
#
# PCOD9213516 Si02
#       8
#     8   8   8   8   4   8   8   4
#     4  11  23  37  61  92 128 171 222 267 321 375
#     4  11  24  43  75 101 126 165 216 274 340 398
#     4  10  22  38  60  85 127 172 214 262 324 374
#     4  11  22  40  61  90 128 170 219 269 318 378
#     4  12  26  40  56  90 139 179 231 273 324 376
#     4  11  21  43  67  94 129 167 213 272 328 396
#     4  10  24  41  66  92 128 165 217 272 327 391
#     4  12  26  38  64  88 124 183 241 261 313 390
#
# _framework density 20.937237
#
# number of rings (size 3 to 8) (size 9 to 14) (size 15 to 20)
#    0.000    1.143    4.286    2.571   10.000    1.429 
#    0.000    0.000    1.571    1.286    0.000    0.000 
#    0.000    0.000    0.000    0.000    0.000    0.000 
#
# Total GULP energy -156079.379868 kJ/mol
# GULP energy per Si atom -5574.263567 kJ/mol
# Density = 2.088958 g / cm^3
# Si number density = 20.937237 Si / 1000 Ang^3
#
#
#
# Elastic Constant Matrix: (Units=GPa)
#
#
# Indices 1 2 3 4 5 6 
#
# 1 66.0532 19.4823 27.1564 0.0000 4.2451 0.0000
# 2 19.4823 105.6824 24.1757 0.0000 5.6657 0.0000
# 3 27.1564 24.1757 60.0703 0.0000 3.8462 0.0000
# 4 0.0000 0.0000 0.0000 27.6585 0.0000 -10.4689
# 5 4.2451 5.6657 3.8462 0.0000 38.8578 0.0000
# 6 0.0000 0.0000 0.0000 -10.4689 0.0000 10.3241
#
#
#
# Elastic Compliance Matrix: (Units=1/GPa)
#
#
# Indices 1 2 3 4 5 6 
#
# 1 0.018905 -0.001640 -0.007819 0.000000 -0.001052 0.000000
# 2 -0.001640 0.010612 -0.003464 0.000000 -0.001025 0.000000
# 3 -0.007819 -0.003464 0.021626 0.000000 -0.000781 0.000000
# 4 0.000000 0.000000 0.000000 0.058676 0.000000 0.059498
# 5 -0.001052 -0.001025 -0.000781 0.000000 0.026077 0.000000
# 6 0.000000 0.000000 0.000000 0.059498 0.000000 0.157193
#
#
# Mechanical properties :
#
#
# Convention : Reuss Voigt Hill
#
# Bulk Modulus (GPa) = 39.52990 41.49275 40.51132
# Shear Modulus (GPa) = 15.27334 26.10087 20.68710
#
# Velocity S-wave (km/s) = 2.70382 3.53459 3.14674
# Velocity P-wave (km/s) = 5.35432 6.04305 5.70908
#
# Compressibility (1/GPa) = 0.02529731
#
# Stress axis : x y z
#
# Youngs Moduli (GPa) = 52.89500 94.23304 46.24034
#
# Poissons Ratio (x) = 0.15454 0.36157
# Poissons Ratio (y) = 0.08675 0.16017
# Poissons Ratio (z) = 0.41360 0.32641
#
# Static dielectric constant tensor:
#      x y z
#    x 1.849800 0.000000 0.022550 
#    y 0.000000 1.792470 0.000000 
#    z 0.022550 0.000000 1.847120 
# 
# From -- ./inp_files/206791.got.cif
#   From: 2010.05.17/outbox.cif.g08.bks.cpg/sg12_104_cif.got.tgz:206791.got - 2010.06.03 13:09:07.
