data_PCOD9213420
_publ_section_title
;
Structure prediction by ZEFSAII (Michael W. Deem and Ramdas Pophale) SiO2 
 PCOD9213420
Probable space group: C 2/M
;
_chemical_formula_sum "Si O2"
_cell_formula_units_Z 60
_cell_length_a 19.046188
_cell_length_b 24.137694
_cell_length_c 11.233110
_cell_angle_alpha 90.000000
_cell_angle_beta 145.156916
_cell_angle_gamma 90.000000
_cell_volume 2950.472360
_symmetry_space_group_name_H-M "C 2/M"
_symmetry_group_IT_number 12
_symmetry_cell_setting 'monoclinic'
loop_
_space_group_symop_operation_xyz
x,y,z
-x,y,-z
-x,-y,-z
x,-y,z
1/2+x,1/2+y,z
1/2-x,1/2+y,-z
1/2-x,1/2-y,-z
1/2+x,1/2-y,z
loop_
_atom_site_type_symbol
_atom_site_label
_atom_site_fract_x
_atom_site_fract_y
_atom_site_fract_z
Si Si1 0.302758 0.864034 0.352931
Si Si2 0.065052 0.436291 0.305433
Si Si3 0.103901 0.197845 0.942318
Si Si4 0.224889 0.303824 0.176878
Si Si5 0.660271 0.937582 0.821403
Si Si6 0.381333 0.387526 0.251668
Si Si7 0.137233 0.745167 0.432687
Si Si8 0.500000 0.857019 0.000000
O O1 0.314591 0.916218 0.455859
O O2 0.348045 0.888816 0.289003
O O3 0.377196 0.815815 0.527956
O O4 0.171587 0.836707 0.140201
O O5 0.071815 0.500000 0.279484
O O6 0.049318 0.396763 0.171701
O O7 0.948076 0.430034 0.232277
O O8 0.086306 0.157162 0.806224
O O9 0.976294 0.227299 0.791310
O O10 0.190316 0.251937 0.044970
O O11 0.278296 0.356370 0.185697
O O12 0.331069 0.282313 0.410142
O O13 0.108856 0.320888 0.095417
O O14 0.644402 0.000000 0.748648
O O15 0.796982 0.933674 0.069518
O O16 0.500000 0.401447 0.500000
O O17 0.250000 0.750000 0.500000
#
# Coordination Sequence:
#
# PCOD9213420 Si02
#       8
#     8   8   8   8   8   8   8   4
#     4  10  22  38  62  94 123 163 208 261 313 374
#     4  11  22  40  64  93 126 164 215 268 323 376
#     4  10  22  38  57  91 125 163 207 253 308 377
#     4  11  21  37  57  86 126 164 205 251 313 378
#     4  10  22  41  65  91 124 165 216 275 323 364
#     4  11  21  39  60  89 123 164 213 262 315 375
#     4  11  22  38  60  91 126 168 205 251 313 390
#     4  12  23  40  64  96 130 168 205 264 318 390
#
# _framework density 20.335728
#
# number of rings (size 3 to 8) (size 9 to 14) (size 15 to 20)
#    0.000    1.333    2.667    3.800    0.000    2.933 
#    4.800    0.000    0.000    0.000    0.000    5.600 
#    0.000    0.000    0.000    0.000    0.000    0.000 
#
# Total GULP energy -167280.249548 kJ/mol
# GULP energy per Si atom -5576.008318 kJ/mol
# Density = 2.028944 g / cm^3
# Si number density = 20.335728 Si / 1000 Ang^3
#
#
#
# Elastic Constant Matrix: (Units=GPa)
#
#
# Indices 1 2 3 4 5 6 
#
# 1 39.3156 24.7660 30.3989 0.0000 -7.7007 0.0000
# 2 24.7660 101.0964 42.3468 0.0000 -6.7607 0.0000
# 3 30.3989 42.3468 123.1298 0.0000 5.2852 0.0000
# 4 0.0000 0.0000 0.0000 -10.6150 0.0000 18.0059
# 5 -7.7007 -6.7607 5.2852 0.0000 25.9153 0.0000
# 6 0.0000 0.0000 0.0000 18.0059 0.0000 13.7781
#
#
#
# Elastic Compliance Matrix: (Units=1/GPa)
#
#
# Indices 1 2 3 4 5 6 
#
# 1 0.036865 -0.004981 -0.007872 0.000000 0.011260 0.000000
# 2 -0.004981 0.012625 -0.003218 0.000000 0.002470 0.000000
# 3 -0.007872 -0.003218 0.011408 0.000000 -0.005505 0.000000
# 4 0.000000 0.000000 0.000000 -0.029286 0.000000 0.038272
# 5 0.011260 0.002470 -0.005505 0.000000 0.043700 0.000000
# 6 0.000000 0.000000 0.000000 0.038272 0.000000 0.022563
#
#
# Mechanical properties :
#
#
# Convention : Reuss Voigt Hill
#
# Bulk Modulus (GPa) = 34.77503 50.95171 42.86337
# Shear Modulus (GPa) = 35.81625 16.88434 26.35029
#
# Velocity S-wave (km/s) = 4.20127 2.88458 3.60358
# Velocity P-wave (km/s) = 6.37745 6.01698 6.19984
#
# Compressibility (1/GPa) = 0.02875627
#
# Stress axis : x y z
#
# Youngs Moduli (GPa) = 27.12630 79.20844 87.65711
#
# Poissons Ratio (x) = 0.39450 0.69001
# Poissons Ratio (y) = 0.13510 0.28211
# Poissons Ratio (z) = 0.21353 0.25492
#
# Static dielectric constant tensor:
#      x y z
#    x 1.713480 0.000000 -0.011830 
#    y 0.000000 1.732080 0.000000 
#    z -0.011830 0.000000 1.791490 
# 
# From -- ./inp_files/170389.got.cif
#   From: 2010.05.17/outbox.cif.g08.bks.cpg/sg12_86_cif.got.tgz:170389.got - 2010.06.03 13:09:07.
