data_PCOD9213177
_publ_section_title
;
Structure prediction by ZEFSAII (Michael W. Deem and Ramdas Pophale) SiO2 
 PCOD9213177
Probable space group: C 2/M
;
_chemical_formula_sum "Si O2"
_cell_formula_units_Z 56
_cell_length_a 18.789308
_cell_length_b 30.917173
_cell_length_c 6.546458
_cell_angle_alpha 90.000000
_cell_angle_beta 49.696961
_cell_angle_gamma 90.000000
_cell_volume 2900.234562
_symmetry_space_group_name_H-M "C 2/M"
_symmetry_group_IT_number 12
_symmetry_cell_setting 'monoclinic'
loop_
_space_group_symop_operation_xyz
x,y,z
-x,y,-z
-x,-y,-z
x,-y,z
1/2+x,1/2+y,z
1/2-x,1/2+y,-z
1/2-x,1/2-y,-z
1/2+x,1/2-y,z
loop_
_atom_site_type_symbol
_atom_site_label
_atom_site_fract_x
_atom_site_fract_y
_atom_site_fract_z
Si Si1 0.888789 0.449844 0.169043
Si Si2 0.587965 0.110121 0.242494
Si Si3 0.106463 0.870190 0.268548
Si Si4 0.926395 0.304328 0.952469
Si Si5 0.238118 0.401830 0.286580
Si Si6 0.585850 0.708524 0.991873
Si Si7 0.217950 0.832083 0.452877
O O1 0.877739 0.500000 0.135482
O O2 0.821892 0.438890 0.486113
O O3 0.866460 0.418120 0.021842
O O4 0.000000 0.441933 0.000000
O O5 0.500000 0.084792 0.500000
O O6 0.547092 0.154370 0.229553
O O7 0.662686 0.120005 0.277104
O O8 0.157110 0.851130 0.377650
O O9 0.000000 0.885547 0.500000
O O10 0.171741 0.905373 0.029837
O O11 0.097296 0.828935 0.135221
O O12 0.925782 0.254894 0.878922
O O13 0.819542 0.315827 0.201486
O O14 0.000000 0.304108 0.000000
O O15 0.269358 0.370794 0.410314
O O16 0.669951 0.705930 0.673354
O O17 0.500000 0.699618 0.000000
#
# Coordination Sequence:
#
# PCOD9213177 Si02
#       7
#     8   8   8   8   8   8   8
#     4  11  23  40  64  94 129 164 199 245 305 383
#     4  12  22  38  60  88 125 165 204 243 301 376
#     4  11  22  39  64  87 119 163 220 269 307 358
#     4  11  22  38  55  84 125 168 203 257 310 367
#     4  11  22  39  62  90 123 161 206 254 307 364
#     4  10  22  37  57  84 120 162 214 266 312 353
#     4  11  21  40  59  84 119 164 209 264 310 361
#
# _framework density 19.308782999999998
#
# number of rings (size 3 to 8) (size 9 to 14) (size 15 to 20)
#    0.000    1.000    5.714    1.714    0.000    2.000 
#    2.571    0.000    0.000    0.429    0.000    4.000 
#    0.000    0.000    0.000    0.000    0.000    0.000 
#
# Total GULP energy -156020.741623 kJ/mol
# GULP energy per Si atom -5572.169344 kJ/mol
# Density = 1.926484 g / cm^3
# Si number density = 19.308783 Si / 1000 Ang^3
#
#
#
# Elastic Constant Matrix: (Units=GPa)
#
#
# Indices 1 2 3 4 5 6 
#
# 1 101.4380 15.9636 29.9685 0.0000 -4.4130 0.0000
# 2 15.9636 68.2215 28.8499 0.0000 9.5115 0.0000
# 3 29.9685 28.8499 100.9005 0.0000 -16.7128 0.0000
# 4 0.0000 0.0000 0.0000 151.9805 0.0000 -1.6724
# 5 -4.4130 9.5115 -16.7128 0.0000 37.8469 0.0000
# 6 0.0000 0.0000 0.0000 -1.6724 0.0000 11.3216
#
#
#
# Elastic Compliance Matrix: (Units=1/GPa)
#
#
# Indices 1 2 3 4 5 6 
#
# 1 0.010920 -0.001446 -0.002761 0.000000 0.000418 0.000000
# 2 -0.001446 0.018658 -0.006161 0.000000 -0.007578 0.000000
# 3 -0.002761 -0.006161 0.013697 0.000000 0.007275 0.000000
# 4 0.000000 0.000000 0.000000 0.006591 0.000000 0.000974
# 5 0.000418 -0.007578 0.007275 0.000000 0.031588 0.000000
# 6 0.000000 0.000000 0.000000 0.000974 0.000000 0.088470
#
#
# Mechanical properties :
#
#
# Convention : Reuss Voigt Hill
#
# Bulk Modulus (GPa) = 44.36436 46.68044 45.52240
# Shear Modulus (GPa) = 25.23066 53.28166 39.25616
#
# Velocity S-wave (km/s) = 3.61874 5.25875 4.51385
# Velocity P-wave (km/s) = 6.36290 7.81670 7.12697
#
# Compressibility (1/GPa) = 0.02254062
#
# Stress axis : x y z
#
# Youngs Moduli (GPa) = 91.57888 53.59553 73.00789
#
# Poissons Ratio (x) = 0.07749 0.20155
# Poissons Ratio (y) = 0.13242 0.44977
# Poissons Ratio (z) = 0.25282 0.33018
#
# Static dielectric constant tensor:
#      x y z
#    x 1.712500 0.000000 -0.043140 
#    y 0.000000 1.657280 0.000000 
#    z -0.043140 0.000000 1.782640 
# 
# From -- ./inp_files/18239.got.cif
#   From: 2010.05.17/outbox.cif.g08.bks.cpg/sg12_10_cif.got.tgz:18239.got - 2010.06.03 13:09:07.
