data_PCOD9213406
_publ_section_title
;
Structure prediction by ZEFSAII (Michael W. Deem and Ramdas Pophale) SiO2 
 PCOD9213406
Probable space group: C 2/M
;
_chemical_formula_sum "Si O2"
_cell_formula_units_Z 64
_cell_length_a 30.334607
_cell_length_b 8.780800
_cell_length_c 12.071418
_cell_angle_alpha 90.000000
_cell_angle_beta 92.866860
_cell_angle_gamma 90.000000
_cell_volume 3211.344271
_symmetry_space_group_name_H-M "C 2/M"
_symmetry_group_IT_number 12
_symmetry_cell_setting 'monoclinic'
loop_
_space_group_symop_operation_xyz
x,y,z
-x,y,-z
-x,-y,-z
x,-y,z
1/2+x,1/2+y,z
1/2-x,1/2+y,-z
1/2-x,1/2-y,-z
1/2+x,1/2-y,z
loop_
_atom_site_type_symbol
_atom_site_label
_atom_site_fract_x
_atom_site_fract_y
_atom_site_fract_z
Si Si1 0.706845 0.680436 0.051527
Si Si2 0.392584 0.683389 0.985415
Si Si3 0.837017 0.679667 0.563721
Si Si4 0.996552 0.315976 0.629851
Si Si5 0.236039 0.680908 0.276944
Si Si6 0.080331 0.318712 0.790551
Si Si7 0.410039 0.682650 0.733256
Si Si8 0.662741 0.319026 0.675485
O O1 0.708253 0.500000 0.035947
O O2 0.658647 0.734005 0.005130
O O3 0.711138 0.723995 0.180544
O O4 0.750000 0.750000 0.000000
O O5 0.393199 0.500000 0.993169
O O6 0.407294 0.724773 0.862900
O O7 0.422183 0.750572 0.086708
O O8 0.843092 0.500000 0.542731
O O9 0.788576 0.703525 0.609878
O O10 0.871532 0.734944 0.659982
O O11 0.843617 0.771869 0.452512
O O12 0.990849 0.500000 0.635220
O O13 0.040637 0.274248 0.703242
O O14 0.000000 0.276339 0.500000
O O15 0.955486 0.235066 0.683039
O O16 0.232835 0.500000 0.250236
O O17 0.287272 0.724073 0.286030
O O18 0.080499 0.500000 0.797682
O O19 0.125930 0.261346 0.743715
O O20 0.404674 0.500000 0.724767
O O21 0.658675 0.500000 0.688465
#
# Coordination Sequence:
#
# PCOD9213406 Si02
#       8
#     8   8   8   8   8   8   8   8
#     4  11  22  37  58  84 120 164 212 260 306 363
#     4  10  23  42  61  87 126 165 203 255 312 367
#     4  11  22  38  61  89 124 163 206 255 309 369
#     4  10  23  44  67  93 126 160 199 253 314 375
#     4  10  22  38  57  86 121 161 206 254 309 365
#     4  11  24  41  64  93 123 160 207 254 308 370
#     4  11  23  41  66  94 123 162 210 255 312 374
#     4  11  23  39  60  88 125 164 206 256 310 368
#
# _framework density 19.929348000000001
#
# number of rings (size 3 to 8) (size 9 to 14) (size 15 to 20)
#    0.000    1.375    1.250    3.750    0.000    9.250 
#    0.000    2.500    0.000    0.000    0.000    0.000 
#    0.000    0.000    0.000    0.000    0.000    0.000 
#
# Total GULP energy -178927.920770 kJ/mol
# GULP energy per Si atom -5591.497524 kJ/mol
# Density = 1.988399 g / cm^3
# Si number density = 19.929348 Si / 1000 Ang^3
#
#
#
# Elastic Constant Matrix: (Units=GPa)
#
#
# Indices 1 2 3 4 5 6 
#
# 1 101.0234 21.4477 25.0586 0.0000 5.1511 0.0000
# 2 21.4477 12.2212 4.2004 0.0000 3.8550 0.0000
# 3 25.0586 4.2004 64.1045 0.0000 19.0413 0.0000
# 4 0.0000 0.0000 0.0000 34.9770 0.0000 -0.3056
# 5 5.1511 3.8550 19.0413 0.0000 35.4189 0.0000
# 6 0.0000 0.0000 0.0000 -0.3056 0.0000 26.3982
#
#
#
# Elastic Compliance Matrix: (Units=1/GPa)
#
#
# Indices 1 2 3 4 5 6 
#
# 1 0.017577 -0.030011 -0.006087 0.000000 0.003983 0.000000
# 2 -0.030011 0.136582 0.007022 0.000000 -0.014276 0.000000
# 3 -0.006087 0.007022 0.020805 0.000000 -0.011064 0.000000
# 4 0.000000 0.000000 0.000000 0.028593 0.000000 0.000331
# 5 0.003983 -0.014276 -0.011064 0.000000 0.035156 0.000000
# 6 0.000000 0.000000 0.000000 0.000331 0.000000 0.037885
#
#
# Mechanical properties :
#
#
# Convention : Reuss Voigt Hill
#
# Bulk Modulus (GPa) = 8.56072 30.97361 19.76716
# Shear Modulus (GPa) = 13.38012 27.80164 20.59088
#
# Velocity S-wave (km/s) = 2.59391 3.73904 3.21782
# Velocity P-wave (km/s) = 3.64362 5.84944 4.87298
#
# Compressibility (1/GPa) = 0.11681263
#
# Stress axis : x y z
#
# Youngs Moduli (GPa) = 56.89250 7.32159 48.06447
#
# Poissons Ratio (x) = 0.21973 0.29259
# Poissons Ratio (y) = 1.70739 -0.33752
# Poissons Ratio (z) = 0.34633 -0.05141
#
# Static dielectric constant tensor:
#      x y z
#    x 1.704680 0.000000 -0.002780 
#    y 0.000000 1.668280 0.000000 
#    z -0.002780 0.000000 1.701100 
# 
# From -- ./inp_files/187625.got.cif
#   From: 2010.05.17/outbox.cif.g08.bks.cpg/sg12_94_cif.got.tgz:187625.got - 2010.06.03 13:09:07.
