data_PCOD9213642
_publ_section_title
;
Structure prediction by ZEFSAII (Michael W. Deem and Ramdas Pophale) SiO2 
 PCOD9213642
Probable space group: C 2/M
;
_chemical_formula_sum "Si O2"
_cell_formula_units_Z 36
_cell_length_a 21.339643
_cell_length_b 13.778196
_cell_length_c 7.686422
_cell_angle_alpha 90.000000
_cell_angle_beta 134.469727
_cell_angle_gamma 90.000000
_cell_volume 1612.765269
_symmetry_space_group_name_H-M "C 2/M"
_symmetry_group_IT_number 12
_symmetry_cell_setting 'monoclinic'
loop_
_space_group_symop_operation_xyz
x,y,z
-x,y,-z
-x,-y,-z
x,-y,z
1/2+x,1/2+y,z
1/2-x,1/2+y,-z
1/2-x,1/2-y,-z
1/2+x,1/2-y,z
loop_
_atom_site_type_symbol
_atom_site_label
_atom_site_fract_x
_atom_site_fract_y
_atom_site_fract_z
Si Si1 0.608162 0.606542 0.949986
Si Si2 0.565143 0.820603 0.778633
Si Si3 0.000000 0.665274 0.000000
Si Si4 0.240117 0.111722 0.892564
Si Si5 0.162010 0.198296 0.399239
O O1 0.566085 0.500000 0.841139
O O2 0.637054 0.617892 0.206466
O O3 0.555682 0.704943 0.803299
O O4 0.691456 0.612278 0.982894
O O5 0.500000 0.847930 0.500000
O O6 0.541956 0.879643 0.908840
O O7 0.665658 0.837392 0.921783
O O8 0.918114 0.726831 0.765393
O O9 0.180672 0.159522 0.627246
O O10 0.254210 0.000000 0.870846
O O11 0.250000 0.250000 0.500000
#
# Coordination Sequence:
#
# PCOD9213642 Si02
#       5
#     8   8   4   8   8
#     4  10  22  39  62  91 119 159 204 251 308 365
#     4  11  23  38  61  88 127 161 204 253 302 362
#     4  10  22  38  62  96 114 160 206 246 310 368
#     4  11  23  40  63  90 124 166 206 249 307 364
#     4  11  21  40  66  88 125 163 202 251 309 361
#
# _framework density 22.321909999999999
#
# number of rings (size 3 to 8) (size 9 to 14) (size 15 to 20)
#    0.000    1.333    4.444    2.667    3.111    0.889 
#    0.000   16.667    0.000    0.000    0.000    0.000 
#    0.000    0.000    0.000    0.000    0.000    0.000 
#
# Total GULP energy -100561.905149 kJ/mol
# GULP energy per Si atom -5586.772508 kJ/mol
# Density = 2.227110 g / cm^3
# Si number density = 22.321910 Si / 1000 Ang^3
#
#
#
# Elastic Constant Matrix: (Units=GPa)
#
#
# Indices 1 2 3 4 5 6 
#
# 1 80.3745 -19.7367 13.7887 0.0000 -8.0905 0.0000
# 2 -19.7367 58.7702 -5.2593 0.0000 4.7565 0.0000
# 3 13.7887 -5.2593 118.0946 0.0000 -9.8619 0.0000
# 4 0.0000 0.0000 0.0000 -1.0313 0.0000 2.5653
# 5 -8.0905 4.7565 -9.8619 0.0000 40.2395 0.0000
# 6 0.0000 0.0000 0.0000 2.5653 0.0000 -1.1402
#
#
#
# Elastic Compliance Matrix: (Units=1/GPa)
#
#
# Indices 1 2 3 4 5 6 
#
# 1 0.013940 0.004409 -0.001267 0.000000 0.001971 0.000000
# 2 0.004409 0.018617 0.000209 0.000000 -0.001263 0.000000
# 3 -0.001267 0.000209 0.008781 0.000000 0.001873 0.000000
# 4 0.000000 0.000000 0.000000 0.210950 0.000000 0.474615
# 5 0.001971 -0.001263 0.001873 0.000000 0.025856 0.000000
# 6 0.000000 0.000000 0.000000 0.474615 0.000000 0.190797
#
#
# Mechanical properties :
#
#
# Convention : Reuss Voigt Hill
#
# Bulk Modulus (GPa) = 20.81607 26.09164 23.45385
# Shear Modulus (GPa) = 10.45473 25.51004 17.98239
#
# Velocity S-wave (km/s) = 2.16651 3.38424 2.84138
# Velocity P-wave (km/s) = 3.95019 5.19470 4.61459
#
# Compressibility (1/GPa) = 0.04803981
#
# Stress axis : x y z
#
# Youngs Moduli (GPa) = 71.73574 53.71477 113.87729
#
# Poissons Ratio (x) = -0.23681 0.14425
# Poissons Ratio (y) = -0.31625 -0.02379
# Poissons Ratio (z) = 0.09087 -0.01122
#
# Static dielectric constant tensor:
#      x y z
#    x 1.843900 0.000000 -0.028580 
#    y 0.000000 1.866210 0.000000 
#    z -0.028580 0.000000 1.769180 
# 
# From -- ./inp_files/95997.got.cif
#   From: 2010.05.17/outbox.cif.g08.bks.cpg/sg12_48_cif.got.tgz:95997.got - 2010.06.03 13:09:07.
