data_PCOD9213093
_publ_section_title
;
Structure prediction by ZEFSAII (Michael W. Deem and Ramdas Pophale) SiO2 
 PCOD9213093
Probable space group: C 2/M
;
_chemical_formula_sum "Si O2"
_cell_formula_units_Z 46
_cell_length_a 25.790383
_cell_length_b 13.269166
_cell_length_c 8.646459
_cell_angle_alpha 90.000000
_cell_angle_beta 131.873222
_cell_angle_gamma 90.000000
_cell_volume 2203.314506
_symmetry_space_group_name_H-M "C 2/M"
_symmetry_group_IT_number 12
_symmetry_cell_setting 'monoclinic'
loop_
_space_group_symop_operation_xyz
x,y,z
-x,y,-z
-x,-y,-z
x,-y,z
1/2+x,1/2+y,z
1/2-x,1/2+y,-z
1/2-x,1/2-y,-z
1/2+x,1/2-y,z
loop_
_atom_site_type_symbol
_atom_site_label
_atom_site_fract_x
_atom_site_fract_y
_atom_site_fract_z
Si Si1 0.916065 0.272239 0.487393
Si Si2 0.962645 0.793857 0.071678
Si Si3 0.536906 0.000000 0.361602
Si Si4 0.000000 0.000000 0.000000
Si Si5 0.715608 0.210389 0.589234
Si Si6 0.658697 0.778339 0.971804
Si Si7 0.368363 0.000000 0.030726
Si Si8 0.157559 0.500000 0.380439
O O1 0.936563 0.392134 0.516627
O O2 0.859677 0.248165 0.509368
O O3 0.880043 0.238656 0.257292
O O4 0.985501 0.216985 0.680115
O O5 0.891593 0.743027 0.981763
O O6 0.957509 0.909119 0.007431
O O7 0.000000 0.739272 0.000000
O O8 0.577592 0.000000 0.279652
O O9 0.453148 0.000000 0.200763
O O10 0.750000 0.250000 0.500000
O O11 0.698201 0.094843 0.527367
O O12 0.768024 0.231676 0.834790
O O13 0.661736 0.898394 0.956638
O O14 0.343663 0.000000 0.804992
#
# Coordination Sequence:
#
# PCOD9213093 Si02
#       8
#     8   8   4   2   8   8   4   4
#     4  11  23  41  64  98 134 168 207 267 334 390
#     4  10  22  42  65  92 119 168 215 265 317 376
#     4  10  22  36  66  99 141 160 204 272 326 402
#     4   8  24  42  64  86 118 162 222 270 296 376
#     4  11  23  43  62  90 126 176 222 265 316 387
#     4  12  24  39  65  97 135 168 209 267 333 391
#     4  12  22  36  66 104 132 172 206 263 335 395
#     4  10  23  39  63  93 124 176 228 266 316 381
#
# _framework density 20.877638000000001
#
# number of rings (size 3 to 8) (size 9 to 14) (size 15 to 20)
#    0.522    0.696    3.478    2.870    2.435    1.391 
#    0.000    3.478    0.000    0.000    0.000    0.000 
#    0.000    0.000    0.000    0.000    0.000    0.000 
#
# Total GULP energy -128111.033000 kJ/mol
# GULP energy per Si atom -5570.044913 kJ/mol
# Density = 2.083012 g / cm^3
# Si number density = 20.877638 Si / 1000 Ang^3
#
#
#
# Elastic Constant Matrix: (Units=GPa)
#
#
# Indices 1 2 3 4 5 6 
#
# 1 63.9210 9.6724 -0.8605 0.0000 11.9853 0.0000
# 2 9.6724 52.5721 4.6985 0.0000 4.5598 0.0000
# 3 -0.8605 4.6985 106.3291 0.0000 11.8029 0.0000
# 4 0.0000 0.0000 0.0000 24.9117 0.0000 4.0031
# 5 11.9853 4.5598 11.8029 0.0000 36.3925 0.0000
# 6 0.0000 0.0000 0.0000 4.0031 0.0000 8.0162
#
#
#
# Elastic Compliance Matrix: (Units=1/GPa)
#
#
# Indices 1 2 3 4 5 6 
#
# 1 0.017117 -0.002744 0.000879 0.000000 -0.005579 0.000000
# 2 -0.002744 0.019708 -0.000746 0.000000 -0.001324 0.000000
# 3 0.000879 -0.000746 0.009820 0.000000 -0.003381 0.000000
# 4 0.000000 0.000000 0.000000 0.043644 0.000000 -0.021795
# 5 -0.005579 -0.001324 -0.003381 0.000000 0.030578 0.000000
# 6 0.000000 0.000000 0.000000 -0.021795 0.000000 0.135632
#
#
# Mechanical properties :
#
#
# Convention : Reuss Voigt Hill
#
# Bulk Modulus (GPa) = 24.14115 27.76036 25.95075
# Shear Modulus (GPa) = 18.14690 27.81818 22.98254
#
# Velocity S-wave (km/s) = 2.95142 3.65422 3.32146
# Velocity P-wave (km/s) = 4.81693 5.57943 5.21214
#
# Compressibility (1/GPa) = 0.04142304
#
# Stress axis : x y z
#
# Youngs Moduli (GPa) = 58.42022 50.74123 101.83153
#
# Poissons Ratio (x) = 0.13924 -0.08951
# Poissons Ratio (y) = 0.16031 0.07598
# Poissons Ratio (z) = -0.05135 0.03786
#
# Static dielectric constant tensor:
#      x y z
#    x 1.810690 0.000000 -0.035060 
#    y 0.000000 1.709190 0.000000 
#    z -0.035060 0.000000 1.764470 
# 
# From -- ./inp_files/105104.got.cif
#   From: 2010.05.17/outbox.cif.g08.bks.cpg/sg12_53_cif.got.tgz:105104.got - 2010.06.03 13:09:07.
