data_PCOD9213598
_publ_section_title
;
Structure prediction by ZEFSAII (Michael W. Deem and Ramdas Pophale) SiO2 
 PCOD9213598
Probable space group: C 2/M
;
_chemical_formula_sum "Si O2"
_cell_formula_units_Z 48
_cell_length_a 19.000327
_cell_length_b 14.596234
_cell_length_c 18.318990
_cell_angle_alpha 90.000000
_cell_angle_beta 31.682804
_cell_angle_gamma 90.000000
_cell_volume 2668.342628
_symmetry_space_group_name_H-M "C 2/M"
_symmetry_group_IT_number 12
_symmetry_cell_setting 'monoclinic'
loop_
_space_group_symop_operation_xyz
x,y,z
-x,y,-z
-x,-y,-z
x,-y,z
1/2+x,1/2+y,z
1/2-x,1/2+y,-z
1/2-x,1/2-y,-z
1/2+x,1/2-y,z
loop_
_atom_site_type_symbol
_atom_site_label
_atom_site_fract_x
_atom_site_fract_y
_atom_site_fract_z
Si Si1 0.829158 0.715637 0.838399
Si Si2 0.554084 0.231914 0.106444
Si Si3 0.524848 0.893231 0.563940
Si Si4 0.253433 0.260966 0.409667
Si Si5 0.849904 0.106941 0.604010
Si Si6 0.221611 0.392577 0.872178
O O1 0.897583 0.699705 0.855879
O O2 0.907756 0.659978 0.709168
O O3 0.826055 0.824532 0.821397
O O4 0.669964 0.695319 0.982363
O O5 0.404739 0.266383 0.246241
O O6 0.581243 0.149111 0.025421
O O7 0.500000 0.883148 0.500000
O O8 0.663271 0.846343 0.465402
O O9 0.523569 0.000000 0.584045
O O10 0.250000 0.250000 0.500000
O O11 0.188864 0.172607 0.427469
O O12 0.751402 0.120161 0.760299
O O13 0.000000 0.127234 0.500000
O O14 0.846144 0.000000 0.586389
O O15 0.235663 0.500000 0.876359
#
# Coordination Sequence:
#
# PCOD9213598 Si02
#       6
#     8   8   8   8   8   8
#     4   9  18  40  58  88 126 164 201 249 303 368
#     4   9  21  36  57  92 126 158 198 243 310 368
#     4  11  24  43  66  87 115 167 220 255 301 364
#     4  12  23  39  62  92 128 157 200 263 309 353
#     4  10  22  38  61  93 127 165 202 244 309 378
#     4   9  18  35  61  89 121 161 200 239 298 375
#
# _framework density 17.988695
#
# number of rings (size 3 to 8) (size 9 to 14) (size 15 to 20)
#    1.000    1.000    1.667    2.500    0.000    2.667 
#    0.000    3.333    0.000    2.000    0.000    0.000 
#    0.000    0.000    0.000    0.000    0.000    0.000 
#
# Total GULP energy -133711.151994 kJ/mol
# GULP energy per Si atom -5571.298000 kJ/mol
# Density = 1.794775 g / cm^3
# Si number density = 17.988695 Si / 1000 Ang^3
#
#
#
# Elastic Constant Matrix: (Units=GPa)
#
#
# Indices 1 2 3 4 5 6 
#
# 1 66.8600 49.7387 44.7899 -0.0001 0.6886 0.0000
# 2 49.7387 93.2680 73.0545 0.0000 4.3640 0.0000
# 3 44.7899 73.0545 156.5642 -0.0001 -5.2785 0.0000
# 4 -0.0001 0.0000 -0.0001 8.0313 0.0000 -9.3638
# 5 0.6886 4.3640 -5.2785 0.0000 28.9639 0.0000
# 6 0.0000 0.0000 0.0000 -9.3638 0.0000 -7.2019
#
#
#
# Elastic Compliance Matrix: (Units=1/GPa)
#
#
# Indices 1 2 3 4 5 6 
#
# 1 0.025033 -0.012315 -0.001381 0.000000 0.001009 0.000000
# 2 -0.012315 0.023432 -0.007566 0.000000 -0.004617 0.000000
# 3 -0.001381 -0.007566 0.010416 0.000000 0.003071 0.000000
# 4 0.000000 0.000000 0.000000 0.049491 0.000000 -0.064347
# 5 0.001009 -0.004617 0.003071 0.000000 0.035757 0.000000
# 6 0.000000 0.000000 0.000000 -0.064347 0.000000 -0.055190
#
#
# Mechanical properties :
#
#
# Convention : Reuss Voigt Hill
#
# Bulk Modulus (GPa) = 61.13852 72.42872 66.78362
# Shear Modulus (GPa) = 36.51893 15.89925 26.20909
#
# Velocity S-wave (km/s) = 4.51056 2.97618 3.82118
# Velocity P-wave (km/s) = 7.82226 7.22226 7.52824
#
# Compressibility (1/GPa) = 0.01635630
#
# Stress axis : x y z
#
# Youngs Moduli (GPa) = 39.94720 42.67735 96.00517
#
# Poissons Ratio (x) = 0.52559 0.13258
# Poissons Ratio (y) = 0.49196 0.72637
# Poissons Ratio (z) = 0.05517 0.32289
#
# Static dielectric constant tensor:
#      x y z
#    x 1.609790 0.000000 -0.002580 
#    y 0.000000 1.598070 0.000000 
#    z -0.002580 0.000000 1.659460 
# 
# From -- ./inp_files/270136.got.cif
#   From: 2010.05.17/outbox.cif.g08.bks.cpg/sg12_136_cif.got.tgz:270136.got - 2010.06.03 13:09:07.
