data_PCOD9213213
_publ_section_title
;
Structure prediction by ZEFSAII (Michael W. Deem and Ramdas Pophale) SiO2 
 PCOD9213213
Probable space group: C 2/M
;
_chemical_formula_sum "Si O2"
_cell_formula_units_Z 40
_cell_length_a 7.575626
_cell_length_b 18.895938
_cell_length_c 20.348977
_cell_angle_alpha 90.000000
_cell_angle_beta 142.126360
_cell_angle_gamma 90.000000
_cell_volume 1788.310107
_symmetry_space_group_name_H-M "C 2/M"
_symmetry_group_IT_number 12
_symmetry_cell_setting 'monoclinic'
loop_
_space_group_symop_operation_xyz
x,y,z
-x,y,-z
-x,-y,-z
x,-y,z
1/2+x,1/2+y,z
1/2-x,1/2+y,-z
1/2-x,1/2-y,-z
1/2+x,1/2-y,z
loop_
_atom_site_type_symbol
_atom_site_label
_atom_site_fract_x
_atom_site_fract_y
_atom_site_fract_z
Si Si1 0.189589 0.691155 0.926296
Si Si2 0.245505 0.806782 0.690260
Si Si3 0.219436 0.845820 0.338965
Si Si4 0.157714 0.579219 0.389747
Si Si5 0.796161 0.418219 0.876117
O O1 0.008948 0.721649 0.812965
O O2 0.999266 0.623794 0.886786
O O3 0.500000 0.664484 0.000000
O O4 0.250000 0.750000 0.000000
O O5 0.153986 0.733291 0.630267
O O6 0.377328 0.862109 0.677425
O O7 0.989186 0.840898 0.658514
O O8 0.489738 0.897132 0.406284
O O9 0.002683 0.875587 0.217671
O O10 0.500000 0.578031 0.500000
O O11 0.063687 0.500000 0.342877
O O12 0.740485 0.500000 0.844324
O O13 0.000000 0.414919 0.000000
#
# Coordination Sequence:
#
# PCOD9213213 Si02
#       5
#     8   8   8   8   8
#     4  11  22  37  62  93 133 173 220 272 330 403
#     4  11  23  41  71 102 134 178 232 277 350 414
#     4  11  22  43  68  98 137 175 222 292 341 412
#     4  11  27  48  70 100 137 181 233 291 356 414
#     4  10  22  37  58  91 131 174 216 263 335 404
#
# _framework density 22.367486
#
# number of rings (size 3 to 8) (size 9 to 14) (size 15 to 20)
#    0.000    1.200    2.000    4.800    2.800    6.000 
#    0.000    2.000    0.000    0.000    0.000    0.000 
#    0.000    0.000    0.000    0.000    0.000    0.000 
#
# Total GULP energy -111483.703647 kJ/mol
# GULP energy per Si atom -5574.185182 kJ/mol
# Density = 2.231658 g / cm^3
# Si number density = 22.367486 Si / 1000 Ang^3
#
#
#
# Elastic Constant Matrix: (Units=GPa)
#
#
# Indices 1 2 3 4 5 6 
#
# 1 70.3275 31.8357 19.1375 0.0030 32.8720 -0.0026
# 2 31.8357 151.8140 12.1646 -0.0007 2.4912 0.0005
# 3 19.1375 12.1646 69.1248 -0.0061 18.4748 0.0049
# 4 0.0030 -0.0007 -0.0061 4.6971 0.0018 29.6246
# 5 32.8720 2.4912 18.4748 0.0018 41.6367 -0.0017
# 6 -0.0026 0.0005 0.0049 29.6246 -0.0017 4.0935
#
#
#
# Elastic Compliance Matrix: (Units=1/GPa)
#
#
# Indices 1 2 3 4 5 6 
#
# 1 0.026042 -0.005054 -0.001028 0.000002 -0.019802 -0.000002
# 2 -0.005054 0.007663 -0.001013 0.000000 0.003981 0.000000
# 3 -0.001028 -0.001013 0.016674 -0.000004 -0.006526 0.000005
# 4 0.000002 0.000000 -0.000004 -0.004769 0.000002 0.034512
# 5 -0.019802 0.003981 -0.006526 0.000002 0.042308 -0.000002
# 6 -0.000002 0.000000 0.000005 0.034512 -0.000002 -0.005472
#
#
# Mechanical properties :
#
#
# Convention : Reuss Voigt Hill
#
# Bulk Modulus (GPa) = 27.63341 46.39353 37.01347
# Shear Modulus (GPa) = 45.99828 25.29401 35.64615
#
# Velocity S-wave (km/s) = 4.53976 3.36644 3.99640
# Velocity P-wave (km/s) = 6.31351 5.99142 6.15457
#
# Compressibility (1/GPa) = 0.03618808
#
# Stress axis : x y z
#
# Youngs Moduli (GPa) = 38.39895 130.50280 59.97442
#
# Poissons Ratio (x) = 0.65954 0.06167
# Poissons Ratio (y) = 0.19406 0.06077
# Poissons Ratio (z) = 0.03948 0.13224
#
# Static dielectric constant tensor:
#      x y z
#    x 1.956120 0.000000 -0.288030 
#    y 0.000000 1.757390 0.000000 
#    z -0.288030 0.000000 2.215500 
# 
# From -- ./inp_files/356614.got.cif
#   From: 2010.05.17/outbox.cif.g08.bks.cpg/sg12_179_cif.got.tgz:356614.got - 2010.06.03 13:09:07.
