data_PCOD9213715
_publ_section_title
;
Structure prediction by ZEFSAII (Michael W. Deem and Ramdas Pophale) SiO2 
 PCOD9213715
Probable space group: C 2/M
;
_chemical_formula_sum "Si O2"
_cell_formula_units_Z 36
_cell_length_a 5.033590
_cell_length_b 24.218162
_cell_length_c 13.104743
_cell_angle_alpha 90.000000
_cell_angle_beta 111.099556
_cell_angle_gamma 90.000000
_cell_volume 1490.420583
_symmetry_space_group_name_H-M "C 2/M"
_symmetry_group_IT_number 12
_symmetry_cell_setting 'monoclinic'
loop_
_space_group_symop_operation_xyz
x,y,z
-x,y,-z
-x,-y,-z
x,-y,z
1/2+x,1/2+y,z
1/2-x,1/2+y,-z
1/2-x,1/2-y,-z
1/2+x,1/2-y,z
loop_
_atom_site_type_symbol
_atom_site_label
_atom_site_fract_x
_atom_site_fract_y
_atom_site_fract_z
Si Si1 0.956240 0.285327 0.186792
Si Si2 0.592540 0.563836 0.654194
Si Si3 0.781337 0.059647 0.106567
Si Si4 0.500000 0.347997 0.000000
Si Si5 0.463748 0.136122 0.384785
O O1 0.768640 0.231952 0.193079
O O2 0.969115 0.323382 0.289047
O O3 0.773227 0.312749 0.070661
O O4 0.522161 0.500000 0.623498
O O5 0.785147 0.564807 0.783735
O O6 0.320964 0.599848 0.647820
O O7 0.778231 0.592959 0.593919
O O8 0.950748 0.111378 0.088155
O O9 0.932650 0.000000 0.114870
O O10 0.500000 0.058515 0.000000
O O11 0.500000 0.165035 0.500000
#
# Coordination Sequence:
#
# PCOD9213715 Si02
#       5
#     8   8   8   4   8
#     4  12  28  47  70 100 133 178 240 293 348 398
#     4  11  24  44  70 107 146 181 223 276 341 421
#     4  10  22  38  66 103 142 185 221 266 339 424
#     4  12  23  42  72  94 140 176 223 286 344 410
#     4  12  26  47  73 100 138 185 231 287 345 405
#
# _framework density 24.154253000000001
#
# number of rings (size 3 to 8) (size 9 to 14) (size 15 to 20)
#    0.000    0.667    2.222    5.000    3.111    3.556 
#    0.000    0.000    0.000    0.000    0.000    0.000 
#    0.000    0.000    0.000    0.000    0.000    0.000 
#
# Total GULP energy -100858.181591 kJ/mol
# GULP energy per Si atom -5603.232311 kJ/mol
# Density = 2.409928 g / cm^3
# Si number density = 24.154253 Si / 1000 Ang^3
#
#
#
# Elastic Constant Matrix: (Units=GPa)
#
#
# Indices 1 2 3 4 5 6 
#
# 1 66.1745 3.1404 -9.6675 0.0000 0.8783 0.0000
# 2 3.1404 85.8048 21.2816 0.0000 -4.9174 0.0000
# 3 -9.6675 21.2816 125.4752 0.0000 -4.4767 0.0000
# 4 0.0000 0.0000 0.0000 28.5112 0.0000 -12.0929
# 5 0.8783 -4.9174 -4.4767 0.0000 34.4368 0.0000
# 6 0.0000 0.0000 0.0000 -12.0929 0.0000 62.4805
#
#
#
# Elastic Compliance Matrix: (Units=1/GPa)
#
#
# Indices 1 2 3 4 5 6 
#
# 1 0.015353 -0.000911 0.001325 0.000000 -0.000349 0.000000
# 2 -0.000911 0.012295 -0.002102 0.000000 0.001506 0.000000
# 3 0.001325 -0.002102 0.008456 0.000000 0.000765 0.000000
# 4 0.000000 0.000000 0.000000 0.038211 0.000000 0.007396
# 5 -0.000349 0.001506 0.000765 0.000000 0.029362 0.000000
# 6 0.000000 0.000000 0.000000 0.007396 0.000000 0.017436
#
#
# Mechanical properties :
#
#
# Convention : Reuss Voigt Hill
#
# Bulk Modulus (GPa) = 30.55408 34.10706 32.33057
# Shear Modulus (GPa) = 36.92828 42.59904 39.76366
#
# Velocity S-wave (km/s) = 3.91430 4.20411 4.06179
# Velocity P-wave (km/s) = 5.75378 6.14143 5.95076
#
# Compressibility (1/GPa) = 0.03272885
#
# Stress axis : x y z
#
# Youngs Moduli (GPa) = 65.13406 81.33206 118.26523
#
# Poissons Ratio (x) = 0.07406 -0.15669
# Poissons Ratio (y) = 0.05931 0.24857
# Poissons Ratio (z) = -0.08629 0.17094
#
# Static dielectric constant tensor:
#      x y z
#    x 1.893480 0.000000 0.002980 
#    y 0.000000 1.956680 0.000000 
#    z 0.002980 0.000000 1.938690 
# 
# From -- ./inp_files/114975.got.cif
#   From: 2010.05.17/outbox.cif.g08.bks.cpg/sg12_58_cif.got.tgz:114975.got - 2010.06.03 13:09:07.
