data_PCOD9213533
_publ_section_title
;
Structure prediction by ZEFSAII (Michael W. Deem and Ramdas Pophale) SiO2 
 PCOD9213533
Probable space group: C 2/M
;
_chemical_formula_sum "Si O2"
_cell_formula_units_Z 32
_cell_length_a 14.810123
_cell_length_b 15.575218
_cell_length_c 11.252764
_cell_angle_alpha 90.000000
_cell_angle_beta 37.102651
_cell_angle_gamma 90.000000
_cell_volume 1565.833795
_symmetry_space_group_name_H-M "C 2/M"
_symmetry_group_IT_number 12
_symmetry_cell_setting 'monoclinic'
loop_
_space_group_symop_operation_xyz
x,y,z
-x,y,-z
-x,-y,-z
x,-y,z
1/2+x,1/2+y,z
1/2-x,1/2+y,-z
1/2-x,1/2-y,-z
1/2+x,1/2-y,z
loop_
_atom_site_type_symbol
_atom_site_label
_atom_site_fract_x
_atom_site_fract_y
_atom_site_fract_z
Si Si1 0.500000 0.721600 0.000000
Si Si2 0.824869 0.000000 0.837230
Si Si3 0.000000 0.722844 0.500000
Si Si4 0.683729 0.500000 0.434377
Si Si5 0.236896 0.187193 0.404726
Si Si6 0.766603 0.163650 0.060574
O O1 0.629987 0.783809 0.819419
O O2 0.581091 0.667771 0.019737
O O3 0.779046 0.000000 0.746213
O O4 0.771182 0.083455 0.966620
O O5 0.005364 0.000000 0.640910
O O6 0.083384 0.787154 0.501988
O O7 0.124783 0.667096 0.299811
O O8 0.744625 0.587609 0.425283
O O9 0.250000 0.250000 0.500000
O O10 0.750000 0.250000 0.000000
#
# Coordination Sequence:
#
# PCOD9213533 Si02
#       6
#     4   4   4   4   8   8
#     4  10  22  38  60  88 122 162 202 244 302 368
#     4  11  22  38  64  90 118 159 204 254 308 360
#     4  10  22  40  62  88 124 164 204 248 302 366
#     4  11  22  37  62  93 118 154 208 252 300 367
#     4  11  22  40  63  89 123 159 198 250 304 357
#     4  11  22  40  63  89 124 163 204 255 308 358
#
# _framework density 20.436395000000001
#
# number of rings (size 3 to 8) (size 9 to 14) (size 15 to 20)
#    0.000    1.250    0.000    9.000    0.000    1.500 
#    0.000   10.000    0.000    0.000    0.000    0.000 
#    0.000    0.000    0.000    0.000    0.000    0.000 
#
# Total GULP energy -89430.168411 kJ/mol
# GULP energy per Si atom -5589.385526 kJ/mol
# Density = 2.038988 g / cm^3
# Si number density = 20.436395 Si / 1000 Ang^3
#
#
#
# Elastic Constant Matrix: (Units=GPa)
#
#
# Indices 1 2 3 4 5 6 
#
# 1 110.9483 48.9112 14.5092 0.0001 0.8428 0.0000
# 2 48.9112 185.1084 44.8593 0.0000 22.2745 0.0000
# 3 14.5092 44.8593 69.4056 0.0001 3.8739 -0.0001
# 4 0.0001 0.0000 0.0001 22.1555 -0.0001 12.0883
# 5 0.8428 22.2745 3.8739 -0.0001 28.0466 0.0000
# 6 0.0000 0.0000 -0.0001 12.0883 0.0000 28.1413
#
#
#
# Elastic Compliance Matrix: (Units=1/GPa)
#
#
# Indices 1 2 3 4 5 6 
#
# 1 0.010317 -0.002869 -0.000415 0.000000 0.002026 0.000000
# 2 -0.002869 0.007837 -0.004155 0.000000 -0.005564 0.000000
# 3 -0.000415 -0.004155 0.017127 0.000000 0.000947 0.000000
# 4 0.000000 0.000000 0.000000 0.058952 0.000000 -0.025323
# 5 0.002026 -0.005564 0.000947 0.000000 0.039882 0.000000
# 6 0.000000 0.000000 0.000000 -0.025323 0.000000 0.046413
#
#
# Mechanical properties :
#
#
# Convention : Reuss Voigt Hill
#
# Bulk Modulus (GPa) = 49.01376 64.66907 56.84141
# Shear Modulus (GPa) = 24.72701 32.81418 28.77060
#
# Velocity S-wave (km/s) = 3.48221 4.01143 3.75615
# Velocity P-wave (km/s) = 6.34061 7.29165 6.83270
#
# Compressibility (1/GPa) = 0.02040243
#
# Stress axis : x y z
#
# Youngs Moduli (GPa) = 96.92728 127.60380 58.38568
#
# Poissons Ratio (x) = 0.36612 0.02425
# Poissons Ratio (y) = 0.27810 0.24258
# Poissons Ratio (z) = 0.04026 0.53017
#
# Static dielectric constant tensor:
#      x y z
#    x 1.698560 0.000000 -0.093250 
#    y 0.000000 1.767260 0.000000 
#    z -0.093250 0.000000 1.572800 
# 
# From -- ./inp_files/142483.got.cif
#   From: 2010.05.17/outbox.cif.g08.bks.cpg/sg12_72_cif.got.tgz:142483.got - 2010.06.03 13:09:07.
