data_PCOD9213695
_publ_section_title
;
Structure prediction by ZEFSAII (Michael W. Deem and Ramdas Pophale) SiO2 
 PCOD9213695
Probable space group: C 2/M
;
_chemical_formula_sum "Si O2"
_cell_formula_units_Z 40
_cell_length_a 19.693062
_cell_length_b 21.983644
_cell_length_c 5.585348
_cell_angle_alpha 90.000000
_cell_angle_beta 54.451323
_cell_angle_gamma 90.000000
_cell_volume 1967.368821
_symmetry_space_group_name_H-M "C 2/M"
_symmetry_group_IT_number 12
_symmetry_cell_setting 'monoclinic'
loop_
_space_group_symop_operation_xyz
x,y,z
-x,y,-z
-x,-y,-z
x,-y,z
1/2+x,1/2+y,z
1/2-x,1/2+y,-z
1/2-x,1/2-y,-z
1/2+x,1/2-y,z
loop_
_atom_site_type_symbol
_atom_site_label
_atom_site_fract_x
_atom_site_fract_y
_atom_site_fract_z
Si Si1 0.246204 0.432031 0.904740
Si Si2 0.070452 0.567740 0.539450
Si Si3 0.052377 0.259629 0.144698
Si Si4 0.160601 0.642273 0.714901
Si Si5 0.713984 0.307616 0.923011
O O1 0.284679 0.500000 0.834396
O O2 0.216616 0.412487 0.701126
O O3 0.159274 0.435759 0.226116
O O4 0.289166 0.371331 0.922733
O O5 0.049082 0.500000 0.668046
O O6 0.086233 0.614584 0.714189
O O7 0.000000 0.586383 0.500000
O O8 0.000000 0.259988 0.500000
O O9 0.114263 0.317916 0.007820
O O10 0.121210 0.206222 0.019739
O O11 0.000000 0.256561 0.000000
O O12 0.220453 0.682577 0.426870
O O13 0.750000 0.250000 0.000000
#
# Coordination Sequence:
#
# PCOD9213695 Si02
#       5
#     8   8   8   8   8
#     4  10  22  38  64  95 130 173 227 274 335 404
#     4   9  20  36  54  87 135 181 220 266 325 400
#     4  12  28  42  67 104 138 174 226 285 348 400
#     4  11  23  37  67  91 133 172 230 270 341 403
#     4  11  23  45  68  95 134 182 227 282 334 408
#
# _framework density 20.331724999999999
#
# number of rings (size 3 to 8) (size 9 to 14) (size 15 to 20)
#    0.000    1.400    2.000    2.400    8.400    0.800 
#    0.000    3.000    0.000    3.000    0.000    0.000 
#    0.000    0.000    0.000    0.000    0.000    0.000 
#
# Total GULP energy -111666.237578 kJ/mol
# GULP energy per Si atom -5583.311879 kJ/mol
# Density = 2.028545 g / cm^3
# Si number density = 20.331725 Si / 1000 Ang^3
#
#
#
# Elastic Constant Matrix: (Units=GPa)
#
#
# Indices 1 2 3 4 5 6 
#
# 1 101.9374 62.4637 30.9330 0.0000 1.7210 0.0000
# 2 62.4637 152.2957 34.5646 0.0000 3.5922 0.0000
# 3 30.9330 34.5646 104.2227 0.0000 8.7035 0.0000
# 4 0.0000 0.0000 0.0000 -76.7229 0.0000 -90.2722
# 5 1.7210 3.5922 8.7035 0.0000 15.9879 0.0000
# 6 0.0000 0.0000 0.0000 -90.2722 0.0000 -75.9126
#
#
#
# Elastic Compliance Matrix: (Units=1/GPa)
#
#
# Indices 1 2 3 4 5 6 
#
# 1 0.013638 -0.005061 -0.002453 0.000000 0.001005 0.000000
# 2 -0.005061 0.008980 -0.001418 0.000000 -0.000701 0.000000
# 3 -0.002453 -0.001418 0.011256 0.000000 -0.005545 0.000000
# 4 0.000000 0.000000 0.000000 0.032653 0.000000 -0.038830
# 5 0.001005 -0.000701 -0.005545 0.000000 0.065615 0.000000
# 6 0.000000 0.000000 0.000000 -0.038830 0.000000 0.033001
#
#
# Mechanical properties :
#
#
# Convention : Reuss Voigt Hill
#
# Bulk Modulus (GPa) = 62.45570 68.26426 65.35998
# Shear Modulus (GPa) = 26.54700 -11.96323 7.29189
#
# Velocity S-wave (km/s) = 3.61736 -2.42833 1.89585
# Velocity P-wave (km/s) = 6.94493 5.07797 6.08349
#
# Compressibility (1/GPa) = 0.01601135
#
# Stress axis : x y z
#
# Youngs Moduli (GPa) = 73.32201 111.35775 88.83986
#
# Poissons Ratio (x) = 0.56354 0.21796
# Poissons Ratio (y) = 0.37106 0.12594
# Poissons Ratio (z) = 0.17989 0.15786
#
# Static dielectric constant tensor:
#      x y z
#    x 1.762090 0.000000 0.066290 
#    y 0.000000 1.784970 0.000000 
#    z 0.066290 0.000000 1.771190 
# 
# From -- ./inp_files/15294.got.cif
#   From: 2010.05.17/outbox.cif.g08.bks.cpg/sg12_8_cif.got.tgz:15294.got - 2010.06.03 13:09:07.
