data_PCOD9213941
_publ_section_title
;
Structure prediction by ZEFSAII (Michael W. Deem and Ramdas Pophale) SiO2 
 PCOD9213941
Probable space group: C 2/M
;
_chemical_formula_sum "Si O2"
_cell_formula_units_Z 56
_cell_length_a 7.286021
_cell_length_b 15.479684
_cell_length_c 21.444277
_cell_angle_alpha 90.000000
_cell_angle_beta 64.909399
_cell_angle_gamma 90.000000
_cell_volume 2190.376313
_symmetry_space_group_name_H-M "C 2/M"
_symmetry_group_IT_number 12
_symmetry_cell_setting 'monoclinic'
loop_
_space_group_symop_operation_xyz
x,y,z
-x,y,-z
-x,-y,-z
x,-y,z
1/2+x,1/2+y,z
1/2-x,1/2+y,-z
1/2-x,1/2-y,-z
1/2+x,1/2-y,z
loop_
_atom_site_type_symbol
_atom_site_label
_atom_site_fract_x
_atom_site_fract_y
_atom_site_fract_z
Si Si1 0.606321 0.342834 0.234504
Si Si2 0.033633 0.593664 0.207323
Si Si3 0.759742 0.842144 0.919673
Si Si4 0.699466 0.859719 0.058980
Si Si5 0.204188 0.590461 0.322653
Si Si6 0.447681 0.603335 0.580288
Si Si7 0.073682 0.266167 0.636033
O O1 0.840053 0.347299 0.219948
O O2 0.599558 0.348797 0.160934
O O3 0.446790 0.410258 0.284783
O O4 0.514767 0.261031 0.283639
O O5 0.934085 0.500000 0.214803
O O6 0.197960 0.601302 0.128132
O O7 0.133985 0.593954 0.260465
O O8 0.535883 0.869955 0.929228
O O9 0.748897 0.740219 0.935764
O O10 0.815159 0.885267 0.978271
O O11 0.129335 0.500000 0.361532
O O12 0.114033 0.677154 0.365666
O O13 0.500000 0.601185 0.500000
O O14 0.444404 0.500000 0.600294
O O15 0.236200 0.655914 0.617532
O O16 0.588624 0.677686 0.592789
#
# Coordination Sequence:
#
# PCOD9213941 Si02
#       7
#     8   8   8   8   8   8   8
#     4  11  23  38  64  95 133 173 229 286 346 421
#     4  10  22  39  60  88 129 178 229 292 359 411
#     4   9  19  32  53  83 111 160 216 282 346 403
#     4   9  18  34  52  78 112 158 222 282 343 416
#     4  11  24  41  64  98 138 179 229 290 347 414
#     4  11  26  49  77 110 147 188 236 287 345 422
#     4  12  23  45  72 104 143 188 231 285 351 421
#
# _framework density 25.566382000000001
#
# number of rings (size 3 to 8) (size 9 to 14) (size 15 to 20)
#    0.000    1.571    1.429    3.000    6.000    2.286 
#    0.000    6.429    0.000    4.714    0.000    0.000 
#    0.000    0.000    0.000    0.000    0.000    0.000 
#
# Total GULP energy -155987.424379 kJ/mol
# GULP energy per Si atom -5570.979442 kJ/mol
# Density = 2.550819 g / cm^3
# Si number density = 25.566382 Si / 1000 Ang^3
#
#
#
# Elastic Constant Matrix: (Units=GPa)
#
#
# Indices 1 2 3 4 5 6 
#
# 1 81.2141 11.5544 26.3222 0.0000 17.2953 0.0000
# 2 11.5544 166.1667 42.8640 0.0000 11.5323 0.0000
# 3 26.3222 42.8640 116.3635 0.0000 15.9280 0.0000
# 4 0.0000 0.0000 0.0000 27.6048 0.0000 0.4777
# 5 17.2953 11.5323 15.9280 0.0000 31.4214 0.0000
# 6 0.0000 0.0000 0.0000 0.4777 0.0000 11.5303
#
#
#
# Elastic Compliance Matrix: (Units=1/GPa)
#
#
# Indices 1 2 3 4 5 6 
#
# 1 0.014526 0.000077 -0.002381 0.000000 -0.006817 0.000000
# 2 0.000077 0.006699 -0.002303 0.000000 -0.001334 0.000000
# 3 -0.002381 -0.002303 0.010408 0.000000 -0.003120 0.000000
# 4 0.000000 0.000000 0.000000 0.036252 0.000000 -0.001502
# 5 -0.006817 -0.001334 -0.003120 0.000000 0.037649 0.000000
# 6 0.000000 0.000000 0.000000 -0.001502 0.000000 0.086791
#
#
# Mechanical properties :
#
#
# Convention : Reuss Voigt Hill
#
# Bulk Modulus (GPa) = 44.60410 58.35838 51.48124
# Shear Modulus (GPa) = 23.92235 32.97820 28.45028
#
# Velocity S-wave (km/s) = 3.06223 3.59542 3.33949
# Velocity P-wave (km/s) = 5.47607 6.33339 5.92027
#
# Compressibility (1/GPa) = 0.02241946
#
# Stress axis : x y z
#
# Youngs Moduli (GPa) = 68.84409 149.27056 96.08300
#
# Poissons Ratio (x) = -0.01154 0.22879
# Poissons Ratio (y) = -0.00532 0.22124
# Poissons Ratio (z) = 0.16393 0.34371
#
# Static dielectric constant tensor:
#      x y z
#    x 2.153360 0.000000 -0.003040 
#    y 0.000000 2.156050 0.000000 
#    z -0.003040 0.000000 2.038110 
# 
# From -- ./inp_files/332853.got.cif
#   From: 2010.05.17/outbox.cif.g08.bks.cpg/sg12_167_cif.got.tgz:332853.got - 2010.06.03 13:09:07.
