data_PCOD9213227
_publ_section_title
;
Structure prediction by ZEFSAII (Michael W. Deem and Ramdas Pophale) SiO2 
 PCOD9213227
Probable space group: C 2/M
;
_chemical_formula_sum "Si O2"
_cell_formula_units_Z 52
_cell_length_a 19.849652
_cell_length_b 26.752638
_cell_length_c 5.327030
_cell_angle_alpha 90.000000
_cell_angle_beta 58.318057
_cell_angle_gamma 90.000000
_cell_volume 2407.256164
_symmetry_space_group_name_H-M "C 2/M"
_symmetry_group_IT_number 12
_symmetry_cell_setting 'monoclinic'
loop_
_space_group_symop_operation_xyz
x,y,z
-x,y,-z
-x,-y,-z
x,-y,z
1/2+x,1/2+y,z
1/2-x,1/2+y,-z
1/2-x,1/2-y,-z
1/2+x,1/2-y,z
loop_
_atom_site_type_symbol
_atom_site_label
_atom_site_fract_x
_atom_site_fract_y
_atom_site_fract_z
Si Si1 0.208963 0.272250 0.827236
Si Si2 0.684269 0.939901 0.218286
Si Si3 0.592343 0.600474 0.898108
Si Si4 0.708267 0.632451 0.271206
Si Si5 0.447009 0.500000 0.848471
Si Si6 0.087871 0.199464 0.224801
Si Si7 0.412855 0.060212 0.096685
O O1 0.250000 0.250000 0.500000
O O2 0.219606 0.331663 0.786716
O O3 0.250000 0.250000 0.000000
O O4 0.121554 0.249749 0.035906
O O5 0.647846 0.927069 0.560411
O O6 0.702240 0.000000 0.175545
O O7 0.756289 0.902838 0.012875
O O8 0.621164 0.929749 0.114896
O O9 0.660135 0.597990 0.556731
O O10 0.500000 0.598880 0.000000
O O11 0.600414 0.551503 0.053470
O O12 0.597364 0.654736 0.008815
O O13 0.643323 0.675029 0.330573
O O14 0.500000 0.500000 0.500000
O O15 0.500000 0.500000 0.000000
O O16 0.000000 0.204400 0.500000
O O17 0.418777 0.000000 0.093923
O O18 0.500000 0.080176 0.000000
#
# Coordination Sequence:
#
# PCOD9213227 Si02
#       7
#     8   8   8   8   4   8   8
#     4  10  22  41  63  89 118 153 199 264 322 368
#     4  10  22  37  59  93 129 165 208 250 309 375
#     4  11  22  39  64  89 127 172 223 263 309 374
#     4  11  24  39  61  92 129 167 206 264 325 374
#     4  10  24  40  56  88 132 168 211 263 309 351
#     4  11  22  41  66  90 120 165 222 261 315 384
#     4   9  18  37  62  86 115 160 210 255 299 362
#
# _framework density 21.601358000000001
#
# number of rings (size 3 to 8) (size 9 to 14) (size 15 to 20)
#    0.000    1.692    3.077    0.923    5.385    1.846 
#    1.385    1.538    0.000    0.923    0.000    0.000 
#    0.000    0.000    0.000    0.000    0.000    0.000 
#
# Total GULP energy -144948.597911 kJ/mol
# GULP energy per Si atom -5574.946073 kJ/mol
# Density = 2.155219 g / cm^3
# Si number density = 21.601358 Si / 1000 Ang^3
#
#
#
# Elastic Constant Matrix: (Units=GPa)
#
#
# Indices 1 2 3 4 5 6 
#
# 1 55.2187 19.1846 15.1940 0.0000 -5.5969 0.0000
# 2 19.1846 75.6469 17.2244 0.0000 -16.7023 0.0000
# 3 15.1940 17.2244 98.5117 0.0000 -7.3734 0.0000
# 4 0.0000 0.0000 0.0000 37.3163 0.0000 -18.3197
# 5 -5.5969 -16.7023 -7.3734 0.0000 41.3361 0.0000
# 6 0.0000 0.0000 0.0000 -18.3197 0.0000 41.4653
#
#
#
# Elastic Compliance Matrix: (Units=1/GPa)
#
#
# Indices 1 2 3 4 5 6 
#
# 1 0.020371 -0.004526 -0.002312 0.000000 0.000517 0.000000
# 2 -0.004526 0.015973 -0.001680 0.000000 0.005542 0.000000
# 3 -0.002312 -0.001680 0.010872 0.000000 0.000947 0.000000
# 4 0.000000 0.000000 0.000000 0.034220 0.000000 0.015119
# 5 0.000517 0.005542 0.000947 0.000000 0.026670 0.000000
# 6 0.000000 0.000000 0.000000 0.015119 0.000000 0.030796
#
#
# Mechanical properties :
#
#
# Convention : Reuss Voigt Hill
#
# Bulk Modulus (GPa) = 33.13329 36.95370 35.04349
# Shear Modulus (GPa) = 30.12087 35.87516 32.99801
#
# Velocity S-wave (km/s) = 3.73821 4.07969 3.91268
# Velocity P-wave (km/s) = 5.83131 6.27185 6.05559
#
# Compressibility (1/GPa) = 0.03018113
#
# Stress axis : x y z
#
# Youngs Moduli (GPa) = 49.09012 62.60518 91.97662
#
# Poissons Ratio (x) = 0.28332 0.21264
# Poissons Ratio (y) = 0.22216 0.15453
# Poissons Ratio (z) = 0.11349 0.10518
#
# Static dielectric constant tensor:
#      x y z
#    x 1.964730 0.000000 -0.011310 
#    y 0.000000 1.801720 0.000000 
#    z -0.011310 0.000000 1.792140 
# 
# From -- ./inp_files/22493.got.cif
#   From: 2010.05.17/outbox.cif.g08.bks.cpg/sg12_12_cif.got.tgz:22493.got - 2010.06.03 13:09:07.
