data_PCOD9213822
_publ_section_title
;
Structure prediction by ZEFSAII (Michael W. Deem and Ramdas Pophale) SiO2 
 PCOD9213822
Probable space group: C 2/M
;
_chemical_formula_sum "Si O2"
_cell_formula_units_Z 48
_cell_length_a 13.934116
_cell_length_b 7.542436
_cell_length_c 18.850835
_cell_angle_alpha 90.000000
_cell_angle_beta 112.556683
_cell_angle_gamma 90.000000
_cell_volume 1829.611063
_symmetry_space_group_name_H-M "C 2/M"
_symmetry_group_IT_number 12
_symmetry_cell_setting 'monoclinic'
loop_
_space_group_symop_operation_xyz
x,y,z
-x,y,-z
-x,-y,-z
x,-y,z
1/2+x,1/2+y,z
1/2-x,1/2+y,-z
1/2-x,1/2-y,-z
1/2+x,1/2-y,z
loop_
_atom_site_type_symbol
_atom_site_label
_atom_site_fract_x
_atom_site_fract_y
_atom_site_fract_z
Si Si1 0.900258 0.714168 0.019802
Si Si2 0.286858 0.708339 0.855716
Si Si3 0.481941 0.200108 0.817934
Si Si4 0.836588 0.792264 0.650365
Si Si5 0.145477 0.715180 0.693377
Si Si6 0.947883 0.798921 0.554199
O O1 0.899287 0.500000 0.023294
O O2 0.802385 0.769338 0.944075
O O3 0.928698 0.781264 0.106498
O O4 0.000000 0.769486 0.000000
O O5 0.300216 0.500000 0.843837
O O6 0.382489 0.803739 0.843336
O O7 0.183969 0.761699 0.783507
O O8 0.432074 0.276742 0.732960
O O9 0.514364 0.000000 0.809397
O O10 0.736906 0.727540 0.665175
O O11 0.860153 0.713563 0.579440
O O12 0.819538 0.000000 0.633466
O O13 0.133648 0.500000 0.686093
O O14 0.042739 0.803835 0.636279
O O15 0.000000 0.711700 0.500000
O O16 0.916858 0.000000 0.524826
#
# Coordination Sequence:
#
# PCOD9213822 Si02
#       6
#     8   8   8   8   8   8
#     4   8  14  23  37  64 101 135 172 218 258 296
#     4   9  16  26  43  69 102 139 176 214 257 305
#     4   9  16  26  43  70 102 136 176 218 257 301
#     4   9  19  36  55  77 108 141 173 214 263 313
#     4   9  19  35  54  78 108 140 174 214 259 308
#     4  10  22  39  58  81 107 135 170 214 265 320
#
# _framework density 26.235084000000001
#
# number of rings (size 3 to 8) (size 9 to 14) (size 15 to 20)
#    0.000    3.000    0.000    3.000    0.000    8.667 
#    0.000    0.000    0.000    1.000    0.000    0.000 
#    0.000    0.000    0.000    0.000    0.000    0.000 
#
# Total GULP energy -134017.102773 kJ/mol
# GULP energy per Si atom -5584.045949 kJ/mol
# Density = 2.617537 g / cm^3
# Si number density = 26.235084 Si / 1000 Ang^3
#
#
#
# Elastic Constant Matrix: (Units=GPa)
#
#
# Indices 1 2 3 4 5 6 
#
# 1 65.9967 0.7881 41.0442 0.0000 -25.4586 0.0000
# 2 0.7881 71.6959 -2.0933 0.0000 -3.7044 0.0000
# 3 41.0442 -2.0933 88.4020 0.0000 -22.4667 0.0000
# 4 0.0000 0.0000 0.0000 9.3998 0.0000 11.9202
# 5 -25.4586 -3.7044 -22.4667 0.0000 62.9985 0.0000
# 6 0.0000 0.0000 0.0000 11.9202 0.0000 -16.7022
#
#
#
# Elastic Compliance Matrix: (Units=1/GPa)
#
#
# Indices 1 2 3 4 5 6 
#
# 1 0.023260 -0.000212 -0.009258 0.000000 0.006086 0.000000
# 2 -0.000212 0.014021 0.000680 0.000000 0.000981 0.000000
# 3 -0.009258 0.000680 0.016149 0.000000 0.002058 0.000000
# 4 0.000000 0.000000 0.000000 0.055844 0.000000 0.039855
# 5 0.006086 0.000981 0.002058 0.000000 0.019124 0.000000
# 6 0.000000 0.000000 0.000000 0.039855 0.000000 -0.031428
#
#
# Mechanical properties :
#
#
# Convention : Reuss Voigt Hill
#
# Bulk Modulus (GPa) = 27.89354 33.95252 30.92303
# Shear Modulus (GPa) = 39.52587 23.56292 31.54440
#
# Velocity S-wave (km/s) = 3.88571 3.00016 3.47129
# Velocity P-wave (km/s) = 5.54859 4.99710 5.28005
#
# Compressibility (1/GPa) = 0.03585059
#
# Stress axis : x y z
#
# Youngs Moduli (GPa) = 42.99249 71.32331 61.92202
#
# Poissons Ratio (x) = 0.01509 0.57326
# Poissons Ratio (y) = 0.00910 -0.04208
# Poissons Ratio (z) = 0.39801 -0.04847
#
# Static dielectric constant tensor:
#      x y z
#    x 2.166920 0.000000 -0.039670 
#    y 0.000000 2.013580 0.000000 
#    z -0.039670 0.000000 2.067480 
# 
# From -- ./inp_files/313368.got.cif
#   From: 2010.05.17/outbox.cif.g08.bks.cpg/sg12_157_cif.got.tgz:313368.got - 2010.06.03 13:09:07.
