data_PCOD9213599
_publ_section_title
;
Structure prediction by ZEFSAII (Michael W. Deem and Ramdas Pophale) SiO2 
 PCOD9213599
Probable space group: C 2/M
;
_chemical_formula_sum "Si O2"
_cell_formula_units_Z 58
_cell_length_a 17.062549
_cell_length_b 17.235085
_cell_length_c 16.135955
_cell_angle_alpha 90.000000
_cell_angle_beta 31.129457
_cell_angle_gamma 90.000000
_cell_volume 2453.128428
_symmetry_space_group_name_H-M "C 2/M"
_symmetry_group_IT_number 12
_symmetry_cell_setting 'monoclinic'
loop_
_space_group_symop_operation_xyz
x,y,z
-x,y,-z
-x,-y,-z
x,-y,z
1/2+x,1/2+y,z
1/2-x,1/2+y,-z
1/2-x,1/2-y,-z
1/2+x,1/2-y,z
loop_
_atom_site_type_symbol
_atom_site_label
_atom_site_fract_x
_atom_site_fract_y
_atom_site_fract_z
Si Si1 0.713000 0.677444 0.977034
Si Si2 0.324163 0.092516 0.181443
Si Si3 0.500000 0.000000 0.500000
Si Si4 0.113236 0.091147 0.220279
Si Si5 0.661805 0.725878 0.396783
Si Si6 0.082369 0.154910 0.846966
Si Si7 0.189566 0.090404 0.574418
Si Si8 0.473317 0.136920 0.383218
O O1 0.854826 0.654235 0.793961
O O2 0.750000 0.750000 0.000000
O O3 0.684773 0.606773 0.066029
O O4 0.560368 0.696795 0.066093
O O5 0.221493 0.119292 0.195552
O O6 0.257323 0.146658 0.314038
O O7 0.304237 0.000000 0.215038
O O8 0.500000 0.105109 0.000000
O O9 0.473671 0.069452 0.452707
O O10 0.944585 0.126068 0.360311
O O11 0.101615 0.000000 0.246753
O O12 0.500000 0.709790 0.500000
O O13 0.786574 0.785787 0.243426
O O14 0.605801 0.782265 0.520054
O O15 0.148174 0.105702 0.709932
O O16 0.000000 0.113432 0.000000
O O17 0.364363 0.112148 0.406575
O O18 0.178697 0.000000 0.570786
#
# Coordination Sequence:
#
# PCOD9213599 Si02
#       8
#     8   8   2   8   8   8   8   8
#     4  11  26  42  66  96 132 181 233 276 344 413
#     4  10  23  44  74 102 130 174 233 296 356 415
#     4  12  24  40  72 110 150 180 240 290 356 428
#     4   9  21  42  65  94 132 171 221 283 337 415
#     4  11  23  40  66  98 138 170 222 287 355 408
#     4  10  22  38  61  93 132 172 225 276 330 407
#     4   9  19  39  60  92 135 176 216 272 345 412
#     4  11  24  41  66 102 139 186 228 287 350 419
#
# _framework density 23.643279
#
# number of rings (size 3 to 8) (size 9 to 14) (size 15 to 20)
#    0.000    1.793    1.379    1.241    8.690    0.552 
#    2.483    2.069    0.000    4.966    0.000    0.000 
#    0.000    0.000    0.000    0.000    0.000    0.000 
#
# Total GULP energy -161442.981183 kJ/mol
# GULP energy per Si atom -5566.999351 kJ/mol
# Density = 2.358947 g / cm^3
# Si number density = 23.643279 Si / 1000 Ang^3
#
#
#
# Elastic Constant Matrix: (Units=GPa)
#
#
# Indices 1 2 3 4 5 6 
#
# 1 106.1101 33.1866 45.3462 -0.0003 -29.7826 0.0004
# 2 33.1866 106.3328 46.4507 0.0012 -11.6488 -0.0003
# 3 45.3462 46.4507 133.8040 0.0019 -29.7147 -0.0002
# 4 -0.0003 0.0012 0.0019 15.8183 -0.0001 2.9948
# 5 -29.7826 -11.6488 -29.7147 -0.0001 38.8034 -0.0003
# 6 0.0004 -0.0003 -0.0002 2.9948 -0.0003 19.9488
#
#
#
# Elastic Compliance Matrix: (Units=1/GPa)
#
#
# Indices 1 2 3 4 5 6 
#
# 1 0.013226 -0.002439 -0.001860 0.000001 0.007995 0.000000
# 2 -0.002439 0.011542 -0.003406 -0.000001 -0.001015 0.000000
# 3 -0.001860 -0.003406 0.010534 -0.000001 0.005616 0.000000
# 4 0.000001 -0.000001 -0.000001 0.065067 0.000000 -0.009768
# 5 0.007995 -0.001015 0.005616 0.000000 0.035903 0.000000
# 6 0.000000 0.000000 0.000000 -0.009768 0.000000 0.051595
#
#
# Mechanical properties :
#
#
# Convention : Reuss Voigt Hill
#
# Bulk Modulus (GPa) = 50.27304 66.24599 58.25952
# Shear Modulus (GPa) = 23.82001 29.66498 26.74250
#
# Velocity S-wave (km/s) = 3.17752 3.54600 3.36681
# Velocity P-wave (km/s) = 5.89673 6.69666 6.30939
#
# Compressibility (1/GPa) = 0.01989138
#
# Stress axis : x y z
#
# Youngs Moduli (GPa) = 75.60930 86.63758 94.93484
#
# Poissons Ratio (x) = 0.21135 0.17658
# Poissons Ratio (y) = 0.18445 0.32332
# Poissons Ratio (z) = 0.14063 0.29506
#
# Static dielectric constant tensor:
#      x y z
#    x 2.045910 0.000000 -0.033760 
#    y 0.000000 1.899700 0.000000 
#    z -0.033760 0.000000 2.066720 
# 
# From -- ./inp_files/278804.got.cif
#   From: 2010.05.17/outbox.cif.g08.bks.cpg/sg12_140_cif.got.tgz:278804.got - 2010.06.03 13:09:07.
