data_PCOD9213826
_publ_section_title
;
Structure prediction by ZEFSAII (Michael W. Deem and Ramdas Pophale) SiO2 
 PCOD9213826
Probable space group: C 2/M
;
_chemical_formula_sum "Si O2"
_cell_formula_units_Z 64
_cell_length_a 11.626660
_cell_length_b 14.848856
_cell_length_c 18.146861
_cell_angle_alpha 90.000000
_cell_angle_beta 100.840747
_cell_angle_gamma 90.000000
_cell_volume 3077.010347
_symmetry_space_group_name_H-M "C 2/M"
_symmetry_group_IT_number 12
_symmetry_cell_setting 'monoclinic'
loop_
_space_group_symop_operation_xyz
x,y,z
-x,y,-z
-x,-y,-z
x,-y,z
1/2+x,1/2+y,z
1/2-x,1/2+y,-z
1/2-x,1/2-y,-z
1/2+x,1/2-y,z
loop_
_atom_site_type_symbol
_atom_site_label
_atom_site_fract_x
_atom_site_fract_y
_atom_site_fract_z
Si Si1 0.270594 0.397662 0.444455
Si Si2 0.914579 0.832585 0.715392
Si Si3 0.842201 0.896734 0.296826
Si Si4 0.790886 0.606998 0.407247
Si Si5 0.785984 0.256008 0.824394
Si Si6 0.980989 0.651705 0.640805
Si Si7 0.098422 0.598748 0.806845
Si Si8 0.416891 0.101208 0.919532
O O1 0.313692 0.500000 0.458645
O O2 0.338956 0.362834 0.381220
O O3 0.271067 0.356769 0.525977
O O4 0.134620 0.395494 0.403763
O O5 0.796321 0.877137 0.671135
O O6 0.890643 0.794975 0.794023
O O7 0.027810 0.894067 0.720295
O O8 0.942225 0.748553 0.665619
O O9 0.764851 0.828425 0.240288
O O10 0.797551 0.000000 0.290313
O O11 0.811164 0.500000 0.418662
O O12 0.915225 0.651496 0.405826
O O13 0.687603 0.181221 0.827199
O O14 0.828038 0.316390 0.897621
O O15 0.036491 0.605591 0.719913
O O16 0.156214 0.500000 0.819636
O O17 0.999096 0.603412 0.857198
O O18 0.363402 0.000000 0.916860
O O19 0.500000 0.112006 0.000000
#
# Coordination Sequence:
#
# PCOD9213826 Si02
#       8
#     8   8   8   8   8   8   8   8
#     4  10  22  39  58  81 113 157 209 265 318 370
#     4  12  23  38  56  87 120 154 202 260 302 365
#     4  11  22  39  60  86 119 161 205 255 313 367
#     4  11  24  41  58  81 114 160 210 258 316 370
#     4  12  21  41  63  92 122 160 206 246 293 360
#     4  12  21  38  60  85 116 150 208 261 302 359
#     4  11  22  38  64  92 121 160 202 247 298 354
#     4  10  22  41  66  98 130 158 192 240 296 354
#
# _framework density 20.799409000000001
#
# number of rings (size 3 to 8) (size 9 to 14) (size 15 to 20)
#    0.000    0.875    5.000    2.250    0.000    5.000 
#    2.250    1.875    0.000    0.375    0.000    0.000 
#    0.000    0.000    0.000    0.000    0.000    0.000 
#
# Total GULP energy -178834.348360 kJ/mol
# GULP energy per Si atom -5588.573386 kJ/mol
# Density = 2.075207 g / cm^3
# Si number density = 20.799409 Si / 1000 Ang^3
#
#
#
# Elastic Constant Matrix: (Units=GPa)
#
#
# Indices 1 2 3 4 5 6 
#
# 1 55.7395 5.9033 -4.7933 0.0000 -4.1240 0.0000
# 2 5.9033 101.0134 4.6901 0.0000 8.5692 0.0000
# 3 -4.7933 4.6901 41.9041 0.0000 16.7379 0.0000
# 4 0.0000 0.0000 0.0000 14.0200 0.0000 13.3065
# 5 -4.1240 8.5692 16.7379 0.0000 17.5784 0.0000
# 6 0.0000 0.0000 0.0000 13.3065 0.0000 14.6334
#
#
#
# Elastic Compliance Matrix: (Units=1/GPa)
#
#
# Indices 1 2 3 4 5 6 
#
# 1 0.018480 -0.001495 0.000417 0.000000 0.004668 0.000000
# 2 -0.001495 0.010497 0.001353 0.000000 -0.006756 0.000000
# 3 0.000417 0.001353 0.038706 0.000000 -0.037416 0.000000
# 4 0.000000 0.000000 0.000000 0.520802 0.000000 -0.473577
# 5 0.004668 -0.006756 -0.037416 0.000000 0.096904 0.000000
# 6 0.000000 0.000000 0.000000 -0.473577 0.000000 0.498971
#
#
# Mechanical properties :
#
#
# Convention : Reuss Voigt Hill
#
# Bulk Modulus (GPa) = 14.65597 23.36193 19.00895
# Shear Modulus (GPa) = 4.14403 22.10349 13.12376
#
# Velocity S-wave (km/s) = 1.41305 3.26344 2.51463
# Velocity P-wave (km/s) = 3.11832 5.04544 4.19407
#
# Compressibility (1/GPa) = 0.06823158
#
# Stress axis : x y z
#
# Youngs Moduli (GPa) = 54.11212 95.26165 25.83604
#
# Poissons Ratio (x) = 0.14245 -0.01077
# Poissons Ratio (y) = 0.08091 -0.03495
# Poissons Ratio (z) = -0.02256 -0.12886
#
# Static dielectric constant tensor:
#      x y z
#    x 1.744080 0.000000 -0.016940 
#    y 0.000000 1.792000 0.000000 
#    z -0.016940 0.000000 1.734340 
# 
# From -- ./inp_files/263349.got.cif
#   From: 2010.05.17/outbox.cif.g08.bks.cpg/sg12_132_cif.got.tgz:263349.got - 2010.06.03 13:09:07.
