data_PCOD9213431
_publ_section_title
;
Structure prediction by ZEFSAII (Michael W. Deem and Ramdas Pophale) SiO2 
 PCOD9213431
Probable space group: C 2/M
;
_chemical_formula_sum "Si O2"
_cell_formula_units_Z 48
_cell_length_a 19.360134
_cell_length_b 19.184274
_cell_length_c 12.411879
_cell_angle_alpha 90.000000
_cell_angle_beta 147.120825
_cell_angle_gamma 90.000000
_cell_volume 2502.571512
_symmetry_space_group_name_H-M "C 2/M"
_symmetry_group_IT_number 12
_symmetry_cell_setting 'monoclinic'
loop_
_space_group_symop_operation_xyz
x,y,z
-x,y,-z
-x,-y,-z
x,-y,z
1/2+x,1/2+y,z
1/2-x,1/2+y,-z
1/2-x,1/2-y,-z
1/2+x,1/2-y,z
loop_
_atom_site_type_symbol
_atom_site_label
_atom_site_fract_x
_atom_site_fract_y
_atom_site_fract_z
Si Si1 0.294055 0.080558 0.737829
Si Si2 0.137769 0.662835 0.382616
Si Si3 0.740195 0.583826 0.899862
Si Si4 0.501462 0.580686 0.717128
Si Si5 0.435529 0.307059 0.799644
Si Si6 0.477753 0.916510 0.349582
O O1 0.360064 0.123719 0.729957
O O2 0.299441 0.110825 0.865674
O O3 0.142923 0.080940 0.514296
O O4 0.338218 0.000000 0.792388
O O5 0.284800 0.675100 0.609165
O O6 0.066201 0.735730 0.270746
O O7 0.071611 0.617674 0.387132
O O8 0.734540 0.500000 0.875309
O O9 0.599755 0.604645 0.753568
O O10 0.835806 0.598470 0.122235
O O11 0.533423 0.500000 0.786798
O O12 0.503345 0.631492 0.821595
O O13 0.500000 0.298419 0.000000
O O14 0.500000 0.892007 0.500000
O O15 0.495271 0.000000 0.369741
#
# Coordination Sequence:
#
# PCOD9213431 Si02
#       6
#     8   8   8   8   8   8
#     4   9  17  32  59  89 112 142 183 230 281 328
#     4  10  22  40  57  81 116 147 186 232 276 330
#     4   9  18  32  55  87 115 143 180 226 282 332
#     4   9  18  35  57  85 115 142 183 235 281 331
#     4  10  23  39  58  82 109 150 190 229 282 329
#     4  10  22  38  58  84 115 151 187 228 277 330
#
# _framework density 19.180271999999999
#
# number of rings (size 3 to 8) (size 9 to 14) (size 15 to 20)
#    0.000    2.500    0.000    1.000    4.667    3.000 
#    0.000    8.333    0.000    0.000    0.000    0.000 
#    0.000    0.000    0.000    0.000    0.000    0.000 
#
# Total GULP energy -133912.135937 kJ/mol
# GULP energy per Si atom -5579.672331 kJ/mol
# Density = 1.913662 g / cm^3
# Si number density = 19.180272 Si / 1000 Ang^3
#
#
#
# Elastic Constant Matrix: (Units=GPa)
#
#
# Indices 1 2 3 4 5 6 
#
# 1 119.5464 40.3193 38.9442 0.0000 -15.0345 0.0000
# 2 40.3193 53.6663 24.8390 0.0000 -5.9330 0.0000
# 3 38.9442 24.8390 59.0401 0.0000 -25.4297 0.0000
# 4 0.0000 0.0000 0.0000 7.7517 0.0000 12.4754
# 5 -15.0345 -5.9330 -25.4297 0.0000 28.3350 0.0000
# 6 0.0000 0.0000 0.0000 12.4754 0.0000 -8.3759
#
#
#
# Elastic Compliance Matrix: (Units=1/GPa)
#
#
# Indices 1 2 3 4 5 6 
#
# 1 0.012414 -0.006949 -0.004980 0.000000 0.000663 0.000000
# 2 -0.006949 0.027750 -0.010069 0.000000 -0.006913 0.000000
# 3 -0.004980 -0.010069 0.036535 0.000000 0.028039 0.000000
# 4 0.000000 0.000000 0.000000 0.037975 0.000000 0.056562
# 5 0.000663 -0.006913 0.028039 0.000000 0.059360 0.000000
# 6 0.000000 0.000000 0.000000 0.056562 0.000000 -0.035145
#
#
# Mechanical properties :
#
#
# Convention : Reuss Voigt Hill
#
# Bulk Modulus (GPa) = 30.57643 48.93975 39.75809
# Shear Modulus (GPa) = 25.80171 14.08551 19.94361
#
# Velocity S-wave (km/s) = 3.67171 2.71288 3.22809
# Velocity P-wave (km/s) = 5.82679 5.94844 5.88793
#
# Compressibility (1/GPa) = 0.03270493
#
# Stress axis : x y z
#
# Youngs Moduli (GPa) = 80.55374 36.03585 27.37080
#
# Poissons Ratio (x) = 0.25040 0.13630
# Poissons Ratio (y) = 0.55973 0.27560
# Poissons Ratio (z) = 0.40114 0.36284
#
# Static dielectric constant tensor:
#      x y z
#    x 1.652910 0.000000 0.005170 
#    y 0.000000 1.664030 0.000000 
#    z 0.005170 0.000000 1.678780 
# 
# From -- ./inp_files/147269.got.cif
#   From: 2010.05.17/outbox.cif.g08.bks.cpg/sg12_74_cif.got.tgz:147269.got - 2010.06.03 13:09:07.
