data_PCOD9213307
_publ_section_title
;
Structure prediction by ZEFSAII (Michael W. Deem and Ramdas Pophale) SiO2 
 PCOD9213307
Probable space group: C 2/M
;
_chemical_formula_sum "Si O2"
_cell_formula_units_Z 56
_cell_length_a 8.159307
_cell_length_b 29.589069
_cell_length_c 14.020337
_cell_angle_alpha 90.000000
_cell_angle_beta 124.551221
_cell_angle_gamma 90.000000
_cell_volume 2787.851593
_symmetry_space_group_name_H-M "C 2/M"
_symmetry_group_IT_number 12
_symmetry_cell_setting 'monoclinic'
loop_
_space_group_symop_operation_xyz
x,y,z
-x,y,-z
-x,-y,-z
x,-y,z
1/2+x,1/2+y,z
1/2-x,1/2+y,-z
1/2-x,1/2-y,-z
1/2+x,1/2-y,z
loop_
_atom_site_type_symbol
_atom_site_label
_atom_site_fract_x
_atom_site_fract_y
_atom_site_fract_z
Si Si1 0.526956 0.500000 0.173764
Si Si2 0.733182 0.658233 0.050745
Si Si3 0.148985 0.553125 0.459454
Si Si4 0.926817 0.179149 0.194814
Si Si5 0.050973 0.586409 0.221194
Si Si6 0.340276 0.745569 0.867688
Si Si7 0.175629 0.500000 0.906934
Si Si8 0.504162 0.587539 0.304250
O O1 0.704207 0.500000 0.154421
O O2 0.531997 0.545461 0.239851
O O3 0.330051 0.500000 0.044173
O O4 0.775948 0.707945 0.106938
O O5 0.896395 0.625709 0.147129
O O6 0.500000 0.646862 0.000000
O O7 0.721889 0.657888 0.933174
O O8 0.180295 0.500000 0.448765
O O9 0.060388 0.576164 0.336803
O O10 0.354116 0.575402 0.560969
O O11 0.000000 0.556355 0.500000
O O12 0.789673 0.212634 0.211618
O O13 0.048325 0.137438 0.277283
O O14 0.063915 0.214392 0.181873
O O15 0.275407 0.592240 0.259951
O O16 0.961527 0.543417 0.137805
O O17 0.500000 0.761252 0.000000
#
# Coordination Sequence:
#
# PCOD9213307 Si02
#       8
#     4   8   8   8   8   8   4   8
#     4  11  25  42  61  90 148 169 219 256 327 400
#     4   9  21  37  63  95 135 170 214 263 322 398
#     4  11  25  46  71  90 121 174 232 273 325 389
#     4  10  22  37  64  99 134 176 212 265 330 388
#     4  12  25  40  66  96 128 171 220 272 322 384
#     4   9  19  36  60  90 133 171 216 259 313 395
#     4  11  25  38  63  90 129 188 205 262 323 393
#     4  12  26  41  66  98 134 168 221 278 327 384
#
# _framework density 20.087150999999999
#
# number of rings (size 3 to 8) (size 9 to 14) (size 15 to 20)
#    0.000    1.714    1.429    4.286   14.000    2.857 
#    0.000    0.000    0.000    0.857    0.000    0.000 
#    0.000    0.000    0.000    0.000    0.000    0.000 
#
# Total GULP energy -156380.027976 kJ/mol
# GULP energy per Si atom -5585.000999 kJ/mol
# Density = 2.004143 g / cm^3
# Si number density = 20.087151 Si / 1000 Ang^3
#
#
#
# Elastic Constant Matrix: (Units=GPa)
#
#
# Indices 1 2 3 4 5 6 
#
# 1 51.3182 24.3173 14.6696 0.0000 10.0439 0.0000
# 2 24.3173 100.2859 38.1969 0.0000 11.9476 0.0000
# 3 14.6696 38.1969 87.9987 0.0000 12.6418 0.0000
# 4 0.0000 0.0000 0.0000 54.3692 0.0000 43.5600
# 5 10.0439 11.9476 12.6418 0.0000 27.5876 0.0000
# 6 0.0000 0.0000 0.0000 43.5600 0.0000 78.7360
#
#
#
# Elastic Compliance Matrix: (Units=1/GPa)
#
#
# Indices 1 2 3 4 5 6 
#
# 1 0.023081 -0.004488 -0.001040 0.000000 -0.005983 0.000000
# 2 -0.004488 0.013055 -0.004647 0.000000 -0.001890 0.000000
# 3 -0.001040 -0.004647 0.014142 0.000000 -0.004089 0.000000
# 4 0.000000 0.000000 0.000000 0.033036 0.000000 -0.018277
# 5 -0.005983 -0.001890 -0.004089 0.000000 0.041119 0.000000
# 6 0.000000 0.000000 0.000000 -0.018277 0.000000 0.022812
#
#
# Mechanical properties :
#
#
# Convention : Reuss Voigt Hill
#
# Bulk Modulus (GPa) = 33.41363 43.77450 38.59406
# Shear Modulus (GPa) = 28.15782 42.96648 35.56215
#
# Velocity S-wave (km/s) = 3.74810 4.62995 4.21217
# Velocity P-wave (km/s) = 5.94991 7.10081 6.55069
#
# Compressibility (1/GPa) = 0.02992791
#
# Stress axis : x y z
#
# Youngs Moduli (GPa) = 43.32549 76.60007 70.71292
#
# Poissons Ratio (x) = 0.34376 0.07356
# Poissons Ratio (y) = 0.19443 0.32860
# Poissons Ratio (z) = 0.04507 0.35595
#
# Static dielectric constant tensor:
#      x y z
#    x 1.809130 0.000000 -0.007270 
#    y 0.000000 1.753700 0.000000 
#    z -0.007270 0.000000 1.665690 
# 
# From -- ./inp_files/201032.got.cif
#   From: 2010.05.17/outbox.cif.g08.bks.cpg/sg12_101_cif.got.tgz:201032.got - 2010.06.03 13:09:07.
