data_PCOD9213885
_publ_section_title
;
Structure prediction by ZEFSAII (Michael W. Deem and Ramdas Pophale) SiO2 
 PCOD9213885
Probable space group: C 2/M
;
_chemical_formula_sum "Si O2"
_cell_formula_units_Z 48
_cell_length_a 10.578293
_cell_length_b 13.715120
_cell_length_c 29.522009
_cell_angle_alpha 90.000000
_cell_angle_beta 144.067516
_cell_angle_gamma 90.000000
_cell_volume 2513.474845
_symmetry_space_group_name_H-M "C 2/M"
_symmetry_group_IT_number 12
_symmetry_cell_setting 'monoclinic'
loop_
_space_group_symop_operation_xyz
x,y,z
-x,y,-z
-x,-y,-z
x,-y,z
1/2+x,1/2+y,z
1/2-x,1/2+y,-z
1/2-x,1/2-y,-z
1/2+x,1/2-y,z
loop_
_atom_site_type_symbol
_atom_site_label
_atom_site_fract_x
_atom_site_fract_y
_atom_site_fract_z
Si Si1 0.463485 0.385656 0.936225
Si Si2 0.491178 0.259403 0.551252
Si Si3 0.568232 0.747673 0.809086
Si Si4 0.250516 0.885665 0.937843
Si Si5 0.865821 0.886614 0.674614
Si Si6 0.323775 0.387841 0.319125
O O1 0.400900 0.500000 0.913162
O O2 0.279386 0.314334 0.864449
O O3 0.678585 0.371356 0.968865
O O4 0.500000 0.367733 0.000000
O O5 0.500000 0.273586 0.500000
O O6 0.633056 0.164013 0.604552
O O7 0.604971 0.346801 0.611654
O O8 0.250000 0.250000 0.500000
O O9 0.607682 0.682232 0.864622
O O10 0.512433 0.675022 0.751794
O O11 0.367415 0.820494 0.754796
O O12 0.214722 0.000000 0.916645
O O13 0.500000 0.864941 0.000000
O O14 0.976830 0.880258 0.657638
O O15 0.854451 0.000000 0.684430
O O16 0.255898 0.500000 0.301662
#
# Coordination Sequence:
#
# PCOD9213885 Si02
#       6
#     8   8   8   8   8   8
#     4  10  22  39  59  86 119 156 198 247 303 353
#     4  11  22  40  66  93 121 154 196 243 291 346
#     4  11  21  36  61  87 119 154 199 248 295 346
#     4  10  22  39  59  86 118 155 201 250 297 350
#     4  10  22  39  61  89 121 159 196 236 293 355
#     4  10  22  39  60  89 123 157 195 239 293 354
#
# _framework density 19.097066999999999
#
# number of rings (size 3 to 8) (size 9 to 14) (size 15 to 20)
#    0.000    1.667    1.667    2.500    0.000    5.333 
#    0.000    3.333    0.000    0.000    0.000    0.000 
#    0.000    0.000    0.000    0.000    0.000    0.000 
#
# Total GULP energy -134057.572143 kJ/mol
# GULP energy per Si atom -5585.732173 kJ/mol
# Density = 1.905360 g / cm^3
# Si number density = 19.097067 Si / 1000 Ang^3
#
#
#
# Elastic Constant Matrix: (Units=GPa)
#
#
# Indices 1 2 3 4 5 6 
#
# 1 133.8294 58.1146 67.2778 0.0000 -1.5614 0.0000
# 2 58.1146 152.9926 69.4819 0.0000 -2.8274 0.0000
# 3 67.2778 69.4819 117.5300 0.0000 -2.6860 0.0000
# 4 0.0000 0.0000 0.0000 18.2467 0.0000 0.9827
# 5 -1.5614 -2.8274 -2.6860 0.0000 32.8502 0.0000
# 6 0.0000 0.0000 0.0000 0.9827 0.0000 16.5422
#
#
#
# Elastic Compliance Matrix: (Units=1/GPa)
#
#
# Indices 1 2 3 4 5 6 
#
# 1 0.010833 -0.001776 -0.005153 0.000000 -0.000059 0.000000
# 2 -0.001776 0.009230 -0.004432 0.000000 0.000348 0.000000
# 3 -0.005153 -0.004432 0.014090 0.000000 0.000526 0.000000
# 4 0.000000 0.000000 0.000000 0.054980 0.000000 -0.003266
# 5 -0.000059 0.000348 0.000526 0.000000 0.030511 0.000000
# 6 0.000000 0.000000 0.000000 -0.003266 0.000000 0.060646
#
#
# Mechanical properties :
#
#
# Convention : Reuss Voigt Hill
#
# Bulk Modulus (GPa) = 87.47421 88.23339 87.85380
# Shear Modulus (GPa) = 24.17531 27.49299 25.83415
#
# Velocity S-wave (km/s) = 3.56183 3.79838 3.68201
# Velocity P-wave (km/s) = 7.92591 8.09567 8.01124
#
# Compressibility (1/GPa) = 0.01143194
#
# Stress axis : x y z
#
# Youngs Moduli (GPa) = 92.31075 108.34021 70.97131
#
# Poissons Ratio (x) = 0.19241 0.36568
# Poissons Ratio (y) = 0.16394 0.31456
# Poissons Ratio (z) = 0.47564 0.48018
#
# Static dielectric constant tensor:
#      x y z
#    x 1.653440 0.000000 0.002880 
#    y 0.000000 1.663300 0.000000 
#    z 0.002880 0.000000 1.642480 
# 
# From -- ./inp_files/251415.got.cif
#   From: 2010.05.17/outbox.cif.g08.bks.cpg/sg12_126_cif.got.tgz:251415.got - 2010.06.03 13:09:07.
