data_PCOD9213553
_publ_section_title
;
Structure prediction by ZEFSAII (Michael W. Deem and Ramdas Pophale) SiO2 
 PCOD9213553
Probable space group: C 2/M
;
_chemical_formula_sum "Si O2"
_cell_formula_units_Z 56
_cell_length_a 26.560758
_cell_length_b 17.119142
_cell_length_c 9.804224
_cell_angle_alpha 90.000000
_cell_angle_beta 43.423931
_cell_angle_gamma 90.000000
_cell_volume 3064.357830
_symmetry_space_group_name_H-M "C 2/M"
_symmetry_group_IT_number 12
_symmetry_cell_setting 'monoclinic'
loop_
_space_group_symop_operation_xyz
x,y,z
-x,y,-z
-x,-y,-z
x,-y,z
1/2+x,1/2+y,z
1/2-x,1/2+y,-z
1/2-x,1/2-y,-z
1/2+x,1/2-y,z
loop_
_atom_site_type_symbol
_atom_site_label
_atom_site_fract_x
_atom_site_fract_y
_atom_site_fract_z
Si Si1 0.585448 0.087274 0.804165
Si Si2 0.596978 0.788488 0.546205
Si Si3 0.810639 0.407759 0.160972
Si Si4 0.538054 0.312783 0.282560
Si Si5 0.827372 0.288641 0.884310
Si Si6 0.928452 0.092151 0.045148
Si Si7 0.693578 0.684317 0.550746
O O1 0.596576 0.141738 0.653917
O O2 0.623563 0.116264 0.867024
O O3 0.614499 0.000000 0.721035
O O4 0.500000 0.083398 0.000000
O O5 0.517499 0.751811 0.671242
O O6 0.633741 0.813708 0.332496
O O7 0.645874 0.723340 0.524957
O O8 0.813961 0.500000 0.128086
O O9 0.740041 0.383675 0.387677
O O10 0.815056 0.358079 0.015048
O O11 0.500000 0.337934 0.500000
O O12 0.615954 0.273307 0.162076
O O13 0.549644 0.380151 0.149195
O O14 0.750000 0.250000 0.000000
O O15 0.862136 0.146616 0.230414
O O16 0.909552 0.000000 0.086939
O O17 0.000000 0.104257 0.000000
O O18 0.750000 0.750000 0.500000
#
# Coordination Sequence:
#
# PCOD9213553 Si02
#       7
#     8   8   8   8   8   8   8
#     4  10  22  38  60  92 122 153 195 249 307 363
#     4  11  22  38  63  87 118 160 203 247 300 363
#     4  11  23  40  61  89 126 162 198 254 319 368
#     4  10  23  41  62  90 123 162 208 251 306 369
#     4  11  23  40  61  89 118 159 211 249 298 367
#     4  11  24  41  65  95 125 161 209 262 315 373
#     4  12  22  38  64  94 121 161 206 259 307 366
#
# _framework density 18.274628
#
# number of rings (size 3 to 8) (size 9 to 14) (size 15 to 20)
#    0.000    1.143    4.286    2.143    2.000    0.857 
#    0.000    0.714    0.000    5.143    0.000    0.000 
#    0.000    0.000    0.000    0.000    0.000    0.000 
#
# Total GULP energy -156351.378273 kJ/mol
# GULP energy per Si atom -5583.977795 kJ/mol
# Density = 1.823303 g / cm^3
# Si number density = 18.274628 Si / 1000 Ang^3
#
#
#
# Elastic Constant Matrix: (Units=GPa)
#
#
# Indices 1 2 3 4 5 6 
#
# 1 136.8764 52.8527 52.6204 0.0000 0.8113 0.0000
# 2 52.8527 77.5675 62.4099 0.0000 14.2701 0.0000
# 3 52.6204 62.4099 102.0111 0.0000 9.3362 0.0000
# 4 0.0000 0.0000 0.0000 33.6070 0.0000 0.9861
# 5 0.8113 14.2701 9.3362 0.0000 38.4092 0.0000
# 6 0.0000 0.0000 0.0000 0.9861 0.0000 27.0576
#
#
#
# Elastic Compliance Matrix: (Units=1/GPa)
#
#
# Indices 1 2 3 4 5 6 
#
# 1 0.010323 -0.005949 -0.001910 0.000000 0.002456 0.000000
# 2 -0.005949 0.030141 -0.014685 0.000000 -0.007503 0.000000
# 3 -0.001910 -0.014685 0.019708 0.000000 0.000706 0.000000
# 4 0.000000 0.000000 0.000000 0.029788 0.000000 -0.001086
# 5 0.002456 -0.007503 0.000706 0.000000 0.028600 0.000000
# 6 0.000000 0.000000 0.000000 -0.001086 0.000000 0.036998
#
#
# Mechanical properties :
#
#
# Convention : Reuss Voigt Hill
#
# Bulk Modulus (GPa) = 66.29594 72.46899 69.38246
# Shear Modulus (GPa) = 24.31063 29.71954 27.01508
#
# Velocity S-wave (km/s) = 3.65128 4.03708 3.84902
# Velocity P-wave (km/s) = 7.35745 7.84043 7.60278
#
# Compressibility (1/GPa) = 0.01508388
#
# Stress axis : x y z
#
# Youngs Moduli (GPa) = 96.87483 33.17761 50.74145
#
# Poissons Ratio (x) = 0.19736 0.09693
# Poissons Ratio (y) = 0.57626 0.74513
# Poissons Ratio (z) = 0.18505 0.48721
#
# Static dielectric constant tensor:
#      x y z
#    x 1.636310 0.000000 -0.007060 
#    y 0.000000 1.637270 0.000000 
#    z -0.007060 0.000000 1.628290 
# 
# From -- ./inp_files/98074.got.cif
#   From: 2010.05.17/outbox.cif.g08.bks.cpg/sg12_50_cif.got.tgz:98074.got - 2010.06.03 13:09:07.
