data_PCOD9213986
_publ_section_title
;
Structure prediction by ZEFSAII (Michael W. Deem and Ramdas Pophale) SiO2 
 PCOD9213986
Probable space group: C 2/M
;
_chemical_formula_sum "Si O2"
_cell_formula_units_Z 48
_cell_length_a 11.287127
_cell_length_b 25.128151
_cell_length_c 9.255459
_cell_angle_alpha 90.000000
_cell_angle_beta 66.670299
_cell_angle_gamma 90.000000
_cell_volume 2410.453113
_symmetry_space_group_name_H-M "C 2/M"
_symmetry_group_IT_number 12
_symmetry_cell_setting 'monoclinic'
loop_
_space_group_symop_operation_xyz
x,y,z
-x,y,-z
-x,-y,-z
x,-y,z
1/2+x,1/2+y,z
1/2-x,1/2+y,-z
1/2-x,1/2-y,-z
1/2+x,1/2-y,z
loop_
_atom_site_type_symbol
_atom_site_label
_atom_site_fract_x
_atom_site_fract_y
_atom_site_fract_z
Si Si1 0.384324 0.937539 0.939202
Si Si2 0.842489 0.759292 0.819041
Si Si3 0.729168 0.194326 0.592927
Si Si4 0.956552 0.349776 0.680505
Si Si5 0.463175 0.341671 0.349274
Si Si6 0.425160 0.562142 0.881772
O O1 0.406525 0.898892 0.794536
O O2 0.399175 0.000000 0.897214
O O3 0.500000 0.925713 0.000000
O O4 0.231165 0.930239 0.048694
O O5 0.776578 0.796817 0.732722
O O6 0.865669 0.701910 0.735544
O O7 0.977968 0.792124 0.772008
O O8 0.750000 0.750000 0.000000
O O9 0.750000 0.250000 0.500000
O O10 0.587687 0.173264 0.682116
O O11 0.809906 0.156027 0.446846
O O12 0.000000 0.364460 0.500000
O O13 0.500000 0.331793 0.500000
O O14 0.516562 0.395649 0.257898
O O15 0.448973 0.500000 0.834644
O O16 0.500000 0.571500 0.000000
#
# Coordination Sequence:
#
# PCOD9213986 Si02
#       6
#     8   8   8   8   8   8
#     4  10  25  47  68  95 132 172 221 278 331 390
#     4  11  23  38  59  91 125 165 216 263 321 387
#     4  11  22  41  57  88 133 167 205 263 321 388
#     4  12  24  40  66  93 129 176 217 268 331 395
#     4  10  22  39  61  87 125 167 209 260 318 384
#     4  10  23  44  67  94 127 166 219 278 328 381
#
# _framework density 19.913269
#
# number of rings (size 3 to 8) (size 9 to 14) (size 15 to 20)
#    0.000    1.333    3.333    1.500    9.333    2.000 
#    0.000    0.833    0.000    0.000    0.000    0.000 
#    0.000    0.000    0.000    0.000    0.000    0.000 
#
# Total GULP energy -133670.061249 kJ/mol
# GULP energy per Si atom -5569.585885 kJ/mol
# Density = 1.986795 g / cm^3
# Si number density = 19.913269 Si / 1000 Ang^3
#
#
#
# Elastic Constant Matrix: (Units=GPa)
#
#
# Indices 1 2 3 4 5 6 
#
# 1 75.6890 16.5786 25.0926 0.0000 -7.9231 0.0000
# 2 16.5786 91.1440 71.8359 0.0000 -14.4097 0.0000
# 3 25.0926 71.8359 117.0888 0.0000 -19.7912 0.0000
# 4 0.0000 0.0000 0.0000 30.0506 0.0000 -7.2188
# 5 -7.9231 -14.4097 -19.7912 0.0000 21.2682 0.0000
# 6 0.0000 0.0000 0.0000 -7.2188 0.0000 21.8580
#
#
#
# Elastic Compliance Matrix: (Units=1/GPa)
#
#
# Indices 1 2 3 4 5 6 
#
# 1 0.014379 -0.000221 -0.002452 0.000000 0.002926 0.000000
# 2 -0.000221 0.021378 -0.012619 0.000000 0.002659 0.000000
# 3 -0.002452 -0.012619 0.018047 0.000000 0.007331 0.000000
# 4 0.000000 0.000000 0.000000 0.036145 0.000000 0.011937
# 5 0.002926 0.002659 0.007331 0.000000 0.056732 0.000000
# 6 0.000000 0.000000 0.000000 0.011937 0.000000 0.049692
#
#
# Mechanical properties :
#
#
# Convention : Reuss Voigt Hill
#
# Bulk Modulus (GPa) = 43.06309 56.77066 49.91688
# Shear Modulus (GPa) = 21.30415 25.99635 23.65025
#
# Velocity S-wave (km/s) = 3.27440 3.61706 3.44999
# Velocity P-wave (km/s) = 5.99732 6.78344 6.40246
#
# Compressibility (1/GPa) = 0.02322174
#
# Stress axis : x y z
#
# Youngs Moduli (GPa) = 69.54418 46.77722 55.41112
#
# Poissons Ratio (x) = 0.01032 0.13584
# Poissons Ratio (y) = 0.01535 0.69923
# Poissons Ratio (z) = 0.17049 0.59028
#
# Static dielectric constant tensor:
#      x y z
#    x 1.894450 0.000000 -0.003910 
#    y 0.000000 1.671380 0.000000 
#    z -0.003910 0.000000 1.663420 
# 
# From -- ./inp_files/51294.got.cif
#   From: 2010.05.17/outbox.cif.g08.bks.cpg/sg12_26_cif.got.tgz:51294.got - 2010.06.03 13:09:07.
