data_PCOD9213413
_publ_section_title
;
Structure prediction by ZEFSAII (Michael W. Deem and Ramdas Pophale) SiO2 
 PCOD9213413
Probable space group: C 2/M
;
_chemical_formula_sum "Si O2"
_cell_formula_units_Z 56
_cell_length_a 10.787040
_cell_length_b 15.999095
_cell_length_c 24.735668
_cell_angle_alpha 90.000000
_cell_angle_beta 140.758826
_cell_angle_gamma 90.000000
_cell_volume 2700.479889
_symmetry_space_group_name_H-M "C 2/M"
_symmetry_group_IT_number 12
_symmetry_cell_setting 'monoclinic'
loop_
_space_group_symop_operation_xyz
x,y,z
-x,y,-z
-x,-y,-z
x,-y,z
1/2+x,1/2+y,z
1/2-x,1/2+y,-z
1/2-x,1/2-y,-z
1/2+x,1/2-y,z
loop_
_atom_site_type_symbol
_atom_site_label
_atom_site_fract_x
_atom_site_fract_y
_atom_site_fract_z
Si Si1 0.797672 0.902763 0.349652
Si Si2 0.119194 0.662388 0.394309
Si Si3 0.396475 0.500000 0.879369
Si Si4 0.472161 0.595456 0.724976
Si Si5 0.108330 0.350194 0.181270
Si Si6 0.210856 0.849566 0.443156
Si Si7 0.331570 0.666949 0.787642
Si Si8 0.185201 0.500000 0.922235
O O1 0.731762 0.893160 0.388836
O O2 0.644204 0.857984 0.258022
O O3 0.008707 0.863914 0.408178
O O4 0.804293 0.000000 0.336417
O O5 0.224628 0.752259 0.432708
O O6 0.125351 0.627314 0.457570
O O7 0.900707 0.677757 0.299768
O O8 0.363672 0.584168 0.833920
O O9 0.250707 0.500000 0.881501
O O10 0.617374 0.500000 0.976467
O O11 0.475481 0.500000 0.744392
O O12 0.685248 0.620456 0.774396
O O13 0.321370 0.604049 0.624042
O O14 0.418701 0.651793 0.757628
O O15 0.080469 0.252715 0.158686
O O16 0.942774 0.416858 0.110136
#
# Coordination Sequence:
#
# PCOD9213413 Si02
#       8
#     8   8   4   8   8   8   8   4
#     4  11  21  38  61  92 122 165 229 279 314 378
#     4  11  23  36  58  90 127 173 220 273 323 370
#     4  11  28  47  69 105 138 159 203 268 327 393
#     4  11  22  42  61  94 131 173 220 271 310 379
#     4  11  22  41  74  95 124 174 218 259 325 388
#     4  10  22  38  57  87 127 171 227 275 315 367
#     4  12  25  43  65  96 137 175 212 261 327 394
#     4  11  24  49  77 102 128 160 210 267 322 392
#
# _framework density 20.737055000000002
#
# number of rings (size 3 to 8) (size 9 to 14) (size 15 to 20)
#    0.000    1.000    5.000    3.429    3.000    2.857 
#    0.000    2.143    0.000    0.000    0.000    0.000 
#    0.000    0.000    0.000    0.000    0.000    0.000 
#
# Total GULP energy -156526.927708 kJ/mol
# GULP energy per Si atom -5590.247418 kJ/mol
# Density = 2.068986 g / cm^3
# Si number density = 20.737055 Si / 1000 Ang^3
#
#
#
# Elastic Constant Matrix: (Units=GPa)
#
#
# Indices 1 2 3 4 5 6 
#
# 1 52.4345 3.1081 7.3803 0.0000 0.2929 0.0000
# 2 3.1081 126.8922 16.0221 0.0000 5.6895 0.0000
# 3 7.3803 16.0221 52.2246 0.0001 0.4516 0.0000
# 4 0.0000 0.0000 0.0001 17.4386 0.0000 2.2251
# 5 0.2929 5.6895 0.4516 0.0000 16.2326 0.0000
# 6 0.0000 0.0000 0.0000 2.2251 0.0000 26.8471
#
#
#
# Elastic Compliance Matrix: (Units=1/GPa)
#
#
# Indices 1 2 3 4 5 6 
#
# 1 0.019462 -0.000124 -0.002710 0.000000 -0.000232 0.000000
# 2 -0.000124 0.008329 -0.002513 0.000000 -0.002847 0.000000
# 3 -0.002710 -0.002513 0.020299 0.000000 0.000365 0.000000
# 4 0.000000 0.000000 0.000000 0.057957 0.000000 -0.004803
# 5 -0.000232 -0.002847 0.000365 0.000000 0.062596 0.000000
# 6 0.000000 0.000000 0.000000 -0.004803 0.000000 0.037646
#
#
# Mechanical properties :
#
#
# Convention : Reuss Voigt Hill
#
# Bulk Modulus (GPa) = 26.74189 31.61914 29.18051
# Shear Modulus (GPa) = 21.79143 25.77304 23.78224
#
# Velocity S-wave (km/s) = 3.24519 3.52923 3.39019
# Velocity P-wave (km/s) = 5.19282 5.64695 5.42464
#
# Compressibility (1/GPa) = 0.03739452
#
# Stress axis : x y z
#
# Youngs Moduli (GPa) = 51.38338 120.06670 49.26375
#
# Poissons Ratio (x) = 0.01490 0.13352
# Poissons Ratio (y) = 0.00637 0.12380
# Poissons Ratio (z) = 0.13926 0.30173
#
# Static dielectric constant tensor:
#      x y z
#    x 1.727300 0.000000 -0.007420 
#    y 0.000000 1.740050 0.000000 
#    z -0.007420 0.000000 1.744180 
# 
# From -- ./inp_files/358262.got.cif
#   From: 2010.05.17/outbox.cif.g08.bks.cpg/sg12_180_cif.got.tgz:358262.got - 2010.06.03 13:09:07.
