data_PCOD9213995
_publ_section_title
;
Structure prediction by ZEFSAII (Michael W. Deem and Ramdas Pophale) SiO2 
 PCOD9213995
Probable space group: C 2/M
;
_chemical_formula_sum "Si O2"
_cell_formula_units_Z 56
_cell_length_a 9.247919
_cell_length_b 25.003498
_cell_length_c 15.330888
_cell_angle_alpha 90.000000
_cell_angle_beta 54.454102
_cell_angle_gamma 90.000000
_cell_volume 2884.362009
_symmetry_space_group_name_H-M "C 2/M"
_symmetry_group_IT_number 12
_symmetry_cell_setting 'monoclinic'
loop_
_space_group_symop_operation_xyz
x,y,z
-x,y,-z
-x,-y,-z
x,-y,z
1/2+x,1/2+y,z
1/2-x,1/2+y,-z
1/2-x,1/2-y,-z
1/2+x,1/2-y,z
loop_
_atom_site_type_symbol
_atom_site_label
_atom_site_fract_x
_atom_site_fract_y
_atom_site_fract_z
Si Si1 0.023616 0.617370 0.730439
Si Si2 0.850089 0.063477 0.122337
Si Si3 0.632060 0.186321 0.373636
Si Si4 0.704222 0.279574 0.105938
Si Si5 0.357343 0.778805 0.227633
Si Si6 0.381082 0.436810 0.624532
Si Si7 0.992636 0.120193 0.241027
O O1 0.121226 0.659686 0.758692
O O2 0.176034 0.573030 0.668243
O O3 0.836710 0.593422 0.828438
O O4 0.969075 0.651651 0.664615
O O5 0.923071 0.078750 0.192497
O O6 0.822665 0.000000 0.125369
O O7 0.000000 0.079809 0.000000
O O8 0.500000 0.189431 0.500000
O O9 0.693123 0.245915 0.324094
O O10 0.817615 0.155225 0.326177
O O11 0.534634 0.247581 0.200616
O O12 0.854072 0.271288 0.125157
O O13 0.634579 0.340767 0.140853
O O14 0.750000 0.250000 0.000000
O O15 0.500000 0.418466 0.500000
O O16 0.411497 0.500000 0.626834
O O17 0.433482 0.407132 0.696882
#
# Coordination Sequence:
#
# PCOD9213995 Si02
#       7
#     8   8   8   8   8   8   8
#     4  11  22  40  64  88 131 164 212 263 321 375
#     4  10  23  43  67  91 120 166 219 268 319 377
#     4  10  22  39  61  88 124 169 213 253 309 386
#     4  11  23  39  60  88 125 162 201 251 309 377
#     4  11  22  39  57  90 122 163 207 253 307 383
#     4  11  23  40  65  97 131 169 214 270 330 379
#     4  10  22  40  64  91 128 165 212 262 321 378
#
# _framework density 19.415037999999999
#
# number of rings (size 3 to 8) (size 9 to 14) (size 15 to 20)
#    0.000    1.429    2.857    2.143    2.000    1.143 
#    0.000    0.714    0.000    9.429    0.000    0.000 
#    0.000    0.000    0.000    0.000    0.000    0.000 
#
# Total GULP energy -156011.465492 kJ/mol
# GULP energy per Si atom -5571.838053 kJ/mol
# Density = 1.937085 g / cm^3
# Si number density = 19.415038 Si / 1000 Ang^3
#
#
#
# Elastic Constant Matrix: (Units=GPa)
#
#
# Indices 1 2 3 4 5 6 
#
# 1 121.9863 39.5101 61.9853 0.0000 0.0486 0.0000
# 2 39.5101 80.0130 56.5771 0.0000 6.4642 0.0000
# 3 61.9853 56.5771 154.0945 0.0000 -7.4902 0.0000
# 4 0.0000 0.0000 0.0000 23.2953 0.0000 1.8312
# 5 0.0486 6.4642 -7.4902 0.0000 24.9802 0.0000
# 6 0.0000 0.0000 0.0000 1.8312 0.0000 20.9059
#
#
#
# Elastic Compliance Matrix: (Units=1/GPa)
#
#
# Indices 1 2 3 4 5 6 
#
# 1 0.010833 -0.003030 -0.003256 0.000000 -0.000213 0.000000
# 2 -0.003030 0.018772 -0.005996 0.000000 -0.006650 0.000000
# 3 -0.003256 -0.005996 0.010225 0.000000 0.004624 0.000000
# 4 0.000000 0.000000 0.000000 0.043225 0.000000 -0.003786
# 5 -0.000213 -0.006650 0.004624 0.000000 0.043139 0.000000
# 6 0.000000 0.000000 0.000000 -0.003786 0.000000 0.048165
#
#
# Mechanical properties :
#
#
# Convention : Reuss Voigt Hill
#
# Bulk Modulus (GPa) = 65.50511 74.69319 70.09915
# Shear Modulus (GPa) = 24.50825 27.03771 25.77298
#
# Velocity S-wave (km/s) = 3.55679 3.73583 3.64741
# Velocity P-wave (km/s) = 7.11901 7.56068 7.34316
#
# Compressibility (1/GPa) = 0.01526599
#
# Stress axis : x y z
#
# Youngs Moduli (GPa) = 92.30645 53.27192 97.79476
#
# Poissons Ratio (x) = 0.16143 0.31838
# Poissons Ratio (y) = 0.27972 0.58642
# Poissons Ratio (z) = 0.30051 0.31944
#
# Static dielectric constant tensor:
#      x y z
#    x 1.668880 0.000000 0.005970 
#    y 0.000000 1.733510 0.000000 
#    z 0.005970 0.000000 1.688850 
# 
# From -- ./inp_files/198809.got.cif
#   From: 2010.05.17/outbox.cif.g08.bks.cpg/sg12_100_cif.got.tgz:198809.got - 2010.06.03 13:09:07.
