data_PCOD9213260
_publ_section_title
;
Structure prediction by ZEFSAII (Michael W. Deem and Ramdas Pophale) SiO2 
 PCOD9213260
Probable space group: C 2/M
;
_chemical_formula_sum "Si O2"
_cell_formula_units_Z 48
_cell_length_a 32.110325
_cell_length_b 9.728862
_cell_length_c 19.538446
_cell_angle_alpha 90.000000
_cell_angle_beta 155.146933
_cell_angle_gamma 90.000000
_cell_volume 2565.361601
_symmetry_space_group_name_H-M "C 2/M"
_symmetry_group_IT_number 12
_symmetry_cell_setting 'monoclinic'
loop_
_space_group_symop_operation_xyz
x,y,z
-x,y,-z
-x,-y,-z
x,-y,z
1/2+x,1/2+y,z
1/2-x,1/2+y,-z
1/2-x,1/2-y,-z
1/2+x,1/2-y,z
loop_
_atom_site_type_symbol
_atom_site_label
_atom_site_fract_x
_atom_site_fract_y
_atom_site_fract_z
Si Si1 0.348143 0.500000 0.896779
Si Si2 0.106955 0.337235 0.694551
Si Si3 0.245778 0.500000 0.598729
Si Si4 0.575968 0.500000 0.241425
Si Si5 0.453084 0.840574 0.243314
Si Si6 0.247433 0.000000 0.704263
Si Si7 0.863102 0.216605 0.555262
Si Si8 0.790491 0.277212 0.887585
O O1 0.278524 0.500000 0.726678
O O2 0.326129 0.633572 0.908954
O O3 0.463454 0.500000 0.048089
O O4 0.132813 0.500000 0.729322
O O5 0.094896 0.298638 0.756090
O O6 0.189247 0.250756 0.777954
O O7 0.000000 0.320128 0.500000
O O8 0.343318 0.500000 0.697681
O O9 0.183517 0.361834 0.492556
O O10 0.594196 0.632410 0.316909
O O11 0.547267 0.749598 0.363398
O O12 0.485195 0.000000 0.298634
O O13 0.372946 0.828890 0.063790
O O14 0.214902 0.879667 0.599930
O O15 0.273434 0.881375 0.800504
#
# Coordination Sequence:
#
# PCOD9213260 Si02
#       8
#     4   8   4   4   8   4   8   8
#     4  12  24  41  70  91 129 171 211 255 323 388
#     4  10  22  37  61  92 127 168 220 259 300 371
#     4  12  24  42  71  93 126 166 218 254 326 387
#     4  11  25  44  63  99 131 161 206 277 314 377
#     4  11  22  39  66  93 130 171 209 258 317 381
#     4  11  24  39  64  91 127 161 210 263 309 373
#     4  11  23  42  67  96 126 166 210 259 323 377
#     4  12  22  42  62  94 130 172 208 259 319 372
#
# _framework density 18.710812000000001
#
# number of rings (size 3 to 8) (size 9 to 14) (size 15 to 20)
#    0.000    0.833    5.833    2.250    0.000    0.000 
#    0.000    4.583    0.000    1.000    0.000    0.000 
#    0.000    0.000    0.000    0.000    0.000    0.000 
#
# Total GULP energy -133621.718895 kJ/mol
# GULP energy per Si atom -5567.571621 kJ/mol
# Density = 1.866823 g / cm^3
# Si number density = 18.710812 Si / 1000 Ang^3
#
#
#
# Elastic Constant Matrix: (Units=GPa)
#
#
# Indices 1 2 3 4 5 6 
#
# 1 30.7362 12.1838 -2.6471 0.0000 10.8365 0.0000
# 2 12.1838 110.2384 7.7785 0.0000 8.4317 0.0000
# 3 -2.6471 7.7785 21.9675 0.0000 1.9154 0.0000
# 4 0.0000 0.0000 0.0000 54.7789 0.0000 -14.7737
# 5 10.8365 8.4317 1.9154 0.0000 31.4425 0.0000
# 6 0.0000 0.0000 0.0000 -14.7737 0.0000 16.2296
#
#
#
# Elastic Compliance Matrix: (Units=1/GPa)
#
#
# Indices 1 2 3 4 5 6 
#
# 1 0.039245 -0.003858 0.007223 0.000000 -0.012931 0.000000
# 2 -0.003858 0.009852 -0.003860 0.000000 -0.001077 0.000000
# 3 0.007223 -0.003860 0.048141 0.000000 -0.004387 0.000000
# 4 0.000000 0.000000 0.000000 0.024195 0.000000 0.022025
# 5 -0.012931 -0.001077 -0.004387 0.000000 0.036817 0.000000
# 6 0.000000 0.000000 0.000000 0.022025 0.000000 0.081665
#
#
# Mechanical properties :
#
#
# Convention : Reuss Voigt Hill
#
# Bulk Modulus (GPa) = 10.38969 21.95250 16.17110
# Shear Modulus (GPa) = 18.31573 30.19866 24.25720
#
# Velocity S-wave (km/s) = 3.13211 4.02178 3.60450
# Velocity P-wave (km/s) = 4.31798 5.77272 5.09751
#
# Compressibility (1/GPa) = 0.09624928
#
# Stress axis : x y z
#
# Youngs Moduli (GPa) = 25.48066 101.49824 20.77216
#
# Poissons Ratio (x) = 0.39159 -0.15003
# Poissons Ratio (y) = 0.09831 0.08017
# Poissons Ratio (z) = -0.18404 0.39175
#
# Static dielectric constant tensor:
#      x y z
#    x 1.625100 0.000000 0.010130 
#    y 0.000000 1.639480 0.000000 
#    z 0.010130 0.000000 1.629920 
# 
# From -- ./inp_files/295952.got.cif
#   From: 2010.05.17/outbox.cif.g08.bks.cpg/sg12_148_cif.got.tgz:295952.got - 2010.06.03 13:09:07.
