data_PCOD9213971
_publ_section_title
;
Structure prediction by ZEFSAII (Michael W. Deem and Ramdas Pophale) SiO2 
 PCOD9213971
Probable space group: C 2/M
;
_chemical_formula_sum "Si O2"
_cell_formula_units_Z 40
_cell_length_a 26.028432
_cell_length_b 10.936109
_cell_length_c 9.411988
_cell_angle_alpha 90.000000
_cell_angle_beta 135.877225
_cell_angle_gamma 90.000000
_cell_volume 1865.198660
_symmetry_space_group_name_H-M "C 2/M"
_symmetry_group_IT_number 12
_symmetry_cell_setting 'monoclinic'
loop_
_space_group_symop_operation_xyz
x,y,z
-x,y,-z
-x,-y,-z
x,-y,z
1/2+x,1/2+y,z
1/2-x,1/2+y,-z
1/2-x,1/2-y,-z
1/2+x,1/2-y,z
loop_
_atom_site_type_symbol
_atom_site_label
_atom_site_fract_x
_atom_site_fract_y
_atom_site_fract_z
Si Si1 0.728998 0.858090 0.664037
Si Si2 0.393840 0.854650 0.373140
Si Si3 0.639234 0.756208 0.235077
Si Si4 0.513235 0.500000 0.693349
Si Si5 0.919638 0.000000 0.765300
Si Si6 0.953346 0.731311 0.197032
O O1 0.684157 0.818059 0.714595
O O2 0.670957 0.843492 0.418891
O O3 0.796513 0.773449 0.751590
O O4 0.751445 0.000000 0.722129
O O5 0.461851 0.795282 0.594676
O O6 0.406663 0.823402 0.234182
O O7 0.400636 0.000000 0.404615
O O8 0.619716 0.625188 0.267373
O O9 0.571995 0.808205 0.008863
O O10 0.500000 0.500000 0.500000
O O11 0.437905 0.500000 0.634409
O O12 0.555670 0.377544 0.818197
O O13 0.000000 0.000000 0.000000
#
# Coordination Sequence:
#
# PCOD9213971 Si02
#       6
#     8   8   8   4   4   8
#     4  10  23  42  58  85 122 161 203 243 301 357
#     4  10  22  39  61  85 122 160 197 249 293 351
#     4  11  23  39  64  87 120 159 199 249 301 360
#     4  12  22  34  58  96 122 146 188 248 301 358
#     4  12  22  38  64  94 120 152 194 257 307 344
#     4  11  21  37  60  92 117 151 204 244 300 345
#
# _framework density 21.445435
#
# number of rings (size 3 to 8) (size 9 to 14) (size 15 to 20)
#    0.000    1.200    5.000    2.400    0.000    2.400 
#    0.000    2.000    0.000    0.000    0.000    0.000 
#    0.000    0.000    0.000    0.000    0.000    0.000 
#
# Total GULP energy -111785.612787 kJ/mol
# GULP energy per Si atom -5589.280639 kJ/mol
# Density = 2.139662 g / cm^3
# Si number density = 21.445435 Si / 1000 Ang^3
#
#
#
# Elastic Constant Matrix: (Units=GPa)
#
#
# Indices 1 2 3 4 5 6 
#
# 1 119.8878 9.9971 -11.8185 0.0000 -15.7674 0.0000
# 2 9.9971 46.5861 -12.1786 0.0000 4.8751 0.0000
# 3 -11.8185 -12.1786 61.1358 0.0000 -10.7175 0.0000
# 4 0.0000 0.0000 0.0000 20.8140 0.0000 -1.3240
# 5 -15.7674 4.8751 -10.7175 0.0000 14.3436 0.0000
# 6 0.0000 0.0000 0.0000 -1.3240 0.0000 25.5917
#
#
#
# Elastic Compliance Matrix: (Units=1/GPa)
#
#
# Indices 1 2 3 4 5 6 
#
# 1 0.011236 -0.002983 0.004512 0.000000 0.016736 0.000000
# 2 -0.002983 0.023750 0.002491 0.000000 -0.009490 0.000000
# 3 0.004512 0.002491 0.021227 0.000000 0.019974 0.000000
# 4 0.000000 0.000000 0.000000 0.048203 0.000000 0.002494
# 5 0.016736 -0.009490 0.019974 0.000000 0.106265 0.000000
# 6 0.000000 0.000000 0.000000 0.002494 0.000000 0.039204
#
#
# Mechanical properties :
#
#
# Convention : Reuss Voigt Hill
#
# Bulk Modulus (GPa) = 15.56381 22.17886 18.87133
# Shear Modulus (GPa) = 18.99237 28.25715 23.62476
#
# Velocity S-wave (km/s) = 2.97915 3.63386 3.32267
# Velocity P-wave (km/s) = 4.37115 5.28876 4.85170
#
# Compressibility (1/GPa) = 0.06425164
#
# Stress axis : x y z
#
# Youngs Moduli (GPa) = 89.00160 42.10515 47.10997
#
# Poissons Ratio (x) = 0.12560 -0.21255
# Poissons Ratio (y) = 0.26550 -0.11734
# Poissons Ratio (z) = -0.40155 -0.10487
#
# Static dielectric constant tensor:
#      x y z
#    x 1.820180 0.000000 0.002290 
#    y 0.000000 1.760600 0.000000 
#    z 0.002290 0.000000 1.807490 
# 
# From -- ./inp_files/102887.got.cif
#   From: 2010.05.17/outbox.cif.g08.bks.cpg/sg12_52_cif.got.tgz:102887.got - 2010.06.03 13:09:07.
