data_PCOD9213290
_publ_section_title
;
Structure prediction by ZEFSAII (Michael W. Deem and Ramdas Pophale) SiO2 
 PCOD9213290
Probable space group: C 2/M
;
_chemical_formula_sum "Si O2"
_cell_formula_units_Z 56
_cell_length_a 8.362980
_cell_length_b 17.628014
_cell_length_c 21.285391
_cell_angle_alpha 90.000000
_cell_angle_beta 47.157007
_cell_angle_gamma 90.000000
_cell_volume 2300.807460
_symmetry_space_group_name_H-M "C 2/M"
_symmetry_group_IT_number 12
_symmetry_cell_setting 'monoclinic'
loop_
_space_group_symop_operation_xyz
x,y,z
-x,y,-z
-x,-y,-z
x,-y,z
1/2+x,1/2+y,z
1/2-x,1/2+y,-z
1/2-x,1/2-y,-z
1/2+x,1/2-y,z
loop_
_atom_site_type_symbol
_atom_site_label
_atom_site_fract_x
_atom_site_fract_y
_atom_site_fract_z
Si Si1 0.188149 0.293886 0.812222
Si Si2 0.914254 0.820438 0.953593
Si Si3 0.207076 0.917266 0.119040
Si Si4 0.286408 0.082854 0.697887
Si Si5 0.816181 0.207409 0.371606
Si Si6 0.541302 0.359284 0.422107
Si Si7 0.564294 0.915737 0.750083
O O1 0.185504 0.346859 0.874328
O O2 0.432771 0.285154 0.720039
O O3 0.046376 0.343528 0.800870
O O4 0.092621 0.213440 0.857323
O O5 0.815357 0.894113 0.947280
O O6 0.750000 0.750000 0.000000
O O7 0.000000 0.835406 0.000000
O O8 0.965972 0.920429 0.213727
O O9 0.306957 0.000000 0.101698
O O10 0.303741 0.149485 0.643182
O O11 0.427254 0.092536 0.723128
O O12 0.344059 0.000000 0.655413
O O13 0.692152 0.286564 0.399742
O O14 0.840931 0.172501 0.434575
O O15 0.500000 0.397199 0.500000
O O16 0.683284 0.411726 0.338489
O O17 0.516725 0.000000 0.789586
#
# Coordination Sequence:
#
# PCOD9213290 Si02
#       7
#     8   8   8   8   8   8   8
#     4  10  23  40  67  89 122 165 213 264 302 378
#     4  12  26  42  62  94 127 165 206 258 322 378
#     4  10  22  41  64  90 126 163 207 264 316 370
#     4   9  20  38  62  91 117 153 206 260 302 355
#     4  10  22  37  63  87 119 164 207 255 298 366
#     4  11  23  37  59  91 127 161 200 250 311 368
#     4  10  22  39  63  91 120 160 209 254 307 369
#
# _framework density 24.339282000000001
#
# number of rings (size 3 to 8) (size 9 to 14) (size 15 to 20)
#    0.000    1.714    1.429    1.714   12.000    4.000 
#    0.000    2.143    0.000    2.143    0.000    0.000 
#    0.000    0.000    0.000    0.000    0.000    0.000 
#
# Total GULP energy -156739.138105 kJ/mol
# GULP energy per Si atom -5597.826361 kJ/mol
# Density = 2.428389 g / cm^3
# Si number density = 24.339282 Si / 1000 Ang^3
#
#
#
# Elastic Constant Matrix: (Units=GPa)
#
#
# Indices 1 2 3 4 5 6 
#
# 1 79.3952 13.0164 5.9474 -0.0013 22.9215 0.0044
# 2 13.0164 88.1221 3.1014 -0.0012 2.5987 0.0016
# 3 5.9474 3.1014 57.2429 -0.0040 14.6477 0.0032
# 4 -0.0013 -0.0012 -0.0040 5.3586 0.0023 -16.6716
# 5 22.9215 2.5987 14.6477 0.0023 38.0912 -0.0045
# 6 0.0044 0.0016 0.0032 -16.6716 -0.0045 -1.9007
#
#
#
# Elastic Compliance Matrix: (Units=1/GPa)
#
#
# Indices 1 2 3 4 5 6 
#
# 1 0.015645 -0.002060 0.000953 0.000007 -0.009640 0.000000
# 2 -0.002060 0.011653 -0.000589 0.000000 0.000671 0.000000
# 3 0.000953 -0.000589 0.019453 0.000007 -0.008014 -0.000004
# 4 0.000007 0.000000 0.000007 0.006597 -0.000014 -0.057862
# 5 -0.009640 0.000671 -0.008014 -0.000014 0.035090 0.000003
# 6 0.000000 0.000000 -0.000004 -0.057862 0.000003 -0.018598
#
#
# Mechanical properties :
#
#
# Convention : Reuss Voigt Hill
#
# Bulk Modulus (GPa) = 23.06364 29.87675 26.47020
# Shear Modulus (GPa) = 57.02289 21.82283 39.42286
#
# Velocity S-wave (km/s) = 4.84553 2.99759 4.02894
# Velocity P-wave (km/s) = 6.38765 4.92773 5.70458
#
# Compressibility (1/GPa) = 0.04335829
#
# Stress axis : x y z
#
# Youngs Moduli (GPa) = 63.91929 85.81388 51.40619
#
# Poissons Ratio (x) = 0.17679 -0.04899
# Poissons Ratio (y) = 0.13168 0.03028
# Poissons Ratio (z) = -0.06091 0.05055
#
# Static dielectric constant tensor:
#      x y z
#    x 1.962070 0.000000 -0.039750 
#    y 0.000000 1.894080 0.000000 
#    z -0.039750 0.000000 1.996610 
# 
# From -- ./inp_files/300702.got.cif
#   From: 2010.05.17/outbox.cif.g08.bks.cpg/sg12_151_cif.got.tgz:300702.got - 2010.06.03 13:09:07.
