data_PCOD9213819
_publ_section_title
;
Structure prediction by ZEFSAII (Michael W. Deem and Ramdas Pophale) SiO2 
 PCOD9213819
Probable space group: C 2/M
;
_chemical_formula_sum "Si O2"
_cell_formula_units_Z 40
_cell_length_a 22.342275
_cell_length_b 7.348103
_cell_length_c 10.940034
_cell_angle_alpha 90.000000
_cell_angle_beta 118.622799
_cell_angle_gamma 90.000000
_cell_volume 1576.569532
_symmetry_space_group_name_H-M "C 2/M"
_symmetry_group_IT_number 12
_symmetry_cell_setting 'monoclinic'
loop_
_space_group_symop_operation_xyz
x,y,z
-x,y,-z
-x,-y,-z
x,-y,z
1/2+x,1/2+y,z
1/2-x,1/2+y,-z
1/2-x,1/2-y,-z
1/2+x,1/2-y,z
loop_
_atom_site_type_symbol
_atom_site_label
_atom_site_fract_x
_atom_site_fract_y
_atom_site_fract_z
Si Si1 0.426270 0.208372 0.452603
Si Si2 0.409704 0.279197 0.168842
Si Si3 0.207605 0.717078 0.580857
Si Si4 0.668501 0.722888 0.149809
Si Si5 0.958160 0.789660 0.830917
O O1 0.500000 0.295870 0.500000
O O2 0.391653 0.211829 0.284825
O O3 0.369526 0.289366 0.487082
O O4 0.438810 0.000000 0.502097
O O5 0.410556 0.500000 0.170170
O O6 0.486865 0.214967 0.210627
O O7 0.359689 0.222312 0.010175
O O8 0.201084 0.500000 0.587565
O O9 0.250000 0.750000 0.500000
O O10 0.256659 0.782426 0.738196
O O11 0.666253 0.500000 0.149745
O O12 0.614647 0.787640 0.201055
O O13 0.947651 0.000000 0.787866
O O14 0.000000 0.787275 0.000000
#
# Coordination Sequence:
#
# PCOD9213819 Si02
#       5
#     8   8   8   8   8
#     4  10  23  40  53  73 114 157 180 208 269 335
#     4   9  17  31  56  85 106 132 179 231 271 314
#     4  10  22  39  58  79 107 146 185 223 270 321
#     4   8  15  30  53  81 109 134 171 228 282 314
#     4   7  11  22  44  76 106 127 154 206 269 311
#
# _framework density 25.37154
#
# number of rings (size 3 to 8) (size 9 to 14) (size 15 to 20)
#    0.000    3.200    0.000    2.400    2.800    2.000 
#    0.000    1.000    0.000    5.400    0.000    0.000 
#    0.000    0.000    0.000    0.000    0.000    0.000 
#
# Total GULP energy -111719.124451 kJ/mol
# GULP energy per Si atom -5585.956223 kJ/mol
# Density = 2.531379 g / cm^3
# Si number density = 25.371540 Si / 1000 Ang^3
#
#
#
# Elastic Constant Matrix: (Units=GPa)
#
#
# Indices 1 2 3 4 5 6 
#
# 1 188.2222 8.0242 52.6974 0.0000 21.6257 0.0000
# 2 8.0242 107.4100 8.4717 0.0000 6.4260 0.0000
# 3 52.6974 8.4717 102.8111 0.0000 3.2652 0.0000
# 4 0.0000 0.0000 0.0000 8.4445 0.0000 -2.4722
# 5 21.6257 6.4260 3.2652 0.0000 49.7369 0.0000
# 6 0.0000 0.0000 0.0000 -2.4722 0.0000 -9.0719
#
#
#
# Elastic Compliance Matrix: (Units=1/GPa)
#
#
# Indices 1 2 3 4 5 6 
#
# 1 0.006528 -0.000074 -0.003257 0.000000 -0.002615 0.000000
# 2 -0.000074 0.009439 -0.000703 0.000000 -0.001141 0.000000
# 3 -0.003257 -0.000703 0.011430 0.000000 0.000757 0.000000
# 4 0.000000 0.000000 0.000000 0.109671 0.000000 -0.029886
# 5 -0.002615 -0.001141 0.000757 0.000000 0.021341 0.000000
# 6 0.000000 0.000000 0.000000 -0.029886 0.000000 -0.102086
#
#
# Mechanical properties :
#
#
# Convention : Reuss Voigt Hill
#
# Bulk Modulus (GPa) = 51.73830 59.64775 55.69302
# Shear Modulus (GPa) = 70.58617 31.77190 51.17903
#
# Velocity S-wave (km/s) = 5.28028 3.54258 4.49618
# Velocity P-wave (km/s) = 7.59024 6.34774 6.99663
#
# Compressibility (1/GPa) = 0.01932804
#
# Stress axis : x y z
#
# Youngs Moduli (GPa) = 153.17697 105.93866 87.48935
#
# Poissons Ratio (x) = 0.00788 0.28496
# Poissons Ratio (y) = 0.01139 0.06155
# Poissons Ratio (z) = 0.49890 0.07452
#
# Static dielectric constant tensor:
#      x y z
#    x 2.047470 0.000000 0.021870 
#    y 0.000000 1.948730 0.000000 
#    z 0.021870 0.000000 2.002630 
# 
# From -- ./inp_files/162734.got.cif
#   From: 2010.05.17/outbox.cif.g08.bks.cpg/sg12_82_cif.got.tgz:162734.got - 2010.06.03 13:09:07.
