data_PCOD9213345
_publ_section_title
;
Structure prediction by ZEFSAII (Michael W. Deem and Ramdas Pophale) SiO2 
 PCOD9213345
Probable space group: C 2/M
;
_chemical_formula_sum "Si O2"
_cell_formula_units_Z 60
_cell_length_a 20.541357
_cell_length_b 26.542491
_cell_length_c 6.136640
_cell_angle_alpha 90.000000
_cell_angle_beta 74.570220
_cell_angle_gamma 90.000000
_cell_volume 3225.219147
_symmetry_space_group_name_H-M "C 2/M"
_symmetry_group_IT_number 12
_symmetry_cell_setting 'monoclinic'
loop_
_space_group_symop_operation_xyz
x,y,z
-x,y,-z
-x,-y,-z
x,-y,z
1/2+x,1/2+y,z
1/2-x,1/2+y,-z
1/2-x,1/2-y,-z
1/2+x,1/2-y,z
loop_
_atom_site_type_symbol
_atom_site_label
_atom_site_fract_x
_atom_site_fract_y
_atom_site_fract_z
Si Si1 0.756701 0.371413 0.095635
Si Si2 0.583541 0.730431 0.784293
Si Si3 0.551211 0.443579 0.275500
Si Si4 0.500000 0.222933 0.500000
Si Si5 0.871997 0.876465 0.109663
Si Si6 0.183504 0.056467 0.449965
Si Si7 0.371766 0.194762 0.874478
Si Si8 0.297082 0.728976 0.645530
O O1 0.697711 0.373668 0.966463
O O2 0.746066 0.419071 0.263583
O O3 0.735227 0.322144 0.248104
O O4 0.831917 0.357590 0.947910
O O5 0.517495 0.744912 0.703285
O O6 0.633359 0.720142 0.538594
O O7 0.593642 0.678436 0.903669
O O8 0.604982 0.777041 0.922347
O O9 0.500000 0.421125 0.500000
O O10 0.526073 0.500000 0.243417
O O11 0.570768 0.410825 0.052126
O O12 0.622816 0.448137 0.332379
O O13 0.434197 0.192496 0.646578
O O14 0.846281 0.904454 0.348815
O O15 0.196992 0.000000 0.526126
O O16 0.315408 0.231581 0.817102
O O17 0.250000 0.750000 0.500000
#
# Coordination Sequence:
#
# PCOD9213345 Si02
#       8
#     8   8   8   4   8   8   8   8
#     4  11  21  35  61  86 106 145 191 236 284 336
#     4  11  21  38  53  76 116 150 186 225 273 332
#     4   9  20  39  55  73 102 145 199 242 280 329
#     4  10  26  38  50  78 122 158 184 228 272 334
#     4  11  21  36  56  82 108 148 189 236 288 327
#     4  10  22  38  55  81 112 141 186 245 292 331
#     4  11  22  38  56  80 115 151 188 229 279 336
#     4  11  19  32  56  84 110 139 186 231 271 330
#
# _framework density 18.603387000000001
#
# number of rings (size 3 to 8) (size 9 to 14) (size 15 to 20)
#    0.000    1.467    4.000    2.000    0.000    1.067 
#    7.200    2.000    0.000    0.000    0.000    0.467 
#    0.000    3.200    0.000    0.133    0.000    0.000 
#
# Total GULP energy -167178.828087 kJ/mol
# GULP energy per Si atom -5572.627603 kJ/mol
# Density = 1.856104 g / cm^3
# Si number density = 18.603387 Si / 1000 Ang^3
#
#
#
# Elastic Constant Matrix: (Units=GPa)
#
#
# Indices 1 2 3 4 5 6 
#
# 1 73.2502 28.6378 28.5850 0.0000 -9.0572 0.0000
# 2 28.6378 59.3300 25.8999 0.0000 -9.1235 0.0000
# 3 28.5850 25.8999 65.4196 0.0000 -7.0749 0.0000
# 4 0.0000 0.0000 0.0000 17.3424 0.0000 -6.8438
# 5 -9.0572 -9.1235 -7.0749 0.0000 51.0484 0.0000
# 6 0.0000 0.0000 0.0000 -6.8438 0.0000 19.5531
#
#
#
# Elastic Compliance Matrix: (Units=1/GPa)
#
#
# Indices 1 2 3 4 5 6 
#
# 1 0.018394 -0.006313 -0.005388 0.000000 0.001389 0.000000
# 2 -0.006313 0.022879 -0.006069 0.000000 0.002128 0.000000
# 3 -0.005388 -0.006069 0.020124 0.000000 0.000748 0.000000
# 4 0.000000 0.000000 0.000000 0.066903 0.000000 0.023417
# 5 0.001389 0.002128 0.000748 0.000000 0.020320 0.000000
# 6 0.000000 0.000000 0.000000 0.023417 0.000000 0.059339
#
#
# Mechanical properties :
#
#
# Convention : Reuss Voigt Hill
#
# Bulk Modulus (GPa) = 38.67473 40.47171 39.57322
# Shear Modulus (GPa) = 19.83205 25.24727 22.53966
#
# Velocity S-wave (km/s) = 3.26858 3.68793 3.48456
# Velocity P-wave (km/s) = 5.92275 6.31954 6.12436
#
# Compressibility (1/GPa) = 0.02585668
#
# Stress axis : x y z
#
# Youngs Moduli (GPa) = 54.36493 43.70868 49.69229
#
# Poissons Ratio (x) = 0.27594 0.26773
# Poissons Ratio (y) = 0.34321 0.30159
# Poissons Ratio (z) = 0.29291 0.26527
#
# Static dielectric constant tensor:
#      x y z
#    x 0.718830 0.000000 -0.008620 
#    y 0.000000 1.658760 0.000000 
#    z -0.008620 0.000000 1.683480 
# 
# From -- ./inp_files/22318.got.cif
#   From: 2010.05.17/outbox.cif.g08.bks.cpg/sg12_12_cif.got.tgz:22318.got - 2010.06.03 13:09:07.
