data_PCOD9213216
_publ_section_title
;
Structure prediction by ZEFSAII (Michael W. Deem and Ramdas Pophale) SiO2 
 PCOD9213216
Probable space group: C 2/M
;
_chemical_formula_sum "Si O2"
_cell_formula_units_Z 52
_cell_length_a 14.302270
_cell_length_b 15.291229
_cell_length_c 14.530866
_cell_angle_alpha 90.000000
_cell_angle_beta 141.290259
_cell_angle_gamma 90.000000
_cell_volume 1987.374018
_symmetry_space_group_name_H-M "C 2/M"
_symmetry_group_IT_number 12
_symmetry_cell_setting 'monoclinic'
loop_
_space_group_symop_operation_xyz
x,y,z
-x,y,-z
-x,-y,-z
x,-y,z
1/2+x,1/2+y,z
1/2-x,1/2+y,-z
1/2-x,1/2-y,-z
1/2+x,1/2-y,z
loop_
_atom_site_type_symbol
_atom_site_label
_atom_site_fract_x
_atom_site_fract_y
_atom_site_fract_z
Si Si1 0.131955 0.142460 0.029119
Si Si2 0.899313 0.662648 0.701115
Si Si3 0.653210 0.896377 0.657202
Si Si4 0.881435 0.651290 0.987599
Si Si5 0.665676 0.361000 0.380931
Si Si6 0.439822 0.500000 0.180256
Si Si7 0.836581 0.104520 0.332579
O O1 0.289040 0.139974 0.202964
O O2 0.109929 0.244432 0.991144
O O3 0.000000 0.116275 0.000000
O O4 0.124433 0.077331 0.938388
O O5 0.815031 0.616641 0.552871
O O6 0.897277 0.762828 0.664140
O O7 0.777701 0.658220 0.690402
O O8 0.047388 0.621457 0.860479
O O9 0.500000 0.858218 0.500000
O O10 0.784268 0.879785 0.684647
O O11 0.636564 0.000000 0.655101
O O12 0.727651 0.623261 0.820612
O O13 0.000000 0.624129 0.000000
O O14 0.538424 0.426223 0.311531
O O15 0.000000 0.126548 0.500000
O O16 0.817318 0.000000 0.329663
#
# Coordination Sequence:
#
# PCOD9213216 Si02
#       7
#     8   8   8   8   8   4   8
#     4  11  17  31  56  81 109 146 195 233 273 326
#     4  10  22  37  59  86 116 147 189 243 284 335
#     4  11  21  32  51  81 115 149 185 230 276 330
#     4   9  18  34  57  84 110 142 190 238 281 331
#     4  11  21  36  57  85 118 152 192 228 288 340
#     4  12  19  32  58  86 110 158 187 241 258 355
#     4  10  22  40  63  86 110 148 197 239 287 340
#
# _framework density 26.165181
#
# number of rings (size 3 to 8) (size 9 to 14) (size 15 to 20)
#    0.000    1.538    4.615    2.077    1.077    5.231 
#    0.000    0.000    3.385    2.769    0.000    0.000 
#    0.000    0.000    0.000    0.000    0.000    0.000 
#
# Total GULP energy -144884.978001 kJ/mol
# GULP energy per Si atom -5572.499154 kJ/mol
# Density = 2.610563 g / cm^3
# Si number density = 26.165181 Si / 1000 Ang^3
#
#
#
# Elastic Constant Matrix: (Units=GPa)
#
#
# Indices 1 2 3 4 5 6 
#
# 1 67.9837 4.9914 28.9996 -0.0002 10.6669 -0.0002
# 2 4.9914 72.3091 25.0133 -0.0001 19.7833 0.0000
# 3 28.9996 25.0133 245.2316 -0.0002 -15.8826 -0.0002
# 4 -0.0002 -0.0001 -0.0002 50.3838 -0.0002 9.3336
# 5 10.6669 19.7833 -15.8826 -0.0002 37.4124 -0.0001
# 6 -0.0002 0.0000 -0.0002 9.3336 -0.0001 -9.3154
#
#
#
# Elastic Compliance Matrix: (Units=1/GPa)
#
#
# Indices 1 2 3 4 5 6 
#
# 1 0.016742 0.001566 -0.002573 0.000000 -0.006694 0.000000
# 2 0.001566 0.017639 -0.002691 0.000000 -0.010916 0.000000
# 3 -0.002573 -0.002691 0.004932 0.000000 0.004250 0.000000
# 4 0.000000 0.000000 0.000000 0.016740 0.000000 0.016773
# 5 -0.006694 -0.010916 0.004250 0.000000 0.036214 0.000000
# 6 0.000000 0.000000 0.000000 0.016773 0.000000 -0.090543
#
#
# Mechanical properties :
#
#
# Convention : Reuss Voigt Hill
#
# Bulk Modulus (GPa) = 31.33231 55.94811 43.64021
# Shear Modulus (GPa) = 253.02894 37.46418 145.24656
#
# Velocity S-wave (km/s) = 9.84451 3.78806 7.45868
# Velocity P-wave (km/s) = 11.88360 6.36880 9.53367
#
# Compressibility (1/GPa) = 0.03191593
#
# Stress axis : x y z
#
# Youngs Moduli (GPa) = 59.72890 56.69242 202.76367
#
# Poissons Ratio (x) = -0.08877 0.52173
# Poissons Ratio (y) = -0.09352 0.54570
# Poissons Ratio (z) = 0.15369 0.15258
#
# Static dielectric constant tensor:
#      x y z
#    x 2.216610 0.000000 0.010430 
#    y 0.000000 1.983380 0.000000 
#    z 0.010430 0.000000 2.110350 
# 
# From -- ./inp_files/112071.got.cif
#   From: 2010.05.17/outbox.cif.g08.bks.cpg/sg12_57_cif.got.tgz:112071.got - 2010.06.03 13:09:07.
