data_PCOD9213650
_publ_section_title
;
Structure prediction by ZEFSAII (Michael W. Deem and Ramdas Pophale) SiO2 
 PCOD9213650
Probable space group: C 2/M
;
_chemical_formula_sum "Si O2"
_cell_formula_units_Z 40
_cell_length_a 10.505345
_cell_length_b 17.434546
_cell_length_c 26.435948
_cell_angle_alpha 90.000000
_cell_angle_beta 25.076626
_cell_angle_gamma 90.000000
_cell_volume 2052.142439
_symmetry_space_group_name_H-M "C 2/M"
_symmetry_group_IT_number 12
_symmetry_cell_setting 'monoclinic'
loop_
_space_group_symop_operation_xyz
x,y,z
-x,y,-z
-x,-y,-z
x,-y,z
1/2+x,1/2+y,z
1/2-x,1/2+y,-z
1/2-x,1/2-y,-z
1/2+x,1/2-y,z
loop_
_atom_site_type_symbol
_atom_site_label
_atom_site_fract_x
_atom_site_fract_y
_atom_site_fract_z
Si Si1 0.635707 0.205551 0.331851
Si Si2 0.676612 0.675027 0.628411
Si Si3 0.801815 0.740762 0.921985
Si Si4 0.669088 0.088550 0.769555
Si Si5 0.611361 0.589912 0.514613
O O1 0.425836 0.268503 0.379958
O O2 0.774311 0.221212 0.337364
O O3 0.420450 0.133060 0.414785
O O4 0.926883 0.202809 0.191563
O O5 0.417935 0.611385 0.722377
O O6 0.000000 0.640236 0.500000
O O7 0.919750 0.654834 0.864964
O O8 0.500000 0.757036 0.000000
O O9 0.750000 0.750000 0.000000
O O10 0.853551 0.097255 0.650203
O O11 0.571049 0.000000 0.809030
O O12 0.500000 0.618121 0.500000
O O13 0.674857 0.500000 0.487595
#
# Coordination Sequence:
#
# PCOD9213650 Si02
#       5
#     8   8   8   8   8
#     4  11  23  38  63  89 127 159 206 256 312 361
#     4  11  21  34  59  95 123 160 192 248 313 378
#     4  11  25  43  62  88 119 166 218 259 294 355
#     4  10  23  41  64  92 125 161 204 255 313 374
#     4  10  22  38  62  98 131 159 196 252 322 382
#
# _framework density 19.491824999999999
#
# number of rings (size 3 to 8) (size 9 to 14) (size 15 to 20)
#    0.000    1.400    2.000    3.600   11.200    1.600 
#    0.000    1.000    0.000    2.400    0.000    0.000 
#    0.000    0.000    0.000    0.000    0.000    0.000 
#
# Total GULP energy -111536.340100 kJ/mol
# GULP energy per Si atom -5576.817005 kJ/mol
# Density = 1.944746 g / cm^3
# Si number density = 19.491825 Si / 1000 Ang^3
#
#
#
# Elastic Constant Matrix: (Units=GPa)
#
#
# Indices 1 2 3 4 5 6 
#
# 1 136.6632 24.9657 29.6214 -0.0397 8.2730 0.0356
# 2 24.9657 73.7719 25.0736 -0.0575 9.8400 0.0358
# 3 29.6214 25.0736 101.9837 0.2718 0.5665 -0.0242
# 4 -0.0397 -0.0575 0.2718 29.7551 -0.1186 -1.2702
# 5 8.2730 9.8400 0.5665 -0.1186 34.8627 0.0169
# 6 0.0356 0.0358 -0.0242 -1.2702 0.0169 21.9607
#
#
#
# Elastic Compliance Matrix: (Units=1/GPa)
#
#
# Indices 1 2 3 4 5 6 
#
# 1 0.008163 -0.001940 -0.001886 0.000019 -0.001359 -0.000010
# 2 -0.001940 0.015868 -0.003316 0.000042 -0.003964 -0.000021
# 3 -0.001886 -0.003316 0.011162 -0.000106 0.001202 0.000014
# 4 0.000019 0.000042 -0.000106 0.033692 0.000099 0.001948
# 5 -0.001359 -0.003964 0.001202 0.000099 0.030106 -0.000007
# 6 -0.000010 -0.000021 0.000014 0.001948 -0.000007 0.045649
#
#
# Mechanical properties :
#
#
# Convention : Reuss Voigt Hill
#
# Bulk Modulus (GPa) = 47.82827 52.41558 50.12193
# Shear Modulus (GPa) = 30.13980 32.83291 31.48636
#
# Velocity S-wave (km/s) = 3.93654 4.10865 4.02352
# Velocity P-wave (km/s) = 6.72701 7.03260 6.88150
#
# Compressibility (1/GPa) = 0.02090814
#
# Stress axis : x y z
#
# Youngs Moduli (GPa) = 122.50688 63.02140 89.58778
#
# Poissons Ratio (x) = 0.12226 0.16900
# Poissons Ratio (y) = 0.23767 0.29706
# Poissons Ratio (z) = 0.23110 0.20897
#
# Static dielectric constant tensor:
#      x y z
#    x 1.733330 -0.000380 0.027440 
#    y -0.000380 1.710320 -0.000130 
#    z 0.027440 -0.000130 1.694290 
# 
# From -- ./inp_files/130331.got.cif
#   From: 2010.05.17/outbox.cif.g08.bks.cpg/sg12_66_cif.got.tgz:130331.got - 2010.06.03 13:09:07.
