data_PCOD9213848
_publ_section_title
;
Structure prediction by ZEFSAII (Michael W. Deem and Ramdas Pophale) SiO2 
 PCOD9213848
Probable space group: C 2/M
;
_chemical_formula_sum "Si O2"
_cell_formula_units_Z 56
_cell_length_a 24.814949
_cell_length_b 14.257018
_cell_length_c 16.325746
_cell_angle_alpha 90.000000
_cell_angle_beta 23.477989
_cell_angle_gamma 90.000000
_cell_volume 2301.075634
_symmetry_space_group_name_H-M "C 2/M"
_symmetry_group_IT_number 12
_symmetry_cell_setting 'monoclinic'
loop_
_space_group_symop_operation_xyz
x,y,z
-x,y,-z
-x,-y,-z
x,-y,z
1/2+x,1/2+y,z
1/2-x,1/2+y,-z
1/2-x,1/2-y,-z
1/2+x,1/2-y,z
loop_
_atom_site_type_symbol
_atom_site_label
_atom_site_fract_x
_atom_site_fract_y
_atom_site_fract_z
Si Si1 0.965690 0.108539 0.643808
Si Si2 0.189683 0.600028 0.259455
Si Si3 0.397214 0.109898 0.391721
Si Si4 0.987333 0.693972 0.921305
Si Si5 0.677955 0.891273 0.081622
Si Si6 0.813949 0.242500 0.625069
Si Si7 0.505117 0.599626 0.092372
O O1 0.079274 0.161018 0.537463
O O2 0.000000 0.109179 0.500000
O O3 0.818111 0.154274 0.858621
O O4 0.959934 0.000000 0.679472
O O5 0.127299 0.500000 0.371502
O O6 0.123898 0.688434 0.393325
O O7 0.184062 0.607479 0.170727
O O8 0.342716 0.598023 0.082196
O O9 0.294936 0.185452 0.575075
O O10 0.365107 0.000000 0.453717
O O11 0.431858 0.122821 0.248222
O O12 0.539046 0.141788 0.236279
O O13 0.823602 0.700683 0.144310
O O14 0.043069 0.796909 0.817548
O O15 0.000000 0.676692 0.000000
O O16 0.682737 0.000000 0.045846
O O17 0.440193 0.500000 0.208957
O O18 0.500000 0.599033 0.000000
#
# Coordination Sequence:
#
# PCOD9213848 Si02
#       7
#     8   8   8   8   8   8   8
#     4  10  22  39  58  87 131 173 214 263 316 382
#     4   9  18  34  57  89 126 161 205 258 314 376
#     4  11  25  44  66  95 133 175 217 269 332 392
#     4  10  23  44  67  94 128 171 219 272 334 398
#     4   9  20  38  61  88 126 170 209 258 319 381
#     4  11  24  37  65  98 126 169 216 268 321 389
#     4   8  15  31  57  86 117 156 203 255 310 363
#
# _framework density 24.336445000000001
#
# number of rings (size 3 to 8) (size 9 to 14) (size 15 to 20)
#    0.000    2.286    0.000    1.286    6.000    3.714 
#    0.000    2.143    0.000    0.000    0.000    0.000 
#    0.000    0.000    0.000    0.000    0.000    0.000 
#
# Total GULP energy -156352.040856 kJ/mol
# GULP energy per Si atom -5584.001459 kJ/mol
# Density = 2.428105 g / cm^3
# Si number density = 24.336445 Si / 1000 Ang^3
#
#
#
# Elastic Constant Matrix: (Units=GPa)
#
#
# Indices 1 2 3 4 5 6 
#
# 1 71.6855 5.0084 -0.1841 0.0000 -6.3508 0.0000
# 2 5.0084 83.4454 13.6312 0.0001 -0.6425 0.0000
# 3 -0.1841 13.6312 66.1308 0.0001 -1.7069 -0.0001
# 4 0.0000 0.0001 0.0001 13.0268 -0.0001 12.2210
# 5 -6.3508 -0.6425 -1.7069 -0.0001 42.1906 0.0000
# 6 0.0000 0.0000 -0.0001 12.2210 0.0000 22.2383
#
#
#
# Elastic Compliance Matrix: (Units=1/GPa)
#
#
# Indices 1 2 3 4 5 6 
#
# 1 0.014201 -0.000881 0.000276 0.000000 0.002135 0.000000
# 2 -0.000881 0.012456 -0.002571 0.000000 -0.000047 0.000000
# 3 0.000276 -0.002571 0.015669 0.000000 0.000636 0.000000
# 4 0.000000 0.000000 0.000000 0.158460 0.000000 -0.087081
# 5 0.002135 -0.000047 0.000636 0.000000 0.024048 0.000000
# 6 0.000000 0.000000 0.000000 -0.087081 0.000000 0.092823
#
#
# Mechanical properties :
#
#
# Convention : Reuss Voigt Hill
#
# Bulk Modulus (GPa) = 27.79757 28.68586 28.24172
# Shear Modulus (GPa) = 14.88090 29.01155 21.94622
#
# Velocity S-wave (km/s) = 2.47547 3.45643 3.00623
# Velocity P-wave (km/s) = 4.42917 5.26707 4.86619
#
# Compressibility (1/GPa) = 0.03597437
#
# Stress axis : x y z
#
# Youngs Moduli (GPa) = 70.41623 80.27984 63.82133
#
# Poissons Ratio (x) = 0.07073 -0.01763
# Poissons Ratio (y) = 0.06204 0.16410
# Poissons Ratio (z) = -0.01945 0.20642
#
# Static dielectric constant tensor:
#      x y z
#    x 1.978950 0.000000 -0.066520 
#    y 0.000000 1.984320 0.000000 
#    z -0.066520 0.000000 1.999480 
# 
# From -- ./inp_files/240869.got.cif
#   From: 2010.05.17/outbox.cif.g08.bks.cpg/sg12_121_cif.got.tgz:240869.got - 2010.06.03 13:09:07.
