data_PCOD9213154
_publ_section_title
;
Structure prediction by ZEFSAII (Michael W. Deem and Ramdas Pophale) SiO2 
 PCOD9213154
Probable space group: C 2/M
;
_chemical_formula_sum "Si O2"
_cell_formula_units_Z 64
_cell_length_a 7.209250
_cell_length_b 21.465024
_cell_length_c 21.024716
_cell_angle_alpha 90.000000
_cell_angle_beta 74.446172
_cell_angle_gamma 90.000000
_cell_volume 3134.359172
_symmetry_space_group_name_H-M "C 2/M"
_symmetry_group_IT_number 12
_symmetry_cell_setting 'monoclinic'
loop_
_space_group_symop_operation_xyz
x,y,z
-x,y,-z
-x,-y,-z
x,-y,z
1/2+x,1/2+y,z
1/2-x,1/2+y,-z
1/2-x,1/2-y,-z
1/2+x,1/2-y,z
loop_
_atom_site_type_symbol
_atom_site_label
_atom_site_fract_x
_atom_site_fract_y
_atom_site_fract_z
Si Si1 0.719508 0.428003 0.069525
Si Si2 0.768824 0.680649 0.578850
Si Si3 0.898228 0.569858 0.191114
Si Si4 0.801980 0.664224 0.301979
Si Si5 0.252051 0.308479 0.281276
Si Si6 0.274713 0.680681 0.024653
Si Si7 0.223557 0.671249 0.558295
Si Si8 0.690975 0.374853 0.849195
O O1 0.729558 0.500000 0.045804
O O2 0.841181 0.422189 0.122921
O O3 0.498021 0.410887 0.108844
O O4 0.793479 0.376851 0.012416
O O5 0.672930 0.669124 0.656314
O O6 0.693141 0.653627 0.518789
O O7 0.761133 0.755187 0.567491
O O8 0.993342 0.664086 0.568531
O O9 0.847939 0.500000 0.214377
O O10 0.782512 0.617053 0.246210
O O11 0.126906 0.580526 0.178805
O O12 0.743705 0.733713 0.286413
O O13 0.721569 0.643343 0.378328
O O14 0.032036 0.670083 0.292970
O O15 0.356895 0.335858 0.209974
O O16 0.228862 0.671692 0.102993
O O17 0.500000 0.671657 0.000000
O O18 0.250000 0.750000 0.000000
#
# Coordination Sequence:
#
# PCOD9213154 Si02
#       8
#     8   8   8   8   8   8   8   8
#     4  10  23  41  59  80 104 139 183 220 260 313
#     4   8  13  23  38  62  97 128 164 196 247 312
#     4  10  22  37  56  79 104 139 179 218 255 305
#     4   9  18  29  46  73 103 134 171 209 258 312
#     4   9  18  28  46  76 101 136 163 209 267 314
#     4  10  24  38  58  84 111 142 174 218 268 317
#     4   8  13  23  39  61  94 134 158 203 247 296
#     4  10  22  37  57  79 106 138 171 220 265 309
#
# _framework density 20.418845999999998
#
# number of rings (size 3 to 8) (size 9 to 14) (size 15 to 20)
#    0.000    2.750    0.000    0.375    5.250    4.750 
#    0.000    1.250    0.000    0.000    0.000   16.625 
#    0.000    2.000    0.000    0.000    0.000    0.000 
#
# Total GULP energy -178298.357878 kJ/mol
# GULP energy per Si atom -5571.823684 kJ/mol
# Density = 2.037237 g / cm^3
# Si number density = 20.418846 Si / 1000 Ang^3
#
#
#
# Elastic Constant Matrix: (Units=GPa)
#
#
# Indices 1 2 3 4 5 6 
#
# 1 59.7108 18.9931 14.7608 0.0000 7.6463 0.0000
# 2 18.9931 87.5731 71.5612 0.0000 18.2653 0.0000
# 3 14.7608 71.5612 145.9171 0.0000 18.5390 0.0000
# 4 0.0000 0.0000 0.0000 8.8710 0.0000 5.8003
# 5 7.6463 18.2653 18.5390 0.0000 26.5203 0.0000
# 6 0.0000 0.0000 0.0000 5.8003 0.0000 16.0247
#
#
#
# Elastic Compliance Matrix: (Units=1/GPa)
#
#
# Indices 1 2 3 4 5 6 
#
# 1 0.018191 -0.003551 0.000282 0.000000 -0.002996 0.000000
# 2 -0.003551 0.021103 -0.009080 0.000000 -0.007163 0.000000
# 3 0.000282 -0.009080 0.011516 0.000000 -0.001878 0.000000
# 4 0.000000 0.000000 0.000000 0.147678 0.000000 -0.053453
# 5 -0.002996 -0.007163 -0.001878 0.000000 0.044817 0.000000
# 6 0.000000 0.000000 0.000000 -0.053453 0.000000 0.081751
#
#
# Mechanical properties :
#
#
# Convention : Reuss Voigt Hill
#
# Bulk Modulus (GPa) = 38.29600 55.98124 47.13862
# Shear Modulus (GPa) = 13.94861 22.80895 18.37878
#
# Velocity S-wave (km/s) = 2.61650 3.34586 3.00340
# Velocity P-wave (km/s) = 5.28432 6.51171 5.92986
#
# Compressibility (1/GPa) = 0.02611238
#
# Stress axis : x y z
#
# Youngs Moduli (GPa) = 54.97276 47.38644 86.83246
#
# Poissons Ratio (x) = 0.16825 -0.02447
# Poissons Ratio (y) = 0.19519 0.78845
# Poissons Ratio (z) = -0.01549 0.43028
#
# Static dielectric constant tensor:
#      x y z
#    x 1.821360 0.000000 -0.024560 
#    y 0.000000 0.388370 0.000000 
#    z -0.024560 0.000000 1.860790 
# 
# From -- ./inp_files/301425.got.cif
#   From: 2010.05.17/outbox.cif.g08.bks.cpg/sg12_151_cif.got.tgz:301425.got - 2010.06.03 13:09:07.
