data_PCOD9213137
_publ_section_title
;
Structure prediction by ZEFSAII (Michael W. Deem and Ramdas Pophale) SiO2 
 PCOD9213137
Probable space group: C 2/M
;
_chemical_formula_sum "Si O2"
_cell_formula_units_Z 64
_cell_length_a 21.335225
_cell_length_b 28.363855
_cell_length_c 15.091032
_cell_angle_alpha 90.000000
_cell_angle_beta 21.283478
_cell_angle_gamma 90.000000
_cell_volume 3314.875111
_symmetry_space_group_name_H-M "C 2/M"
_symmetry_group_IT_number 12
_symmetry_cell_setting 'monoclinic'
loop_
_space_group_symop_operation_xyz
x,y,z
-x,y,-z
-x,-y,-z
x,-y,z
1/2+x,1/2+y,z
1/2-x,1/2+y,-z
1/2-x,1/2-y,-z
1/2+x,1/2-y,z
loop_
_atom_site_type_symbol
_atom_site_label
_atom_site_fract_x
_atom_site_fract_y
_atom_site_fract_z
Si Si1 0.047109 0.110925 0.228818
Si Si2 0.633787 0.807550 0.937128
Si Si3 0.127130 0.787684 0.210915
Si Si4 0.314114 0.554100 0.794669
Si Si5 0.782513 0.696798 0.485718
Si Si6 0.195991 0.719871 0.344562
Si Si7 0.686904 0.901884 0.786919
Si Si8 0.059035 0.859663 0.026565
O O1 0.069944 0.166618 0.228387
O O2 0.170528 0.083109 0.134957
O O3 0.086203 0.104261 0.072718
O O4 0.856512 0.089797 0.503787
O O5 0.761571 0.806762 0.853030
O O6 0.645634 0.756068 0.878400
O O7 0.693699 0.845674 0.788898
O O8 0.443007 0.821350 0.218721
O O9 0.966407 0.755029 0.453717
O O10 0.250000 0.750000 0.000000
O O11 0.500000 0.554704 0.500000
O O12 0.266061 0.500000 0.874204
O O13 0.200513 0.578000 0.868458
O O14 0.750000 0.750000 0.500000
O O15 0.837861 0.700200 0.514087
O O16 0.607363 0.668005 0.715923
O O17 0.270198 0.673821 0.197149
O O18 0.500000 0.917091 0.000000
O O19 0.000000 0.870535 0.000000
#
# Coordination Sequence:
#
# PCOD9213137 Si02
#       8
#     8   8   8   8   8   8   8   8
#     4  11  21  40  59  84 117 156 199 243 293 355
#     4  12  22  32  50  75 111 150 201 239 284 341
#     4  12  22  36  51  77 116 157 208 244 283 339
#     4   9  20  40  64  89 118 150 188 237 301 368
#     4  11  21  34  46  71 107 156 201 245 282 334
#     4  11  22  33  49  70 106 159 204 242 278 326
#     4  11  23  35  58  90 118 151 190 238 296 364
#     4  10  22  37  55  77 113 156 206 248 289 335
#
# _framework density 19.306909999999998
#
# number of rings (size 3 to 8) (size 9 to 14) (size 15 to 20)
#    0.000    1.125    5.000    2.625    1.750    0.250 
#    0.000    0.000    0.000    0.375    0.000    0.000 
#    0.000   22.000    0.000    0.000    0.000    0.375 
#
# Total GULP energy -178229.213211 kJ/mol
# GULP energy per Si atom -5569.662913 kJ/mol
# Density = 1.926297 g / cm^3
# Si number density = 19.306910 Si / 1000 Ang^3
#
#
#
# Elastic Constant Matrix: (Units=GPa)
#
#
# Indices 1 2 3 4 5 6 
#
# 1 135.6203 38.7670 35.1408 0.0272 -1.7708 -0.0193
# 2 38.7670 47.5181 4.5975 0.0225 5.0027 -0.0049
# 3 35.1408 4.5975 83.2349 0.0565 2.8658 -0.0140
# 4 0.0272 0.0225 0.0565 8.1638 -0.0131 6.9062
# 5 -1.7708 5.0027 2.8658 -0.0131 33.0098 0.0152
# 6 -0.0193 -0.0049 -0.0140 6.9062 0.0152 6.1832
#
#
#
# Elastic Compliance Matrix: (Units=1/GPa)
#
#
# Indices 1 2 3 4 5 6 
#
# 1 0.011027 -0.008828 -0.004247 0.000189 0.002298 -0.000199
# 2 -0.008828 0.028549 0.002324 -0.001523 -0.005003 0.001714
# 3 -0.004247 0.002324 0.013742 -0.002006 -0.001775 0.002264
# 4 0.000189 -0.001523 -0.002006 2.222245 0.002442 -2.482089
# 5 0.002298 -0.005003 -0.001775 0.002442 0.031332 -0.002805
# 6 -0.000199 0.001714 0.002264 -2.482089 -0.002805 2.934044
#
#
# Mechanical properties :
#
#
# Convention : Reuss Voigt Hill
#
# Bulk Modulus (GPa) = 31.43094 47.04266 39.23680
# Shear Modulus (GPa) = 0.94822 21.99590 11.47206
#
# Velocity S-wave (km/s) = 0.70157 3.37898 2.44025
# Velocity P-wave (km/s) = 4.11962 6.29618 5.32039
#
# Compressibility (1/GPa) = 0.03181579
#
# Stress axis : x y z
#
# Youngs Moduli (GPa) = 90.68334 35.02705 72.77038
#
# Poissons Ratio (x) = 0.30921 0.30908
# Poissons Ratio (y) = 0.80052 -0.16909
# Poissons Ratio (z) = 0.38516 -0.08139
#
# Static dielectric constant tensor:
#      x y z
#    x 1.770260 -0.000020 -0.037270 
#    y -0.000020 1.645960 0.000050 
#    z -0.037270 0.000050 1.742480 
# 
# From -- ./inp_files/235962.got.cif
#   From: 2010.05.17/outbox.cif.g08.bks.cpg/sg12_118_cif.got.tgz:235962.got - 2010.06.03 13:09:07.
