data_PCOD9213016
_publ_section_title
;
Structure prediction by ZEFSAII (Michael W. Deem and Ramdas Pophale) SiO2 
 PCOD9213016
Probable space group: C 2/M
;
_chemical_formula_sum "Si O2"
_cell_formula_units_Z 48
_cell_length_a 24.660641
_cell_length_b 8.428501
_cell_length_c 12.268343
_cell_angle_alpha 90.000000
_cell_angle_beta 89.470564
_cell_angle_gamma 90.000000
_cell_volume 2549.893676
_symmetry_space_group_name_H-M "C 2/M"
_symmetry_group_IT_number 12
_symmetry_cell_setting 'monoclinic'
loop_
_space_group_symop_operation_xyz
x,y,z
-x,y,-z
-x,-y,-z
x,-y,z
1/2+x,1/2+y,z
1/2-x,1/2+y,-z
1/2-x,1/2-y,-z
1/2+x,1/2-y,z
loop_
_atom_site_type_symbol
_atom_site_label
_atom_site_fract_x
_atom_site_fract_y
_atom_site_fract_z
Si Si1 0.665900 0.308319 0.037787
Si Si2 0.735070 0.691675 0.828640
Si Si3 0.544078 0.691533 0.086870
Si Si4 0.586704 0.808427 0.530973
Si Si5 0.705758 0.310212 0.586362
Si Si6 0.483943 0.191553 0.673210
O O1 0.665948 0.500000 0.038717
O O2 0.706618 0.249848 0.130700
O O3 0.604692 0.252183 0.056855
O O4 0.691843 0.256594 0.921814
O O5 0.735499 0.500000 0.828102
O O6 0.719809 0.747714 0.708361
O O7 0.544802 0.500000 0.082281
O O8 0.527722 0.741743 0.208198
O O9 0.500000 0.748623 0.000000
O O10 0.645781 0.742706 0.553319
O O11 0.561440 0.760013 0.414792
O O12 0.542197 0.759952 0.622399
O O13 0.589118 0.000000 0.531414
O O14 0.707642 0.500000 0.588031
O O15 0.750000 0.250000 0.500000
O O16 0.483502 0.000000 0.677605
#
# Coordination Sequence:
#
# PCOD9213016 Si02
#       6
#     8   8   8   8   8   8
#     4   9  19  37  58  81 110 145 185 229 277 329
#     4   9  20  38  58  80 108 147 187 227 278 330
#     4  10  22  36  56  85 117 148 183 233 283 329
#     4   9  20  40  61  83 113 149 187 234 285 332
#     4  11  24  38  58  86 116 150 188 233 281 335
#     4   9  20  39  61  83 113 150 188 232 283 337
#
# _framework density 18.824314999999999
#
# number of rings (size 3 to 8) (size 9 to 14) (size 15 to 20)
#    0.000    2.500    0.000    1.500    4.667    3.667 
#    0.000    1.667    0.000    0.000    0.000    0.000 
#    0.000    0.000    0.000    0.000    0.000    0.000 
#
# Total GULP energy -133968.828113 kJ/mol
# GULP energy per Si atom -5582.034505 kJ/mol
# Density = 1.878147 g / cm^3
# Si number density = 18.824315 Si / 1000 Ang^3
#
#
#
# Elastic Constant Matrix: (Units=GPa)
#
#
# Indices 1 2 3 4 5 6 
#
# 1 212.4127 27.3363 130.0166 0.0000 8.8922 0.0000
# 2 27.3363 8.9630 22.0866 0.0000 1.4154 0.0000
# 3 130.0166 22.0866 176.1824 0.0000 8.1198 0.0000
# 4 0.0000 0.0000 0.0000 31.3671 0.0000 0.3559
# 5 8.8922 1.4154 8.1198 0.0000 15.5057 0.0000
# 6 0.0000 0.0000 0.0000 0.3559 0.0000 29.9812
#
#
#
# Elastic Compliance Matrix: (Units=1/GPa)
#
#
# Indices 1 2 3 4 5 6 
#
# 1 0.010365 -0.018372 -0.005276 0.000000 -0.001504 0.000000
# 2 -0.018372 0.194278 -0.010724 0.000000 -0.001583 0.000000
# 3 -0.005276 -0.010724 0.010995 0.000000 -0.001753 0.000000
# 4 0.000000 0.000000 0.000000 0.031885 0.000000 -0.000378
# 5 -0.001504 -0.001583 -0.001753 0.000000 0.066417 0.000000
# 6 0.000000 0.000000 0.000000 -0.000378 0.000000 0.033359
#
#
# Mechanical properties :
#
#
# Convention : Reuss Voigt Hill
#
# Bulk Modulus (GPa) = 6.80769 84.04856 45.42812
# Shear Modulus (GPa) = 10.75249 29.91205 20.33227
#
# Velocity S-wave (km/s) = 2.39258 3.99056 3.29006
# Velocity P-wave (km/s) = 3.35512 8.12273 6.21432
#
# Compressibility (1/GPa) = 0.14689273
#
# Stress axis : x y z
#
# Youngs Moduli (GPa) = 96.48035 5.14725 90.95090
#
# Poissons Ratio (x) = 0.09457 0.47989
# Poissons Ratio (y) = 1.77254 0.97538
# Poissons Ratio (z) = 0.50907 0.05520
#
# Static dielectric constant tensor:
#      x y z
#    x 1.631380 0.000000 -0.003430 
#    y 0.000000 1.653270 0.000000 
#    z -0.003430 0.000000 1.634900 
# 
# From -- ./inp_files/172114.got.cif
#   From: 2010.05.17/outbox.cif.g08.bks.cpg/sg12_87_cif.got.tgz:172114.got - 2010.06.03 13:09:07.
