data_PCOD9213909
_publ_section_title
;
Structure prediction by ZEFSAII (Michael W. Deem and Ramdas Pophale) SiO2 
 PCOD9213909
Probable space group: C 2/M
;
_chemical_formula_sum "Si O2"
_cell_formula_units_Z 64
_cell_length_a 12.123610
_cell_length_b 15.455227
_cell_length_c 26.136675
_cell_angle_alpha 90.000000
_cell_angle_beta 42.571603
_cell_angle_gamma 90.000000
_cell_volume 3313.085051
_symmetry_space_group_name_H-M "C 2/M"
_symmetry_group_IT_number 12
_symmetry_cell_setting 'monoclinic'
loop_
_space_group_symop_operation_xyz
x,y,z
-x,y,-z
-x,-y,-z
x,-y,z
1/2+x,1/2+y,z
1/2-x,1/2+y,-z
1/2-x,1/2-y,-z
1/2+x,1/2-y,z
loop_
_atom_site_type_symbol
_atom_site_label
_atom_site_fract_x
_atom_site_fract_y
_atom_site_fract_z
Si Si1 0.326010 0.902376 0.088024
Si Si2 0.526126 0.096828 0.229871
Si Si3 0.725075 0.402026 0.595776
Si Si4 0.493501 0.901975 0.415889
Si Si5 0.982569 0.739510 0.680774
Si Si6 0.590326 0.398338 0.918366
Si Si7 0.621151 0.287336 0.084576
Si Si8 0.348752 0.845805 0.197125
O O1 0.208605 0.834234 0.101451
O O2 0.336016 0.889072 0.145524
O O3 0.269040 0.000000 0.097078
O O4 0.500000 0.892537 0.000000
O O5 0.491660 0.176030 0.279745
O O6 0.714457 0.110250 0.146986
O O7 0.389568 0.096006 0.232080
O O8 0.526226 0.000000 0.253631
O O9 0.651775 0.500000 0.621473
O O10 0.847654 0.396354 0.602045
O O11 0.602408 0.321978 0.639264
O O12 0.838397 0.395472 0.506684
O O13 0.495817 0.824624 0.374735
O O14 0.492099 0.000000 0.394169
O O15 0.803830 0.782535 0.743113
O O16 0.553771 0.500000 0.927257
O O17 0.504471 0.351147 0.900845
O O18 0.500000 0.364022 0.000000
O O19 0.512270 0.209657 0.140102
O O20 0.750000 0.250000 0.000000
#
# Coordination Sequence:
#
# PCOD9213909 Si02
#       8
#     8   8   8   8   8   8   8   8
#     4  11  25  43  61  84 113 156 207 262 318 374
#     4  11  24  42  60  86 124 165 207 260 315 376
#     4   9  20  39  65  94 129 164 205 250 303 363
#     4   9  19  39  66  97 125 163 207 252 299 364
#     4  12  22  39  62  94 129 164 207 252 315 372
#     4  10  22  39  60  83 111 154 205 258 314 367
#     4  12  23  38  62  84 116 148 204 261 314 361
#     4  12  25  40  60  89 122 162 207 256 319 373
#
# _framework density 19.317343000000001
#
# number of rings (size 3 to 8) (size 9 to 14) (size 15 to 20)
#    0.000    1.250    2.500    4.500    1.750    1.000 
#    0.000    1.250    0.000    0.000    0.000    7.875 
#    0.000    0.000    0.000    0.000    0.000    0.000 
#
# Total GULP energy -178676.384353 kJ/mol
# GULP energy per Si atom -5583.637011 kJ/mol
# Density = 1.927338 g / cm^3
# Si number density = 19.317343 Si / 1000 Ang^3
#
#
#
# Elastic Constant Matrix: (Units=GPa)
#
#
# Indices 1 2 3 4 5 6 
#
# 1 86.3814 46.8000 29.0443 0.0001 8.4727 0.0000
# 2 46.8000 143.0537 60.7995 0.0001 -2.6251 0.0000
# 3 29.0443 60.7995 67.3737 -0.0001 1.6225 0.0000
# 4 0.0001 0.0001 -0.0001 18.3573 0.0000 -9.6009
# 5 8.4727 -2.6251 1.6225 0.0000 26.1900 0.0000
# 6 0.0000 0.0000 0.0000 -9.6009 0.0000 41.9054
#
#
#
# Elastic Compliance Matrix: (Units=1/GPa)
#
#
# Indices 1 2 3 4 5 6 
#
# 1 0.015124 -0.003767 -0.002998 0.000000 -0.005085 0.000000
# 2 -0.003767 0.012361 -0.009604 0.000000 0.003053 0.000000
# 3 -0.002998 -0.009604 0.024839 0.000000 -0.001532 0.000000
# 4 0.000000 0.000000 0.000000 0.061890 0.000000 0.014180
# 5 -0.005085 0.003053 -0.001532 0.000000 0.040228 0.000000
# 6 0.000000 0.000000 0.000000 0.014180 0.000000 0.027112
#
#
# Mechanical properties :
#
#
# Convention : Reuss Voigt Hill
#
# Bulk Modulus (GPa) = 51.05843 63.34402 57.20123
# Shear Modulus (GPa) = 22.64280 27.96823 25.30551
#
# Velocity S-wave (km/s) = 3.42738 3.80916 3.62330
# Velocity P-wave (km/s) = 6.49241 7.22556 6.86877
#
# Compressibility (1/GPa) = 0.01958540
#
# Stress axis : x y z
#
# Youngs Moduli (GPa) = 66.11910 80.90219 40.25952
#
# Poissons Ratio (x) = 0.30476 0.12070
# Poissons Ratio (y) = 0.24907 0.38666
# Poissons Ratio (z) = 0.19823 0.77699
#
# Static dielectric constant tensor:
#      x y z
#    x 1.731300 0.000000 0.056200 
#    y 0.000000 1.675200 0.000000 
#    z 0.056200 0.000000 1.682670 
# 
# From -- ./inp_files/358389.got.cif
#   From: 2010.05.17/outbox.cif.g08.bks.cpg/sg12_180_cif.got.tgz:358389.got - 2010.06.03 13:09:07.
