data_PCOD9213098
_publ_section_title
;
Structure prediction by ZEFSAII (Michael W. Deem and Ramdas Pophale) SiO2 
 PCOD9213098
Probable space group: C 2/M
;
_chemical_formula_sum "Si O2"
_cell_formula_units_Z 44
_cell_length_a 8.442017
_cell_length_b 18.641661
_cell_length_c 17.616562
_cell_angle_alpha 90.000000
_cell_angle_beta 56.547230
_cell_angle_gamma 90.000000
_cell_volume 2313.104833
_symmetry_space_group_name_H-M "C 2/M"
_symmetry_group_IT_number 12
_symmetry_cell_setting 'monoclinic'
loop_
_space_group_symop_operation_xyz
x,y,z
-x,y,-z
-x,-y,-z
x,-y,z
1/2+x,1/2+y,z
1/2-x,1/2+y,-z
1/2-x,1/2-y,-z
1/2+x,1/2-y,z
loop_
_atom_site_type_symbol
_atom_site_label
_atom_site_fract_x
_atom_site_fract_y
_atom_site_fract_z
Si Si1 0.990040 0.699886 0.091714
Si Si2 0.253030 0.082412 0.733684
Si Si3 0.218500 0.082870 0.924945
Si Si4 0.500000 0.715618 0.500000
Si Si5 0.946427 0.199926 0.787746
Si Si6 0.918382 0.687142 0.374924
O O1 0.772063 0.680874 0.169305
O O2 0.135076 0.636485 0.074188
O O3 0.040752 0.767313 0.131056
O O4 0.000000 0.716092 0.000000
O O5 0.243681 0.086658 0.827686
O O6 0.452847 0.116987 0.657929
O O7 0.087326 0.133038 0.745012
O O8 0.232116 0.000000 0.716511
O O9 0.249891 0.000000 0.940899
O O10 0.000000 0.100864 0.000000
O O11 0.693727 0.673175 0.432723
O O12 0.536769 0.766121 0.562529
O O13 0.016362 0.262903 0.712895
#
# Coordination Sequence:
#
# PCOD9213098 Si02
#       6
#     8   8   8   4   8   8
#     4  12  23  35  60  92 125 162 218 260 299 351
#     4  11  23  41  64  91 130 168 201 255 318 366
#     4  10  22  41  60  85 129 175 209 251 312 362
#     4  10  22  36  72  92 118 152 210 254 318 366
#     4  12  22  39  62  90 127 160 210 257 299 372
#     4  11  20  41  64  95 117 159 203 255 307 383
#
# _framework density 19.022051999999999
#
# number of rings (size 3 to 8) (size 9 to 14) (size 15 to 20)
#    0.000    0.909    5.455    1.636    0.000    2.545 
#    0.000    0.909    0.000    0.000    0.000    0.000 
#    0.000    0.000    0.000    0.000    0.000    0.000 
#
# Total GULP energy -123027.437215 kJ/mol
# GULP energy per Si atom -5592.156237 kJ/mol
# Density = 1.897876 g / cm^3
# Si number density = 19.022052 Si / 1000 Ang^3
#
#
#
# Elastic Constant Matrix: (Units=GPa)
#
#
# Indices 1 2 3 4 5 6 
#
# 1 108.4061 50.9073 28.2180 0.0000 -44.7485 0.0000
# 2 50.9073 120.3981 17.7109 0.0000 -27.5694 0.0000
# 3 28.2180 17.7109 67.4644 0.0000 -29.6693 0.0000
# 4 0.0000 0.0000 0.0000 25.3885 0.0000 -9.4951
# 5 -44.7485 -27.5694 -29.6693 0.0000 53.7722 0.0000
# 6 0.0000 0.0000 0.0000 -9.4951 0.0000 33.4417
#
#
#
# Elastic Compliance Matrix: (Units=1/GPa)
#
#
# Indices 1 2 3 4 5 6 
#
# 1 0.015712 -0.004114 -0.000884 0.000000 0.010478 0.000000
# 2 -0.004114 0.010499 -0.000230 0.000000 0.001833 0.000000
# 3 -0.000884 -0.000230 0.019644 0.000000 0.009986 0.000000
# 4 0.000000 0.000000 0.000000 0.044067 0.000000 0.012512
# 5 0.010478 0.001833 0.009986 0.000000 0.033766 0.000000
# 6 0.000000 0.000000 0.000000 0.012512 0.000000 0.033455
#
#
# Mechanical properties :
#
#
# Convention : Reuss Voigt Hill
#
# Bulk Modulus (GPa) = 28.24832 54.43789 41.34311
# Shear Modulus (GPa) = 27.87108 35.81597 31.84353
#
# Velocity S-wave (km/s) = 3.83194 4.34391 4.09593
# Velocity P-wave (km/s) = 5.87034 7.33756 6.64457
#
# Compressibility (1/GPa) = 0.03540034
#
# Stress axis : x y z
#
# Youngs Moduli (GPa) = 63.64648 95.25031 50.90624
#
# Poissons Ratio (x) = 0.39186 0.04498
# Poissons Ratio (y) = 0.26184 0.01168
# Poissons Ratio (z) = 0.05623 0.02186
#
# Static dielectric constant tensor:
#      x y z
#    x 1.662310 0.000000 -0.011690 
#    y 0.000000 1.635470 0.000000 
#    z -0.011690 0.000000 1.686890 
# 
# From -- ./inp_files/195364.got.cif
#   From: 2010.05.17/outbox.cif.g08.bks.cpg/sg12_98_cif.got.tgz:195364.got - 2010.06.03 13:09:07.
