data_PCOD9213767
_publ_section_title
;
Structure prediction by ZEFSAII (Michael W. Deem and Ramdas Pophale) SiO2 
 PCOD9213767
Probable space group: C 2/M
;
_chemical_formula_sum "Si O2"
_cell_formula_units_Z 64
_cell_length_a 8.625743
_cell_length_b 27.131471
_cell_length_c 15.765847
_cell_angle_alpha 90.000000
_cell_angle_beta 91.541502
_cell_angle_gamma 90.000000
_cell_volume 3688.331637
_symmetry_space_group_name_H-M "C 2/M"
_symmetry_group_IT_number 12
_symmetry_cell_setting 'monoclinic'
loop_
_space_group_symop_operation_xyz
x,y,z
-x,y,-z
-x,-y,-z
x,-y,z
1/2+x,1/2+y,z
1/2-x,1/2+y,-z
1/2-x,1/2-y,-z
1/2+x,1/2-y,z
loop_
_atom_site_type_symbol
_atom_site_label
_atom_site_fract_x
_atom_site_fract_y
_atom_site_fract_z
Si Si1 0.044234 0.055770 0.101272
Si Si2 0.302499 0.941746 0.885035
Si Si3 0.792921 0.624944 0.051879
Si Si4 0.120180 0.226775 0.437691
Si Si5 0.540151 0.860539 0.193173
Si Si6 0.113270 0.708495 0.674551
Si Si7 0.177355 0.212722 0.821241
Si Si8 0.105765 0.783217 0.070134
O O1 0.185636 0.092712 0.113824
O O2 0.878613 0.065597 0.141551
O O3 0.092912 0.000000 0.120605
O O4 0.000000 0.057901 0.000000
O O5 0.412992 0.917728 0.816082
O O6 0.326872 0.000000 0.899869
O O7 0.327870 0.910518 0.972678
O O8 0.684589 0.670577 0.024822
O O9 0.933606 0.647158 0.108034
O O10 0.250000 0.250000 0.500000
O O11 0.225269 0.197710 0.371460
O O12 0.000000 0.200251 0.500000
O O13 0.020536 0.269540 0.389077
O O14 0.449318 0.837052 0.270798
O O15 0.702415 0.831216 0.191152
O O16 0.148073 0.754257 0.737990
O O17 0.268026 0.248873 0.886397
O O18 0.011680 0.199026 0.858189
O O19 0.000000 0.755993 0.000000
#
# Coordination Sequence:
#
# PCOD9213767 Si02
#       8
#     8   8   8   8   8   8   8   8
#     4   8  15  31  51  66  84 121 177 246 302 328
#     4  10  22  39  55  72 101 143 201 260 298 323
#     4  11  20  33  48  72  95 137 200 247 285 323
#     4   9  19  35  61  85 107 144 171 203 253 327
#     4  12  23  33  52  77 107 147 188 228 288 332
#     4  11  19  37  53  78 117 145 175 213 262 337
#     4  12  22  37  48  69 106 153 181 233 286 317
#     4  12  22  32  45  63  96 141 200 243 268 315
#
# _framework density 17.352018999999999
#
# number of rings (size 3 to 8) (size 9 to 14) (size 15 to 20)
#    0.000    1.375    3.750    4.500    0.000    2.500 
#    0.000    0.000    0.000    0.000    0.000    0.000 
#    0.000    5.000    0.000    0.750    0.000    0.000 
#
# Total GULP energy -178417.604733 kJ/mol
# GULP energy per Si atom -5575.550148 kJ/mol
# Density = 1.731253 g / cm^3
# Si number density = 17.352019 Si / 1000 Ang^3
#
#
#
# Elastic Constant Matrix: (Units=GPa)
#
#
# Indices 1 2 3 4 5 6 
#
# 1 94.6871 33.4813 36.3503 0.0000 -19.6749 0.0000
# 2 33.4813 71.3760 32.7070 0.0000 -11.9590 0.0000
# 3 36.3503 32.7070 64.9512 0.0000 -9.8730 0.0000
# 4 0.0000 0.0000 0.0000 8.6686 0.0000 -6.2623
# 5 -19.6749 -11.9590 -9.8730 0.0000 46.7012 0.0000
# 6 0.0000 0.0000 0.0000 -6.2623 0.0000 27.5031
#
#
#
# Elastic Compliance Matrix: (Units=1/GPa)
#
#
# Indices 1 2 3 4 5 6 
#
# 1 0.014975 -0.003614 -0.005933 0.000000 0.004129 0.000000
# 2 -0.003614 0.019451 -0.007487 0.000000 0.001876 0.000000
# 3 -0.005933 -0.007487 0.022540 0.000000 0.000348 0.000000
# 4 0.000000 0.000000 0.000000 0.138069 0.000000 0.031437
# 5 0.004129 0.001876 0.000348 0.000000 0.023706 0.000000
# 6 0.000000 0.000000 0.000000 0.031437 0.000000 0.043518
#
#
# Mechanical properties :
#
#
# Convention : Reuss Voigt Hill
#
# Bulk Modulus (GPa) = 43.67383 48.45462 46.06422
# Shear Modulus (GPa) = 16.44961 25.13962 20.79461
#
# Velocity S-wave (km/s) = 3.08229 3.81044 3.46554
# Velocity P-wave (km/s) = 6.15559 6.88073 6.52823
#
# Compressibility (1/GPa) = 0.02289701
#
# Stress axis : x y z
#
# Youngs Moduli (GPa) = 66.77957 51.41252 44.36572
#
# Poissons Ratio (x) = 0.18579 0.26323
# Poissons Ratio (y) = 0.24132 0.33217
# Poissons Ratio (z) = 0.39622 0.38493
#
# Static dielectric constant tensor:
#      x y z
#    x 1.684450 0.000000 -0.036640 
#    y 0.000000 1.600170 0.000000 
#    z -0.036640 0.000000 1.621820 
# 
# From -- ./inp_files/200597.got.cif
#   From: 2010.05.17/outbox.cif.g08.bks.cpg/sg12_101_cif.got.tgz:200597.got - 2010.06.03 13:09:07.
