data_PCOD9213114
_publ_section_title
;
Structure prediction by ZEFSAII (Michael W. Deem and Ramdas Pophale) SiO2 
 PCOD9213114
Probable space group: C 2/M
;
_chemical_formula_sum "Si O2"
_cell_formula_units_Z 50
_cell_length_a 13.955418
_cell_length_b 10.952518
_cell_length_c 24.769481
_cell_angle_alpha 90.000000
_cell_angle_beta 144.742330
_cell_angle_gamma 90.000000
_cell_volume 2185.450948
_symmetry_space_group_name_H-M "C 2/M"
_symmetry_group_IT_number 12
_symmetry_cell_setting 'monoclinic'
loop_
_space_group_symop_operation_xyz
x,y,z
-x,y,-z
-x,-y,-z
x,-y,z
1/2+x,1/2+y,z
1/2-x,1/2+y,-z
1/2-x,1/2-y,-z
1/2+x,1/2-y,z
loop_
_atom_site_type_symbol
_atom_site_label
_atom_site_fract_x
_atom_site_fract_y
_atom_site_fract_z
Si Si1 0.910710 0.639147 0.214703
Si Si2 0.000000 0.000000 0.500000
Si Si3 0.099135 0.139474 0.351946
Si Si4 0.850089 0.837857 0.334816
Si Si5 0.955717 0.139032 0.916532
Si Si6 0.973168 0.364786 0.124724
Si Si7 0.456686 0.869382 0.542636
O O1 0.977730 0.500000 0.254099
O O2 0.744913 0.652381 0.173898
O O3 0.031271 0.752411 0.282979
O O4 0.867551 0.646355 0.131046
O O5 0.080464 0.103524 0.578163
O O6 0.272859 0.185688 0.456629
O O7 0.967407 0.126003 0.339250
O O8 0.123610 0.000000 0.340538
O O9 0.662137 0.865928 0.234570
O O10 0.890410 0.696337 0.360047
O O11 0.034038 0.248389 0.917638
O O12 0.996430 0.000000 0.917075
O O13 0.000000 0.148952 0.000000
O O14 0.941448 0.500000 0.085623
O O15 0.500000 0.880469 0.500000
O O16 0.434173 0.000000 0.559189
#
# Coordination Sequence:
#
# PCOD9213114 Si02
#       7
#     8   2   8   8   8   8   8
#     4  10  23  40  65  98 130 167 213 267 326 392
#     4  12  24  36  58  84 120 168 218 270 314 368
#     4  11  22  39  60  87 121 166 220 271 317 379
#     4  12  22  38  59  85 120 166 214 265 316 373
#     4  10  23  45  70  98 134 171 210 260 330 405
#     4  11  23  42  66  99 132 168 217 273 323 383
#     4  10  22  37  52  78 115 157 207 261 312 364
#
# _framework density 22.878571999999998
#
# number of rings (size 3 to 8) (size 9 to 14) (size 15 to 20)
#    0.000    1.280    4.000    1.440    0.000    2.880 
#    0.000    0.000    0.000    0.000    0.000    0.000 
#    0.000    0.000    0.000    0.000    0.000    0.000 
#
# Total GULP energy -139316.539836 kJ/mol
# GULP energy per Si atom -5572.661593 kJ/mol
# Density = 2.282650 g / cm^3
# Si number density = 22.878572 Si / 1000 Ang^3
#
#
#
# Elastic Constant Matrix: (Units=GPa)
#
#
# Indices 1 2 3 4 5 6 
#
# 1 76.2354 28.7043 6.3368 0.0000 -2.6441 0.0000
# 2 28.7043 175.7103 40.3550 0.0000 -26.7290 0.0000
# 3 6.3368 40.3550 62.9726 0.0000 -6.0520 0.0000
# 4 0.0000 0.0000 0.0000 9.3329 0.0000 15.1613
# 5 -2.6441 -26.7290 -6.0520 0.0000 31.3137 0.0000
# 6 0.0000 0.0000 0.0000 15.1613 0.0000 -25.5316
#
#
#
# Elastic Compliance Matrix: (Units=1/GPa)
#
#
# Indices 1 2 3 4 5 6 
#
# 1 0.013999 -0.002437 0.000068 0.000000 -0.000885 0.000000
# 2 -0.002437 0.007951 -0.004297 0.000000 0.005751 0.000000
# 3 0.000068 -0.004297 0.018621 0.000000 -0.000064 0.000000
# 4 0.000000 0.000000 0.000000 0.054537 0.000000 0.032386
# 5 -0.000885 0.005751 -0.000064 0.000000 0.036757 0.000000
# 6 0.000000 0.000000 0.000000 0.032386 0.000000 -0.019936
#
#
# Mechanical properties :
#
#
# Convention : Reuss Voigt Hill
#
# Bulk Modulus (GPa) = 36.71394 51.74561 44.22978
# Shear Modulus (GPa) = 37.21886 18.99115 28.10501
#
# Velocity S-wave (km/s) = 4.03774 2.88424 3.50872
# Velocity P-wave (km/s) = 6.14979 5.81020 5.98240
#
# Compressibility (1/GPa) = 0.02723761
#
# Stress axis : x y z
#
# Youngs Moduli (GPa) = 71.43608 125.76925 53.70308
#
# Poissons Ratio (x) = 0.30651 -0.00366
# Poissons Ratio (y) = 0.17410 0.23078
# Poissons Ratio (z) = -0.00486 0.54048
#
# Static dielectric constant tensor:
#      x y z
#    x 1.883060 0.000000 0.029230 
#    y 0.000000 1.968730 0.000000 
#    z 0.029230 0.000000 1.866010 
# 
# From -- ./inp_files/360600.got.cif
#   From: 2010.05.17/outbox.cif.g08.bks.cpg/sg12_181_cif.got.tgz:360600.got - 2010.06.03 13:09:07.
