data_PCOD9213901
_publ_section_title
;
Structure prediction by ZEFSAII (Michael W. Deem and Ramdas Pophale) SiO2 
 PCOD9213901
Probable space group: C 2/M
;
_chemical_formula_sum "Si O2"
_cell_formula_units_Z 48
_cell_length_a 18.999900
_cell_length_b 26.222588
_cell_length_c 8.984280
_cell_angle_alpha 90.000000
_cell_angle_beta 32.200672
_cell_angle_gamma 90.000000
_cell_volume 2385.308849
_symmetry_space_group_name_H-M "C 2/M"
_symmetry_group_IT_number 12
_symmetry_cell_setting 'monoclinic'
loop_
_space_group_symop_operation_xyz
x,y,z
-x,y,-z
-x,-y,-z
x,-y,z
1/2+x,1/2+y,z
1/2-x,1/2+y,-z
1/2-x,1/2-y,-z
1/2+x,1/2-y,z
loop_
_atom_site_type_symbol
_atom_site_label
_atom_site_fract_x
_atom_site_fract_y
_atom_site_fract_z
Si Si1 0.000000 0.083661 0.500000
Si Si2 0.180278 0.750208 0.385461
Si Si3 0.759834 0.357701 0.104576
Si Si4 0.356428 0.312120 0.253677
Si Si5 0.155417 0.395257 0.730477
Si Si6 0.000000 0.682295 0.500000
Si Si7 0.776460 0.000000 0.410908
Si Si8 0.016621 0.000000 0.215550
O O1 0.868898 0.117379 0.735091
O O2 0.995401 0.048401 0.654466
O O3 0.221368 0.800397 0.222697
O O4 0.309796 0.716088 0.187906
O O5 0.134518 0.770451 0.629534
O O6 0.070064 0.717948 0.498022
O O7 0.799588 0.390173 0.178800
O O8 0.885368 0.351985 0.774898
O O9 0.241630 0.351982 0.495001
O O10 0.500000 0.337800 0.000000
O O11 0.191473 0.449470 0.594328
O O12 0.000000 0.384831 0.000000
O O13 0.895679 0.000000 0.317020
O O14 0.848643 0.000000 0.121547
#
# Coordination Sequence:
#
# PCOD9213901 Si02
#       8
#     4   8   8   8   8   4   4   4
#     4  11  23  46  65  98 136 164 205 265 337 370
#     4  10  22  39  59  91 129 169 214 267 311 369
#     4  11  24  39  63  91 126 174 210 260 320 384
#     4  10  22  39  64  90 124 169 218 263 317 374
#     4  11  24  42  64  93 130 164 209 269 327 376
#     4  12  23  38  59  89 128 167 217 256 313 388
#     4  11  23  44  71  99 121 160 223 261 322 389
#     4  10  24  42  73  97 126 163 210 276 315 388
#
# _framework density 20.123177999999999
#
# number of rings (size 3 to 8) (size 9 to 14) (size 15 to 20)
#    0.000    1.333    1.667    3.250    2.333   10.000 
#    0.000    0.000    0.000    2.500    0.000    0.000 
#    0.000    0.000    0.000    0.000    0.000    0.000 
#
# Total GULP energy -134201.212503 kJ/mol
# GULP energy per Si atom -5591.717188 kJ/mol
# Density = 2.007738 g / cm^3
# Si number density = 20.123178 Si / 1000 Ang^3
#
#
#
# Elastic Constant Matrix: (Units=GPa)
#
#
# Indices 1 2 3 4 5 6 
#
# 1 80.9724 41.7229 50.0994 0.0000 -17.8861 0.0000
# 2 41.7229 98.8255 59.6481 0.0000 -7.5179 0.0000
# 3 50.0994 59.6481 149.0507 -0.0001 -23.7865 0.0001
# 4 0.0000 0.0000 -0.0001 37.6131 0.0000 -48.3419
# 5 -17.8861 -7.5179 -23.7865 0.0000 39.8819 -0.0001
# 6 0.0000 0.0000 0.0001 -48.3419 -0.0001 76.6340
#
#
#
# Elastic Compliance Matrix: (Units=1/GPa)
#
#
# Indices 1 2 3 4 5 6 
#
# 1 0.018240 -0.005416 -0.003118 0.000000 0.005300 0.000000
# 2 -0.005416 0.014969 -0.004539 0.000000 -0.002315 0.000000
# 3 -0.003118 -0.004539 0.010183 0.000000 0.003820 0.000000
# 4 0.000000 0.000000 0.000000 0.140484 0.000000 0.088619
# 5 0.005300 -0.002315 0.003820 0.000000 0.029293 0.000000
# 6 0.000000 0.000000 0.000000 0.088619 0.000000 0.068951
#
#
# Mechanical properties :
#
#
# Convention : Reuss Voigt Hill
#
# Bulk Modulus (GPa) = 57.98280 70.19884 64.09082
# Shear Modulus (GPa) = 15.92277 42.65100 29.28689
#
# Velocity S-wave (km/s) = 2.81600 4.60879 3.81908
# Velocity P-wave (km/s) = 6.28089 7.95497 7.16698
#
# Compressibility (1/GPa) = 0.01724649
#
# Stress axis : x y z
#
# Youngs Moduli (GPa) = 54.82362 66.80416 98.20011
#
# Poissons Ratio (x) = 0.36180 0.30617
# Poissons Ratio (y) = 0.29691 0.44577
# Poissons Ratio (z) = 0.17093 0.30325
#
# Static dielectric constant tensor:
#      x y z
#    x 1.677220 0.000000 0.008120 
#    y 0.000000 1.693140 0.000000 
#    z 0.008120 0.000000 1.719710 
# 
# From -- ./inp_files/80679.got.cif
#   From: 2010.05.17/outbox.cif.g08.bks.cpg/sg12_41_cif.got.tgz:80679.got - 2010.06.03 13:09:07.
