data_PCOD9213055
_publ_section_title
;
Structure prediction by ZEFSAII (Michael W. Deem and Ramdas Pophale) SiO2 
 PCOD9213055
Probable space group: C 2/M
;
_chemical_formula_sum "Si O2"
_cell_formula_units_Z 48
_cell_length_a 7.730183
_cell_length_b 20.160398
_cell_length_c 14.828493
_cell_angle_alpha 90.000000
_cell_angle_beta 70.597749
_cell_angle_gamma 90.000000
_cell_volume 2179.686875
_symmetry_space_group_name_H-M "C 2/M"
_symmetry_group_IT_number 12
_symmetry_cell_setting 'monoclinic'
loop_
_space_group_symop_operation_xyz
x,y,z
-x,y,-z
-x,-y,-z
x,-y,z
1/2+x,1/2+y,z
1/2-x,1/2+y,-z
1/2-x,1/2-y,-z
1/2+x,1/2-y,z
loop_
_atom_site_type_symbol
_atom_site_label
_atom_site_fract_x
_atom_site_fract_y
_atom_site_fract_z
Si Si1 0.060064 0.770692 0.577265
Si Si2 0.598826 0.500000 0.387344
Si Si3 0.855781 0.132241 0.716186
Si Si4 0.965610 0.641242 0.687531
Si Si5 0.754422 0.576759 0.876072
Si Si6 0.819600 0.075457 0.908943
Si Si7 0.008697 0.500000 0.391907
O O1 0.250000 0.750000 0.500000
O O2 0.951234 0.702771 0.621495
O O3 0.000000 0.813703 0.500000
O O4 0.014293 0.814144 0.671952
O O5 0.500000 0.500000 0.500000
O O6 0.560720 0.563575 0.333423
O O7 0.812986 0.500000 0.375632
O O8 0.677215 0.146524 0.685413
O O9 0.789852 0.122979 0.829668
O O10 0.914143 0.571795 0.648535
O O11 0.848677 0.632653 0.798925
O O12 0.822123 0.500000 0.847608
O O13 0.538212 0.575719 0.890756
O O14 0.774695 0.590218 0.979145
O O15 0.767097 0.000000 0.892168
O O16 0.000000 0.500000 0.500000
#
# Coordination Sequence:
#
# PCOD9213055 Si02
#       7
#     8   4   8   8   8   8   4
#     4  12  26  45  61  85 124 170 208 248 303 369
#     4  10  22  36  59  86 123 153 198 261 302 356
#     4  11  23  40  61  92 121 162 207 250 312 362
#     4  11  23  40  62  90 123 160 207 255 305 365
#     4   9  19  37  62  94 128 159 199 249 307 367
#     4   9  19  37  62  94 127 161 198 248 309 367
#     4  10  22  38  57  90 121 153 204 255 302 358
#
# _framework density 22.021511
#
# number of rings (size 3 to 8) (size 9 to 14) (size 15 to 20)
#    0.000    1.667    3.333    2.000    4.667    2.000 
#    0.000    2.500    0.000    0.000    0.000    0.000 
#    0.000    0.000    0.000    0.000    0.000    0.000 
#
# Total GULP energy -133765.899439 kJ/mol
# GULP energy per Si atom -5573.579143 kJ/mol
# Density = 2.197139 g / cm^3
# Si number density = 22.021511 Si / 1000 Ang^3
#
#
#
# Elastic Constant Matrix: (Units=GPa)
#
#
# Indices 1 2 3 4 5 6 
#
# 1 28.2310 1.8816 4.8091 0.0000 -0.4825 0.0000
# 2 1.8816 96.2420 53.7438 0.0000 -6.8530 0.0000
# 3 4.8091 53.7438 155.5987 0.0000 -2.6490 0.0000
# 4 0.0000 0.0000 0.0000 43.0045 0.0000 -3.3494
# 5 -0.4825 -6.8530 -2.6490 0.0000 39.1011 0.0000
# 6 0.0000 0.0000 0.0000 -3.3494 0.0000 14.8611
#
#
#
# Elastic Compliance Matrix: (Units=1/GPa)
#
#
# Indices 1 2 3 4 5 6 
#
# 1 0.035615 -0.000074 -0.001069 0.000000 0.000354 0.000000
# 2 -0.000074 0.013025 -0.004463 0.000000 0.001980 0.000000
# 3 -0.001069 -0.004463 0.007997 0.000000 -0.000254 0.000000
# 4 0.000000 0.000000 0.000000 0.023669 0.000000 0.005334
# 5 0.000354 0.001980 -0.000254 0.000000 0.025909 0.000000
# 6 0.000000 0.000000 0.000000 0.005334 0.000000 0.068492
#
#
# Mechanical properties :
#
#
# Convention : Reuss Voigt Hill
#
# Bulk Modulus (GPa) = 22.01427 44.54898 33.28163
# Shear Modulus (GPa) = 24.86809 34.03582 29.45195
#
# Velocity S-wave (km/s) = 3.36410 3.93564 3.66104
# Velocity P-wave (km/s) = 5.01078 6.39735 5.74604
#
# Compressibility (1/GPa) = 0.04542507
#
# Stress axis : x y z
#
# Youngs Moduli (GPa) = 28.07792 76.77518 125.04704
#
# Poissons Ratio (x) = 0.00568 0.13370
# Poissons Ratio (y) = 0.00208 0.55807
# Poissons Ratio (z) = 0.03002 0.34264
#
# Static dielectric constant tensor:
#      x y z
#    x 1.974080 0.000000 0.020990 
#    y 0.000000 1.825070 0.000000 
#    z 0.020990 0.000000 1.794430 
# 
# From -- ./inp_files/196943.got.cif
#   From: 2010.05.17/outbox.cif.g08.bks.cpg/sg12_99_cif.got.tgz:196943.got - 2010.06.03 13:09:07.
