data_PCOD9213890
_publ_section_title
;
Structure prediction by ZEFSAII (Michael W. Deem and Ramdas Pophale) SiO2 
 PCOD9213890
Probable space group: C 2/M
;
_chemical_formula_sum "Si O2"
_cell_formula_units_Z 56
_cell_length_a 20.318108
_cell_length_b 16.989824
_cell_length_c 16.874129
_cell_angle_alpha 90.000000
_cell_angle_beta 33.772830
_cell_angle_gamma 90.000000
_cell_volume 3238.108163
_symmetry_space_group_name_H-M "C 2/M"
_symmetry_group_IT_number 12
_symmetry_cell_setting 'monoclinic'
loop_
_space_group_symop_operation_xyz
x,y,z
-x,y,-z
-x,-y,-z
x,-y,z
1/2+x,1/2+y,z
1/2-x,1/2+y,-z
1/2-x,1/2-y,-z
1/2+x,1/2-y,z
loop_
_atom_site_type_symbol
_atom_site_label
_atom_site_fract_x
_atom_site_fract_y
_atom_site_fract_z
Si Si1 0.493512 0.907779 0.412249
Si Si2 0.267520 0.147631 0.902274
Si Si3 0.352003 0.817481 0.989530
Si Si4 0.743746 0.146469 0.428524
Si Si5 0.856631 0.410242 0.144389
Si Si6 0.632632 0.500000 0.771392
Si Si7 0.351748 0.500000 0.062026
Si Si8 0.139228 0.683161 0.700683
O O1 0.500000 0.909437 0.500000
O O2 0.604422 0.860708 0.266443
O O3 0.374715 0.865084 0.503879
O O4 0.494865 0.000000 0.383099
O O5 0.293111 0.143885 0.970694
O O6 0.194882 0.076101 0.937370
O O7 0.199827 0.229232 0.953515
O O8 0.495624 0.816378 0.836885
O O9 0.321694 0.864955 0.099483
O O10 0.810774 0.228292 0.346735
O O11 0.699591 0.143937 0.563490
O O12 0.826556 0.075783 0.317955
O O13 0.812926 0.500000 0.189620
O O14 0.826117 0.362784 0.254274
O O15 0.000000 0.413143 0.000000
O O16 0.687504 0.500000 0.805885
O O17 0.492622 0.500000 0.920664
#
# Coordination Sequence:
#
# PCOD9213890 Si02
#       8
#     8   8   8   8   8   4   4   8
#     4  11  22  36  58  89 121 155 196 236 300 372
#     4  11  22  38  60  85 122 158 193 242 300 357
#     4  10  22  39  59  87 117 155 202 252 291 348
#     4  11  22  38  60  85 122 158 193 242 300 357
#     4   9  20  36  60  84 111 148 200 248 291 331
#     4  11  24  39  61  90 121 155 194 243 303 363
#     4  11  24  39  61  90 121 155 194 243 303 363
#     4  10  22  39  59  87 117 155 202 252 291 348
#
# _framework density 17.294049000000001
#
# number of rings (size 3 to 8) (size 9 to 14) (size 15 to 20)
#    0.000    1.571    2.857    1.714    6.000    0.000 
#    0.000    0.000    0.000    0.000    0.000    2.000 
#    0.000    0.000    0.000    0.000    0.000    0.000 
#
# Total GULP energy -156279.638885 kJ/mol
# GULP energy per Si atom -5581.415674 kJ/mol
# Density = 1.725469 g / cm^3
# Si number density = 17.294049 Si / 1000 Ang^3
#
#
#
# Elastic Constant Matrix: (Units=GPa)
#
#
# Indices 1 2 3 4 5 6 
#
# 1 77.2662 36.7658 7.9827 0.0000 13.7345 0.0000
# 2 36.7658 75.7822 19.8128 0.0000 19.0116 0.0000
# 3 7.9827 19.8128 44.6720 0.0000 4.2607 0.0000
# 4 0.0000 0.0000 0.0000 9.9194 0.0000 12.7858
# 5 13.7345 19.0116 4.2607 0.0000 31.7247 0.0000
# 6 0.0000 0.0000 0.0000 12.7858 0.0000 19.7007
#
#
#
# Elastic Compliance Matrix: (Units=1/GPa)
#
#
# Indices 1 2 3 4 5 6 
#
# 1 0.017060 -0.007735 0.000653 0.000000 -0.002838 0.000000
# 2 -0.007735 0.020858 -0.007087 0.000000 -0.008199 0.000000
# 3 0.000653 -0.007087 0.025358 -0.000001 0.000558 0.000000
# 4 0.000000 0.000000 -0.000001 0.616750 0.000000 -0.400271
# 5 -0.002838 -0.008199 0.000558 0.000000 0.037588 0.000000
# 6 0.000000 0.000000 0.000000 -0.400271 0.000000 0.310536
#
#
# Mechanical properties :
#
#
# Convention : Reuss Voigt Hill
#
# Bulk Modulus (GPa) = 28.62187 36.31588 32.46887
# Shear Modulus (GPa) = 4.68106 21.14626 12.91366
#
# Velocity S-wave (km/s) = 1.64700 3.50057 2.73557
# Velocity P-wave (km/s) = 4.49476 6.11419 5.36592
#
# Compressibility (1/GPa) = 0.03493832
#
# Stress axis : x y z
#
# Youngs Moduli (GPa) = 58.61652 47.94276 39.43451
#
# Poissons Ratio (x) = 0.37086 -0.02575
# Poissons Ratio (y) = 0.45342 0.27946
# Poissons Ratio (z) = -0.03827 0.33975
#
# Static dielectric constant tensor:
#      x y z
#    x 1.580870 0.000000 -0.001200 
#    y 0.000000 1.571940 0.000000 
#    z -0.001200 0.000000 1.576810 
# 
# From -- ./inp_files/226568.got.cif
#   From: 2010.05.17/outbox.cif.g08.bks.cpg/sg12_114_cif.got.tgz:226568.got - 2010.06.03 13:09:07.
