data_PCOD9213008
_publ_section_title
;
Structure prediction by ZEFSAII (Michael W. Deem and Ramdas Pophale) SiO2 
 PCOD9213008
Probable space group: C 2/M
;
_chemical_formula_sum "Si O2"
_cell_formula_units_Z 52
_cell_length_a 16.250839
_cell_length_b 28.879663
_cell_length_c 11.345396
_cell_angle_alpha 90.000000
_cell_angle_beta 31.898490
_cell_angle_gamma 90.000000
_cell_volume 2813.607380
_symmetry_space_group_name_H-M "C 2/M"
_symmetry_group_IT_number 12
_symmetry_cell_setting 'monoclinic'
loop_
_space_group_symop_operation_xyz
x,y,z
-x,y,-z
-x,-y,-z
x,-y,z
1/2+x,1/2+y,z
1/2-x,1/2+y,-z
1/2-x,1/2-y,-z
1/2+x,1/2-y,z
loop_
_atom_site_type_symbol
_atom_site_label
_atom_site_fract_x
_atom_site_fract_y
_atom_site_fract_z
Si Si1 0.500000 0.293470 0.000000
Si Si2 0.475717 0.718059 0.665896
Si Si3 0.561250 0.447199 0.615689
Si Si4 0.000894 0.623408 0.868471
Si Si5 0.372489 0.220415 0.976969
Si Si6 0.645499 0.644864 0.618408
Si Si7 0.257573 0.947425 0.140669
O O1 0.614717 0.260287 0.938182
O O2 0.406350 0.325855 0.204849
O O3 0.500000 0.728013 0.500000
O O4 0.494777 0.761482 0.730032
O O5 0.578766 0.675921 0.589995
O O6 0.289515 0.709688 0.892941
O O7 0.591204 0.500000 0.619993
O O8 0.572390 0.406224 0.695912
O O9 0.682760 0.436891 0.360834
O O10 0.391305 0.446088 0.763637
O O11 0.171087 0.634888 0.613754
O O12 0.917649 0.672602 0.979657
O O13 0.000000 0.602333 0.000000
O O14 0.888658 0.587971 0.938149
O O15 0.317658 0.000000 0.071975
#
# Coordination Sequence:
#
# PCOD9213008 Si02
#       7
#     4   8   8   8   8   8   8
#     4  10  24  40  55  78 117 152 196 226 278 328
#     4  10  22  36  56  76 106 150 188 232 268 330
#     4   9  18  35  58  82 109 146 183 224 279 338
#     4  12  21  32  55  86 114 143 180 232 288 333
#     4  10  22  38  54  79 108 147 193 231 274 322
#     4  11  23  36  58  82 115 151 184 233 275 336
#     4   9  19  34  55  85 117 140 175 231 287 337
#
# _framework density 18.481611000000001
#
# number of rings (size 3 to 8) (size 9 to 14) (size 15 to 20)
#    0.000    1.846    2.308    2.769    4.308    2.154 
#    0.000    0.385    0.000    0.000    0.000    2.154 
#    0.000    0.000    0.000    0.000    0.000    0.000 
#
# Total GULP energy -144832.317247 kJ/mol
# GULP energy per Si atom -5570.473740 kJ/mol
# Density = 1.843955 g / cm^3
# Si number density = 18.481611 Si / 1000 Ang^3
#
#
#
# Elastic Constant Matrix: (Units=GPa)
#
#
# Indices 1 2 3 4 5 6 
#
# 1 53.9939 35.3894 28.9432 0.0001 -1.6044 0.0001
# 2 35.3894 106.8906 43.0247 0.0001 -14.1757 0.0000
# 3 28.9432 43.0247 75.5894 0.0001 -13.3264 0.0001
# 4 0.0001 0.0001 0.0001 8.5065 0.0000 -8.8383
# 5 -1.6044 -14.1757 -13.3264 0.0000 31.8251 -0.0001
# 6 0.0001 0.0000 0.0001 -8.8383 -0.0001 19.8801
#
#
#
# Elastic Compliance Matrix: (Units=1/GPa)
#
#
# Indices 1 2 3 4 5 6 
#
# 1 0.026524 -0.006456 -0.007291 0.000000 -0.004591 0.000000
# 2 -0.006456 0.013928 -0.004772 0.000000 0.003880 0.000000
# 3 -0.007291 -0.004772 0.019756 0.000000 0.005780 0.000000
# 4 0.000000 0.000000 0.000000 0.218475 0.000000 0.097129
# 5 -0.004591 0.003880 0.005780 0.000000 0.035339 0.000000
# 6 0.000000 0.000000 0.000000 0.097129 0.000000 0.093483
#
#
# Mechanical properties :
#
#
# Convention : Reuss Voigt Hill
#
# Bulk Modulus (GPa) = 43.15708 50.13205 46.64457
# Shear Modulus (GPa) = 11.05548 20.65012 15.85280
#
# Velocity S-wave (km/s) = 2.44844 3.34628 2.93193
# Velocity P-wave (km/s) = 5.60314 6.48956 6.06257
#
# Compressibility (1/GPa) = 0.02317117
#
# Stress axis : x y z
#
# Youngs Moduli (GPa) = 37.70205 71.79799 50.61760
#
# Poissons Ratio (x) = 0.46351 0.36905
# Poissons Ratio (y) = 0.24339 0.24153
# Poissons Ratio (z) = 0.27488 0.34259
#
# Static dielectric constant tensor:
#      x y z
#    x 1.688180 0.000000 -0.017570 
#    y 0.000000 1.645820 0.000000 
#    z -0.017570 0.000000 1.678570 
# 
# From -- ./inp_files/160795.got.cif
#   From: 2010.05.17/outbox.cif.g08.bks.cpg/sg12_81_cif.got.tgz:160795.got - 2010.06.03 13:09:07.
