data_PCOD9213754
_publ_section_title
;
Structure prediction by ZEFSAII (Michael W. Deem and Ramdas Pophale) SiO2 
 PCOD9213754
Probable space group: C 2/M
;
_chemical_formula_sum "Si O2"
_cell_formula_units_Z 52
_cell_length_a 18.843138
_cell_length_b 8.595590
_cell_length_c 20.471552
_cell_angle_alpha 90.000000
_cell_angle_beta 132.562452
_cell_angle_gamma 90.000000
_cell_volume 2442.172452
_symmetry_space_group_name_H-M "C 2/M"
_symmetry_group_IT_number 12
_symmetry_cell_setting 'monoclinic'
loop_
_space_group_symop_operation_xyz
x,y,z
-x,y,-z
-x,-y,-z
x,-y,z
1/2+x,1/2+y,z
1/2-x,1/2+y,-z
1/2-x,1/2-y,-z
1/2+x,1/2-y,z
loop_
_atom_site_type_symbol
_atom_site_label
_atom_site_fract_x
_atom_site_fract_y
_atom_site_fract_z
Si Si1 0.709810 0.000000 0.419005
Si Si2 0.271488 0.326746 0.212428
Si Si3 0.086371 0.000000 0.399037
Si Si4 0.470877 0.320946 0.161654
Si Si5 0.401867 0.687555 0.977372
Si Si6 0.763454 0.500000 0.418154
Si Si7 0.034325 0.683016 0.700860
Si Si8 0.811657 0.743190 0.701671
O O1 0.827211 0.000000 0.493553
O O2 0.672142 0.858172 0.353310
O O3 0.685763 0.000000 0.480647
O O4 0.304498 0.500000 0.214400
O O5 0.188435 0.268759 0.112303
O O6 0.361651 0.212030 0.266295
O O7 0.227053 0.332978 0.257180
O O8 0.030284 0.833723 0.364254
O O9 0.150941 0.000000 0.372759
O O10 0.445811 0.500000 0.161451
O O11 0.453864 0.216349 0.214307
O O12 0.585080 0.314760 0.216379
O O13 0.415292 0.271693 0.061808
O O14 0.391439 0.500000 0.966280
O O15 0.500000 0.729440 0.000000
O O16 0.771935 0.355323 0.376731
O O17 0.007191 0.500000 0.674774
#
# Coordination Sequence:
#
# PCOD9213754 Si02
#       8
#     4   8   4   8   8   4   8   8
#     4  10  24  41  66 103 131 173 215 286 346 396
#     4  12  26  43  64  97 142 178 226 283 334 401
#     4  10  22  49  66  98 137 172 219 288 344 388
#     4  11  21  42  68  97 140 182 221 281 337 390
#     4  10  22  39  66  99 138 177 224 279 330 394
#     4  10  22  38  70  96 140 163 216 288 325 412
#     4  12  25  44  73  96 133 190 229 274 338 413
#     4  12  21  40  67 102 126 178 219 268 348 403
#
# _framework density 21.292518999999999
#
# number of rings (size 3 to 8) (size 9 to 14) (size 15 to 20)
#    0.462    0.462    6.154    0.923    3.231    1.538 
#    1.385    1.538    0.000    0.923    0.000    0.000 
#    0.000    0.000    0.000    0.000    0.000    0.000 
#
# Total GULP energy -144995.761037 kJ/mol
# GULP energy per Si atom -5576.760040 kJ/mol
# Density = 2.124406 g / cm^3
# Si number density = 21.292519 Si / 1000 Ang^3
#
#
#
# Elastic Constant Matrix: (Units=GPa)
#
#
# Indices 1 2 3 4 5 6 
#
# 1 58.5444 13.2898 23.6767 0.0000 -2.1231 0.0000
# 2 13.2898 113.4339 50.7184 0.0000 -0.3841 0.0000
# 3 23.6767 50.7184 139.1680 0.0000 -10.0582 0.0000
# 4 0.0000 0.0000 0.0000 26.2872 0.0000 3.4262
# 5 -2.1231 -0.3841 -10.0582 0.0000 24.0520 0.0000
# 6 0.0000 0.0000 0.0000 3.4262 0.0000 37.0380
#
#
#
# Elastic Compliance Matrix: (Units=1/GPa)
#
#
# Indices 1 2 3 4 5 6 
#
# 1 0.018425 -0.000920 -0.002766 0.000000 0.000455 0.000000
# 2 -0.000920 0.010629 -0.003826 0.000000 -0.001512 0.000000
# 3 -0.002766 -0.003826 0.009310 0.000000 0.003588 0.000000
# 4 0.000000 0.000000 0.000000 0.038506 0.000000 -0.003562
# 5 0.000455 -0.001512 0.003588 0.000000 0.043093 0.000000
# 6 0.000000 0.000000 0.000000 -0.003562 0.000000 0.027329
#
#
# Mechanical properties :
#
#
# Convention : Reuss Voigt Hill
#
# Bulk Modulus (GPa) = 42.84788 54.05734 48.45261
# Shear Modulus (GPa) = 29.39487 32.37286 30.88386
#
# Velocity S-wave (km/s) = 3.71957 3.90344 3.81262
# Velocity P-wave (km/s) = 6.21402 6.76453 6.49511
#
# Compressibility (1/GPa) = 0.02333838
#
# Stress axis : x y z
#
# Youngs Moduli (GPa) = 54.27326 94.07983 107.41081
#
# Poissons Ratio (x) = 0.08657 0.29715
# Poissons Ratio (y) = 0.04994 0.41100
# Poissons Ratio (z) = 0.15015 0.35999
#
# Static dielectric constant tensor:
#      x y z
#    x 1.749290 0.000000 0.020260 
#    y 0.000000 1.663270 0.000000 
#    z 0.020260 0.000000 1.736240 
# 
# From -- ./inp_files/314958.got.cif
#   From: 2010.05.17/outbox.cif.g08.bks.cpg/sg12_158_cif.got.tgz:314958.got - 2010.06.03 13:09:07.
