data_PCOD9213371
_publ_section_title
;
Structure prediction by ZEFSAII (Michael W. Deem and Ramdas Pophale) SiO2 
 PCOD9213371
Probable space group: C 2/M
;
_chemical_formula_sum "Si O2"
_cell_formula_units_Z 56
_cell_length_a 27.350681
_cell_length_b 18.654740
_cell_length_c 8.613418
_cell_angle_alpha 90.000000
_cell_angle_beta 42.340142
_cell_angle_gamma 90.000000
_cell_volume 2959.989441
_symmetry_space_group_name_H-M "C 2/M"
_symmetry_group_IT_number 12
_symmetry_cell_setting 'monoclinic'
loop_
_space_group_symop_operation_xyz
x,y,z
-x,y,-z
-x,-y,-z
x,-y,z
1/2+x,1/2+y,z
1/2-x,1/2+y,-z
1/2-x,1/2-y,-z
1/2+x,1/2-y,z
loop_
_atom_site_type_symbol
_atom_site_label
_atom_site_fract_x
_atom_site_fract_y
_atom_site_fract_z
Si Si1 0.547303 0.078855 0.230958
Si Si2 0.831869 0.261413 0.742736
Si Si3 0.073190 0.830941 0.245246
Si Si4 0.786441 0.081347 0.131896
Si Si5 0.049310 0.714640 0.030979
Si Si6 0.197192 0.294413 0.515859
Si Si7 0.165572 0.580065 0.185341
O O1 0.500000 0.080733 0.500000
O O2 0.631385 0.085032 0.093392
O O3 0.538233 0.000000 0.180876
O O4 0.522827 0.144262 0.183773
O O5 0.885112 0.216733 0.724232
O O6 0.827318 0.245408 0.572175
O O7 0.858394 0.344035 0.688509
O O8 0.750000 0.250000 0.000000
O O9 0.000000 0.856909 0.500000
O O10 0.131386 0.891408 0.064302
O O11 0.057166 0.779295 0.135782
O O12 0.739366 0.137253 0.344617
O O13 0.749643 0.081796 0.044702
O O14 0.780602 0.000000 0.202622
O O15 0.126601 0.690143 0.781306
O O16 0.000000 0.733977 0.000000
O O17 0.250000 0.250000 0.500000
O O18 0.140736 0.500000 0.298391
#
# Coordination Sequence:
#
# PCOD9213371 Si02
#       7
#     8   8   8   8   8   8   8
#     4  10  22  38  56  83 126 169 204 246 298 369
#     4  11  19  36  63  89 116 159 207 255 307 369
#     4  12  23  40  64  92 121 163 212 263 308 370
#     4  10  22  40  64  93 121 160 206 256 312 368
#     4  12  25  38  58  93 128 161 207 258 315 378
#     4  11  22  39  62  91 124 161 199 257 313 369
#     4   9  18  33  58  87 116 152 202 249 297 360
#
# _framework density 18.918987000000001
#
# number of rings (size 3 to 8) (size 9 to 14) (size 15 to 20)
#    0.000    1.286    5.714    1.286    4.000    1.143 
#    0.000    0.000    0.000    1.286    0.000    0.000 
#    0.000    0.000    0.000    0.000    0.000    0.000 
#
# Total GULP energy -155946.488975 kJ/mol
# GULP energy per Si atom -5569.517463 kJ/mol
# Density = 1.887593 g / cm^3
# Si number density = 18.918987 Si / 1000 Ang^3
#
#
#
# Elastic Constant Matrix: (Units=GPa)
#
#
# Indices 1 2 3 4 5 6 
#
# 1 107.6371 39.7258 11.6883 0.0000 3.0399 0.0000
# 2 39.7258 77.7261 18.0440 0.0000 -0.7479 0.0000
# 3 11.6883 18.0440 100.8022 0.0000 -15.0957 0.0000
# 4 0.0000 0.0000 0.0000 16.1980 0.0000 1.2570
# 5 3.0399 -0.7479 -15.0957 0.0000 31.6828 0.0000
# 6 0.0000 0.0000 0.0000 1.2570 0.0000 17.2673
#
#
#
# Elastic Compliance Matrix: (Units=1/GPa)
#
#
# Indices 1 2 3 4 5 6 
#
# 1 0.011524 -0.005782 -0.000525 0.000000 -0.001492 0.000000
# 2 -0.005782 0.016348 -0.002278 0.000000 -0.000144 0.000000
# 3 -0.000525 -0.002278 0.011187 0.000000 0.005327 0.000000
# 4 0.000000 0.000000 0.000000 0.062087 0.000000 -0.004520
# 5 -0.001492 -0.000144 0.005327 0.000000 0.034241 0.000000
# 6 0.000000 0.000000 0.000000 -0.004520 0.000000 0.058242
#
#
# Mechanical properties :
#
#
# Convention : Reuss Voigt Hill
#
# Bulk Modulus (GPa) = 45.68365 47.23131 46.45748
# Shear Modulus (GPa) = 22.92597 27.47679 25.20138
#
# Velocity S-wave (km/s) = 3.48486 3.81509 3.65371
# Velocity P-wave (km/s) = 6.35545 6.66527 6.51220
#
# Compressibility (1/GPa) = 0.02188967
#
# Stress axis : x y z
#
# Youngs Moduli (GPa) = 86.77787 61.16813 89.39246
#
# Poissons Ratio (x) = 0.35369 0.04689
# Poissons Ratio (y) = 0.50178 0.20360
# Poissons Ratio (z) = 0.04552 0.13932
#
# Static dielectric constant tensor:
#      x y z
#    x 1.693320 0.000000 -0.030570 
#    y 0.000000 1.666180 0.000000 
#    z -0.030570 0.000000 1.678690 
# 
# From -- ./inp_files/105959.got.cif
#   From: 2010.05.17/outbox.cif.g08.bks.cpg/sg12_53_cif.got.tgz:105959.got - 2010.06.03 13:09:07.
