data_PCOD9213263
_publ_section_title
;
Structure prediction by ZEFSAII (Michael W. Deem and Ramdas Pophale) SiO2 
 PCOD9213263
Probable space group: C 2/M
;
_chemical_formula_sum "Si O2"
_cell_formula_units_Z 52
_cell_length_a 19.510263
_cell_length_b 18.085433
_cell_length_c 7.328951
_cell_angle_alpha 90.000000
_cell_angle_beta 79.563218
_cell_angle_gamma 90.000000
_cell_volume 2543.246841
_symmetry_space_group_name_H-M "C 2/M"
_symmetry_group_IT_number 12
_symmetry_cell_setting 'monoclinic'
loop_
_space_group_symop_operation_xyz
x,y,z
-x,y,-z
-x,-y,-z
x,-y,z
1/2+x,1/2+y,z
1/2-x,1/2+y,-z
1/2-x,1/2-y,-z
1/2+x,1/2-y,z
loop_
_atom_site_type_symbol
_atom_site_label
_atom_site_fract_x
_atom_site_fract_y
_atom_site_fract_z
Si Si1 0.169852 0.084206 0.675560
Si Si2 0.672281 0.083862 0.531963
Si Si3 0.331434 0.662982 0.959739
Si Si4 0.500000 0.182331 0.500000
Si Si5 0.074115 0.415194 0.223529
Si Si6 0.172955 0.329355 0.897242
Si Si7 0.078028 0.172711 0.441578
O O1 0.251432 0.094386 0.592619
O O2 0.126559 0.139831 0.572720
O O3 0.151243 0.000000 0.639048
O O4 0.157631 0.101585 0.892543
O O5 0.618487 0.085881 0.390661
O O6 0.663609 0.143139 0.695673
O O7 0.669484 0.000000 0.612037
O O8 0.253295 0.655824 0.916994
O O9 0.386283 0.658901 0.769535
O O10 0.338055 0.742700 0.056062
O O11 0.492676 0.132485 0.683857
O O12 0.435441 0.239486 0.530689
O O13 0.057858 0.500000 0.185683
O O14 0.120105 0.375771 0.048839
O O15 0.000000 0.140600 0.500000
#
# Coordination Sequence:
#
# PCOD9213263 Si02
#       7
#     8   8   8   4   8   8   8
#     4  11  24  41  64  94 123 161 209 264 323 375
#     4  10  22  37  61  94 128 162 200 259 321 368
#     4  11  23  37  63  95 122 167 209 263 313 371
#     4  10  23  44  65  88 128 176 212 248 305 376
#     4  11  22  41  65  96 130 167 208 254 310 375
#     4  11  21  36  63  95 129 159 210 258 317 370
#     4  10  23  44  63  86 128 167 212 251 315 368
#
# _framework density 20.446304999999999
#
# number of rings (size 3 to 8) (size 9 to 14) (size 15 to 20)
#    0.462    0.923    4.615    0.692    2.154    2.769 
#    0.000    3.077    0.000    2.769    0.000    0.000 
#    0.000    0.000    0.000    0.000    0.000    0.000 
#
# Total GULP energy -145278.071347 kJ/mol
# GULP energy per Si atom -5587.618129 kJ/mol
# Density = 2.039977 g / cm^3
# Si number density = 20.446305 Si / 1000 Ang^3
#
#
#
# Elastic Constant Matrix: (Units=GPa)
#
#
# Indices 1 2 3 4 5 6 
#
# 1 41.3454 11.3459 22.6964 0.0000 -17.1652 0.0000
# 2 11.3459 61.5147 24.3064 0.0000 -9.7250 0.0000
# 3 22.6964 24.3064 101.8725 0.0000 -24.8477 0.0000
# 4 0.0000 0.0000 0.0000 -11.8726 0.0000 -5.6989
# 5 -17.1652 -9.7250 -24.8477 0.0000 39.8133 0.0000
# 6 0.0000 0.0000 0.0000 -5.6989 0.0000 16.0871
#
#
#
# Elastic Compliance Matrix: (Units=1/GPa)
#
#
# Indices 1 2 3 4 5 6 
#
# 1 0.031352 -0.002621 -0.003797 0.000000 0.010507 0.000000
# 2 -0.002621 0.018306 -0.003502 0.000000 0.001156 0.000000
# 3 -0.003797 -0.003502 0.012845 0.000000 0.005524 0.000000
# 4 0.000000 0.000000 0.000000 -0.071987 0.000000 -0.025501
# 5 0.010507 0.001156 0.005524 0.000000 0.033378 0.000000
# 6 0.000000 0.000000 0.000000 -0.025501 0.000000 0.053128
#
#
# Mechanical properties :
#
#
# Convention : Reuss Voigt Hill
#
# Bulk Modulus (GPa) = 23.43915 35.71446 29.57681
# Shear Modulus (GPa) = 45.01113 18.56445 31.78779
#
# Velocity S-wave (km/s) = 4.69703 3.01651 3.94724
# Velocity P-wave (km/s) = 6.39568 5.44406 5.93896
#
# Compressibility (1/GPa) = 0.04266367
#
# Stress axis : x y z
#
# Youngs Moduli (GPa) = 31.89556 54.62629 77.85088
#
# Poissons Ratio (x) = 0.14319 0.29558
# Poissons Ratio (y) = 0.08361 0.27262
# Poissons Ratio (z) = 0.12110 0.19129
#
# Static dielectric constant tensor:
#      x y z
#    x 1.736870 0.000000 -0.006260 
#    y 0.000000 1.733750 0.000000 
#    z -0.006260 0.000000 1.683290 
# 
# From -- ./inp_files/21191.got.cif
#   From: 2010.05.17/outbox.cif.g08.bks.cpg/sg12_11_cif.got.tgz:21191.got - 2010.06.03 13:09:07.
