data_PCOD9213335
_publ_section_title
;
Structure prediction by ZEFSAII (Michael W. Deem and Ramdas Pophale) SiO2 
 PCOD9213335
Probable space group: C 2/M
;
_chemical_formula_sum "Si O2"
_cell_formula_units_Z 56
_cell_length_a 12.710199
_cell_length_b 14.116213
_cell_length_c 21.755118
_cell_angle_alpha 90.000000
_cell_angle_beta 47.907828
_cell_angle_gamma 90.000000
_cell_volume 2896.512234
_symmetry_space_group_name_H-M "C 2/M"
_symmetry_group_IT_number 12
_symmetry_cell_setting 'monoclinic'
loop_
_space_group_symop_operation_xyz
x,y,z
-x,y,-z
-x,-y,-z
x,-y,z
1/2+x,1/2+y,z
1/2-x,1/2+y,-z
1/2-x,1/2-y,-z
1/2+x,1/2-y,z
loop_
_atom_site_type_symbol
_atom_site_label
_atom_site_fract_x
_atom_site_fract_y
_atom_site_fract_z
Si Si1 0.158272 0.884406 0.510580
Si Si2 0.335343 0.609667 0.252531
Si Si3 0.830024 0.111370 0.859811
Si Si4 0.077636 0.608920 0.036369
Si Si5 0.338842 0.115278 0.556575
Si Si6 0.176804 0.707144 0.806636
Si Si7 0.330340 0.385560 0.633711
O O1 0.260252 0.852111 0.525436
O O2 0.199419 0.856192 0.425098
O O3 0.993489 0.858451 0.585015
O O4 0.160705 0.000000 0.509954
O O5 0.304610 0.500000 0.250741
O O6 0.502746 0.620167 0.199140
O O7 0.249959 0.636745 0.347484
O O8 0.301552 0.681774 0.211617
O O9 0.771847 0.168980 0.825012
O O10 0.798479 0.000000 0.860237
O O11 0.738605 0.135883 0.956356
O O12 0.072199 0.500000 0.061164
O O13 0.984471 0.676916 0.115133
O O14 0.000000 0.610061 0.000000
O O15 0.500000 0.149269 0.500000
O O16 0.343237 0.000000 0.551305
O O17 0.226951 0.657781 0.724273
O O18 0.322786 0.500000 0.639449
#
# Coordination Sequence:
#
# PCOD9213335 Si02
#       7
#     8   8   8   8   8   8   8
#     4   8  15  29  50  75 104 138 176 220 278 337
#     4  10  22  38  54  77 107 147 191 223 268 326
#     4   9  18  36  61  83 109 144 181 222 269 330
#     4   8  15  29  54  87 113 136 172 224 276 320
#     4   9  17  33  53  69  93 142 195 227 259 312
#     4  11  19  31  54  83 111 138 181 227 273 320
#     4   9  16  28  49  80 112 137 166 223 292 336
#
# _framework density 19.333596
#
# number of rings (size 3 to 8) (size 9 to 14) (size 15 to 20)
#    0.000    2.857    0.000    3.857    0.000    2.857 
#    5.143    0.714    0.000    5.571    0.000    0.000 
#    0.000    0.000    0.000    0.000    0.000    0.000 
#
# Total GULP energy -156271.214910 kJ/mol
# GULP energy per Si atom -5581.114818 kJ/mol
# Density = 1.928959 g / cm^3
# Si number density = 19.333596 Si / 1000 Ang^3
#
#
#
# Elastic Constant Matrix: (Units=GPa)
#
#
# Indices 1 2 3 4 5 6 
#
# 1 70.6834 29.0227 39.9591 0.0000 0.9895 0.0000
# 2 29.0227 75.7686 46.0637 0.0000 8.9356 0.0000
# 3 39.9591 46.0637 145.4656 0.0000 -9.3903 0.0000
# 4 0.0000 0.0000 0.0000 22.0727 0.0000 13.0460
# 5 0.9895 8.9356 -9.3903 0.0000 22.6334 0.0000
# 6 0.0000 0.0000 0.0000 13.0460 0.0000 11.9971
#
#
#
# Elastic Compliance Matrix: (Units=1/GPa)
#
#
# Indices 1 2 3 4 5 6 
#
# 1 0.018077 -0.004768 -0.003478 0.000000 -0.000351 0.000000
# 2 -0.004768 0.019525 -0.005505 0.000000 -0.009784 0.000000
# 3 -0.003478 -0.005505 0.009991 0.000000 0.006470 0.000000
# 4 0.000000 0.000000 0.000000 0.126806 0.000000 -0.137893
# 5 -0.000351 -0.009784 0.006470 0.000000 0.050745 0.000000
# 6 0.000000 0.000000 0.000000 -0.137893 0.000000 0.233302
#
#
# Mechanical properties :
#
#
# Convention : Reuss Voigt Hill
#
# Bulk Modulus (GPa) = 49.77566 58.00096 53.88831
# Shear Modulus (GPa) = 10.14931 23.13211 16.64071
#
# Velocity S-wave (km/s) = 2.29368 3.46276 2.93698
# Velocity P-wave (km/s) = 5.72854 6.78622 6.27969
#
# Compressibility (1/GPa) = 0.02009014
#
# Stress axis : x y z
#
# Youngs Moduli (GPa) = 55.31972 51.21695 100.09240
#
# Poissons Ratio (x) = 0.24421 0.34816
# Poissons Ratio (y) = 0.26377 0.55097
# Poissons Ratio (z) = 0.19243 0.28193
#
# Static dielectric constant tensor:
#      x y z
#    x 1.657490 0.000000 -0.022550 
#    y 0.000000 1.711750 0.000000 
#    z -0.022550 0.000000 1.666840 
# 
# From -- ./inp_files/310756.got.cif
#   From: 2010.05.17/outbox.cif.g08.bks.cpg/sg12_156_cif.got.tgz:310756.got - 2010.06.03 13:09:07.
