data_PCOD9213503
_publ_section_title
;
Structure prediction by ZEFSAII (Michael W. Deem and Ramdas Pophale) SiO2 
 PCOD9213503
Probable space group: C 2/M
;
_chemical_formula_sum "Si O2"
_cell_formula_units_Z 44
_cell_length_a 18.110612
_cell_length_b 21.552825
_cell_length_c 15.048763
_cell_angle_alpha 90.000000
_cell_angle_beta 157.922522
_cell_angle_gamma 90.000000
_cell_volume 2207.823122
_symmetry_space_group_name_H-M "C 2/M"
_symmetry_group_IT_number 12
_symmetry_cell_setting 'monoclinic'
loop_
_space_group_symop_operation_xyz
x,y,z
-x,y,-z
-x,-y,-z
x,-y,z
1/2+x,1/2+y,z
1/2-x,1/2+y,-z
1/2-x,1/2-y,-z
1/2+x,1/2-y,z
loop_
_atom_site_type_symbol
_atom_site_label
_atom_site_fract_x
_atom_site_fract_y
_atom_site_fract_z
Si Si1 0.394025 0.232094 0.037405
Si Si2 0.500000 0.141322 0.000000
Si Si3 0.587361 0.573862 0.876387
Si Si4 0.603718 0.425458 0.524029
Si Si5 0.368298 0.345337 0.765022
Si Si6 0.419609 0.826408 0.260727
O O1 0.409999 0.184592 0.975354
O O2 0.191257 0.270717 0.812236
O O3 0.562455 0.283871 0.210831
O O4 0.420477 0.196582 0.159414
O O5 0.322548 0.101007 0.763481
O O6 0.615116 0.500000 0.911753
O O7 0.518354 0.591776 0.699848
O O8 0.422080 0.597339 0.761023
O O9 0.782168 0.613119 0.115146
O O10 0.500000 0.405063 0.500000
O O11 0.613729 0.500000 0.537044
O O12 0.140771 0.340064 0.535056
O O13 0.500000 0.348704 0.000000
#
# Coordination Sequence:
#
# PCOD9213503 Si02
#       6
#     8   4   8   8   8   8
#     4  10  22  38  59  92 122 163 205 256 303 375
#     4  12  21  36  62  94 123 164 200 252 312 370
#     4  10  23  42  63  92 124 163 212 260 306 366
#     4  10  22  39  60  91 129 165 209 255 306 371
#     4  11  23  42  62  91 124 161 209 260 309 368
#     4  10  22  42  63  85 124 166 205 256 314 364
#
# _framework density 19.929131999999999
#
# number of rings (size 3 to 8) (size 9 to 14) (size 15 to 20)
#    0.000    1.636    0.909    3.000    0.000    8.364 
#    3.273    5.455    0.000    0.000    0.000    0.000 
#    0.000    0.000    0.000    0.000    0.000    0.000 
#
# Total GULP energy -123012.280618 kJ/mol
# GULP energy per Si atom -5591.467301 kJ/mol
# Density = 1.988377 g / cm^3
# Si number density = 19.929132 Si / 1000 Ang^3
#
#
#
# Elastic Constant Matrix: (Units=GPa)
#
#
# Indices 1 2 3 4 5 6 
#
# 1 82.0182 14.0576 41.5418 0.0001 3.3287 0.0000
# 2 14.0576 39.0655 37.0920 0.0001 -1.3446 0.0000
# 3 41.5418 37.0920 157.8714 0.0002 23.7222 0.0001
# 4 0.0001 0.0001 0.0002 4.4407 0.0001 -0.8313
# 5 3.3287 -1.3446 23.7222 0.0001 23.4032 0.0000
# 6 0.0000 0.0000 0.0001 -0.8313 0.0000 29.9038
#
#
#
# Elastic Compliance Matrix: (Units=1/GPa)
#
#
# Indices 1 2 3 4 5 6 
#
# 1 0.014230 -0.001671 -0.003578 0.000000 0.001507 0.000000
# 2 -0.001671 0.035990 -0.009865 0.000000 0.012305 0.000000
# 3 -0.003578 -0.009865 0.011328 0.000000 -0.011540 0.000000
# 4 0.000000 0.000000 0.000000 0.226368 -0.000001 0.006293
# 5 0.001507 0.012305 -0.011540 -0.000001 0.054919 0.000000
# 6 0.000000 0.000000 0.000000 0.006293 0.000000 0.033616
#
#
# Mechanical properties :
#
#
# Convention : Reuss Voigt Hill
#
# Bulk Modulus (GPa) = 31.93026 51.59310 41.76168
# Shear Modulus (GPa) = 11.98700 23.96711 17.97706
#
# Velocity S-wave (km/s) = 2.45517 3.47164 3.00667
# Velocity P-wave (km/s) = 4.90855 6.48183 5.74926
#
# Compressibility (1/GPa) = 0.03131825
#
# Stress axis : x y z
#
# Youngs Moduli (GPa) = 70.27378 27.78588 88.27979
#
# Poissons Ratio (x) = 0.04644 0.31588
# Poissons Ratio (y) = 0.11745 0.87087
# Poissons Ratio (z) = 0.25146 0.27411
#
# Static dielectric constant tensor:
#      x y z
#    x 1.709500 0.000000 -0.003980 
#    y 0.000000 1.682980 0.000000 
#    z -0.003980 0.000000 1.687680 
# 
# From -- ./inp_files/228209.got.cif
#   From: 2010.05.17/outbox.cif.g08.bks.cpg/sg12_115_cif.got.tgz:228209.got - 2010.06.03 13:09:07.
