data_PCOD9213667
_publ_section_title
;
Structure prediction by ZEFSAII (Michael W. Deem and Ramdas Pophale) SiO2 
 PCOD9213667
Probable space group: C 2/M
;
_chemical_formula_sum "Si O2"
_cell_formula_units_Z 60
_cell_length_a 8.358284
_cell_length_b 22.393790
_cell_length_c 21.193085
_cell_angle_alpha 90.000000
_cell_angle_beta 130.770059
_cell_angle_gamma 90.000000
_cell_volume 3004.192387
_symmetry_space_group_name_H-M "C 2/M"
_symmetry_group_IT_number 12
_symmetry_cell_setting 'monoclinic'
loop_
_space_group_symop_operation_xyz
x,y,z
-x,y,-z
-x,-y,-z
x,-y,z
1/2+x,1/2+y,z
1/2-x,1/2+y,-z
1/2-x,1/2-y,-z
1/2+x,1/2-y,z
loop_
_atom_site_type_symbol
_atom_site_label
_atom_site_fract_x
_atom_site_fract_y
_atom_site_fract_z
Si Si1 0.356176 0.349523 0.680850
Si Si2 0.725683 0.735287 0.565926
Si Si3 0.804655 0.827762 0.879011
Si Si4 0.354221 0.301725 0.130208
Si Si5 0.486468 0.130408 0.311520
Si Si6 0.219584 0.069418 0.712083
Si Si7 0.367083 0.934063 0.093457
Si Si8 0.000000 0.388943 0.000000
O O1 0.247516 0.296400 0.612027
O O2 0.496652 0.318098 0.771995
O O3 0.521426 0.388700 0.681675
O O4 0.171916 0.386186 0.671190
O O5 0.500000 0.704036 0.500000
O O6 0.750000 0.750000 0.500000
O O7 0.893359 0.689391 0.635187
O O8 0.711774 0.766758 0.882202
O O9 0.663876 0.849785 0.784083
O O10 0.781434 0.881544 0.921021
O O11 0.027320 0.813219 0.905048
O O12 0.156394 0.345659 0.078375
O O13 0.660721 0.088126 0.322440
O O14 0.403609 0.074115 0.813248
O O15 0.155076 0.000000 0.692417
O O16 0.291836 0.000000 0.092683
O O17 0.389033 0.928472 0.024276
#
# Coordination Sequence:
#
# PCOD9213667 Si02
#       8
#     8   8   8   8   8   8   8   4
#     4  11  22  40  63  95 131 167 209 260 321 380
#     4  12  22  36  64 103 134 163 203 259 329 386
#     4  10  22  39  62  87 121 164 206 254 315 379
#     4  11  23  37  63  91 121 167 204 255 324 375
#     4  10  22  38  63  94 131 166 206 261 315 382
#     4  10  22  41  66  92 124 173 221 259 310 378
#     4  10  22  41  61  87 123 162 211 266 313 367
#     4  12  23  40  62  88 123 162 210 266 314 378
#
# _framework density 19.972087999999999
#
# number of rings (size 3 to 8) (size 9 to 14) (size 15 to 20)
#    0.000    1.333    4.000    1.800    1.867    3.200 
#    0.000    4.000    0.000    4.000    0.000    0.000 
#    0.000    0.000    0.000    0.000    0.000    0.000 
#
# Total GULP energy -167305.599554 kJ/mol
# GULP energy per Si atom -5576.853318 kJ/mol
# Density = 1.992663 g / cm^3
# Si number density = 19.972088 Si / 1000 Ang^3
#
#
#
# Elastic Constant Matrix: (Units=GPa)
#
#
# Indices 1 2 3 4 5 6 
#
# 1 107.7737 57.6121 22.9372 0.0000 -5.2448 0.0000
# 2 57.6121 108.5183 0.5629 0.0000 -8.5023 0.0000
# 3 22.9372 0.5629 54.6680 0.0000 -17.2737 0.0000
# 4 0.0000 0.0000 0.0000 2.3799 0.0000 2.9585
# 5 -5.2448 -8.5023 -17.2737 0.0000 28.5128 0.0000
# 6 0.0000 0.0000 0.0000 2.9585 0.0000 19.7494
#
#
#
# Elastic Compliance Matrix: (Units=1/GPa)
#
#
# Indices 1 2 3 4 5 6 
#
# 1 0.015155 -0.008346 -0.007641 0.000000 -0.004330 0.000000
# 2 -0.008346 0.014074 0.005191 0.000000 0.005807 0.000000
# 3 -0.007641 0.005191 0.026577 0.000000 0.016244 0.000000
# 4 0.000000 0.000000 0.000000 0.516335 0.000000 -0.077349
# 5 -0.004330 0.005807 0.016244 0.000000 0.045848 0.000000
# 6 0.000000 0.000000 0.000000 -0.077349 0.000000 0.062222
#
#
# Mechanical properties :
#
#
# Convention : Reuss Voigt Hill
#
# Bulk Modulus (GPa) = 29.22606 48.13159 38.67883
# Shear Modulus (GPa) = 7.01059 22.78495 14.89777
#
# Velocity S-wave (km/s) = 1.87558 3.38130 2.73413
# Velocity P-wave (km/s) = 4.39950 6.27662 5.41994
#
# Compressibility (1/GPa) = 0.03421604
#
# Stress axis : x y z
#
# Youngs Moduli (GPa) = 65.98274 71.05449 37.62606
#
# Poissons Ratio (x) = 0.59299 0.28750
# Poissons Ratio (y) = 0.55067 -0.19533
# Poissons Ratio (z) = 0.50418 -0.36887
#
# Static dielectric constant tensor:
#      x y z
#    x 1.832100 0.000000 -0.074920 
#    y 0.000000 1.654340 0.000000 
#    z -0.074920 0.000000 1.733950 
# 
# From -- ./inp_files/301905.got.cif
#   From: 2010.05.17/outbox.cif.g08.bks.cpg/sg12_151_cif.got.tgz:301905.got - 2010.06.03 13:09:07.
