data_PCOD9213625
_publ_section_title
;
Structure prediction by ZEFSAII (Michael W. Deem and Ramdas Pophale) SiO2 
 PCOD9213625
Probable space group: C 2/M
;
_chemical_formula_sum "Si O2"
_cell_formula_units_Z 44
_cell_length_a 22.813217
_cell_length_b 9.339141
_cell_length_c 13.092570
_cell_angle_alpha 90.000000
_cell_angle_beta 127.974926
_cell_angle_gamma 90.000000
_cell_volume 2198.866865
_symmetry_space_group_name_H-M "C 2/M"
_symmetry_group_IT_number 12
_symmetry_cell_setting 'monoclinic'
loop_
_space_group_symop_operation_xyz
x,y,z
-x,y,-z
-x,-y,-z
x,-y,z
1/2+x,1/2+y,z
1/2-x,1/2+y,-z
1/2-x,1/2-y,-z
1/2+x,1/2-y,z
loop_
_atom_site_type_symbol
_atom_site_label
_atom_site_fract_x
_atom_site_fract_y
_atom_site_fract_z
Si Si1 0.791883 0.168653 0.312754
Si Si2 0.000000 0.750796 0.000000
Si Si3 0.959596 0.341040 0.177988
Si Si4 0.872304 0.670662 0.583011
Si Si5 0.323317 0.333741 0.112586
Si Si6 0.841885 0.836165 0.758133
O O1 0.837847 0.254124 0.447389
O O2 0.828369 0.179398 0.240680
O O3 0.711479 0.245196 0.225570
O O4 0.784667 0.000000 0.330748
O O5 0.073839 0.835533 0.110947
O O6 0.977897 0.663923 0.077247
O O7 0.933304 0.500000 0.177707
O O8 0.896570 0.229567 0.139276
O O9 0.038284 0.312479 0.317327
O O10 0.856675 0.500000 0.571011
O O11 0.841515 0.752314 0.649959
O O12 0.314940 0.500000 0.077251
O O13 0.250000 0.250000 0.000000
O O14 0.816431 0.000000 0.719942
#
# Coordination Sequence:
#
# PCOD9213625 Si02
#       6
#     8   4   8   8   8   8
#     4  11  24  41  60  85 119 159 198 242 295 350
#     4  10  22  38  62  92 120 156 196 240 296 352
#     4  10  22  40  63  89 120 155 196 244 294 350
#     4  10  22  40  62  89 119 156 198 243 295 351
#     4  11  25  42  62  88 120 157 198 243 294 350
#     4  11  22  37  60  90 122 156 197 246 294 348
#
# _framework density 20.010306
#
# number of rings (size 3 to 8) (size 9 to 14) (size 15 to 20)
#    0.000    1.455    0.000    4.364    0.000   13.091 
#    0.000    3.636    0.000    0.000    0.000    0.000 
#    0.000    0.000    0.000    0.000    0.000    0.000 
#
# Total GULP energy -122983.794841 kJ/mol
# GULP energy per Si atom -5590.172493 kJ/mol
# Density = 1.996476 g / cm^3
# Si number density = 20.010306 Si / 1000 Ang^3
#
#
#
# Elastic Constant Matrix: (Units=GPa)
#
#
# Indices 1 2 3 4 5 6 
#
# 1 101.4806 62.0892 28.1769 0.0000 7.6364 0.0000
# 2 62.0892 154.6196 43.0119 0.0000 5.5280 0.0000
# 3 28.1769 43.0119 90.8523 0.0000 6.6184 0.0000
# 4 0.0000 0.0000 0.0000 18.8951 0.0000 1.5442
# 5 7.6364 5.5280 6.6184 0.0000 19.1034 0.0000
# 6 0.0000 0.0000 0.0000 1.5442 0.0000 21.3126
#
#
#
# Elastic Compliance Matrix: (Units=1/GPa)
#
#
# Indices 1 2 3 4 5 6 
#
# 1 0.013542 -0.004856 -0.001651 0.000000 -0.003436 0.000000
# 2 -0.004856 0.009207 -0.002873 0.000000 0.000272 0.000000
# 3 -0.001651 -0.002873 0.013101 0.000000 -0.003048 0.000000
# 4 0.000000 0.000000 0.000000 0.053239 0.000000 -0.003857
# 5 -0.003436 0.000272 -0.003048 0.000000 0.054697 0.000000
# 6 0.000000 0.000000 0.000000 -0.003857 0.000000 0.047200
#
#
# Mechanical properties :
#
#
# Convention : Reuss Voigt Hill
#
# Bulk Modulus (GPa) = 58.50927 68.16760 63.33844
# Shear Modulus (GPa) = 23.20818 26.10720 24.65769
#
# Velocity S-wave (km/s) = 3.40929 3.61596 3.51415
# Velocity P-wave (km/s) = 6.69334 7.18149 6.94171
#
# Compressibility (1/GPa) = 0.01709131
#
# Stress axis : x y z
#
# Youngs Moduli (GPa) = 73.84424 108.61559 76.33135
#
# Poissons Ratio (x) = 0.52743 0.12600
# Poissons Ratio (y) = 0.35858 0.21927
# Poissons Ratio (z) = 0.12189 0.31200
#
# Static dielectric constant tensor:
#      x y z
#    x 1.686950 0.000000 0.007010 
#    y 0.000000 1.683150 0.000000 
#    z 0.007010 0.000000 1.709780 
# 
# From -- ./inp_files/238057.got.cif
#   From: 2010.05.17/outbox.cif.g08.bks.cpg/sg12_120_cif.got.tgz:238057.got - 2010.06.03 13:09:07.
