data_PCOD9213223
_publ_section_title
;
Structure prediction by ZEFSAII (Michael W. Deem and Ramdas Pophale) SiO2 
 PCOD9213223
Probable space group: C 2/M
;
_chemical_formula_sum "Si O2"
_cell_formula_units_Z 36
_cell_length_a 10.284212
_cell_length_b 27.138558
_cell_length_c 7.805313
_cell_angle_alpha 90.000000
_cell_angle_beta 128.028930
_cell_angle_gamma 90.000000
_cell_volume 1715.966646
_symmetry_space_group_name_H-M "C 2/M"
_symmetry_group_IT_number 12
_symmetry_cell_setting 'monoclinic'
loop_
_space_group_symop_operation_xyz
x,y,z
-x,y,-z
-x,-y,-z
x,-y,z
1/2+x,1/2+y,z
1/2-x,1/2+y,-z
1/2-x,1/2-y,-z
1/2+x,1/2-y,z
loop_
_atom_site_type_symbol
_atom_site_label
_atom_site_fract_x
_atom_site_fract_y
_atom_site_fract_z
Si Si1 0.358603 0.055306 0.032032
Si Si2 0.660594 0.823093 0.442318
Si Si3 0.667239 0.646634 0.747695
Si Si4 0.500955 0.732977 0.201270
Si Si5 0.500000 0.091531 0.500000
O O1 0.437259 0.062008 0.284490
O O2 0.289071 0.000000 0.960177
O O3 0.500000 0.059845 0.000000
O O4 0.225357 0.098461 0.895670
O O5 0.691483 0.841001 0.274266
O O6 0.510581 0.784144 0.312844
O O7 0.824924 0.794287 0.626119
O O8 0.636269 0.870350 0.539624
O O9 0.500000 0.638193 0.500000
O O10 0.633348 0.694641 0.837044
O O11 0.500000 0.742424 0.000000
#
# Coordination Sequence:
#
# PCOD9213223 Si02
#       5
#     8   8   8   8   4
#     4  11  24  44  69  96 126 167 219 276 326 373
#     4  10  23  36  58  95 127 173 211 254 316 382
#     4  10  22  43  64  92 135 170 215 264 319 383
#     4  10  22  37  59  89 133 174 213 252 313 384
#     4  12  23  40  66  94 132 168 213 268 316 396
#
# _framework density 20.979427999999999
#
# number of rings (size 3 to 8) (size 9 to 14) (size 15 to 20)
#    0.000    1.556    2.222    1.667   10.889    1.333 
#    0.000    0.000    0.000    6.000    0.000    0.000 
#    0.000    0.000    0.000    0.000    0.000    0.000 
#
# Total GULP energy -100596.025949 kJ/mol
# GULP energy per Si atom -5588.668108 kJ/mol
# Density = 2.093168 g / cm^3
# Si number density = 20.979428 Si / 1000 Ang^3
#
#
#
# Elastic Constant Matrix: (Units=GPa)
#
#
# Indices 1 2 3 4 5 6 
#
# 1 70.1888 29.9167 16.7834 0.0000 -22.3630 0.0000
# 2 29.9167 120.9967 37.3549 0.0000 -6.6641 0.0000
# 3 16.7834 37.3549 94.6164 0.0000 -26.8074 0.0000
# 4 0.0000 0.0000 0.0000 26.9204 0.0000 5.8330
# 5 -22.3630 -6.6641 -26.8074 0.0000 34.9874 0.0000
# 6 0.0000 0.0000 0.0000 5.8330 0.0000 37.2728
#
#
#
# Elastic Compliance Matrix: (Units=1/GPa)
#
#
# Indices 1 2 3 4 5 6 
#
# 1 0.020165 -0.004925 0.002239 0.000000 0.013667 0.000000
# 2 -0.004925 0.010664 -0.004666 0.000000 -0.004692 0.000000
# 3 0.002239 -0.004666 0.015542 0.000000 0.012451 0.000000
# 4 0.000000 0.000000 0.000000 0.038450 0.000000 -0.006017
# 5 0.013667 -0.004692 0.012451 0.000000 0.045963 0.000000
# 6 0.000000 0.000000 0.000000 -0.006017 0.000000 0.027771
#
#
# Mechanical properties :
#
#
# Convention : Reuss Voigt Hill
#
# Bulk Modulus (GPa) = 31.57665 50.43464 41.00564
# Shear Modulus (GPa) = 27.20134 33.28592 30.24363
#
# Velocity S-wave (km/s) = 3.60470 3.98753 3.80094
# Velocity P-wave (km/s) = 5.69290 6.72999 6.23305
#
# Compressibility (1/GPa) = 0.03166897
#
# Stress axis : x y z
#
# Youngs Moduli (GPa) = 49.59018 93.76958 64.34378
#
# Poissons Ratio (x) = 0.46177 -0.14410
# Poissons Ratio (y) = 0.24421 0.30023
# Poissons Ratio (z) = -0.11106 0.43753
#
# Static dielectric constant tensor:
#      x y z
#    x 1.774310 0.000000 0.001350 
#    y 0.000000 1.754850 0.000000 
#    z 0.001350 0.000000 1.780500 
# 
# From -- ./inp_files/52138.got.cif
#   From: 2010.05.17/outbox.cif.g08.bks.cpg/sg12_27_cif.got.tgz:52138.got - 2010.06.03 13:09:07.
