data_PCOD9213852
_publ_section_title
;
Structure prediction by ZEFSAII (Michael W. Deem and Ramdas Pophale) SiO2 
 PCOD9213852
Probable space group: C 2/M
;
_chemical_formula_sum "Si O2"
_cell_formula_units_Z 58
_cell_length_a 22.209096
_cell_length_b 15.711402
_cell_length_c 16.344047
_cell_angle_alpha 90.000000
_cell_angle_beta 151.189520
_cell_angle_gamma 90.000000
_cell_volume 2748.368260
_symmetry_space_group_name_H-M "C 2/M"
_symmetry_group_IT_number 12
_symmetry_cell_setting 'monoclinic'
loop_
_space_group_symop_operation_xyz
x,y,z
-x,y,-z
-x,-y,-z
x,-y,z
1/2+x,1/2+y,z
1/2-x,1/2+y,-z
1/2-x,1/2-y,-z
1/2+x,1/2-y,z
loop_
_atom_site_type_symbol
_atom_site_label
_atom_site_fract_x
_atom_site_fract_y
_atom_site_fract_z
Si Si1 0.501071 0.239423 0.288103
Si Si2 0.349746 0.904688 0.623084
Si Si3 0.853437 0.355379 0.238138
Si Si4 0.795203 0.743295 0.326395
Si Si5 0.146066 0.096156 0.238393
Si Si6 0.500000 0.000000 0.500000
Si Si7 0.149032 0.404448 0.184508
Si Si8 0.068040 0.904345 0.896754
O O1 0.561064 0.172009 0.296616
O O2 0.384190 0.192353 0.190961
O O3 0.600029 0.253006 0.479227
O O4 0.472406 0.327631 0.209904
O O5 0.230348 0.900290 0.421570
O O6 0.316909 0.896631 0.678975
O O7 0.405322 0.000000 0.678074
O O8 0.851669 0.287530 0.309027
O O9 0.956973 0.425649 0.383078
O O10 0.717237 0.398159 0.080156
O O11 0.702408 0.669625 0.249554
O O12 0.719916 0.829724 0.223881
O O13 0.005774 0.107003 0.104934
O O14 0.163185 0.000000 0.224382
O O15 0.179966 0.500000 0.193403
O O16 0.000000 0.394036 0.000000
O O17 0.033636 0.000000 0.827813
#
# Coordination Sequence:
#
# PCOD9213852 Si02
#       8
#     8   8   8   8   8   2   8   8
#     4  11  23  41  62  93 123 160 213 255 300 373
#     4   9  19  36  63  90 120 161 205 251 311 367
#     4  12  26  42  65  92 124 166 212 256 313 373
#     4  11  23  38  65  91 125 167 204 252 316 370
#     4   9  20  36  60  95 125 154 198 252 316 380
#     4  12  24  48  68  82 134 168 216 260 308 386
#     4  10  22  39  58  88 124 163 205 252 306 366
#     4  11  24  41  62  90 126 161 204 260 316 363
#
# _framework density 21.103431
#
# number of rings (size 3 to 8) (size 9 to 14) (size 15 to 20)
#    0.000    1.517    2.069    2.069    5.793    3.862 
#    0.000    2.069    0.000    1.655    0.000    0.000 
#    0.000    0.000    0.000    0.000    0.000    0.000 
#
# Total GULP energy -161925.963611 kJ/mol
# GULP energy per Si atom -5583.653918 kJ/mol
# Density = 2.105540 g / cm^3
# Si number density = 21.103431 Si / 1000 Ang^3
#
#
#
# Elastic Constant Matrix: (Units=GPa)
#
#
# Indices 1 2 3 4 5 6 
#
# 1 45.8479 39.0010 -6.4377 0.0000 12.5439 0.0000
# 2 39.0010 131.3129 20.4347 0.0000 6.0897 0.0000
# 3 -6.4377 20.4347 37.7914 0.0000 3.1249 0.0000
# 4 0.0000 0.0000 0.0000 29.8996 0.0000 7.4073
# 5 12.5439 6.0897 3.1249 0.0000 23.8588 0.0000
# 6 0.0000 0.0000 0.0000 7.4073 0.0000 2.9913
#
#
#
# Elastic Compliance Matrix: (Units=1/GPa)
#
#
# Indices 1 2 3 4 5 6 
#
# 1 0.041526 -0.013922 0.016290 0.000000 -0.020413 0.000000
# 2 -0.013922 0.013040 -0.009859 0.000000 0.005283 0.000000
# 3 0.016290 -0.009859 0.035451 0.000000 -0.010691 0.000000
# 4 0.000000 0.000000 0.000000 0.086529 0.000000 -0.214271
# 5 -0.020413 0.005283 -0.010691 0.000000 0.052697 0.000000
# 6 0.000000 0.000000 0.000000 -0.214271 0.000000 0.864901
#
#
# Mechanical properties :
#
#
# Convention : Reuss Voigt Hill
#
# Bulk Modulus (GPa) = 13.32725 35.66091 24.49408
# Shear Modulus (GPa) = 4.40863 22.14689 13.27776
#
# Velocity S-wave (km/s) = 1.44693 3.24303 2.51106
# Velocity P-wave (km/s) = 3.02000 5.56397 4.47650
#
# Compressibility (1/GPa) = 0.07503426
#
# Stress axis : x y z
#
# Youngs Moduli (GPa) = 24.08106 76.68925 28.20785
#
# Poissons Ratio (x) = 1.06767 -0.45950
# Poissons Ratio (y) = 0.33526 0.27811
# Poissons Ratio (z) = -0.39228 0.75610
#
# Static dielectric constant tensor:
#      x y z
#    x 1.733110 0.000000 0.017350 
#    y 0.000000 1.708530 0.000000 
#    z 0.017350 0.000000 1.817530 
# 
# From -- ./inp_files/289939.got.cif
#   From: 2010.05.17/outbox.cif.g08.bks.cpg/sg12_145_cif.got.tgz:289939.got - 2010.06.03 13:09:07.
