data_PCOD9213021
_publ_section_title
;
Structure prediction by ZEFSAII (Michael W. Deem and Ramdas Pophale) SiO2 
 PCOD9213021
Probable space group: C 2/M
;
_chemical_formula_sum "Si O2"
_cell_formula_units_Z 48
_cell_length_a 19.044267
_cell_length_b 28.601992
_cell_length_c 9.334815
_cell_angle_alpha 90.000000
_cell_angle_beta 151.644557
_cell_angle_gamma 90.000000
_cell_volume 2414.932513
_symmetry_space_group_name_H-M "C 2/M"
_symmetry_group_IT_number 12
_symmetry_cell_setting 'monoclinic'
loop_
_space_group_symop_operation_xyz
x,y,z
-x,y,-z
-x,-y,-z
x,-y,z
1/2+x,1/2+y,z
1/2-x,1/2+y,-z
1/2-x,1/2-y,-z
1/2+x,1/2-y,z
loop_
_atom_site_type_symbol
_atom_site_label
_atom_site_fract_x
_atom_site_fract_y
_atom_site_fract_z
Si Si1 0.842983 0.447081 0.799361
Si Si2 0.831734 0.861212 0.648722
Si Si3 0.597342 0.182259 0.445727
Si Si4 0.092636 0.212825 0.450555
Si Si5 0.705598 0.320802 0.937291
Si Si6 0.388815 0.897362 0.167768
O O1 0.789324 0.500000 0.680661
O O2 0.736453 0.407663 0.543247
O O3 0.866419 0.437114 0.010345
O O4 0.000000 0.442450 0.000000
O O5 0.725587 0.842321 0.583958
O O6 0.837991 0.819890 0.544098
O O7 0.000000 0.869096 0.000000
O O8 0.565274 0.235199 0.341998
O O9 0.464487 0.145748 0.216607
O O10 0.656714 0.188629 0.713641
O O11 0.195356 0.210118 0.776240
O O12 0.940728 0.189877 0.234939
O O13 0.734806 0.374864 0.946163
O O14 0.500000 0.908730 0.500000
#
# Coordination Sequence:
#
# PCOD9213021 Si02
#       6
#     8   8   8   8   8   8
#     4  11  24  46  71  94 121 164 218 276 332 380
#     4  12  24  43  62  91 132 171 211 270 316 376
#     4  11  23  37  58  93 127 173 215 251 310 374
#     4  11  23  35  59  86 129 175 211 251 303 375
#     4  10  22  36  56  88 125 168 207 256 306 368
#     4  10  22  39  65  93 126 162 208 269 321 382
#
# _framework density 19.876332000000001
#
# number of rings (size 3 to 8) (size 9 to 14) (size 15 to 20)
#    0.000    1.167    5.000    1.000    9.333    0.667 
#    3.000    0.000    0.000    2.000    0.000    0.000 
#    0.000    0.000    0.000    0.000    0.000    0.000 
#
# Total GULP energy -134042.267866 kJ/mol
# GULP energy per Si atom -5585.094494 kJ/mol
# Density = 1.983109 g / cm^3
# Si number density = 19.876332 Si / 1000 Ang^3
#
#
#
# Elastic Constant Matrix: (Units=GPa)
#
#
# Indices 1 2 3 4 5 6 
#
# 1 78.4728 41.9962 36.1868 0.0000 6.1660 0.0000
# 2 41.9962 100.8051 30.5633 0.0000 -4.0944 0.0000
# 3 36.1868 30.5633 60.1897 0.0000 2.9198 0.0000
# 4 0.0000 0.0000 0.0000 12.6955 0.0000 -13.8636
# 5 6.1660 -4.0944 2.9198 0.0000 31.7936 0.0000
# 6 0.0000 0.0000 0.0000 -13.8636 0.0000 -101.0105
#
#
#
# Elastic Compliance Matrix: (Units=1/GPa)
#
#
# Indices 1 2 3 4 5 6 
#
# 1 0.020391 -0.005901 -0.009074 0.000000 -0.003881 0.000000
# 2 -0.005901 0.013570 -0.003498 0.000000 0.003213 0.000000
# 3 -0.009074 -0.003498 0.023889 0.000000 -0.000885 0.000000
# 4 0.000000 0.000000 0.000000 0.068501 0.000000 -0.009402
# 5 -0.003881 0.003213 -0.000885 0.000000 0.032701 0.000000
# 6 0.000000 0.000000 0.000000 -0.009402 0.000000 -0.008610
#
#
# Mechanical properties :
#
#
# Convention : Reuss Voigt Hill
#
# Bulk Modulus (GPa) = 47.84340 50.77339 49.30840
# Shear Modulus (GPa) = 25.72569 -2.58952 11.56809
#
# Velocity S-wave (km/s) = 3.60152 -1.14265 2.41509
# Velocity P-wave (km/s) = 6.43564 4.88459 5.71300
#
# Compressibility (1/GPa) = 0.02090152
#
# Stress axis : x y z
#
# Youngs Moduli (GPa) = 49.04109 73.69233 41.85995
#
# Poissons Ratio (x) = 0.43489 0.37986
# Poissons Ratio (y) = 0.28941 0.14645
# Poissons Ratio (z) = 0.44502 0.25781
#
# Static dielectric constant tensor:
#      x y z
#    x 1.716910 0.000000 -0.003680 
#    y 0.000000 1.700450 0.000000 
#    z -0.003680 0.000000 1.748910 
# 
# From -- ./inp_files/80608.got.cif
#   From: 2010.05.17/outbox.cif.g08.bks.cpg/sg12_41_cif.got.tgz:80608.got - 2010.06.03 13:09:07.
