data_PCOD9213785
_publ_section_title
;
Structure prediction by ZEFSAII (Michael W. Deem and Ramdas Pophale) SiO2 
 PCOD9213785
Probable space group: C 2/M
;
_chemical_formula_sum "Si O2"
_cell_formula_units_Z 36
_cell_length_a 11.284526
_cell_length_b 15.813265
_cell_length_c 11.115502
_cell_angle_alpha 90.000000
_cell_angle_beta 105.602211
_cell_angle_gamma 90.000000
_cell_volume 1910.420050
_symmetry_space_group_name_H-M "C 2/M"
_symmetry_group_IT_number 12
_symmetry_cell_setting 'monoclinic'
loop_
_space_group_symop_operation_xyz
x,y,z
-x,y,-z
-x,-y,-z
x,-y,z
1/2+x,1/2+y,z
1/2-x,1/2+y,-z
1/2-x,1/2-y,-z
1/2+x,1/2-y,z
loop_
_atom_site_type_symbol
_atom_site_label
_atom_site_fract_x
_atom_site_fract_y
_atom_site_fract_z
Si Si1 0.796830 0.000000 0.580248
Si Si2 0.062829 0.091801 0.192236
Si Si3 0.093918 0.500000 0.716450
Si Si4 0.281855 0.834537 0.134848
Si Si5 0.712469 0.353218 0.847418
Si Si6 0.691052 0.000000 0.295763
O O1 0.872660 0.078641 0.659281
O O2 0.782688 0.000000 0.434891
O O3 0.661735 0.000000 0.605222
O O4 0.139142 0.157321 0.135973
O O5 0.919768 0.105687 0.163341
O O6 0.086641 0.000000 0.140168
O O7 0.146194 0.414504 0.792143
O O8 0.947847 0.500000 0.692049
O O9 0.319480 0.743464 0.196425
O O10 0.287027 0.842069 0.992324
O O11 0.782457 0.415901 0.776142
#
# Coordination Sequence:
#
# PCOD9213785 Si02
#       6
#     4   8   4   8   8   4
#     4   8  20  41  65  79 110 157 199 246 285 338
#     4   9  19  39  63  77 113 157 194 235 287 340
#     4  10  22  41  61  77 122 159 193 234 295 352
#     4  10  22  39  56  86 123 155 189 228 297 352
#     4  11  23  34  59  93 118 148 191 246 285 345
#     4  12  23  38  61  88 118 150 200 242 295 326
#
# _framework density 18.844023
#
# number of rings (size 3 to 8) (size 9 to 14) (size 15 to 20)
#    0.667    1.333    2.222    1.667    3.111    4.444 
#    0.000    4.444    9.778    0.000    0.000    0.000 
#    0.000    0.000    0.000    0.000    0.000    0.000 
#
# Total GULP energy -100217.682942 kJ/mol
# GULP energy per Si atom -5567.649052 kJ/mol
# Density = 1.880113 g / cm^3
# Si number density = 18.844023 Si / 1000 Ang^3
#
#
#
# Elastic Constant Matrix: (Units=GPa)
#
#
# Indices 1 2 3 4 5 6 
#
# 1 40.1181 3.2266 7.7104 0.0000 9.0238 0.0000
# 2 3.2266 114.9173 38.6619 0.0000 -5.0963 0.0000
# 3 7.7104 38.6619 80.7722 0.0000 -8.6880 0.0000
# 4 0.0000 0.0000 0.0000 10.7056 0.0000 6.6877
# 5 9.0238 -5.0963 -8.6880 0.0000 16.3453 0.0000
# 6 0.0000 0.0000 0.0000 6.6877 0.0000 20.7126
#
#
#
# Elastic Compliance Matrix: (Units=1/GPa)
#
#
# Indices 1 2 3 4 5 6 
#
# 1 0.030228 -0.000043 -0.004944 0.000000 -0.019329 0.000000
# 2 -0.000043 0.010378 -0.004893 0.000000 0.000659 0.000000
# 3 -0.004944 -0.004893 0.016253 0.000000 0.009843 0.000000
# 4 0.000000 0.000000 0.000000 0.117010 0.000000 -0.037780
# 5 -0.019329 0.000659 0.009843 0.000000 0.077288 0.000000
# 6 0.000000 0.000000 0.000000 -0.037780 0.000000 0.060478
#
#
# Mechanical properties :
#
#
# Convention : Reuss Voigt Hill
#
# Bulk Modulus (GPa) = 26.95394 37.22280 32.08837
# Shear Modulus (GPa) = 14.54499 21.96662 18.25580
#
# Velocity S-wave (km/s) = 2.78125 3.41795 3.11591
# Velocity P-wave (km/s) = 4.96474 5.94748 5.47819
#
# Compressibility (1/GPa) = 0.03710032
#
# Stress axis : x y z
#
# Youngs Moduli (GPa) = 33.08217 96.35402 61.52658
#
# Poissons Ratio (x) = 0.00410 0.30420
# Poissons Ratio (y) = 0.00141 0.30103
# Poissons Ratio (z) = 0.16357 0.47143
#
# Static dielectric constant tensor:
#      x y z
#    x 1.650140 0.000000 0.007270 
#    y 0.000000 1.712990 0.000000 
#    z 0.007270 0.000000 1.675200 
# 
# From -- ./inp_files/130136.got.cif
#   From: 2010.05.17/outbox.cif.g08.bks.cpg/sg12_66_cif.got.tgz:130136.got - 2010.06.03 13:09:07.
