data_PCOD9213020
_publ_section_title
;
Structure prediction by ZEFSAII (Michael W. Deem and Ramdas Pophale) SiO2 
 PCOD9213020
Probable space group: C 2/M
;
_chemical_formula_sum "Si O2"
_cell_formula_units_Z 64
_cell_length_a 14.393048
_cell_length_b 25.530932
_cell_length_c 11.980869
_cell_angle_alpha 90.000000
_cell_angle_beta 42.457238
_cell_angle_gamma 90.000000
_cell_volume 2971.920016
_symmetry_space_group_name_H-M "C 2/M"
_symmetry_group_IT_number 12
_symmetry_cell_setting 'monoclinic'
loop_
_space_group_symop_operation_xyz
x,y,z
-x,y,-z
-x,-y,-z
x,-y,z
1/2+x,1/2+y,z
1/2-x,1/2+y,-z
1/2-x,1/2-y,-z
1/2+x,1/2-y,z
loop_
_atom_site_type_symbol
_atom_site_label
_atom_site_fract_x
_atom_site_fract_y
_atom_site_fract_z
Si Si1 0.626645 0.387737 0.824127
Si Si2 0.379127 0.157779 0.264878
Si Si3 0.286320 0.204580 0.768265
Si Si4 0.210861 0.441380 0.513881
Si Si5 0.820063 0.688544 0.079327
Si Si6 0.993371 0.944165 0.636958
Si Si7 0.546541 0.337101 0.215294
Si Si8 0.081661 0.264963 0.584230
O O1 0.717356 0.351980 0.825121
O O2 0.731388 0.421991 0.657457
O O3 0.543652 0.348220 0.814624
O O4 0.500000 0.416108 0.000000
O O5 0.365080 0.105610 0.352878
O O6 0.292304 0.161440 0.225935
O O7 0.349083 0.207489 0.370982
O O8 0.536270 0.165729 0.087607
O O9 0.177475 0.249305 0.898720
O O10 0.336884 0.219728 0.598526
O O11 0.428867 0.208839 0.708975
O O12 0.147099 0.500000 0.564854
O O13 0.351001 0.446407 0.459092
O O14 0.701542 0.683700 0.091124
O O15 0.000000 0.937593 0.500000
O O16 0.933772 0.894048 0.748584
O O17 0.924880 0.000000 0.724639
O O18 0.456326 0.295919 0.366695
#
# Coordination Sequence:
#
# PCOD9213020 Si02
#       8
#     8   8   8   8   8   8   8   8
#     4  11  24  38  61  91 118 157 200 251 305 358
#     4  11  22  40  59  88 120 166 198 249 300 354
#     4  10  22  38  56  92 123 162 201 241 299 354
#     4  10  22  42  64  85 114 156 208 253 302 360
#     4  10  24  36  57  90 132 156 197 243 298 366
#     4   9  18  33  56  84 113 147 193 248 296 350
#     4  10  22  36  56  88 120 162 195 245 300 359
#     4  10  22  36  62  85 123 164 202 248 289 360
#
# _framework density 21.534901000000001
#
# number of rings (size 3 to 8) (size 9 to 14) (size 15 to 20)
#    0.000    1.875    1.250    1.500   12.250    2.250 
#    0.000    1.875    0.000    1.500    0.000    0.000 
#    0.000    0.000    0.000    0.000    0.000    0.000 
#
# Total GULP energy -178571.416831 kJ/mol
# GULP energy per Si atom -5580.356776 kJ/mol
# Density = 2.148589 g / cm^3
# Si number density = 21.534901 Si / 1000 Ang^3
#
#
#
# Elastic Constant Matrix: (Units=GPa)
#
#
# Indices 1 2 3 4 5 6 
#
# 1 68.7040 4.6764 -2.5688 0.0000 7.2102 0.0000
# 2 4.6764 101.5836 36.8949 0.0000 5.0709 0.0000
# 3 -2.5688 36.8949 83.6453 0.0000 2.0603 0.0000
# 4 0.0000 0.0000 0.0000 23.3616 0.0000 4.3391
# 5 7.2102 5.0709 2.0603 0.0000 27.4241 0.0000
# 6 0.0000 0.0000 0.0000 4.3391 0.0000 27.5696
#
#
#
# Elastic Compliance Matrix: (Units=1/GPa)
#
#
# Indices 1 2 3 4 5 6 
#
# 1 0.015053 -0.000836 0.000926 0.000000 -0.003873 0.000000
# 2 -0.000836 0.011856 -0.005216 0.000000 -0.001581 0.000000
# 3 0.000926 -0.005216 0.014293 0.000000 -0.000353 0.000000
# 4 0.000000 0.000000 0.000000 0.044094 0.000000 -0.006940
# 5 -0.003873 -0.001581 -0.000353 0.000000 0.037801 0.000000
# 6 0.000000 0.000000 0.000000 -0.006940 0.000000 0.037364
#
#
# Mechanical properties :
#
#
# Convention : Reuss Voigt Hill
#
# Bulk Modulus (GPa) = 32.30964 36.88200 34.59582
# Shear Modulus (GPa) = 27.61962 29.99977 28.80969
#
# Velocity S-wave (km/s) = 3.58516 3.73644 3.66158
# Velocity P-wave (km/s) = 5.67219 5.98151 5.82890
#
# Compressibility (1/GPa) = 0.03095052
#
# Stress axis : x y z
#
# Youngs Moduli (GPa) = 66.43123 84.34509 69.96313
#
# Poissons Ratio (x) = 0.07053 -0.06482
# Poissons Ratio (y) = 0.05555 0.36495
# Poissons Ratio (z) = -0.06155 0.43997
#
# Static dielectric constant tensor:
#      x y z
#    x 1.815240 0.000000 0.021270 
#    y 0.000000 1.862560 0.000000 
#    z 0.021270 0.000000 1.823230 
# 
# From -- ./inp_files/149722.got.cif
#   From: 2010.05.17/outbox.cif.g08.bks.cpg/sg12_75_cif.got.tgz:149722.got - 2010.06.03 13:09:07.
