data_PCOD9213252
_publ_section_title
;
Structure prediction by ZEFSAII (Michael W. Deem and Ramdas Pophale) SiO2 
 PCOD9213252
Probable space group: C 2/M
;
_chemical_formula_sum "Si O2"
_cell_formula_units_Z 52
_cell_length_a 12.584087
_cell_length_b 19.070168
_cell_length_c 12.702268
_cell_angle_alpha 90.000000
_cell_angle_beta 120.952123
_cell_angle_gamma 90.000000
_cell_volume 2614.212848
_symmetry_space_group_name_H-M "C 2/M"
_symmetry_group_IT_number 12
_symmetry_cell_setting 'monoclinic'
loop_
_space_group_symop_operation_xyz
x,y,z
-x,y,-z
-x,-y,-z
x,-y,z
1/2+x,1/2+y,z
1/2-x,1/2+y,-z
1/2-x,1/2-y,-z
1/2+x,1/2-y,z
loop_
_atom_site_type_symbol
_atom_site_label
_atom_site_fract_x
_atom_site_fract_y
_atom_site_fract_z
Si Si1 0.868780 0.356523 0.278899
Si Si2 0.977540 0.221724 0.212749
Si Si3 0.259345 0.762182 0.380711
Si Si4 0.267793 0.000000 0.981187
Si Si5 0.476680 0.000000 0.267343
Si Si6 0.629438 0.626612 0.010734
Si Si7 0.900412 0.128370 0.362429
Si Si8 0.784492 0.500000 0.755685
O O1 0.932347 0.293300 0.245159
O O2 0.838680 0.328265 0.380283
O O3 0.947357 0.427909 0.314094
O O4 0.737131 0.366945 0.152389
O O5 0.900266 0.196979 0.071430
O O6 0.964841 0.158233 0.290272
O O7 0.122114 0.231266 0.263357
O O8 0.250000 0.750000 0.500000
O O9 0.327215 0.694937 0.369542
O O10 0.181590 0.067517 0.958259
O O11 0.330601 0.000000 0.899374
O O12 0.375174 0.000000 0.122300
O O13 0.609848 0.000000 0.278869
O O14 0.500000 0.605943 0.000000
O O15 0.000000 0.106365 0.500000
O O16 0.803135 0.067279 0.296744
#
# Coordination Sequence:
#
# PCOD9213252 Si02
#       8
#     8   8   8   4   4   8   8   4
#     4  10  23  39  63  92 127 166 207 264 306 380
#     4  11  21  39  61  92 124 162 209 258 314 368
#     4  11  22  40  65  90 120 166 209 252 317 372
#     4  10  22  37  61  90 129 175 204 259 311 389
#     4  10  23  44  61  90 129 167 218 250 321 380
#     4  11  20  38  60  94 130 161 211 255 321 372
#     4  11  23  39  62  91 122 161 212 262 303 376
#     4  12  22  41  62  90 128 167 210 259 317 368
#
# _framework density 19.891265000000001
#
# number of rings (size 3 to 8) (size 9 to 14) (size 15 to 20)
#    0.000    1.231    4.615    2.077    0.000    0.000 
#    0.000    1.538    0.000    1.846    0.000    0.000 
#    0.000    0.000    0.000    0.000    0.000    0.000 
#
# Total GULP energy -145193.250038 kJ/mol
# GULP energy per Si atom -5584.355771 kJ/mol
# Density = 1.984599 g / cm^3
# Si number density = 19.891265 Si / 1000 Ang^3
#
#
#
# Elastic Constant Matrix: (Units=GPa)
#
#
# Indices 1 2 3 4 5 6 
#
# 1 84.6790 20.7856 8.6136 0.0000 -3.8273 0.0000
# 2 20.7856 91.6200 17.7187 0.0000 -8.4111 0.0000
# 3 8.6136 17.7187 39.2545 0.0000 -13.0718 0.0000
# 4 0.0000 0.0000 0.0000 9.2081 0.0000 -2.0086
# 5 -3.8273 -8.4111 -13.0718 0.0000 30.2067 0.0000
# 6 0.0000 0.0000 0.0000 -2.0086 0.0000 14.3189
#
#
#
# Elastic Compliance Matrix: (Units=1/GPa)
#
#
# Indices 1 2 3 4 5 6 
#
# 1 0.012600 -0.002539 -0.001545 0.000000 0.000221 0.000000
# 2 -0.002539 0.012505 -0.004714 0.000000 0.001120 0.000000
# 3 -0.001545 -0.004714 0.032059 0.000000 0.012365 0.000000
# 4 0.000000 0.000000 0.000000 0.112028 0.000000 0.015715
# 5 0.000221 0.001120 0.012365 0.000000 0.038796 0.000000
# 6 0.000000 0.000000 0.000000 0.015715 0.000000 0.072042
#
#
# Mechanical properties :
#
#
# Convention : Reuss Voigt Hill
#
# Bulk Modulus (GPa) = 25.27366 34.42102 29.84734
# Shear Modulus (GPa) = 16.08664 21.97578 19.03121
#
# Velocity S-wave (km/s) = 2.84690 3.32745 3.09651
# Velocity P-wave (km/s) = 4.85180 5.66610 5.27469
#
# Compressibility (1/GPa) = 0.03956689
#
# Stress axis : x y z
#
# Youngs Moduli (GPa) = 79.36650 79.96585 31.19210
#
# Poissons Ratio (x) = 0.20307 0.04819
# Poissons Ratio (y) = 0.20155 0.14705
# Poissons Ratio (z) = 0.12262 0.37699
#
# Static dielectric constant tensor:
#      x y z
#    x 1.695390 0.000000 -0.026260 
#    y 0.000000 1.694100 0.000000 
#    z -0.026260 0.000000 1.734010 
# 
# From -- ./inp_files/134068.got.cif
#   From: 2010.05.17/outbox.cif.g08.bks.cpg/sg12_68_cif.got.tgz:134068.got - 2010.06.03 13:09:07.
