data_PCOD9213143
_publ_section_title
;
Structure prediction by ZEFSAII (Michael W. Deem and Ramdas Pophale) SiO2 
 PCOD9213143
Probable space group: C 2/M
;
_chemical_formula_sum "Si O2"
_cell_formula_units_Z 58
_cell_length_a 16.659725
_cell_length_b 17.965461
_cell_length_c 9.619605
_cell_angle_alpha 90.000000
_cell_angle_beta 64.174427
_cell_angle_gamma 90.000000
_cell_volume 2591.588114
_symmetry_space_group_name_H-M "C 2/M"
_symmetry_group_IT_number 12
_symmetry_cell_setting 'monoclinic'
loop_
_space_group_symop_operation_xyz
x,y,z
-x,y,-z
-x,-y,-z
x,-y,z
1/2+x,1/2+y,z
1/2-x,1/2+y,-z
1/2-x,1/2-y,-z
1/2+x,1/2-y,z
loop_
_atom_site_type_symbol
_atom_site_label
_atom_site_fract_x
_atom_site_fract_y
_atom_site_fract_z
Si Si1 0.297683 0.418136 0.925173
Si Si2 0.064588 0.418151 0.318306
Si Si3 0.179918 0.917175 0.485762
Si Si4 0.036664 0.738001 0.313227
Si Si5 0.233375 0.127149 0.754159
Si Si6 0.000000 0.000000 0.000000
Si Si7 0.234519 0.207194 0.228134
Si Si8 0.001594 0.892795 0.260425
O O1 0.260428 0.500000 0.928398
O O2 0.238135 0.349563 0.916082
O O3 0.395463 0.412325 0.781492
O O4 0.314251 0.409103 0.076761
O O5 0.066957 0.500000 0.250160
O O6 0.029310 0.345816 0.263382
O O7 0.163190 0.395789 0.297189
O O8 0.000000 0.423163 0.500000
O O9 0.207401 0.904365 0.625094
O O10 0.220244 0.849291 0.366978
O O11 0.072661 0.914055 0.571227
O O12 0.208849 0.000000 0.419247
O O13 0.139558 0.760761 0.249407
O O14 0.000000 0.740208 0.500000
O O15 0.993530 0.803473 0.257059
O O16 0.216042 0.216276 0.773352
O O17 0.984221 0.936092 0.132566
#
# Coordination Sequence:
#
# PCOD9213143 Si02
#       8
#     8   8   8   8   8   2   8   8
#     4  11  21  37  58  86 119 157 198 233 284 353
#     4   9  18  35  60  86 108 139 197 262 299 333
#     4  12  22  36  58  87 120 159 195 236 294 352
#     4   9  17  34  54  80 111 146 195 232 286 334
#     4  11  23  38  58  85 116 154 193 247 299 357
#     4  12  20  36  46  84 126 156 194 222 276 336
#     4  10  22  37  55  80 118 155 196 243 290 342
#     4  11  22  34  57  84 124 163 188 232 274 354
#
# _framework density 22.380099999999999
#
# number of rings (size 3 to 8) (size 9 to 14) (size 15 to 20)
#    0.000    1.517    2.759    3.310    0.000    0.000 
#    0.000    2.414    0.000    0.000    0.000    0.483 
#    0.000    0.414    0.000    0.000    0.000    0.000 
#
# Total GULP energy -161582.308394 kJ/mol
# GULP energy per Si atom -5571.803738 kJ/mol
# Density = 2.232916 g / cm^3
# Si number density = 22.380100 Si / 1000 Ang^3
#
#
#
# Elastic Constant Matrix: (Units=GPa)
#
#
# Indices 1 2 3 4 5 6 
#
# 1 24.9277 7.6964 11.4451 0.0000 -2.9521 0.0000
# 2 7.6964 261.1678 34.8476 0.0000 17.1173 0.0000
# 3 11.4451 34.8476 88.2790 0.0000 12.2869 0.0000
# 4 0.0000 0.0000 0.0000 40.7799 0.0000 2.9329
# 5 -2.9521 17.1173 12.2869 0.0000 28.7473 0.0000
# 6 0.0000 0.0000 0.0000 2.9329 0.0000 10.3090
#
#
#
# Elastic Compliance Matrix: (Units=1/GPa)
#
#
# Indices 1 2 3 4 5 6 
#
# 1 0.044314 -0.000960 -0.006464 0.000000 0.007885 0.000000
# 2 -0.000960 0.004156 -0.001231 0.000000 -0.002047 0.000000
# 3 -0.006464 -0.001231 0.013442 0.000000 -0.005676 0.000000
# 4 0.000000 0.000000 0.000000 0.025034 0.000000 -0.007122
# 5 0.007885 -0.002047 -0.005676 0.000000 0.039240 0.000000
# 6 0.000000 0.000000 0.000000 -0.007122 0.000000 0.099029
#
#
# Mechanical properties :
#
#
# Convention : Reuss Voigt Hill
#
# Bulk Modulus (GPa) = 22.42080 53.59474 38.00777
# Shear Modulus (GPa) = 19.42568 37.32627 28.37598
#
# Velocity S-wave (km/s) = 2.94936 4.08834 3.56464
# Velocity P-wave (km/s) = 4.65169 6.80335 5.82768
#
# Compressibility (1/GPa) = 0.04460145
#
# Stress axis : x y z
#
# Youngs Moduli (GPa) = 22.56630 240.63518 74.39575
#
# Poissons Ratio (x) = 0.23107 0.48086
# Poissons Ratio (y) = 0.02167 0.09158
# Poissons Ratio (z) = 0.14586 0.29623
#
# Static dielectric constant tensor:
#      x y z
#    x 1.862550 0.000000 -0.035400 
#    y 0.000000 1.897920 0.000000 
#    z -0.035400 0.000000 1.841320 
# 
# From -- ./inp_files/88417.got.cif
#   From: 2010.05.17/outbox.cif.g08.bks.cpg/sg12_45_cif.got.tgz:88417.got - 2010.06.03 13:09:07.
