data_PCOD9213100
_publ_section_title
;
Structure prediction by ZEFSAII (Michael W. Deem and Ramdas Pophale) SiO2 
 PCOD9213100
Probable space group: C 2/M
;
_chemical_formula_sum "Si O2"
_cell_formula_units_Z 44
_cell_length_a 12.085026
_cell_length_b 25.811927
_cell_length_c 17.510361
_cell_angle_alpha 90.000000
_cell_angle_beta 21.117853
_cell_angle_gamma 90.000000
_cell_volume 1967.942040
_symmetry_space_group_name_H-M "C 2/M"
_symmetry_group_IT_number 12
_symmetry_cell_setting 'monoclinic'
loop_
_space_group_symop_operation_xyz
x,y,z
-x,y,-z
-x,-y,-z
x,-y,z
1/2+x,1/2+y,z
1/2-x,1/2+y,-z
1/2-x,1/2-y,-z
1/2+x,1/2-y,z
loop_
_atom_site_type_symbol
_atom_site_label
_atom_site_fract_x
_atom_site_fract_y
_atom_site_fract_z
Si Si1 0.763308 0.329195 0.531233
Si Si2 0.500000 0.909752 0.000000
Si Si3 0.151507 0.766928 0.320074
Si Si4 0.501553 0.000000 0.783859
Si Si5 0.209176 0.330383 0.991516
Si Si6 0.152302 0.000000 0.283072
Si Si7 0.820164 0.609398 0.836474
O O1 0.514806 0.305406 0.632238
O O2 0.564509 0.330962 0.736925
O O3 0.044263 0.289362 0.361663
O O4 0.909495 0.379543 0.398536
O O5 0.446807 0.874398 0.960951
O O6 0.215605 0.948263 0.195171
O O7 0.000000 0.776405 0.500000
O O8 0.512518 0.779203 0.096239
O O9 0.340958 0.946895 0.862378
O O10 0.590236 0.000000 0.815705
O O11 0.825611 0.000000 0.531642
O O12 0.160787 0.347278 0.109478
O O13 0.500000 0.613635 0.000000
#
# Coordination Sequence:
#
# PCOD9213100 Si02
#       7
#     8   4   8   4   8   4   8
#     4  11  26  45  68 103 142 181 233 290 354 420
#     4  11  20  40  68 108 138 174 230 289 356 404
#     4  11  24  43  70 103 138 182 232 288 358 411
#     4  11  23  44  69 103 145 177 232 292 346 426
#     4  12  24  45  74 101 145 184 234 296 349 418
#     4  10  22  36  73 110 136 174 230 293 361 412
#     4  12  28  47  70 101 142 194 236 286 350 425
#
# _framework density 22.358381000000001
#
# number of rings (size 3 to 8) (size 9 to 14) (size 15 to 20)
#    0.000    0.727    5.455    1.364    2.545    3.636 
#    0.000    0.000    0.000    3.273    0.000    0.000 
#    0.000    0.000    0.000    0.000    0.000    0.000 
#
# Total GULP energy -123111.154836 kJ/mol
# GULP energy per Si atom -5595.961583 kJ/mol
# Density = 2.230749 g / cm^3
# Si number density = 22.358381 Si / 1000 Ang^3
#
#
#
# Elastic Constant Matrix: (Units=GPa)
#
#
# Indices 1 2 3 4 5 6 
#
# 1 86.3495 13.2993 35.5230 -0.2207 -13.7842 0.1208
# 2 13.2993 71.5118 32.6305 -0.1705 -16.5500 0.0097
# 3 35.5230 32.6305 96.2365 -0.0122 3.4327 -0.0347
# 4 -0.2207 -0.1705 -0.0122 25.3820 0.1366 9.9186
# 5 -13.7842 -16.5500 3.4327 0.1366 37.7203 -0.1299
# 6 0.1208 0.0097 -0.0347 9.9186 -0.1299 12.9588
#
#
#
# Elastic Compliance Matrix: (Units=1/GPa)
#
#
# Indices 1 2 3 4 5 6 
#
# 1 0.015025 0.001683 -0.006360 0.000196 0.006807 -0.000240
# 2 0.001683 0.019382 -0.007543 0.000099 0.009805 -0.000028
# 3 -0.006360 -0.007543 0.015548 -0.000106 -0.007048 0.000117
# 4 0.000196 0.000099 -0.000106 0.056218 -0.000227 -0.043033
# 5 0.006807 0.009805 -0.007048 -0.000227 0.033944 0.000424
# 6 -0.000240 -0.000028 0.000117 -0.043033 0.000424 0.110111
#
#
# Mechanical properties :
#
#
# Convention : Reuss Voigt Hill
#
# Bulk Modulus (GPa) = 39.19083 46.33373 42.76228
# Shear Modulus (GPa) = 17.65719 26.72190 22.18955
#
# Velocity S-wave (km/s) = 2.81327 3.46086 3.15373
# Velocity P-wave (km/s) = 5.30275 6.06121 5.69462
#
# Compressibility (1/GPa) = 0.02551617
#
# Stress axis : x y z
#
# Youngs Moduli (GPa) = 66.55446 51.59480 64.31893
#
# Poissons Ratio (x) = -0.08685 0.40905
# Poissons Ratio (y) = -0.11204 0.48515
# Poissons Ratio (z) = 0.42327 0.38917
#
# Static dielectric constant tensor:
#      x y z
#    x 1.801700 0.000000 0.017070 
#    y 0.000000 1.836000 0.000240 
#    z 0.017070 0.000240 1.826900 
# 
# From -- ./inp_files/266258.got.cif
#   From: 2010.05.17/outbox.cif.g08.bks.cpg/sg12_134_cif.got.tgz:266258.got - 2010.06.03 13:09:07.
