data_PCOD9213964
_publ_section_title
;
Structure prediction by ZEFSAII (Michael W. Deem and Ramdas Pophale) SiO2 
 PCOD9213964
Probable space group: C 2/M
;
_chemical_formula_sum "Si O2"
_cell_formula_units_Z 36
_cell_length_a 9.473918
_cell_length_b 28.151426
_cell_length_c 11.901911
_cell_angle_alpha 90.000000
_cell_angle_beta 37.244032
_cell_angle_gamma 90.000000
_cell_volume 1921.115975
_symmetry_space_group_name_H-M "C 2/M"
_symmetry_group_IT_number 12
_symmetry_cell_setting 'monoclinic'
loop_
_space_group_symop_operation_xyz
x,y,z
-x,y,-z
-x,-y,-z
x,-y,z
1/2+x,1/2+y,z
1/2-x,1/2+y,-z
1/2-x,1/2-y,-z
1/2+x,1/2-y,z
loop_
_atom_site_type_symbol
_atom_site_label
_atom_site_fract_x
_atom_site_fract_y
_atom_site_fract_z
Si Si1 0.000000 0.370293 0.000000
Si Si2 0.228887 0.806029 0.996077
Si Si3 0.891032 0.053989 0.692611
Si Si4 0.275691 0.551740 0.303485
Si Si5 0.732817 0.844587 0.276496
O O1 0.106795 0.336464 0.027241
O O2 0.200541 0.405488 0.828929
O O3 0.960243 0.820938 0.187820
O O4 0.250000 0.750000 0.000000
O O5 0.292268 0.820061 0.828197
O O6 0.000000 0.057981 0.500000
O O7 0.084959 0.058641 0.667893
O O8 0.794937 0.000000 0.763658
O O9 0.348506 0.500000 0.210928
O O10 0.298661 0.599822 0.218758
O O11 0.000000 0.548845 0.500000
O O12 0.500000 0.841281 0.500000
#
# Coordination Sequence:
#
# PCOD9213964 Si02
#       5
#     4   8   8   8   8
#     4  12  23  38  64  92 122 168 203 246 324 372
#     4  11  25  44  63  90 126 158 206 269 312 359
#     4  10  22  39  60  92 131 165 202 249 301 371
#     4   9  18  36  62  92 124 160 204 248 295 361
#     4  10  22  43  67  91 122 162 206 253 305 370
#
# _framework density 18.739108999999999
#
# number of rings (size 3 to 8) (size 9 to 14) (size 15 to 20)
#    0.000    1.778    2.222    1.667    6.222    0.889 
#    0.000    5.556    0.000    0.000    0.000    0.000 
#    0.000    0.000    0.000    0.000    0.000    0.000 
#
# Total GULP energy -100417.764023 kJ/mol
# GULP energy per Si atom -5578.764668 kJ/mol
# Density = 1.869646 g / cm^3
# Si number density = 18.739109 Si / 1000 Ang^3
#
#
#
# Elastic Constant Matrix: (Units=GPa)
#
#
# Indices 1 2 3 4 5 6 
#
# 1 131.9900 80.8106 57.8566 0.0000 -12.9140 0.0000
# 2 80.8106 215.3026 63.9532 0.0000 -3.1482 0.0000
# 3 57.8566 63.9532 109.5492 0.0000 -10.6005 0.0000
# 4 0.0000 0.0000 0.0000 31.4234 0.0000 -0.0541
# 5 -12.9140 -3.1482 -10.6005 0.0000 29.2145 0.0000
# 6 0.0000 0.0000 0.0000 -0.0541 0.0000 60.1754
#
#
#
# Elastic Compliance Matrix: (Units=1/GPa)
#
#
# Indices 1 2 3 4 5 6 
#
# 1 0.011539 -0.003107 -0.003959 0.000000 0.003330 0.000000
# 2 -0.003107 0.006466 -0.002279 0.000000 -0.001504 0.000000
# 3 -0.003959 -0.002279 0.012806 0.000000 0.002651 0.000000
# 4 0.000000 0.000000 0.000000 0.031823 0.000000 0.000029
# 5 0.003330 -0.001504 0.002651 0.000000 0.036501 0.000000
# 6 0.000000 0.000000 0.000000 0.000029 0.000000 0.016618
#
#
# Mechanical properties :
#
#
# Convention : Reuss Voigt Hill
#
# Bulk Modulus (GPa) = 82.49321 95.78697 89.14009
# Shear Modulus (GPa) = 36.10527 41.11075 38.60801
#
# Velocity S-wave (km/s) = 4.39422 4.68893 4.54397
# Velocity P-wave (km/s) = 8.35841 8.97451 8.67194
#
# Compressibility (1/GPa) = 0.01212221
#
# Stress axis : x y z
#
# Youngs Moduli (GPa) = 86.66042 154.66191 78.08736
#
# Poissons Ratio (x) = 0.48047 0.30911
# Poissons Ratio (y) = 0.26922 0.17799
# Poissons Ratio (z) = 0.34305 0.35253
#
# Static dielectric constant tensor:
#      x y z
#    x 1.659520 0.000000 0.001220 
#    y 0.000000 1.664750 0.000000 
#    z 0.001220 0.000000 1.642520 
# 
# From -- ./inp_files/123339.got.cif
#   From: 2010.05.17/outbox.cif.g08.bks.cpg/sg12_62_cif.got.tgz:123339.got - 2010.06.03 13:09:07.
