data_PCOD9213118
_publ_section_title
;
Structure prediction by ZEFSAII (Michael W. Deem and Ramdas Pophale) SiO2 
 PCOD9213118
Probable space group: C 2/M
;
_chemical_formula_sum "Si O2"
_cell_formula_units_Z 58
_cell_length_a 5.458894
_cell_length_b 23.977873
_cell_length_c 21.235071
_cell_angle_alpha 90.000000
_cell_angle_beta 83.223426
_cell_angle_gamma 90.000000
_cell_volume 2760.096930
_symmetry_space_group_name_H-M "C 2/M"
_symmetry_group_IT_number 12
_symmetry_cell_setting 'monoclinic'
loop_
_space_group_symop_operation_xyz
x,y,z
-x,y,-z
-x,-y,-z
x,-y,z
1/2+x,1/2+y,z
1/2-x,1/2+y,-z
1/2-x,1/2-y,-z
1/2+x,1/2-y,z
loop_
_atom_site_type_symbol
_atom_site_label
_atom_site_fract_x
_atom_site_fract_y
_atom_site_fract_z
Si Si1 0.193488 0.914425 0.939048
Si Si2 0.637022 0.567609 0.681147
Si Si3 0.970648 0.231633 0.197546
Si Si4 0.510723 0.194750 0.068599
Si Si5 0.000000 0.500000 0.000000
Si Si6 0.401541 0.932977 0.247449
Si Si7 0.265920 0.568038 0.464717
Si Si8 0.355091 0.619212 0.856160
O O1 0.266997 0.849448 0.935849
O O2 0.043728 0.925034 0.879319
O O3 0.424188 0.951713 0.950500
O O4 0.000000 0.928696 0.000000
O O5 0.647048 0.500000 0.680961
O O6 0.356512 0.581270 0.709199
O O7 0.696858 0.586190 0.608507
O O8 0.855081 0.585282 0.722243
O O9 0.204938 0.251339 0.229923
O O10 0.006750 0.265012 0.129153
O O11 0.996253 0.166389 0.185825
O O12 0.275662 0.154227 0.084490
O O13 0.500000 0.221802 0.000000
O O14 0.359353 0.904715 0.181198
O O15 0.410472 0.000000 0.240236
O O16 0.500000 0.585166 0.500000
O O17 0.265094 0.500000 0.464809
O O18 0.000000 0.585503 0.500000
#
# Coordination Sequence:
#
# PCOD9213118 Si02
#       8
#     8   8   8   8   2   8   8   8
#     4  12  23  42  57  80 103 135 170 228 286 348
#     4   9  18  34  50  73 108 143 192 231 267 308
#     4  10  22  37  58  83 107 130 164 218 283 347
#     4  11  22  40  59  83 103 128 167 227 297 365
#     4  12  26  40  60  78 108 136 170 224 294 320
#     4  10  22  37  53  73 101 151 191 233 262 314
#     4   9  15  24  45  75 104 139 179 230 274 307
#     4  11  24  38  57  78 105 136 184 224 282 349
#
# _framework density 21.013755
#
# number of rings (size 3 to 8) (size 9 to 14) (size 15 to 20)
#    0.000    1.655    3.448    1.034    2.897    6.069 
#    1.241    0.000    0.000    0.000    0.000    0.000 
#    0.000    0.000    0.000    0.000    0.000  193.103 
#
# Total GULP energy -161744.588016 kJ/mol
# GULP energy per Si atom -5577.399587 kJ/mol
# Density = 2.096593 g / cm^3
# Si number density = 21.013755 Si / 1000 Ang^3
#
#
#
# Elastic Constant Matrix: (Units=GPa)
#
#
# Indices 1 2 3 4 5 6 
#
# 1 139.6889 15.4590 35.6304 0.0000 19.0729 0.0000
# 2 15.4590 50.1607 15.5511 0.0000 8.7903 0.0000
# 3 35.6304 15.5511 73.6326 0.0000 14.6369 0.0000
# 4 0.0000 0.0000 0.0000 6.5767 0.0000 1.5471
# 5 19.0729 8.7903 14.6369 0.0000 36.2198 0.0000
# 6 0.0000 0.0000 0.0000 1.5471 0.0000 -19.1121
#
#
#
# Elastic Compliance Matrix: (Units=1/GPa)
#
#
# Indices 1 2 3 4 5 6 
#
# 1 0.008520 -0.001092 -0.003319 0.000000 -0.002880 0.000000
# 2 -0.001092 0.021926 -0.003435 0.000000 -0.003358 0.000000
# 3 -0.003319 -0.003435 0.016745 0.000000 -0.004185 0.000000
# 4 0.000000 0.000000 0.000000 0.149211 0.000000 0.012079
# 5 -0.002880 -0.003358 -0.004185 0.000000 0.031632 0.000000
# 6 0.000000 0.000000 0.000000 0.012079 0.000000 -0.051345
#
#
# Mechanical properties :
#
#
# Convention : Reuss Voigt Hill
#
# Bulk Modulus (GPa) = 31.74841 44.08481 37.91661
# Shear Modulus (GPa) = 24.64518 17.85966 21.25242
#
# Velocity S-wave (km/s) = 3.42835 2.91847 3.18363
# Velocity P-wave (km/s) = 5.55091 5.69045 5.62111
#
# Compressibility (1/GPa) = 0.03149764
#
# Stress axis : x y z
#
# Youngs Moduli (GPa) = 117.37772 45.60832 59.72086
#
# Poissons Ratio (x) = 0.04980 0.19824
# Poissons Ratio (y) = 0.12816 0.20513
# Poissons Ratio (z) = 0.38963 0.15666
#
# Static dielectric constant tensor:
#      x y z
#    x 1.908300 0.000000 -0.002150 
#    y 0.000000 1.761620 0.000000 
#    z -0.002150 0.000000 1.774500 
# 
# From -- ./inp_files/253633.got.cif
#   From: 2010.05.17/outbox.cif.g08.bks.cpg/sg12_127_cif.got.tgz:253633.got - 2010.06.03 13:09:07.
