data_PCOD9213344
_publ_section_title
;
Structure prediction by ZEFSAII (Michael W. Deem and Ramdas Pophale) SiO2 
 PCOD9213344
Probable space group: C 2/M
;
_chemical_formula_sum "Si O2"
_cell_formula_units_Z 48
_cell_length_a 16.560381
_cell_length_b 8.065283
_cell_length_c 32.870353
_cell_angle_alpha 90.000000
_cell_angle_beta 28.664466
_cell_angle_gamma 90.000000
_cell_volume 2105.937034
_symmetry_space_group_name_H-M "C 2/M"
_symmetry_group_IT_number 12
_symmetry_cell_setting 'monoclinic'
loop_
_space_group_symop_operation_xyz
x,y,z
-x,y,-z
-x,-y,-z
x,-y,z
1/2+x,1/2+y,z
1/2-x,1/2+y,-z
1/2-x,1/2-y,-z
1/2+x,1/2-y,z
loop_
_atom_site_type_symbol
_atom_site_label
_atom_site_fract_x
_atom_site_fract_y
_atom_site_fract_z
Si Si1 0.907820 0.197750 0.956896
Si Si2 0.589764 0.000000 0.527934
Si Si3 0.738552 0.806361 0.109897
Si Si4 0.242484 0.000000 0.629112
Si Si5 0.866716 0.313729 0.275373
Si Si6 0.774559 0.805288 0.791750
Si Si7 0.529521 0.305304 0.369908
O O1 0.087816 0.252202 0.861029
O O2 0.909239 0.000000 0.958690
O O3 0.750000 0.250000 0.000000
O O4 0.870206 0.264373 0.019291
O O5 0.582693 0.168055 0.557540
O O6 0.418342 0.000000 0.576418
O O7 0.730520 0.000000 0.430907
O O8 0.550525 0.793824 0.174262
O O9 0.721588 0.736541 0.162458
O O10 0.779274 0.000000 0.097505
O O11 0.153091 0.833085 0.683513
O O12 0.864153 0.500000 0.294636
O O13 0.709977 0.304124 0.313968
O O14 0.920689 0.741644 0.697241
O O15 0.787415 0.000000 0.781097
O O16 0.472075 0.500000 0.396643
#
# Coordination Sequence:
#
# PCOD9213344 Si02
#       7
#     8   4   8   4   8   8   8
#     4  11  23  39  58  81 114 149 189 237 282 331
#     4   9  18  32  56  86 115 142 179 237 288 343
#     4  10  22  38  55  80 111 151 190 232 282 338
#     4   9  18  32  54  90 113 136 189 231 284 353
#     4   9  18  35  56  79 113 149 184 234 287 337
#     4  11  23  37  55  83 112 148 192 235 277 338
#     4   9  19  35  55  82 113 148 189 232 284 343
#
# _framework density 22.792705000000002
#
# number of rings (size 3 to 8) (size 9 to 14) (size 15 to 20)
#    0.000    2.167    0.000    2.500    3.500    6.667 
#    3.000    3.333    0.000    1.000    0.000    0.000 
#    0.000    0.000    0.000    0.000    0.000    0.000 
#
# Total GULP energy -134081.322606 kJ/mol
# GULP energy per Si atom -5586.721775 kJ/mol
# Density = 2.274083 g / cm^3
# Si number density = 22.792705 Si / 1000 Ang^3
#
#
#
# Elastic Constant Matrix: (Units=GPa)
#
#
# Indices 1 2 3 4 5 6 
#
# 1 71.4141 3.0274 18.9561 -0.0007 12.4418 -0.0021
# 2 3.0274 80.8593 66.5748 -0.0068 24.9601 -0.0045
# 3 18.9561 66.5748 98.4176 0.0046 34.0569 -0.0034
# 4 -0.0007 -0.0068 0.0046 29.3104 0.0026 -0.9524
# 5 12.4418 24.9601 34.0569 0.0026 38.0928 0.0019
# 6 -0.0021 -0.0045 -0.0034 -0.9524 0.0019 24.3060
#
#
#
# Elastic Compliance Matrix: (Units=1/GPa)
#
#
# Indices 1 2 3 4 5 6 
#
# 1 0.015744 0.004511 -0.004752 0.000003 -0.003850 0.000002
# 2 0.004511 0.029316 -0.019610 0.000010 -0.003151 0.000004
# 3 -0.004752 -0.019610 0.028029 -0.000008 -0.010658 0.000000
# 4 0.000003 0.000010 -0.000008 0.034161 -0.000003 0.001339
# 5 -0.003850 -0.003151 -0.010658 -0.000003 0.039103 -0.000006
# 6 0.000002 0.000004 0.000000 0.001339 -0.000006 0.041195
#
#
# Mechanical properties :
#
#
# Convention : Reuss Voigt Hill
#
# Bulk Modulus (GPa) = 29.95016 47.53418 38.74217
# Shear Modulus (GPa) = 20.97509 29.15068 25.06288
#
# Velocity S-wave (km/s) = 3.03686 3.58012 3.31962
# Velocity P-wave (km/s) = 5.04633 6.16360 5.63273
#
# Compressibility (1/GPa) = 0.03338881
#
# Stress axis : x y z
#
# Youngs Moduli (GPa) = 63.51777 34.11065 35.67684
#
# Poissons Ratio (x) = -0.15388 0.16953
# Poissons Ratio (y) = -0.28655 0.69961
# Poissons Ratio (z) = 0.30183 0.66890
#
# Static dielectric constant tensor:
#      x y z
#    x 1.912340 -0.000010 0.012350 
#    y -0.000010 1.815970 -0.000020 
#    z 0.012350 -0.000020 1.861870 
# 
# From -- ./inp_files/295397.got.cif
#   From: 2010.05.17/outbox.cif.g08.bks.cpg/sg12_148_cif.got.tgz:295397.got - 2010.06.03 13:09:07.
