data_PCOD9213550
_publ_section_title
;
Structure prediction by ZEFSAII (Michael W. Deem and Ramdas Pophale) SiO2 
 PCOD9213550
Probable space group: C 2/M
;
_chemical_formula_sum "Si O2"
_cell_formula_units_Z 48
_cell_length_a 13.200667
_cell_length_b 30.287363
_cell_length_c 9.951881
_cell_angle_alpha 90.000000
_cell_angle_beta 146.613001
_cell_angle_gamma 90.000000
_cell_volume 2189.551436
_symmetry_space_group_name_H-M "C 2/M"
_symmetry_group_IT_number 12
_symmetry_cell_setting 'monoclinic'
loop_
_space_group_symop_operation_xyz
x,y,z
-x,y,-z
-x,-y,-z
x,-y,z
1/2+x,1/2+y,z
1/2-x,1/2+y,-z
1/2-x,1/2-y,-z
1/2+x,1/2-y,z
loop_
_atom_site_type_symbol
_atom_site_label
_atom_site_fract_x
_atom_site_fract_y
_atom_site_fract_z
Si Si1 0.546793 0.952061 0.711249
Si Si2 0.800298 0.199061 0.048971
Si Si3 0.576939 0.426475 0.952906
Si Si4 0.213797 0.342482 0.695441
Si Si5 0.594335 0.368316 0.468000
Si Si6 0.051132 0.640605 0.255732
O O1 0.500000 0.948607 0.500000
O O2 0.767796 0.951796 0.956895
O O3 0.484788 0.908691 0.724354
O O4 0.474671 0.000000 0.678249
O O5 0.808093 0.191925 0.896841
O O6 0.633724 0.169229 0.928468
O O7 0.750000 0.250000 0.000000
O O8 0.983071 0.177371 0.314342
O O9 0.686538 0.386934 0.149885
O O10 0.500000 0.450765 0.000000
O O11 0.447226 0.402922 0.699573
O O12 0.198900 0.336241 0.521896
O O13 0.000000 0.344556 0.500000
O O14 0.500000 0.385328 0.500000
O O15 0.815530 0.362994 0.725316
#
# Coordination Sequence:
#
# PCOD9213550 Si02
#       6
#     8   8   8   8   8   8
#     4  11  19  33  61  98 126 152 202 260 310 361
#     4  10  22  38  60  91 123 157 204 255 302 373
#     4  11  17  34  60  88 121 160 202 239 306 367
#     4   9  15  31  58  80 108 155 192 232 297 358
#     4  11  24  38  61  89 121 163 208 252 303 359
#     4  11  19  40  63  83 124 167 197 251 314 361
#
# _framework density 21.922297
#
# number of rings (size 3 to 8) (size 9 to 14) (size 15 to 20)
#    0.000    1.500    8.333    0.000    0.000    3.667 
#    0.000    2.500    0.000    3.000    0.000    0.000 
#    0.000    0.000    0.000    0.000    0.000    0.000 
#
# Total GULP energy -133638.537678 kJ/mol
# GULP energy per Si atom -5568.272403 kJ/mol
# Density = 2.187240 g / cm^3
# Si number density = 21.922297 Si / 1000 Ang^3
#
#
#
# Elastic Constant Matrix: (Units=GPa)
#
#
# Indices 1 2 3 4 5 6 
#
# 1 114.4844 29.9829 16.5603 0.0000 22.4927 0.0000
# 2 29.9829 141.4707 15.6953 0.0000 10.3702 0.0000
# 3 16.5603 15.6953 65.5085 0.0000 29.7010 0.0000
# 4 0.0000 0.0000 0.0000 -8.2378 0.0000 5.8114
# 5 22.4927 10.3702 29.7010 0.0000 35.6822 0.0000
# 6 0.0000 0.0000 0.0000 5.8114 0.0000 5.3316
#
#
#
# Elastic Compliance Matrix: (Units=1/GPa)
#
#
# Indices 1 2 3 4 5 6 
#
# 1 0.010411 -0.001807 0.000865 0.000000 -0.006757 0.000000
# 2 -0.001807 0.007600 -0.001412 0.000000 0.000106 0.000000
# 3 0.000865 -0.001412 0.024809 0.000000 -0.020785 0.000000
# 4 0.000000 0.000000 0.000000 -0.068624 0.000000 0.074800
# 5 -0.006757 0.000106 -0.020785 0.000000 0.049555 0.000000
# 6 0.000000 0.000000 0.000000 0.074800 0.000000 0.106031
#
#
# Mechanical properties :
#
#
# Convention : Reuss Voigt Hill
#
# Bulk Modulus (GPa) = 26.23908 49.54894 37.89401
# Shear Modulus (GPa) = 33.96908 23.83689 28.90298
#
# Velocity S-wave (km/s) = 3.94067 3.30105 3.63496
# Velocity P-wave (km/s) = 5.71841 6.09758 5.91104
#
# Compressibility (1/GPa) = 0.03811109
#
# Stress axis : x y z
#
# Youngs Moduli (GPa) = 96.05659 131.57032 40.30865
#
# Poissons Ratio (x) = 0.23775 -0.03486
# Poissons Ratio (y) = 0.17358 0.05692
# Poissons Ratio (z) = -0.08307 0.18578
#
# Static dielectric constant tensor:
#      x y z
#    x 2.004230 0.000000 0.005650 
#    y 0.000000 1.824390 0.000000 
#    z 0.005650 0.000000 1.884890 
# 
# From -- ./inp_files/150323.got.cif
#   From: 2010.05.17/outbox.cif.g08.bks.cpg/sg12_76_cif.got.tgz:150323.got - 2010.06.03 13:09:07.
