data_PCOD9213921
_publ_section_title
;
Structure prediction by ZEFSAII (Michael W. Deem and Ramdas Pophale) SiO2 
 PCOD9213921
Probable space group: C 2/M
;
_chemical_formula_sum "Si O2"
_cell_formula_units_Z 64
_cell_length_a 31.754390
_cell_length_b 7.735791
_cell_length_c 15.164863
_cell_angle_alpha 90.000000
_cell_angle_beta 48.591985
_cell_angle_gamma 90.000000
_cell_volume 2793.952380
_symmetry_space_group_name_H-M "C 2/M"
_symmetry_group_IT_number 12
_symmetry_cell_setting 'monoclinic'
loop_
_space_group_symop_operation_xyz
x,y,z
-x,y,-z
-x,-y,-z
x,-y,z
1/2+x,1/2+y,z
1/2-x,1/2+y,-z
1/2-x,1/2-y,-z
1/2+x,1/2-y,z
loop_
_atom_site_type_symbol
_atom_site_label
_atom_site_fract_x
_atom_site_fract_y
_atom_site_fract_z
Si Si1 0.146706 0.797215 0.283657
Si Si2 0.235275 0.807148 0.922330
Si Si3 0.164054 0.787646 0.865103
Si Si4 0.577199 0.298785 0.738016
Si Si5 0.544766 0.289108 0.077490
Si Si6 0.559418 0.291464 0.260825
Si Si7 0.802727 0.792128 0.366612
Si Si8 0.935323 0.702908 0.446256
O O1 0.205460 0.700735 0.210418
O O2 0.111684 0.732537 0.247079
O O3 0.106664 0.775694 0.422935
O O4 0.159578 0.000000 0.253669
O O5 0.190272 0.720526 0.920124
O O6 0.213600 0.000000 0.964144
O O7 0.250000 0.750000 0.000000
O O8 0.200153 0.733390 0.730828
O O9 0.165212 0.000000 0.865803
O O10 0.098764 0.737578 0.946232
O O11 0.577994 0.500000 0.764571
O O12 0.518064 0.225275 0.855881
O O13 0.637373 0.224077 0.680734
O O14 0.572109 0.289419 0.639005
O O15 0.542222 0.500000 0.078892
O O16 0.558935 0.239069 0.159168
O O17 0.559954 0.500000 0.262396
O O18 0.500161 0.231553 0.382753
O O19 0.750000 0.750000 0.500000
O O20 0.805742 0.000000 0.362136
O O21 0.924874 0.500000 0.450657
#
# Coordination Sequence:
#
# PCOD9213921 Si02
#       8
#     8   8   8   8   8   8   8   8
#     4  11  22  36  56  80 111 153 200 249 298 352
#     4  11  23  39  58  85 119 156 200 246 299 359
#     4   9  19  36  59  87 117 151 196 248 300 352
#     4   9  19  36  58  85 114 149 195 242 293 354
#     4   8  14  30  57  84 110 141 183 237 290 342
#     4   9  18  34  55  80 112 151 192 237 294 354
#     4  10  22  39  60  87 118 154 198 248 299 354
#     4  11  22  34  53  82 116 152 192 241 297 356
#
# _framework density 22.906617000000001
#
# number of rings (size 3 to 8) (size 9 to 14) (size 15 to 20)
#    0.000    2.250    0.000    3.750    1.750    5.500 
#    0.000    3.125    0.000    3.750    0.000    4.375 
#    0.000    0.000    0.000    0.000    0.000    0.000 
#
# Total GULP energy -178724.864752 kJ/mol
# GULP energy per Si atom -5585.152024 kJ/mol
# Density = 2.285448 g / cm^3
# Si number density = 22.906617 Si / 1000 Ang^3
#
#
#
# Elastic Constant Matrix: (Units=GPa)
#
#
# Indices 1 2 3 4 5 6 
#
# 1 123.1298 3.0451 48.7391 0.0001 -17.0679 0.0002
# 2 3.0451 38.6398 -0.3935 0.0006 1.4986 -0.0008
# 3 48.7391 -0.3935 144.8009 0.0000 -15.7837 0.0001
# 4 0.0001 0.0006 0.0000 18.9295 0.0001 -5.4151
# 5 -17.0679 1.4986 -15.7837 0.0001 26.6434 0.0001
# 6 0.0002 -0.0008 0.0001 -5.4151 0.0001 6.7286
#
#
#
# Elastic Compliance Matrix: (Units=1/GPa)
#
#
# Indices 1 2 3 4 5 6 
#
# 1 0.009921 -0.000994 -0.002826 0.000000 0.004738 -0.000001
# 2 -0.000994 0.026037 0.000189 0.000000 -0.001990 0.000003
# 3 -0.002826 0.000189 0.008188 0.000000 0.003030 0.000000
# 4 0.000000 0.000000 0.000000 0.068627 -0.000001 0.055230
# 5 0.004738 -0.001990 0.003030 -0.000001 0.042475 -0.000002
# 6 -0.000001 0.000003 0.000000 0.055230 -0.000002 0.193069
#
#
# Mechanical properties :
#
#
# Convention : Reuss Voigt Hill
#
# Bulk Modulus (GPa) = 27.11230 45.48355 36.29792
# Shear Modulus (GPa) = 13.59156 27.47228 20.53192
#
# Velocity S-wave (km/s) = 2.43851 3.46687 2.99713
# Velocity P-wave (km/s) = 4.44861 5.99373 5.27802
#
# Compressibility (1/GPa) = 0.03688363
#
# Stress axis : x y z
#
# Youngs Moduli (GPa) = 100.79273 38.40615 122.13099
#
# Poissons Ratio (x) = 0.03819 0.34511
# Poissons Ratio (y) = 0.10023 -0.02303
# Poissons Ratio (z) = 0.28482 -0.00724
#
# Static dielectric constant tensor:
#      x y z
#    x 1.866630 0.000000 0.007530 
#    y 0.000000 1.876780 0.000000 
#    z 0.007530 0.000000 1.845500 
# 
# From -- ./inp_files/249845.got.cif
#   From: 2010.05.17/outbox.cif.g08.bks.cpg/sg12_125_cif.got.tgz:249845.got - 2010.06.03 13:09:07.
