data_PCOD9213566
_publ_section_title
;
Structure prediction by ZEFSAII (Michael W. Deem and Ramdas Pophale) SiO2 
 PCOD9213566
Probable space group: C 2/M
;
_chemical_formula_sum "Si O2"
_cell_formula_units_Z 44
_cell_length_a 12.247125
_cell_length_b 23.227578
_cell_length_c 11.723644
_cell_angle_alpha 90.000000
_cell_angle_beta 36.051239
_cell_angle_gamma 90.000000
_cell_volume 1962.697859
_symmetry_space_group_name_H-M "C 2/M"
_symmetry_group_IT_number 12
_symmetry_cell_setting 'monoclinic'
loop_
_space_group_symop_operation_xyz
x,y,z
-x,y,-z
-x,-y,-z
x,-y,z
1/2+x,1/2+y,z
1/2-x,1/2+y,-z
1/2-x,1/2-y,-z
1/2+x,1/2-y,z
loop_
_atom_site_type_symbol
_atom_site_label
_atom_site_fract_x
_atom_site_fract_y
_atom_site_fract_z
Si Si1 0.303707 0.370557 0.898815
Si Si2 0.500000 0.092013 0.000000
Si Si3 0.000000 0.594350 0.500000
Si Si4 0.285799 0.500000 0.325414
Si Si5 0.597809 0.000000 0.720728
Si Si6 0.504054 0.815367 0.700413
Si Si7 0.105842 0.189286 0.526098
Si Si8 0.301435 0.500000 0.992934
O O1 0.169503 0.370992 0.902803
O O2 0.509906 0.349536 0.703625
O O3 0.308769 0.437872 0.925256
O O4 0.195076 0.327427 0.074680
O O5 0.422521 0.052892 0.171872
O O6 0.818924 0.554400 0.641217
O O7 0.988807 0.634582 0.399106
O O8 0.257521 0.500000 0.489326
O O9 0.500895 0.500000 0.115105
O O10 0.416583 0.000000 0.790882
O O11 0.674005 0.818426 0.647383
O O12 0.541701 0.754477 0.608402
O O13 0.000000 0.173223 0.500000
#
# Coordination Sequence:
#
# PCOD9213566 Si02
#       8
#     8   4   4   4   4   8   8   4
#     4  11  22  40  64  95 133 173 215 273 335 390
#     4   9  18  34  60  90 126 164 214 265 326 382
#     4  11  22  42  66  94 132 181 220 274 328 389
#     4  11  23  39  64  90 131 181 220 261 331 388
#     4   9  19  39  58  88 132 174 210 268 319 381
#     4  11  24  44  66  93 134 171 222 277 332 389
#     4  11  24  44  70  97 126 170 226 279 330 393
#     4  10  22  38  60  94 128 167 218 254 313 402
#
# _framework density 22.418123000000001
#
# number of rings (size 3 to 8) (size 9 to 14) (size 15 to 20)
#    0.000    1.455    0.909    5.455    0.000    2.182 
#    0.000   18.636    0.000    0.000    0.000    0.000 
#    0.000    0.000    0.000    0.000    0.000    0.000 
#
# Total GULP energy -122709.325370 kJ/mol
# GULP energy per Si atom -5577.696608 kJ/mol
# Density = 2.236710 g / cm^3
# Si number density = 22.418123 Si / 1000 Ang^3
#
#
#
# Elastic Constant Matrix: (Units=GPa)
#
#
# Indices 1 2 3 4 5 6 
#
# 1 71.8025 -13.3901 18.7572 0.0000 9.1359 0.0000
# 2 -13.3901 78.8269 4.2964 0.0000 5.9055 0.0000
# 3 18.7572 4.2964 66.4636 -0.0001 -5.4603 0.0000
# 4 0.0000 0.0000 -0.0001 46.7880 0.0000 4.2241
# 5 9.1359 5.9055 -5.4603 0.0000 35.7123 0.0000
# 6 0.0000 0.0000 0.0000 4.2241 0.0000 -1.2584
#
#
#
# Elastic Compliance Matrix: (Units=1/GPa)
#
#
# Indices 1 2 3 4 5 6 
#
# 1 0.016733 0.003565 -0.005421 0.000000 -0.005699 -0.000001
# 2 0.003565 0.013673 -0.002178 0.000000 -0.003506 0.000000
# 3 -0.005421 -0.002178 0.017075 0.000000 0.004358 0.000001
# 4 0.000000 0.000000 0.000000 0.016402 0.000000 0.055057
# 5 -0.005699 -0.003506 0.004358 0.000000 0.030705 0.000001
# 6 -0.000001 0.000000 0.000001 0.055057 0.000001 -0.609838
#
#
# Mechanical properties :
#
#
# Convention : Reuss Voigt Hill
#
# Bulk Modulus (GPa) = 25.37276 26.26888 25.82082
# Shear Modulus (GPa) = -10.12057 30.07700 9.97821
#
# Velocity S-wave (km/s) = -2.12703 3.66681 2.11202
# Velocity P-wave (km/s) = 2.30439 5.44706 4.18214
#
# Compressibility (1/GPa) = 0.03941235
#
# Stress axis : x y z
#
# Youngs Moduli (GPa) = 59.76159 73.13711 58.56676
#
# Poissons Ratio (x) = -0.26072 0.31749
# Poissons Ratio (y) = -0.21304 0.12756
# Poissons Ratio (z) = 0.32397 0.15929
#
# Static dielectric constant tensor:
#      x y z
#    x 1.836900 0.000000 0.069590 
#    y 0.000000 1.831320 0.000000 
#    z 0.069590 0.000000 1.914970 
# 
# From -- ./inp_files/135828.got.cif
#   From: 2010.05.17/outbox.cif.g08.bks.cpg/sg12_68_cif.got.tgz:135828.got - 2010.06.03 13:09:07.
