data_PCOD9213773
_publ_section_title
;
Structure prediction by ZEFSAII (Michael W. Deem and Ramdas Pophale) SiO2 
 PCOD9213773
Probable space group: C 2/M
;
_chemical_formula_sum "Si O2"
_cell_formula_units_Z 48
_cell_length_a 20.873416
_cell_length_b 8.690566
_cell_length_c 23.470425
_cell_angle_alpha 90.000000
_cell_angle_beta 41.288018
_cell_angle_gamma 90.000000
_cell_volume 2809.339175
_symmetry_space_group_name_H-M "C 2/M"
_symmetry_group_IT_number 12
_symmetry_cell_setting 'monoclinic'
loop_
_space_group_symop_operation_xyz
x,y,z
-x,y,-z
-x,-y,-z
x,-y,z
1/2+x,1/2+y,z
1/2-x,1/2+y,-z
1/2-x,1/2-y,-z
1/2+x,1/2-y,z
loop_
_atom_site_type_symbol
_atom_site_label
_atom_site_fract_x
_atom_site_fract_y
_atom_site_fract_z
Si Si1 0.439669 0.317073 0.268383
Si Si2 0.757023 0.184253 0.559085
Si Si3 0.766950 0.815319 0.902391
Si Si4 0.078851 0.683107 0.274800
Si Si5 0.595123 0.183087 0.090302
Si Si6 0.474309 0.684962 0.452615
O O1 0.440903 0.500000 0.272780
O O2 0.331350 0.253579 0.345864
O O3 0.500926 0.247897 0.280743
O O4 0.495693 0.265801 0.173664
O O5 0.750000 0.250000 0.500000
O O6 0.862520 0.222989 0.513462
O O7 0.747495 0.000000 0.563447
O O8 0.816915 0.755045 0.811759
O O9 0.831564 0.734592 0.908248
O O10 0.778955 0.000000 0.898642
O O11 0.655090 0.779630 0.992724
O O12 0.082443 0.500000 0.267016
O O13 0.042065 0.733832 0.361035
O O14 0.580972 0.000000 0.102356
O O15 0.500000 0.726327 0.500000
O O16 0.485434 0.500000 0.438716
#
# Coordination Sequence:
#
# PCOD9213773 Si02
#       6
#     8   8   8   8   8   8
#     4  11  20  30  47  71 102 136 169 208 252 302
#     4  11  21  34  54  77 102 133 170 211 255 305
#     4   9  16  26  42  64  95 131 165 203 250 303
#     4  11  20  30  48  72 100 133 170 211 253 302
#     4   9  16  26  41  65  96 129 165 206 250 298
#     4  10  22  39  56  74 100 135 173 212 255 305
#
# _framework density 17.085867
#
# number of rings (size 3 to 8) (size 9 to 14) (size 15 to 20)
#    0.000    1.833    1.667    6.500    0.000    3.000 
#    0.000    0.000    0.000    0.000    0.000    1.167 
#    0.000    9.333    0.000    0.000    0.000    0.000 
#
# Total GULP energy -133848.730449 kJ/mol
# GULP energy per Si atom -5577.030435 kJ/mol
# Density = 1.704698 g / cm^3
# Si number density = 17.085867 Si / 1000 Ang^3
#
#
#
# Elastic Constant Matrix: (Units=GPa)
#
#
# Indices 1 2 3 4 5 6 
#
# 1 57.5212 26.4500 41.4995 0.0000 1.7264 0.0000
# 2 26.4500 61.0179 41.9515 0.0000 0.9239 0.0000
# 3 41.4995 41.9515 169.1748 0.0000 -4.7738 0.0000
# 4 0.0000 0.0000 0.0000 34.5192 0.0000 -0.0376
# 5 1.7264 0.9239 -4.7738 0.0000 12.8647 0.0000
# 6 0.0000 0.0000 0.0000 -0.0376 0.0000 12.3350
#
#
#
# Elastic Compliance Matrix: (Units=1/GPa)
#
#
# Indices 1 2 3 4 5 6 
#
# 1 0.023929 -0.007464 -0.004138 0.000000 -0.004211 0.000000
# 2 -0.007464 0.022222 -0.003736 0.000000 -0.001981 0.000000
# 3 -0.004138 -0.003736 0.007959 0.000000 0.003777 0.000000
# 4 0.000000 0.000000 0.000000 0.028969 0.000000 0.000088
# 5 -0.004211 -0.001981 0.003777 0.000000 0.079841 0.000000
# 6 0.000000 0.000000 0.000000 0.000088 0.000000 0.081071
#
#
# Mechanical properties :
#
#
# Convention : Reuss Voigt Hill
#
# Bulk Modulus (GPa) = 42.67049 56.39066 49.53058
# Shear Modulus (GPa) = 17.70053 23.79798 20.74925
#
# Velocity S-wave (km/s) = 3.22215 3.73613 3.48862
# Velocity P-wave (km/s) = 6.23469 7.18940 6.72900
#
# Compressibility (1/GPa) = 0.02343540
#
# Stress axis : x y z
#
# Youngs Moduli (GPa) = 41.79082 44.99960 125.64441
#
# Poissons Ratio (x) = 0.33588 0.51988
# Poissons Ratio (y) = 0.31193 0.46935
# Poissons Ratio (z) = 0.17292 0.16810
#
# Static dielectric constant tensor:
#      x y z
#    x 1.541650 0.000000 -0.001340 
#    y 0.000000 1.571280 0.000000 
#    z -0.001340 0.000000 1.641490 
# 
# From -- ./inp_files/314480.got.cif
#   From: 2010.05.17/outbox.cif.g08.bks.cpg/sg12_158_cif.got.tgz:314480.got - 2010.06.03 13:09:07.
