data_PCOD9213504
_publ_section_title
;
Structure prediction by ZEFSAII (Michael W. Deem and Ramdas Pophale) SiO2 
 PCOD9213504
Probable space group: C 2/M
;
_chemical_formula_sum "Si O2"
_cell_formula_units_Z 50
_cell_length_a 11.436190
_cell_length_b 20.166182
_cell_length_c 12.299380
_cell_angle_alpha 90.000000
_cell_angle_beta 47.236386
_cell_angle_gamma 90.000000
_cell_volume 2082.474501
_symmetry_space_group_name_H-M "C 2/M"
_symmetry_group_IT_number 12
_symmetry_cell_setting 'monoclinic'
loop_
_space_group_symop_operation_xyz
x,y,z
-x,y,-z
-x,-y,-z
x,-y,z
1/2+x,1/2+y,z
1/2-x,1/2+y,-z
1/2-x,1/2-y,-z
1/2+x,1/2-y,z
loop_
_atom_site_type_symbol
_atom_site_label
_atom_site_fract_x
_atom_site_fract_y
_atom_site_fract_z
Si Si1 0.641355 0.077627 0.790652
Si Si2 0.000000 0.000000 0.000000
Si Si3 0.742198 0.923528 0.482932
Si Si4 0.979347 0.212204 0.845563
Si Si5 0.150532 0.355513 0.080847
Si Si6 0.266902 0.620002 0.233300
Si Si7 0.452225 0.647678 0.653405
O O1 0.675194 0.096659 0.642415
O O2 0.451973 0.090122 0.918620
O O3 0.769339 0.123916 0.770600
O O4 0.678782 0.000000 0.782445
O O5 0.882564 0.058568 0.127995
O O6 0.697510 0.890136 0.397638
O O7 0.932740 0.911343 0.376932
O O8 0.703571 0.000000 0.495415
O O9 0.926644 0.285762 0.904641
O O10 0.999744 0.207458 0.702623
O O11 0.127558 0.186661 0.820184
O O12 0.838423 0.157978 0.949048
O O13 0.144337 0.371734 0.213042
O O14 0.500000 0.662330 0.500000
#
# Coordination Sequence:
#
# PCOD9213504 Si02
#       7
#     8   2   8   8   8   8   8
#     4  10  22  38  59  92 124 156 192 248 308 353
#     4  12  20  36  68  90 120 152 208 254 278 364
#     4   9  18  36  62  87 122 159 196 241 302 358
#     4  10  23  42  61  82 115 165 200 241 296 356
#     4  11  24  39  60  85 123 155 196 249 299 360
#     4  11  22  39  62  91 115 157 205 248 294 352
#     4   9  19  39  61  87 115 158 203 241 288 354
#
# _framework density 24.009899999999998
#
# number of rings (size 3 to 8) (size 9 to 14) (size 15 to 20)
#    0.000    1.920    2.400    0.480    3.360    3.200 
#    2.880    4.800    0.000    0.000    0.000    0.000 
#    0.000    0.000    0.000    0.000    0.000    0.000 
#
# Total GULP energy -139335.267311 kJ/mol
# GULP energy per Si atom -5573.410692 kJ/mol
# Density = 2.395525 g / cm^3
# Si number density = 24.009900 Si / 1000 Ang^3
#
#
#
# Elastic Constant Matrix: (Units=GPa)
#
#
# Indices 1 2 3 4 5 6 
#
# 1 119.1708 10.8840 -6.8275 0.0000 -1.8354 0.0000
# 2 10.8840 41.1797 -13.3865 0.0000 -5.1921 0.0000
# 3 -6.8275 -13.3865 39.3284 0.0000 0.3222 0.0000
# 4 0.0000 0.0000 0.0000 11.2156 0.0000 0.5496
# 5 -1.8354 -5.1921 0.3222 0.0000 39.2645 0.0000
# 6 0.0000 0.0000 0.0000 0.5496 0.0000 10.6270
#
#
#
# Elastic Compliance Matrix: (Units=1/GPa)
#
#
# Indices 1 2 3 4 5 6 
#
# 1 0.008622 -0.001997 0.000816 0.000000 0.000132 0.000000
# 2 -0.001997 0.028267 0.009246 0.000000 0.003569 0.000000
# 3 0.000816 0.009246 0.028707 0.000000 0.001025 0.000000
# 4 0.000000 0.000000 0.000000 0.089388 0.000000 -0.004623
# 5 0.000132 0.003569 0.001025 0.000000 0.025938 0.000000
# 6 0.000000 0.000000 0.000000 -0.004623 0.000000 0.094339
#
#
# Mechanical properties :
#
#
# Convention : Reuss Voigt Hill
#
# Bulk Modulus (GPa) = 12.23600 20.11321 16.17461
# Shear Modulus (GPa) = 17.45967 26.15536 21.80752
#
# Velocity S-wave (km/s) = 2.69956 3.30412 3.01702
# Velocity P-wave (km/s) = 3.85022 4.79078 4.34601
#
# Compressibility (1/GPa) = 0.08172605
#
# Stress axis : x y z
#
# Youngs Moduli (GPa) = 115.97570 35.37683 34.83448
#
# Poissons Ratio (x) = 0.07065 -0.02843
# Poissons Ratio (y) = 0.23160 -0.32207
# Poissons Ratio (z) = -0.09464 -0.32708
#
# Static dielectric constant tensor:
#      x y z
#    x 1.891010 0.000000 0.069970 
#    y 0.000000 1.850050 0.000000 
#    z 0.069970 0.000000 2.093250 
# 
# From -- ./inp_files/208600.got.cif
#   From: 2010.05.17/outbox.cif.g08.bks.cpg/sg12_105_cif.got.tgz:208600.got - 2010.06.03 13:09:07.
