data_PCOD9213427
_publ_section_title
;
Structure prediction by ZEFSAII (Michael W. Deem and Ramdas Pophale) SiO2 
 PCOD9213427
Probable space group: C 2/M
;
_chemical_formula_sum "Si O2"
_cell_formula_units_Z 64
_cell_length_a 21.855792
_cell_length_b 28.014816
_cell_length_c 15.344865
_cell_angle_alpha 90.000000
_cell_angle_beta 22.843937
_cell_angle_gamma 90.000000
_cell_volume 3647.522538
_symmetry_space_group_name_H-M "C 2/M"
_symmetry_group_IT_number 12
_symmetry_cell_setting 'monoclinic'
loop_
_space_group_symop_operation_xyz
x,y,z
-x,y,-z
-x,-y,-z
x,-y,z
1/2+x,1/2+y,z
1/2-x,1/2+y,-z
1/2-x,1/2-y,-z
1/2+x,1/2-y,z
loop_
_atom_site_type_symbol
_atom_site_label
_atom_site_fract_x
_atom_site_fract_y
_atom_site_fract_z
Si Si1 0.154894 0.701920 0.116399
Si Si2 0.092828 0.445011 0.622962
Si Si3 0.757902 0.944740 0.998520
Si Si4 0.670749 0.129132 0.251044
Si Si5 0.166232 0.127025 0.240536
Si Si6 0.991173 0.621279 0.909257
Si Si7 0.660335 0.203532 0.580605
Si Si8 0.183570 0.131885 0.755330
O O1 0.137080 0.673255 0.230185
O O2 0.988804 0.712512 0.287602
O O3 0.250000 0.750000 0.000000
O O4 0.259923 0.666773 0.919539
O O5 0.137494 0.500000 0.571390
O O6 0.216639 0.413703 0.407178
O O7 0.924332 0.441777 0.794827
O O8 0.067265 0.420359 0.750232
O O9 0.766759 0.911073 0.071686
O O10 0.797705 0.000000 0.961078
O O11 0.851740 0.920153 0.795944
O O12 0.500000 0.108385 0.500000
O O13 0.756307 0.144779 0.226914
O O14 0.000000 0.140121 0.500000
O O15 0.306550 0.121379 0.125823
O O16 0.082899 0.669293 0.756663
O O17 0.000000 0.614809 0.000000
O O18 0.750000 0.250000 0.500000
O O19 0.778539 0.172642 0.365485
O O20 0.000000 0.121820 0.000000
#
# Coordination Sequence:
#
# PCOD9213427 Si02
#       8
#     8   8   8   8   8   8   8   8
#     4  10  22  38  58  83 111 143 186 233 276 328
#     4   9  18  36  59  82 112 148 186 227 274 331
#     4   9  18  34  60  86 109 145 188 227 272 332
#     4  11  19  38  60  82 113 146 186 229 272 334
#     4   9  19  37  55  80 114 143 180 233 282 320
#     4   9  19  37  57  78 108 148 188 227 271 328
#     4  10  22  40  56  81 113 146 186 229 277 332
#     4  11  23  38  57  83 117 150 179 227 285 329
#
# _framework density 17.546156
#
# number of rings (size 3 to 8) (size 9 to 14) (size 15 to 20)
#    0.000    2.250    2.500    1.500    1.750    3.500 
#    9.000    0.000    0.000    0.000    0.000    0.000 
#    0.000    0.000    0.000    0.000    0.000    0.000 
#
# Total GULP energy -178407.246883 kJ/mol
# GULP energy per Si atom -5575.226465 kJ/mol
# Density = 1.750622 g / cm^3
# Si number density = 17.546156 Si / 1000 Ang^3
#
#
#
# Elastic Constant Matrix: (Units=GPa)
#
#
# Indices 1 2 3 4 5 6 
#
# 1 111.5291 43.1705 38.2779 -0.0218 18.2008 -0.0063
# 2 43.1705 106.8595 15.0858 -0.0111 -0.5384 -0.0056
# 3 38.2779 15.0858 81.9767 -0.0951 0.9718 -0.0144
# 4 -0.0218 -0.0111 -0.0951 13.8611 0.0562 -9.1264
# 5 18.2008 -0.5384 0.9718 0.0562 16.4168 0.0185
# 6 -0.0063 -0.0056 -0.0144 -9.1264 0.0185 15.2617
#
#
#
# Elastic Compliance Matrix: (Units=1/GPa)
#
#
# Indices 1 2 3 4 5 6 
#
# 1 0.016295 -0.005779 -0.006333 0.000104 -0.017881 0.000083
# 2 -0.005779 0.011660 0.000472 -0.000046 0.006762 -0.000033
# 3 -0.006333 0.000472 0.014996 0.000117 0.006149 0.000074
# 4 0.000104 -0.000046 0.000117 0.119003 -0.000612 0.071164
# 5 -0.017881 0.006762 0.006149 -0.000612 0.080597 -0.000462
# 6 0.000083 -0.000033 0.000074 0.071164 -0.000462 0.108080
#
#
# Mechanical properties :
#
#
# Convention : Reuss Voigt Hill
#
# Bulk Modulus (GPa) = 50.83426 54.82595 52.83010
# Shear Modulus (GPa) = 13.14171 22.69666 17.91919
#
# Velocity S-wave (km/s) = 2.73972 3.60048 3.19918
# Velocity P-wave (km/s) = 6.24842 6.97131 6.61974
#
# Compressibility (1/GPa) = 0.01967177
#
# Stress axis : x y z
#
# Youngs Moduli (GPa) = 61.36933 85.76239 66.68432
#
# Poissons Ratio (x) = 0.49562 0.42231
# Poissons Ratio (y) = 0.35465 -0.03150
# Poissons Ratio (z) = 0.38865 -0.04052
#
# Static dielectric constant tensor:
#      x y z
#    x 1.557680 0.000160 -0.004020 
#    y 0.000160 1.605050 0.000070 
#    z -0.004020 0.000070 1.573710 
# 
# From -- ./inp_files/235969.got.cif
#   From: 2010.05.17/outbox.cif.g08.bks.cpg/sg12_118_cif.got.tgz:235969.got - 2010.06.03 13:09:07.
