data_PCOD9213761
_publ_section_title
;
Structure prediction by ZEFSAII (Michael W. Deem and Ramdas Pophale) SiO2 
 PCOD9213761
Probable space group: C 2/M
;
_chemical_formula_sum "Si O2"
_cell_formula_units_Z 32
_cell_length_a 23.738627
_cell_length_b 8.662857
_cell_length_c 19.002304
_cell_angle_alpha 90.000000
_cell_angle_beta 155.647265
_cell_angle_gamma 90.000000
_cell_volume 1611.358608
_symmetry_space_group_name_H-M "C 2/M"
_symmetry_group_IT_number 12
_symmetry_cell_setting 'monoclinic'
loop_
_space_group_symop_operation_xyz
x,y,z
-x,y,-z
-x,-y,-z
x,-y,z
1/2+x,1/2+y,z
1/2-x,1/2+y,-z
1/2-x,1/2-y,-z
1/2+x,1/2-y,z
loop_
_atom_site_type_symbol
_atom_site_label
_atom_site_fract_x
_atom_site_fract_y
_atom_site_fract_z
Si Si1 0.367338 0.500000 0.801308
Si Si2 0.615224 0.328110 0.316851
Si Si3 0.950227 0.175177 0.362899
Si Si4 0.174495 0.321013 0.981209
Si Si5 0.437964 0.000000 0.507920
O O1 0.370305 0.355868 0.750534
O O2 0.225229 0.500000 0.680196
O O3 0.500000 0.500000 0.000000
O O4 0.609116 0.500000 0.340922
O O5 0.750000 0.250000 0.500000
O O6 0.471557 0.250379 0.169278
O O7 0.000000 0.170435 0.500000
O O8 0.014366 0.334775 0.404462
O O9 0.979147 0.000000 0.366218
O O10 0.786820 0.196181 0.170921
O O11 0.153614 0.500000 0.944021
O O12 0.250000 0.250000 0.000000
O O13 0.500000 0.000000 0.500000
#
# Coordination Sequence:
#
# PCOD9213761 Si02
#       5
#     4   8   8   8   4
#     4  10  26  44  68 100 135 181 235 276 341 421
#     4  10  24  42  65  90 138 178 221 274 346 407
#     4   9  21  38  61  96 130 163 219 281 336 397
#     4  11  24  40  66  97 132 171 226 276 336 406
#     4  10  22  38  74  94 132 173 224 280 351 398
#
# _framework density 19.859019
#
# number of rings (size 3 to 8) (size 9 to 14) (size 15 to 20)
#    0.750    1.250    0.000    1.500   14.000    0.000 
#    0.000    1.250    0.000    3.750    0.000    0.000 
#    0.000    0.000    0.000    0.000    0.000    0.000 
#
# Total GULP energy -89149.235151 kJ/mol
# GULP energy per Si atom -5571.827197 kJ/mol
# Density = 1.981382 g / cm^3
# Si number density = 19.859019 Si / 1000 Ang^3
#
#
#
# Elastic Constant Matrix: (Units=GPa)
#
#
# Indices 1 2 3 4 5 6 
#
# 1 96.7533 25.7497 80.0034 0.0000 22.1397 0.0000
# 2 25.7497 175.9329 91.1645 0.0000 22.6489 0.0000
# 3 80.0034 91.1645 221.1414 0.0000 22.0424 0.0000
# 4 0.0000 0.0000 0.0000 44.7129 0.0000 9.6527
# 5 22.1397 22.6489 22.0424 0.0000 41.4167 0.0000
# 6 0.0000 0.0000 0.0000 9.6527 0.0000 22.9916
#
#
#
# Elastic Compliance Matrix: (Units=1/GPa)
#
#
# Indices 1 2 3 4 5 6 
#
# 1 0.016236 0.001473 -0.005846 0.000000 -0.006373 0.000000
# 2 0.001473 0.007615 -0.003357 0.000000 -0.003166 0.000000
# 3 -0.005846 -0.003357 0.007948 0.000000 0.000731 0.000000
# 4 0.000000 0.000000 0.000000 0.024594 0.000000 -0.010325
# 5 -0.006373 -0.003166 0.000731 0.000000 0.028894 0.000000
# 6 0.000000 0.000000 0.000000 -0.010325 0.000000 0.047829
#
#
# Mechanical properties :
#
#
# Convention : Reuss Voigt Hill
#
# Bulk Modulus (GPa) = 61.19854 98.62922 79.91388
# Shear Modulus (GPa) = 32.46306 41.61824 37.04065
#
# Velocity S-wave (km/s) = 4.04750 4.58283 4.32346
# Velocity P-wave (km/s) = 7.26129 8.81905 8.07781
#
# Compressibility (1/GPa) = 0.01634026
#
# Stress axis : x y z
#
# Youngs Moduli (GPa) = 61.59309 131.31424 125.81999
#
# Poissons Ratio (x) = -0.19347 0.73551
# Poissons Ratio (y) = -0.09075 0.42236
# Poissons Ratio (z) = 0.36006 0.44081
#
# Static dielectric constant tensor:
#      x y z
#    x 1.672600 0.000000 -0.050140 
#    y 0.000000 1.760350 0.000000 
#    z -0.050140 0.000000 1.669180 
# 
# From -- ./inp_files/81782.got.cif
#   From: 2010.05.17/outbox.cif.g08.bks.cpg/sg12_41_cif.got.tgz:81782.got - 2010.06.03 13:09:07.
