data_PCOD9213627
_publ_section_title
;
Structure prediction by ZEFSAII (Michael W. Deem and Ramdas Pophale) SiO2 
 PCOD9213627
Probable space group: C 2/M
;
_chemical_formula_sum "Si O2"
_cell_formula_units_Z 56
_cell_length_a 9.413025
_cell_length_b 18.660775
_cell_length_c 15.111811
_cell_angle_alpha 90.000000
_cell_angle_beta 95.362678
_cell_angle_gamma 90.000000
_cell_volume 2642.836806
_symmetry_space_group_name_H-M "C 2/M"
_symmetry_group_IT_number 12
_symmetry_cell_setting 'monoclinic'
loop_
_space_group_symop_operation_xyz
x,y,z
-x,y,-z
-x,-y,-z
x,-y,z
1/2+x,1/2+y,z
1/2-x,1/2+y,-z
1/2-x,1/2-y,-z
1/2+x,1/2-y,z
loop_
_atom_site_type_symbol
_atom_site_label
_atom_site_fract_x
_atom_site_fract_y
_atom_site_fract_z
Si Si1 0.967720 0.416466 0.894411
Si Si2 0.647606 0.697621 0.642745
Si Si3 0.995692 0.161128 0.901998
Si Si4 0.452825 0.584142 0.721185
Si Si5 0.368653 0.084637 0.265723
Si Si6 0.269698 0.781255 0.844179
Si Si7 0.550105 0.169494 0.411250
O O1 0.921406 0.500000 0.877706
O O2 0.103502 0.404866 0.837390
O O3 0.855716 0.355714 0.860209
O O4 0.000000 0.408270 0.000000
O O5 0.553578 0.628529 0.662065
O O6 0.715198 0.724273 0.740032
O O7 0.539038 0.756880 0.601028
O O8 0.781396 0.682011 0.587431
O O9 0.999999 0.103464 0.823969
O O10 0.864621 0.214152 0.876441
O O11 0.132710 0.211830 0.897937
O O12 0.000000 0.129710 0.000000
O O13 0.461932 0.500000 0.705807
O O14 0.286701 0.607580 0.708767
O O15 0.494050 0.123419 0.325586
O O16 0.377388 0.000000 0.281878
O O17 0.500000 0.134553 0.500000
#
# Coordination Sequence:
#
# PCOD9213627 Si02
#       7
#     8   8   8   8   8   8   8
#     4  10  22  38  62  92 126 170 215 259 309 366
#     4  11  23  42  66  93 127 165 204 263 310 380
#     4  11  24  36  57  87 124 166 213 268 311 365
#     4  10  24  42  63  88 122 172 213 256 320 376
#     4  10  22  42  65  90 130 172 209 258 315 375
#     4  11  22  38  60  88 125 167 209 256 315 373
#     4  12  24  42  70 101 128 161 207 257 317 384
#
# _framework density 21.189352
#
# number of rings (size 3 to 8) (size 9 to 14) (size 15 to 20)
#    0.000    1.286    1.429    4.714    4.000    3.429 
#    0.000    0.000    0.000    2.143    0.000    0.000 
#    0.000    0.000    0.000    0.000    0.000    0.000 
#
# Total GULP energy -156587.892909 kJ/mol
# GULP energy per Si atom -5592.424747 kJ/mol
# Density = 2.114112 g / cm^3
# Si number density = 21.189352 Si / 1000 Ang^3
#
#
#
# Elastic Constant Matrix: (Units=GPa)
#
#
# Indices 1 2 3 4 5 6 
#
# 1 97.0964 27.8599 1.1277 0.0000 -15.2261 0.0000
# 2 27.8599 61.7152 5.9862 0.0000 10.6669 0.0000
# 3 1.1277 5.9862 67.6114 0.0000 -15.4956 0.0000
# 4 0.0000 0.0000 0.0000 9.8983 0.0000 -7.9763
# 5 -15.2261 10.6669 -15.4956 0.0000 27.5177 0.0000
# 6 0.0000 0.0000 0.0000 -7.9763 0.0000 6.4886
#
#
#
# Elastic Compliance Matrix: (Units=1/GPa)
#
#
# Indices 1 2 3 4 5 6 
#
# 1 0.015347 -0.009820 0.003941 0.000000 0.014518 0.000000
# 2 -0.009820 0.024419 -0.006215 0.000000 -0.018399 0.000000
# 3 0.003941 -0.006215 0.018746 0.000000 0.015146 0.000000
# 4 0.000000 0.000000 0.000000 10.720953 0.000000 13.178965
# 5 0.014518 -0.018399 0.015146 0.000000 0.060034 0.000000
# 6 0.000000 0.000000 0.000000 13.178965 0.000000 16.354645
#
#
# Mechanical properties :
#
#
# Convention : Reuss Voigt Hill
#
# Bulk Modulus (GPa) = 29.13355 32.93005 31.03180
# Shear Modulus (GPa) = 0.18362 21.54421 10.86391
#
# Velocity S-wave (km/s) = 0.29470 3.19211 2.26676
# Velocity P-wave (km/s) = 3.72757 5.40006 4.63980
#
# Compressibility (1/GPa) = 0.03432469
#
# Stress axis : x y z
#
# Youngs Moduli (GPa) = 65.15761 40.95129 53.34430
#
# Poissons Ratio (x) = 0.40213 -0.21021
# Poissons Ratio (y) = 0.63983 0.33154
# Poissons Ratio (z) = -0.25676 0.25451
#
# Static dielectric constant tensor:
#      x y z
#    x 1.776140 0.000000 -0.008980 
#    y 0.000000 1.738100 0.000000 
#    z -0.008980 0.000000 1.762270 
# 
# From -- ./inp_files/197555.got.cif
#   From: 2010.05.17/outbox.cif.g08.bks.cpg/sg12_99_cif.got.tgz:197555.got - 2010.06.03 13:09:07.
