data_PCOD9213303
_publ_section_title
;
Structure prediction by ZEFSAII (Michael W. Deem and Ramdas Pophale) SiO2 
 PCOD9213303
Probable space group: C 2/M
;
_chemical_formula_sum "Si O2"
_cell_formula_units_Z 64
_cell_length_a 23.480959
_cell_length_b 18.275533
_cell_length_c 14.495699
_cell_angle_alpha 90.000000
_cell_angle_beta 147.544641
_cell_angle_gamma 90.000000
_cell_volume 3338.181703
_symmetry_space_group_name_H-M "C 2/M"
_symmetry_group_IT_number 12
_symmetry_cell_setting 'monoclinic'
loop_
_space_group_symop_operation_xyz
x,y,z
-x,y,-z
-x,-y,-z
x,-y,z
1/2+x,1/2+y,z
1/2-x,1/2+y,-z
1/2-x,1/2-y,-z
1/2+x,1/2-y,z
loop_
_atom_site_type_symbol
_atom_site_label
_atom_site_fract_x
_atom_site_fract_y
_atom_site_fract_z
Si Si1 0.755462 0.312072 0.204147
Si Si2 0.411221 0.282284 0.517374
Si Si3 0.974682 0.746809 0.073286
Si Si4 0.180435 0.179386 0.428881
Si Si5 0.550117 0.579527 0.669824
Si Si6 0.994407 0.360866 0.253293
Si Si7 0.718418 0.081605 0.584271
Si Si8 0.282503 0.085102 0.061879
O O1 0.848512 0.251115 0.344107
O O2 0.760077 0.364679 0.300444
O O3 0.769317 0.360777 0.131480
O O4 0.641474 0.274043 0.056578
O O5 0.323707 0.317842 0.466414
O O6 0.496371 0.346227 0.629110
O O7 0.468413 0.211782 0.639964
O O8 0.988422 0.668569 0.141095
O O9 0.061489 0.803172 0.232723
O O10 0.000000 0.742950 0.000000
O O11 0.250000 0.250000 0.500000
O O12 0.227587 0.113496 0.434383
O O13 0.500000 0.573755 0.500000
O O14 0.524964 0.500000 0.681770
O O15 0.676326 0.588339 0.854218
O O16 0.885577 0.390990 0.145243
O O17 0.091962 0.415757 0.397298
O O18 0.755517 0.000000 0.654790
O O19 0.294371 0.000000 0.108353
#
# Coordination Sequence:
#
# PCOD9213303 Si02
#       8
#     8   8   8   8   8   8   8   8
#     4  11  23  38  64 100 125 162 205 260 320 372
#     4  10  22  37  64  90 124 158 208 257 303 382
#     4  11  20  36  64  93 121 154 211 266 307 360
#     4  11  18  40  58  86 124 163 202 251 310 358
#     4  10  24  44  62  84 122 166 205 254 312 368
#     4  10  23  38  62  93 123 166 210 254 312 369
#     4  11  22  39  62  92 129 166 206 249 319 389
#     4  11  24  43  62  89 133 167 205 263 317 373
#
# _framework density 19.172115000000002
#
# number of rings (size 3 to 8) (size 9 to 14) (size 15 to 20)
#    0.000    1.375    5.000    2.250    3.500    3.000 
#    0.000    5.000    0.000    1.500    0.000    0.000 
#    0.000    0.000    0.000    0.000    0.000    0.000 
#
# Total GULP energy -178400.245829 kJ/mol
# GULP energy per Si atom -5575.007682 kJ/mol
# Density = 1.912848 g / cm^3
# Si number density = 19.172115 Si / 1000 Ang^3
#
#
#
# Elastic Constant Matrix: (Units=GPa)
#
#
# Indices 1 2 3 4 5 6 
#
# 1 50.6620 -5.5695 22.3744 0.0000 0.7715 0.0000
# 2 -5.5695 53.0407 17.7087 0.0000 3.7846 0.0000
# 3 22.3744 17.7087 93.7724 0.0000 10.4496 0.0000
# 4 0.0000 0.0000 0.0000 33.9613 0.0000 -0.0858
# 5 0.7715 3.7846 10.4496 0.0000 31.6975 0.0000
# 6 0.0000 0.0000 0.0000 -0.0858 0.0000 22.8814
#
#
#
# Elastic Compliance Matrix: (Units=1/GPa)
#
#
# Indices 1 2 3 4 5 6 
#
# 1 0.023078 0.004511 -0.006473 0.000000 0.001034 0.000000
# 2 0.004511 0.021047 -0.004940 0.000000 -0.000994 0.000000
# 3 -0.006473 -0.004940 0.013556 0.000000 -0.003722 0.000000
# 4 0.000000 0.000000 0.000000 0.029446 0.000000 0.000110
# 5 0.001034 -0.000994 -0.003722 0.000000 0.032869 0.000000
# 6 0.000000 0.000000 0.000000 0.000110 0.000000 0.043704
#
#
# Mechanical properties :
#
#
# Convention : Reuss Voigt Hill
#
# Bulk Modulus (GPa) = 22.79167 29.61137 26.20152
# Shear Modulus (GPa) = 26.02391 28.57214 27.29803
#
# Velocity S-wave (km/s) = 3.68827 3.86462 3.77747
# Velocity P-wave (km/s) = 5.48192 5.94914 5.72030
#
# Compressibility (1/GPa) = 0.04387569
#
# Stress axis : x y z
#
# Youngs Moduli (GPa) = 43.33179 47.51174 73.76591
#
# Poissons Ratio (x) = -0.21432 0.47752
# Poissons Ratio (y) = -0.19546 0.36442
# Poissons Ratio (z) = 0.28051 0.23472
#
# Static dielectric constant tensor:
#      x y z
#    x 1.719960 0.000000 -0.017020 
#    y 0.000000 1.674450 0.000000 
#    z -0.017020 0.000000 1.695890 
# 
# From -- ./inp_files/241535.got.cif
#   From: 2010.05.17/outbox.cif.g08.bks.cpg/sg12_121_cif.got.tgz:241535.got - 2010.06.03 13:09:07.
