data_PCOD9213687
_publ_section_title
;
Structure prediction by ZEFSAII (Michael W. Deem and Ramdas Pophale) SiO2 
 PCOD9213687
Probable space group: C 2/M
;
_chemical_formula_sum "Si O2"
_cell_formula_units_Z 44
_cell_length_a 14.076636
_cell_length_b 18.358312
_cell_length_c 24.211814
_cell_angle_alpha 90.000000
_cell_angle_beta 158.865873
_cell_angle_gamma 90.000000
_cell_volume 2255.939209
_symmetry_space_group_name_H-M "C 2/M"
_symmetry_group_IT_number 12
_symmetry_cell_setting 'monoclinic'
loop_
_space_group_symop_operation_xyz
x,y,z
-x,y,-z
-x,-y,-z
x,-y,z
1/2+x,1/2+y,z
1/2-x,1/2+y,-z
1/2-x,1/2-y,-z
1/2+x,1/2-y,z
loop_
_atom_site_type_symbol
_atom_site_label
_atom_site_fract_x
_atom_site_fract_y
_atom_site_fract_z
Si Si1 0.071628 0.181787 0.317173
Si Si2 0.785911 0.657924 0.632370
Si Si3 0.500000 0.750172 0.000000
Si Si4 0.846945 0.584945 0.550873
Si Si5 0.728532 0.676236 0.023848
Si Si6 0.638180 0.584806 0.246237
O O1 0.219432 0.259089 0.393429
O O2 0.136529 0.137626 0.407452
O O3 0.157276 0.133079 0.311466
O O4 0.763291 0.201941 0.145223
O O5 0.500000 0.637310 0.500000
O O6 0.874950 0.608019 0.629625
O O7 0.001043 0.658287 0.798048
O O8 0.479281 0.698012 0.041506
O O9 0.773510 0.500000 0.507070
O O10 0.112905 0.595172 0.659275
O O11 0.750000 0.750000 0.000000
O O12 0.616835 0.612602 0.925345
O O13 0.623214 0.500000 0.252848
#
# Coordination Sequence:
#
# PCOD9213687 Si02
#       6
#     8   8   4   8   8   8
#     4  11  22  39  65  93 122 162 209 256 308 360
#     4  11  24  40  66  91 121 164 211 254 304 364
#     4  10  22  38  64  94 122 162 212 258 300 362
#     4  11  25  41  61  91 129 164 203 255 308 368
#     4  11  22  41  64  93 125 157 206 256 302 360
#     4  11  22  40  65  93 124 162 204 253 312 365
#
# _framework density 19.504071
#
# number of rings (size 3 to 8) (size 9 to 14) (size 15 to 20)
#    0.000    1.091    3.636    4.909    2.545    2.545 
#    0.000    5.909    0.000    0.000    0.000    0.000 
#    0.000    0.000    0.000    0.000    0.000    0.000 
#
# Total GULP energy -122971.563996 kJ/mol
# GULP energy per Si atom -5589.616545 kJ/mol
# Density = 1.945968 g / cm^3
# Si number density = 19.504071 Si / 1000 Ang^3
#
#
#
# Elastic Constant Matrix: (Units=GPa)
#
#
# Indices 1 2 3 4 5 6 
#
# 1 70.5811 -7.3488 4.8669 0.0292 2.8331 -0.0121
# 2 -7.3488 44.3341 3.8345 0.0923 4.2159 -0.0113
# 3 4.8669 3.8345 70.7861 0.1357 -6.1186 -0.0038
# 4 0.0292 0.0923 0.1357 10.3245 0.0123 -5.3603
# 5 2.8331 4.2159 -6.1186 0.0123 33.9600 -0.0082
# 6 -0.0121 -0.0113 -0.0038 -5.3603 -0.0082 37.4389
#
#
#
# Elastic Compliance Matrix: (Units=1/GPa)
#
#
# Indices 1 2 3 4 5 6 
#
# 1 0.014612 0.002705 -0.001306 -0.000047 -0.001790 -0.000002
# 2 0.002705 0.023486 -0.001757 -0.000202 -0.003458 -0.000022
# 3 -0.001306 -0.001757 0.014568 -0.000189 0.002952 -0.000026
# 4 -0.000047 -0.000202 -0.000189 0.104640 -0.000039 0.014982
# 5 -0.001790 -0.003458 0.002952 -0.000039 0.030557 0.000000
# 6 -0.000002 -0.000022 -0.000026 0.014982 0.000000 0.028855
#
#
# Mechanical properties :
#
#
# Convention : Reuss Voigt Hill
#
# Bulk Modulus (GPa) = 19.24915 20.93404 20.09160
# Shear Modulus (GPa) = 21.29948 28.63459 24.96703
#
# Velocity S-wave (km/s) = 3.30821 3.83578 3.58172
# Velocity P-wave (km/s) = 4.94803 5.51127 5.23723
#
# Compressibility (1/GPa) = 0.05195034
#
# Stress axis : x y z
#
# Youngs Moduli (GPa) = 68.43833 42.57934 68.64588
#
# Poissons Ratio (x) = -0.11519 0.08964
# Poissons Ratio (y) = -0.18515 0.12059
# Poissons Ratio (z) = 0.08937 0.07480
#
# Static dielectric constant tensor:
#      x y z
#    x 1.627750 -0.000010 0.024580 
#    y -0.000010 1.649010 -0.000010 
#    z 0.024580 -0.000010 1.677110 
# 
# From -- ./inp_files/341125.got.cif
#   From: 2010.05.17/outbox.cif.g08.bks.cpg/sg12_171_cif.got.tgz:341125.got - 2010.06.03 13:09:07.
