data_PCOD9213994
_publ_section_title
;
Structure prediction by ZEFSAII (Michael W. Deem and Ramdas Pophale) SiO2 
 PCOD9213994
Probable space group: C 2/M
;
_chemical_formula_sum "Si O2"
_cell_formula_units_Z 36
_cell_length_a 21.864330
_cell_length_b 12.607139
_cell_length_c 21.554791
_cell_angle_alpha 90.000000
_cell_angle_beta 160.355089
_cell_angle_gamma 90.000000
_cell_volume 1997.474227
_symmetry_space_group_name_H-M "C 2/M"
_symmetry_group_IT_number 12
_symmetry_cell_setting 'monoclinic'
loop_
_space_group_symop_operation_xyz
x,y,z
-x,y,-z
-x,-y,-z
x,-y,z
1/2+x,1/2+y,z
1/2-x,1/2+y,-z
1/2-x,1/2-y,-z
1/2+x,1/2-y,z
loop_
_atom_site_type_symbol
_atom_site_label
_atom_site_fract_x
_atom_site_fract_y
_atom_site_fract_z
Si Si1 0.687017 0.376073 0.075659
Si Si2 0.831836 0.122988 0.387061
Si Si3 0.939398 0.877183 0.717436
Si Si4 0.000000 0.729129 0.000000
Si Si5 0.933778 0.275505 0.597726
O O1 0.677415 0.500000 0.083662
O O2 0.893292 0.341684 0.259479
O O3 0.570483 0.361187 0.901499
O O4 0.602682 0.303248 0.048555
O O5 0.866743 0.198832 0.478666
O O6 0.000000 0.133941 0.500000
O O7 0.820621 0.000000 0.395479
O O8 0.648827 0.158582 0.177523
O O9 0.986232 0.798295 0.706228
O O10 0.734150 0.849197 0.542255
O O11 0.951971 0.000000 0.710109
#
# Coordination Sequence:
#
# PCOD9213994 Si02
#       5
#     8   8   8   4   8
#     4  11  23  39  61  90 122 158 196 241 293 351
#     4  11  23  40  62  87 118 156 200 246 296 349
#     4  10  22  39  61  88 120 156 197 245 295 348
#     4  12  22  42  60  90 120 160 194 246 292 354
#     4  11  21  40  63  87 120 156 200 243 295 348
#
# _framework density 18.022760000000002
#
# number of rings (size 3 to 8) (size 9 to 14) (size 15 to 20)
#    0.000    1.111    4.444    2.667    0.000    0.000 
#    0.000    1.111    0.000    0.000    0.000    0.000 
#    0.000    0.000    0.000    0.000    0.000    0.000 
#
# Total GULP energy -100611.147836 kJ/mol
# GULP energy per Si atom -5589.508213 kJ/mol
# Density = 1.798174 g / cm^3
# Si number density = 18.022760 Si / 1000 Ang^3
#
#
#
# Elastic Constant Matrix: (Units=GPa)
#
#
# Indices 1 2 3 4 5 6 
#
# 1 24.6143 -13.3250 -4.4710 -0.0066 3.6148 -0.0022
# 2 -13.3250 38.0033 7.8985 -0.0147 -4.7867 -0.0088
# 3 -4.4710 7.8985 65.1275 -0.0037 4.5784 -0.0019
# 4 -0.0066 -0.0147 -0.0037 23.8203 -0.0014 4.6679
# 5 3.6148 -4.7867 4.5784 -0.0014 28.7657 -0.0017
# 6 -0.0022 -0.0088 -0.0019 4.6679 -0.0017 0.4002
#
#
#
# Elastic Compliance Matrix: (Units=1/GPa)
#
#
# Indices 1 2 3 4 5 6 
#
# 1 0.050660 0.016930 0.001693 0.000079 -0.003818 -0.000279
# 2 0.016930 0.033403 -0.003165 0.000107 0.003935 -0.000419
# 3 0.001693 -0.003165 0.016087 0.000000 -0.003300 0.000004
# 4 0.000079 0.000107 0.000000 -0.032654 0.000028 0.380864
# 5 -0.003818 0.003935 -0.003300 0.000028 0.036423 -0.000128
# 6 -0.000279 -0.000419 0.000004 0.380864 -0.000128 -1.943573
#
#
# Mechanical properties :
#
#
# Convention : Reuss Voigt Hill
#
# Bulk Modulus (GPa) = 7.62982 11.99447 9.81214
# Shear Modulus (GPa) = -2.73691 19.77341 8.51825
#
# Velocity S-wave (km/s) = -1.23365 3.31590 2.17638
# Velocity P-wave (km/s) = 1.48777 4.61843 3.43098
#
# Compressibility (1/GPa) = 0.13106475
#
# Stress axis : x y z
#
# Youngs Moduli (GPa) = 19.73941 29.93743 62.16357
#
# Poissons Ratio (x) = -0.50684 -0.10524
# Poissons Ratio (y) = -0.33419 0.19677
# Poissons Ratio (z) = -0.03342 0.09476
#
# Static dielectric constant tensor:
#      x y z
#    x 1.585680 0.000000 -0.002900 
#    y 0.000000 1.579710 0.000000 
#    z -0.002900 0.000000 1.586980 
# 
# From -- ./inp_files/27347.got.cif
#   From: 2010.05.17/outbox.cif.g08.bks.cpg/sg12_14_cif.got.tgz:27347.got - 2010.06.03 13:09:07.
