data_PCOD9213315
_publ_section_title
;
Structure prediction by ZEFSAII (Michael W. Deem and Ramdas Pophale) SiO2 
 PCOD9213315
Probable space group: C 2/M
;
_chemical_formula_sum "Si O2"
_cell_formula_units_Z 40
_cell_length_a 7.756407
_cell_length_b 19.980411
_cell_length_c 11.795999
_cell_angle_alpha 90.000000
_cell_angle_beta 105.308707
_cell_angle_gamma 90.000000
_cell_volume 1763.233219
_symmetry_space_group_name_H-M "C 2/M"
_symmetry_group_IT_number 12
_symmetry_cell_setting 'monoclinic'
loop_
_space_group_symop_operation_xyz
x,y,z
-x,y,-z
-x,-y,-z
x,-y,z
1/2+x,1/2+y,z
1/2-x,1/2+y,-z
1/2-x,1/2-y,-z
1/2+x,1/2-y,z
loop_
_atom_site_type_symbol
_atom_site_label
_atom_site_fract_x
_atom_site_fract_y
_atom_site_fract_z
Si Si1 0.304444 0.078649 0.021514
Si Si2 0.106851 0.870548 0.768686
Si Si3 0.316247 0.140227 0.263863
Si Si4 0.029011 0.000000 0.636313
Si Si5 0.116175 0.500000 0.631948
Si Si6 0.351488 0.270668 0.403627
O O1 0.310696 0.129947 0.127780
O O2 0.254901 0.000000 0.042601
O O3 0.500000 0.075502 0.000000
O O4 0.173674 0.109791 0.904525
O O5 0.209147 0.813915 0.714651
O O6 0.894342 0.854535 0.736979
O O7 0.131111 0.936280 0.698590
O O8 0.404771 0.201736 0.347415
O O9 0.413332 0.071191 0.314985
O O10 0.000000 0.000000 0.500000
O O11 0.830258 0.000000 0.653141
O O12 0.000000 0.500000 0.500000
O O13 0.500000 0.312968 0.500000
O O14 0.250000 0.250000 0.500000
#
# Coordination Sequence:
#
# PCOD9213315 Si02
#       6
#     8   8   8   4   4   8
#     4  11  25  44  69 104 138 174 227 287 340 399
#     4  11  24  44  69  99 134 184 226 276 341 402
#     4  11  24  44  70  97 136 183 225 278 340 402
#     4  10  22  37  66  97 133 172 225 278 332 404
#     4  10  22  39  64 101 131 172 227 276 338 396
#     4  12  26  46  68 100 143 180 224 277 338 408
#
# _framework density 22.685597000000001
#
# number of rings (size 3 to 8) (size 9 to 14) (size 15 to 20)
#    0.000    1.000    4.000    1.800    5.600    3.200 
#    0.000    0.000    0.000    0.000    0.000    0.000 
#    0.000    0.000    0.000    0.000    0.000    0.000 
#
# Total GULP energy -111443.580674 kJ/mol
# GULP energy per Si atom -5572.179034 kJ/mol
# Density = 2.263396 g / cm^3
# Si number density = 22.685597 Si / 1000 Ang^3
#
#
#
# Elastic Constant Matrix: (Units=GPa)
#
#
# Indices 1 2 3 4 5 6 
#
# 1 38.4119 -0.9475 -2.3423 0.0000 -4.4224 0.0000
# 2 -0.9475 126.3392 66.3223 0.0000 -9.3577 0.0000
# 3 -2.3423 66.3223 185.4967 0.0000 -2.4327 0.0000
# 4 0.0000 0.0000 0.0000 48.2933 0.0000 -1.6366
# 5 -4.4224 -9.3577 -2.4327 0.0000 44.7447 0.0000
# 6 0.0000 0.0000 0.0000 -1.6366 0.0000 14.5831
#
#
#
# Elastic Compliance Matrix: (Units=1/GPa)
#
#
# Indices 1 2 3 4 5 6 
#
# 1 0.026364 0.000249 0.000279 0.000000 0.002673 0.000000
# 2 0.000249 0.009902 -0.003512 0.000000 0.001905 0.000000
# 3 0.000279 -0.003512 0.006646 0.000000 -0.000346 0.000000
# 4 0.000000 0.000000 0.000000 0.020786 0.000000 0.002333
# 5 0.002673 0.001905 -0.000346 0.000000 0.022993 0.000000
# 6 0.000000 0.000000 0.000000 0.002333 0.000000 0.068835
#
#
# Mechanical properties :
#
#
# Convention : Reuss Voigt Hill
#
# Bulk Modulus (GPa) = 27.06801 52.92366 39.99584
# Shear Modulus (GPa) = 28.76740 40.67189 34.71964
#
# Velocity S-wave (km/s) = 3.56489 4.23880 3.91637
# Velocity P-wave (km/s) = 5.37609 6.88015 6.17409
#
# Compressibility (1/GPa) = 0.03694398
#
# Stress axis : x y z
#
# Youngs Moduli (GPa) = 37.92982 100.99103 150.47417
#
# Poissons Ratio (x) = -0.02518 -0.04195
# Poissons Ratio (y) = -0.00946 0.52849
# Poissons Ratio (z) = -0.01058 0.35470
#
# Static dielectric constant tensor:
#      x y z
#    x 2.017530 0.000000 0.006620 
#    y 0.000000 1.832750 0.000000 
#    z 0.006620 0.000000 1.811270 
# 
# From -- ./inp_files/120330.got.cif
#   From: 2010.05.17/outbox.cif.g08.bks.cpg/sg12_61_cif.got.tgz:120330.got - 2010.06.03 13:09:07.
