data_PCOD9213626
_publ_section_title
;
Structure prediction by ZEFSAII (Michael W. Deem and Ramdas Pophale) SiO2 
 PCOD9213626
Probable space group: C 2/M
;
_chemical_formula_sum "Si O2"
_cell_formula_units_Z 48
_cell_length_a 14.351452
_cell_length_b 14.323870
_cell_length_c 9.598973
_cell_angle_alpha 90.000000
_cell_angle_beta 100.364769
_cell_angle_gamma 90.000000
_cell_volume 1941.046029
_symmetry_space_group_name_H-M "C 2/M"
_symmetry_group_IT_number 12
_symmetry_cell_setting 'monoclinic'
loop_
_space_group_symop_operation_xyz
x,y,z
-x,y,-z
-x,-y,-z
x,-y,z
1/2+x,1/2+y,z
1/2-x,1/2+y,-z
1/2-x,1/2-y,-z
1/2+x,1/2-y,z
loop_
_atom_site_type_symbol
_atom_site_label
_atom_site_fract_x
_atom_site_fract_y
_atom_site_fract_z
Si Si1 0.778951 0.109427 0.158311
Si Si2 0.982227 0.188300 0.153825
Si Si3 0.158752 0.160487 0.351516
Si Si4 0.780998 0.393639 0.158174
Si Si5 0.994018 0.601408 0.242583
Si Si6 0.676612 0.863730 0.424957
O O1 0.720974 0.123462 0.283305
O O2 0.874272 0.169801 0.168681
O O3 0.807362 0.000000 0.161882
O O4 0.714725 0.126764 0.004533
O O5 0.052482 0.135460 0.281066
O O6 0.009361 0.298716 0.171431
O O7 0.000000 0.156882 0.000000
O O8 0.208440 0.174094 0.214625
O O9 0.240183 0.102282 0.451413
O O10 0.156234 0.253946 0.442182
O O11 0.743723 0.500000 0.161159
O O12 0.884197 0.391347 0.253761
O O13 0.002606 0.500000 0.169486
O O14 0.071632 0.596851 0.384791
#
# Coordination Sequence:
#
# PCOD9213626 Si02
#       6
#     8   8   8   8   8   8
#     4  11  24  41  63  95 129 167 217 267 318 379
#     4  11  23  40  67  94 126 170 212 267 323 373
#     4  10  22  42  63  93 125 169 218 256 317 387
#     4  10  22  38  62  92 126 166 212 264 311 376
#     4  10  23  40  62  97 132 166 212 261 319 386
#     4  10  23  41  64  89 131 171 206 265 322 378
#
# _framework density 24.728933999999999
#
# number of rings (size 3 to 8) (size 9 to 14) (size 15 to 20)
#    0.000    1.667    1.667    1.500    4.667    5.333 
#    0.000    7.500    0.000    0.000    0.000    0.000 
#    0.000    0.000    0.000    0.000    0.000    0.000 
#
# Total GULP energy -133939.452489 kJ/mol
# GULP energy per Si atom -5580.810520 kJ/mol
# Density = 2.467265 g / cm^3
# Si number density = 24.728934 Si / 1000 Ang^3
#
#
#
# Elastic Constant Matrix: (Units=GPa)
#
#
# Indices 1 2 3 4 5 6 
#
# 1 109.6486 7.9957 38.8169 0.0000 37.1434 0.0000
# 2 7.9957 86.3344 29.8809 0.0000 16.1324 0.0000
# 3 38.8169 29.8809 67.0408 0.0000 26.9702 0.0000
# 4 0.0000 0.0000 0.0000 -35.5679 0.0000 -45.0971
# 5 37.1434 16.1324 26.9702 0.0000 53.8948 0.0000
# 6 0.0000 0.0000 0.0000 -45.0971 0.0000 -30.5055
#
#
#
# Elastic Compliance Matrix: (Units=1/GPa)
#
#
# Indices 1 2 3 4 5 6 
#
# 1 0.013400 0.002096 -0.005916 0.000000 -0.006902 0.000000
# 2 0.002096 0.014098 -0.006534 0.000000 -0.002395 0.000000
# 3 -0.005916 -0.006534 0.023572 0.000000 -0.005763 0.000000
# 4 0.000000 0.000000 0.000000 0.032154 0.000000 -0.047534
# 5 -0.006902 -0.002395 -0.005763 0.000000 0.026912 0.000000
# 6 0.000000 0.000000 0.000000 -0.047534 0.000000 0.037490
#
#
# Mechanical properties :
#
#
# Convention : Reuss Voigt Hill
#
# Bulk Modulus (GPa) = 32.93572 46.26785 39.60178
# Shear Modulus (GPa) = 28.01853 9.98630 19.00242
#
# Velocity S-wave (km/s) = 3.36970 2.01173 2.77506
# Velocity P-wave (km/s) = 5.33736 4.91393 5.13002
#
# Compressibility (1/GPa) = 0.03036218
#
# Stress axis : x y z
#
# Youngs Moduli (GPa) = 74.62963 70.93395 42.42242
#
# Poissons Ratio (x) = -0.14870 0.25098
# Poissons Ratio (y) = -0.15645 0.27718
# Poissons Ratio (z) = 0.44153 0.46347
#
# Static dielectric constant tensor:
#      x y z
#    x 1.905600 0.000000 0.027590 
#    y 0.000000 2.021970 0.000000 
#    z 0.027590 0.000000 1.965160 
# 
# From -- ./inp_files/143887.got.cif
#   From: 2010.05.17/outbox.cif.g08.bks.cpg/sg12_72_cif.got.tgz:143887.got - 2010.06.03 13:09:07.
