data_PCOD9213421
_publ_section_title
;
Structure prediction by ZEFSAII (Michael W. Deem and Ramdas Pophale) SiO2 
 PCOD9213421
Probable space group: C 2/M
;
_chemical_formula_sum "Si O2"
_cell_formula_units_Z 64
_cell_length_a 15.436234
_cell_length_b 24.042318
_cell_length_c 18.602852
_cell_angle_alpha 90.000000
_cell_angle_beta 151.977685
_cell_angle_gamma 90.000000
_cell_volume 3243.578986
_symmetry_space_group_name_H-M "C 2/M"
_symmetry_group_IT_number 12
_symmetry_cell_setting 'monoclinic'
loop_
_space_group_symop_operation_xyz
x,y,z
-x,y,-z
-x,-y,-z
x,-y,z
1/2+x,1/2+y,z
1/2-x,1/2+y,-z
1/2-x,1/2-y,-z
1/2+x,1/2-y,z
loop_
_atom_site_type_symbol
_atom_site_label
_atom_site_fract_x
_atom_site_fract_y
_atom_site_fract_z
Si Si1 0.210874 0.264769 0.678570
Si Si2 0.055210 0.180677 0.743588
Si Si3 0.010119 0.852037 0.155627
Si Si4 0.186072 0.304022 0.823773
Si Si5 0.813457 0.370959 0.556952
Si Si6 0.189708 0.433528 0.598204
Si Si7 0.710737 0.434204 0.627718
Si Si8 0.671347 0.151078 0.177871
O O1 0.335634 0.303928 0.721403
O O2 0.214058 0.293331 0.759480
O O3 0.302058 0.204391 0.751495
O O4 0.000000 0.260332 0.500000
O O5 0.089271 0.144999 0.840211
O O6 0.135630 0.242205 0.814888
O O7 0.155904 0.153784 0.749245
O O8 0.839964 0.177009 0.566234
O O9 0.132336 0.906663 0.232191
O O10 0.866456 0.830803 0.991610
O O11 0.013173 0.343766 0.710904
O O12 0.811946 0.408198 0.483350
O O13 0.754684 0.406676 0.583140
O O14 0.200585 0.500000 0.604176
O O15 0.000000 0.417418 0.500000
O O16 0.500000 0.424349 0.500000
O O17 0.741129 0.500000 0.646890
O O18 0.833616 0.403465 0.777655
O O19 0.500000 0.158577 0.000000
#
# Coordination Sequence:
#
# PCOD9213421 Si02
#       8
#     8   8   8   8   8   8   8   8
#     4  11  22  38  63  93 128 168 202 250 314 396
#     4  10  22  38  57  92 124 170 204 250 313 385
#     4  11  22  38  61  92 130 164 201 259 320 380
#     4  11  23  36  60  95 132 159 202 253 324 383
#     4  11  22  39  65  93 126 165 216 264 308 383
#     4  10  22  43  68  92 124 169 219 265 315 379
#     4  11  24  43  65  89 122 170 221 267 309 365
#     4  11  24  40  62  90 127 163 212 264 324 370
#
# _framework density 19.731290999999999
#
# number of rings (size 3 to 8) (size 9 to 14) (size 15 to 20)
#    0.000    1.250    1.250    6.000    5.250    0.250 
#    0.000    1.250    0.000    3.000    0.000    0.000 
#    0.000    0.000    0.000    0.000    0.000    0.000 
#
# Total GULP energy -178827.660280 kJ/mol
# GULP energy per Si atom -5588.364384 kJ/mol
# Density = 1.968638 g / cm^3
# Si number density = 19.731291 Si / 1000 Ang^3
#
#
#
# Elastic Constant Matrix: (Units=GPa)
#
#
# Indices 1 2 3 4 5 6 
#
# 1 79.9711 51.1711 14.6139 -0.0026 3.1310 0.0014
# 2 51.1711 82.3552 54.5797 -0.0023 3.1042 0.0010
# 3 14.6139 54.5797 129.4621 -0.0230 3.4868 0.0134
# 4 -0.0026 -0.0023 -0.0230 -95.0464 -0.0095 67.1113
# 5 3.1310 3.1042 3.4868 -0.0095 24.0923 0.0055
# 6 0.0014 0.0010 0.0134 67.1113 0.0055 -17.6472
#
#
#
# Elastic Compliance Matrix: (Units=1/GPa)
#
#
# Indices 1 2 3 4 5 6 
#
# 1 0.022681 -0.017163 0.004714 -0.000001 -0.001418 0.000000
# 2 -0.017163 0.029870 -0.010653 0.000002 -0.000076 -0.000001
# 3 0.004714 -0.010653 0.011709 -0.000002 -0.000935 0.000001
# 4 -0.000001 0.000002 -0.000002 0.006243 -0.000003 0.023743
# 5 -0.001418 -0.000076 -0.000935 -0.000003 0.041836 0.000002
# 6 0.000000 -0.000001 0.000001 0.023743 0.000002 0.033625
#
#
# Mechanical properties :
#
#
# Convention : Reuss Voigt Hill
#
# Bulk Modulus (GPa) = 55.38956 59.16864 57.27910
# Shear Modulus (GPa) = 25.22854 -6.29201 9.46827
#
# Velocity S-wave (km/s) = 3.57964 -1.78767 2.19295
# Velocity P-wave (km/s) = 6.72443 5.07851 5.95858
#
# Compressibility (1/GPa) = 0.01805394
#
# Stress axis : x y z
#
# Youngs Moduli (GPa) = 44.09006 33.47836 85.40671
#
# Poissons Ratio (x) = 0.57459 -0.40258
# Poissons Ratio (y) = 0.75672 0.90987
# Poissons Ratio (z) = -0.20783 0.35666
#
# Static dielectric constant tensor:
#      x y z
#    x 1.731120 0.000000 0.005520 
#    y 0.000000 1.679880 0.000000 
#    z 0.005520 0.000000 1.712890 
# 
# From -- ./inp_files/272874.got.cif
#   From: 2010.05.17/outbox.cif.g08.bks.cpg/sg12_137_cif.got.tgz:272874.got - 2010.06.03 13:09:07.
