data_PCOD9213453
_publ_section_title
;
Structure prediction by ZEFSAII (Michael W. Deem and Ramdas Pophale) SiO2 
 PCOD9213453
Probable space group: C 2/M
;
_chemical_formula_sum "Si O2"
_cell_formula_units_Z 32
_cell_length_a 10.242956
_cell_length_b 8.168777
_cell_length_c 20.103627
_cell_angle_alpha 90.000000
_cell_angle_beta 126.334193
_cell_angle_gamma 90.000000
_cell_volume 1355.072892
_symmetry_space_group_name_H-M "C 2/M"
_symmetry_group_IT_number 12
_symmetry_cell_setting 'monoclinic'
loop_
_space_group_symop_operation_xyz
x,y,z
-x,y,-z
-x,-y,-z
x,-y,z
1/2+x,1/2+y,z
1/2-x,1/2+y,-z
1/2-x,1/2-y,-z
1/2+x,1/2-y,z
loop_
_atom_site_type_symbol
_atom_site_label
_atom_site_fract_x
_atom_site_fract_y
_atom_site_fract_z
Si Si1 0.848700 0.801528 0.907797
Si Si2 0.475195 0.314274 0.325470
Si Si3 0.988205 0.805207 0.812595
Si Si4 0.753774 0.000000 0.534819
Si Si5 0.084519 0.500000 0.626831
O O1 0.678359 0.733226 0.881343
O O2 0.888931 0.738669 0.845445
O O3 0.836352 0.000000 0.902929
O O4 0.000000 0.758235 0.000000
O O5 0.405988 0.500000 0.296991
O O6 0.537546 0.255630 0.272178
O O7 0.620681 0.349203 0.421992
O O8 0.370979 0.166600 0.322556
O O9 0.965963 0.000000 0.806682
O O10 0.664789 0.000000 0.579342
O O11 0.611658 0.000000 0.438936
#
# Coordination Sequence:
#
# PCOD9213453 Si02
#       5
#     8   8   8   4   4
#     4  10  22  39  61  87 118 156 199 246 300 358
#     4   9  22  38  57  89 121 151 202 250 289 366
#     4  10  22  38  58  87 122 154 196 252 294 355
#     4   9  22  40  57  91 120 149 210 251 287 369
#     4  11  20  40  65  81 120 167 190 249 315 345
#
# _framework density 23.614965999999999
#
# number of rings (size 3 to 8) (size 9 to 14) (size 15 to 20)
#    0.750    1.500    0.000    1.500    5.250    1.500 
#    2.250    1.250    0.000    0.000    0.000    0.000 
#    0.000    0.000    0.000    0.000    0.000    0.000 
#
# Total GULP energy -89293.042892 kJ/mol
# GULP energy per Si atom -5580.815181 kJ/mol
# Density = 2.356122 g / cm^3
# Si number density = 23.614966 Si / 1000 Ang^3
#
#
#
# Elastic Constant Matrix: (Units=GPa)
#
#
# Indices 1 2 3 4 5 6 
#
# 1 61.8350 27.5655 -9.3863 0.0000 1.2015 0.0000
# 2 27.5655 86.8017 4.8591 0.0000 -12.8864 0.0000
# 3 -9.3863 4.8591 83.8234 0.0000 13.1394 0.0000
# 4 0.0000 0.0000 0.0000 0.7616 0.0000 11.0985
# 5 1.2015 -12.8864 13.1394 0.0000 38.8750 0.0000
# 6 0.0000 0.0000 0.0000 11.0985 0.0000 22.5089
#
#
#
# Elastic Compliance Matrix: (Units=1/GPa)
#
#
# Indices 1 2 3 4 5 6 
#
# 1 0.019923 -0.007117 0.003284 0.000000 -0.004085 0.000000
# 2 -0.007117 0.014818 -0.002598 0.000000 0.006010 0.000000
# 3 0.003284 -0.002598 0.013304 0.000000 -0.005459 0.000000
# 4 0.000000 0.000000 0.000000 -0.212279 0.000000 0.104669
# 5 -0.004085 0.006010 -0.005459 0.000000 0.029687 0.000000
# 6 0.000000 0.000000 0.000000 0.104669 0.000000 -0.007183
#
#
# Mechanical properties :
#
#
# Convention : Reuss Voigt Hill
#
# Bulk Modulus (GPa) = 28.42345 30.94851 29.68598
# Shear Modulus (GPa) = -42.68408 26.39056 -8.14676
#
# Velocity S-wave (km/s) = -4.25608 3.34658 -1.85939
# Velocity P-wave (km/s) = 3.47707 5.29780 2.82637
#
# Compressibility (1/GPa) = 0.03518221
#
# Stress axis : x y z
#
# Youngs Moduli (GPa) = 50.19421 67.48398 75.16590
#
# Poissons Ratio (x) = 0.48029 -0.24682
# Poissons Ratio (y) = 0.35723 0.19528
# Poissons Ratio (z) = -0.16482 0.17533
#
# Static dielectric constant tensor:
#      x y z
#    x 1.893610 0.000000 0.043260 
#    y 0.000000 1.880990 0.000000 
#    z 0.043260 0.000000 1.930770 
# 
# From -- ./inp_files/260682.got.cif
#   From: 2010.05.17/outbox.cif.g08.bks.cpg/sg12_131_cif.got.tgz:260682.got - 2010.06.03 13:09:07.
