data_PCOD9213969
_publ_section_title
;
Structure prediction by ZEFSAII (Michael W. Deem and Ramdas Pophale) SiO2 
 PCOD9213969
Probable space group: C 2/M
;
_chemical_formula_sum "Si O2"
_cell_formula_units_Z 56
_cell_length_a 9.868732
_cell_length_b 24.055277
_cell_length_c 15.577971
_cell_angle_alpha 90.000000
_cell_angle_beta 125.828421
_cell_angle_gamma 90.000000
_cell_volume 2998.349015
_symmetry_space_group_name_H-M "C 2/M"
_symmetry_group_IT_number 12
_symmetry_cell_setting 'monoclinic'
loop_
_space_group_symop_operation_xyz
x,y,z
-x,y,-z
-x,-y,-z
x,-y,z
1/2+x,1/2+y,z
1/2-x,1/2+y,-z
1/2-x,1/2-y,-z
1/2+x,1/2-y,z
loop_
_atom_site_type_symbol
_atom_site_label
_atom_site_fract_x
_atom_site_fract_y
_atom_site_fract_z
Si Si1 0.799352 0.312143 0.925142
Si Si2 0.702622 0.566987 0.396499
Si Si3 0.839683 0.436397 0.636349
Si Si4 0.016280 0.000000 0.107381
Si Si5 0.688131 0.000000 0.102736
Si Si6 0.800613 0.183512 0.926290
Si Si7 0.816404 0.897213 0.256155
Si Si8 0.785553 0.593992 0.245391
O O1 0.742870 0.247704 0.901349
O O2 0.720271 0.343762 0.815473
O O3 0.749602 0.338718 0.998266
O O4 0.000000 0.313563 0.000000
O O5 0.713461 0.500000 0.383868
O O6 0.786622 0.576907 0.519537
O O7 0.509871 0.585338 0.329024
O O8 0.787691 0.599478 0.349271
O O9 0.783124 0.500000 0.632685
O O10 0.754082 0.396315 0.673664
O O11 0.039470 0.433236 0.716990
O O12 0.126787 0.946301 0.172311
O O13 0.836512 0.000000 0.086833
O O14 0.000000 0.000000 0.000000
O O15 0.717152 0.946136 0.171321
O O16 0.500000 0.000000 0.000000
O O17 0.737604 0.147645 0.822969
O O18 0.000000 0.183362 0.000000
#
# Coordination Sequence:
#
# PCOD9213969 Si02
#       8
#     8   8   8   4   4   8   8   8
#     4  10  22  40  59  84 115 153 201 237 280 356
#     4  11  21  40  58  84 117 153 199 242 288 358
#     4  11  23  36  60  85 116 156 197 238 291 353
#     4  12  26  36  55  89 126 156 187 239 298 360
#     4  12  26  38  55  89 126 158 189 235 298 359
#     4  10  22  39  61  84 112 157 197 234 289 352
#     4  12  21  39  58  84 118 153 194 241 290 347
#     4  12  21  39  59  86 118 150 195 241 295 346
#
# _framework density 18.676943999999999
#
# number of rings (size 3 to 8) (size 9 to 14) (size 15 to 20)
#    0.000    0.857    4.286    3.429    4.000    2.286 
#    0.000    0.000    0.000    5.143    0.000    0.000 
#    0.000    0.000    0.000    0.000    0.000    0.000 
#
# Total GULP energy -156449.425445 kJ/mol
# GULP energy per Si atom -5587.479480 kJ/mol
# Density = 1.863443 g / cm^3
# Si number density = 18.676944 Si / 1000 Ang^3
#
#
#
# Elastic Constant Matrix: (Units=GPa)
#
#
# Indices 1 2 3 4 5 6 
#
# 1 93.0333 12.3096 33.5281 0.0000 -24.3376 0.0000
# 2 12.3096 69.8904 51.4301 0.0000 -14.9232 0.0000
# 3 33.5281 51.4301 113.6232 0.0000 -25.8796 0.0000
# 4 0.0000 0.0000 0.0000 2.1417 0.0000 -38.2282
# 5 -24.3376 -14.9232 -25.8796 0.0000 45.8201 0.0000
# 6 0.0000 0.0000 0.0000 -38.2282 0.0000 -95.2894
#
#
#
# Elastic Compliance Matrix: (Units=1/GPa)
#
#
# Indices 1 2 3 4 5 6 
#
# 1 0.013198 0.001198 -0.003157 0.000000 0.005617 0.000000
# 2 0.001198 0.021682 -0.009657 0.000000 0.002244 0.000000
# 3 -0.003157 -0.009657 0.014925 0.000000 0.003608 0.000000
# 4 0.000000 0.000000 0.000000 0.057214 0.000000 -0.022953
# 5 0.005617 0.002244 0.003608 0.000000 0.027577 0.000000
# 6 0.000000 0.000000 0.000000 -0.022953 0.000000 -0.001286
#
#
# Mechanical properties :
#
#
# Convention : Reuss Voigt Hill
#
# Bulk Modulus (GPa) = 37.63121 52.34252 44.98687
# Shear Modulus (GPa) = 30.22978 2.48642 16.35810
#
# Velocity S-wave (km/s) = 4.02750 1.15506 2.96268
# Velocity P-wave (km/s) = 6.46683 5.46488 5.98685
#
# Compressibility (1/GPa) = 0.02657368
#
# Stress axis : x y z
#
# Youngs Moduli (GPa) = 75.77153 46.12065 66.99969
#
# Poissons Ratio (x) = -0.05527 0.21155
# Poissons Ratio (y) = -0.09080 0.64700
# Poissons Ratio (z) = 0.23924 0.44537
#
# Static dielectric constant tensor:
#      x y z
#    x 1.713140 0.000000 -0.008980 
#    y 0.000000 1.666040 0.000000 
#    z -0.008980 0.000000 1.655080 
# 
# From -- ./inp_files/198822.got.cif
#   From: 2010.05.17/outbox.cif.g08.bks.cpg/sg12_100_cif.got.tgz:198822.got - 2010.06.03 13:09:07.
