data_PCOD9213173
_publ_section_title
;
Structure prediction by ZEFSAII (Michael W. Deem and Ramdas Pophale) SiO2 
 PCOD9213173
Probable space group: C 2/M
;
_chemical_formula_sum "Si O2"
_cell_formula_units_Z 64
_cell_length_a 29.764675
_cell_length_b 9.217045
_cell_length_c 15.577344
_cell_angle_alpha 90.000000
_cell_angle_beta 130.437172
_cell_angle_gamma 90.000000
_cell_volume 3252.655474
_symmetry_space_group_name_H-M "C 2/M"
_symmetry_group_IT_number 12
_symmetry_cell_setting 'monoclinic'
loop_
_space_group_symop_operation_xyz
x,y,z
-x,y,-z
-x,-y,-z
x,-y,z
1/2+x,1/2+y,z
1/2-x,1/2+y,-z
1/2-x,1/2-y,-z
1/2+x,1/2-y,z
loop_
_atom_site_type_symbol
_atom_site_label
_atom_site_fract_x
_atom_site_fract_y
_atom_site_fract_z
Si Si1 0.711078 0.675775 0.582275
Si Si2 0.123329 0.173338 0.629815
Si Si3 0.978940 0.831927 0.620924
Si Si4 0.600451 0.169084 0.772029
Si Si5 0.185167 0.323304 0.178114
Si Si6 0.710645 0.170822 0.021793
Si Si7 0.934578 0.324878 0.891383
Si Si8 0.113721 0.170226 0.336461
O O1 0.711768 0.500000 0.575585
O O2 0.670759 0.710169 0.615506
O O3 0.775935 0.724895 0.691639
O O4 0.675445 0.727134 0.454304
O O5 0.059508 0.209689 0.510015
O O6 0.130468 0.252259 0.728225
O O7 0.126117 0.000000 0.645299
O O8 0.933542 0.824049 0.644127
O O9 0.036508 0.737681 0.706153
O O10 0.996809 0.000000 0.632597
O O11 0.594724 0.000000 0.745405
O O12 0.643172 0.184433 0.906278
O O13 0.187796 0.500000 0.179516
O O14 0.212754 0.273908 0.122107
O O15 0.116950 0.283691 0.105346
O O16 0.726410 0.000000 0.041327
O O17 0.750000 0.250000 0.000000
O O18 0.935569 0.500000 0.886064
O O19 0.912646 0.259141 0.774619
O O20 0.000000 0.276726 0.000000
O O21 0.120574 0.000000 0.321551
#
# Coordination Sequence:
#
# PCOD9213173 Si02
#       8
#     8   8   8   8   8   8   8   8
#     4   8  15  31  57  81 102 136 182 229 272 322
#     4   9  17  32  53  75 102 142 187 224 267 327
#     4   9  19  34  52  75 103 141 186 224 265 330
#     4  11  22  31  47  77 110 141 178 228 280 325
#     4   9  18  35  57  80 107 145 188 224 267 327
#     4  10  22  38  56  79 108 143 184 228 272 323
#     4  10  22  37  57  82 111 149 187 218 261 331
#     4   9  19  36  57  82 108 135 177 231 280 318
#
# _framework density 19.676231000000001
#
# number of rings (size 3 to 8) (size 9 to 14) (size 15 to 20)
#    0.000    2.625    0.000    3.000    1.750    5.250 
#    0.000    2.500    0.000    1.500    0.000    0.000 
#    0.000    0.000    0.000    0.000    0.000    0.000 
#
# Total GULP energy -178510.462340 kJ/mol
# GULP energy per Si atom -5578.451948 kJ/mol
# Density = 1.963145 g / cm^3
# Si number density = 19.676231 Si / 1000 Ang^3
#
#
#
# Elastic Constant Matrix: (Units=GPa)
#
#
# Indices 1 2 3 4 5 6 
#
# 1 66.1237 11.3132 52.9570 0.0000 10.8511 0.0000
# 2 11.3132 14.7292 30.2545 0.0000 5.0345 0.0000
# 3 52.9570 30.2545 130.1048 0.0000 4.8564 0.0000
# 4 0.0000 0.0000 0.0000 26.3744 0.0000 -5.7875
# 5 10.8511 5.0345 4.8564 0.0000 35.7916 0.0000
# 6 0.0000 0.0000 0.0000 -5.7875 0.0000 9.5027
#
#
#
# Elastic Compliance Matrix: (Units=1/GPa)
#
#
# Indices 1 2 3 4 5 6 
#
# 1 0.023912 0.006499 -0.010995 0.000000 -0.006672 0.000000
# 2 0.006499 0.139401 -0.034430 0.000000 -0.016907 0.000000
# 3 -0.010995 -0.034430 0.019964 0.000000 0.005468 0.000000
# 4 0.000000 0.000000 0.000000 0.043765 0.000000 0.026654
# 5 -0.006672 -0.016907 0.005468 0.000000 0.031598 0.000000
# 6 0.000000 0.000000 0.000000 0.026654 0.000000 0.121467
#
#
# Mechanical properties :
#
#
# Convention : Reuss Voigt Hill
#
# Bulk Modulus (GPa) = 9.48557 44.44522 26.96539
# Shear Modulus (GPa) = 10.13989 22.09593 16.11791
#
# Velocity S-wave (km/s) = 2.27257 3.35472 2.86520
# Velocity P-wave (km/s) = 3.42306 6.13538 4.96791
#
# Compressibility (1/GPa) = 0.10542331
#
# Stress axis : x y z
#
# Youngs Moduli (GPa) = 41.82029 7.17353 50.09077
#
# Poissons Ratio (x) = -0.04662 0.55075
# Poissons Ratio (y) = -0.27177 1.72464
# Poissons Ratio (z) = 0.45982 0.24699
#
# Static dielectric constant tensor:
#      x y z
#    x 1.714300 0.000000 0.022090 
#    y 0.000000 1.656720 0.000000 
#    z 0.022090 0.000000 1.708030 
# 
# From -- ./inp_files/250085.got.cif
#   From: 2010.05.17/outbox.cif.g08.bks.cpg/sg12_126_cif.got.tgz:250085.got - 2010.06.03 13:09:07.
