data_PCOD9213038
_publ_section_title
;
Structure prediction by ZEFSAII (Michael W. Deem and Ramdas Pophale) SiO2 
 PCOD9213038
Probable space group: C 2/M
;
_chemical_formula_sum "Si O2"
_cell_formula_units_Z 42
_cell_length_a 10.317128
_cell_length_b 9.832850
_cell_length_c 22.397548
_cell_angle_alpha 90.000000
_cell_angle_beta 104.025455
_cell_angle_gamma 90.000000
_cell_volume 2204.421687
_symmetry_space_group_name_H-M "C 2/M"
_symmetry_group_IT_number 12
_symmetry_cell_setting 'monoclinic'
loop_
_space_group_symop_operation_xyz
x,y,z
-x,y,-z
-x,-y,-z
x,-y,z
1/2+x,1/2+y,z
1/2-x,1/2+y,-z
1/2-x,1/2-y,-z
1/2+x,1/2-y,z
loop_
_atom_site_type_symbol
_atom_site_label
_atom_site_fract_x
_atom_site_fract_y
_atom_site_fract_z
Si Si1 0.291801 0.500000 0.272349
Si Si2 0.709277 0.280103 0.063714
Si Si3 0.186086 0.500000 0.132416
Si Si4 0.722477 0.338745 0.438133
Si Si5 0.011029 0.500000 0.713541
Si Si6 0.570266 0.739647 0.640267
Si Si7 0.612318 0.000000 0.852894
Si Si8 0.000000 0.000000 0.000000
O O1 0.287087 0.500000 0.199853
O O2 0.139654 0.500000 0.278715
O O3 0.364622 0.629624 0.308543
O O4 0.818489 0.368004 0.111219
O O5 0.581458 0.379189 0.045985
O O6 0.696967 0.135043 0.093980
O O7 0.750000 0.250000 0.000000
O O8 0.039539 0.500000 0.143524
O O9 0.746735 0.500000 0.450239
O O10 0.750000 0.250000 0.500000
O O11 0.567698 0.317113 0.402634
O O12 0.822563 0.283120 0.398140
O O13 0.034061 0.369855 0.675402
O O14 0.110788 0.500000 0.781184
#
# Coordination Sequence:
#
# PCOD9213038 Si02
#       8
#     4   8   4   8   4   8   4   2
#     4  11  24  42  68  97 132 177 222 285 326 395
#     4  11  22  39  62  91 126 169 210 267 323 387
#     4  11  23  40  64  96 127 169 223 266 329 393
#     4  12  28  44  70 103 135 176 222 275 330 397
#     4  11  23  42  68  94 130 175 223 275 327 398
#     4  12  24  45  69  98 135 176 224 272 337 391
#     4  10  23  40  61  94 127 167 219 265 325 388
#     4  10  22  36  58  86 124 160 202 254 322 366
#
# _framework density 19.052616
#
# number of rings (size 3 to 8) (size 9 to 14) (size 15 to 20)
#    0.000    0.762    3.810    4.000    2.667    2.667 
#    0.000    0.000    4.190    0.000    0.000    0.000 
#    0.000    0.000    0.000    0.000    0.000    0.000 
#
# Total GULP energy -117103.569811 kJ/mol
# GULP energy per Si atom -5576.360467 kJ/mol
# Density = 1.900925 g / cm^3
# Si number density = 19.052616 Si / 1000 Ang^3
#
#
#
# Elastic Constant Matrix: (Units=GPa)
#
#
# Indices 1 2 3 4 5 6 
#
# 1 78.7690 40.9997 46.6927 0.0000 10.7176 0.0000
# 2 40.9997 201.0149 84.8064 0.0000 0.7470 0.0000
# 3 46.6927 84.8064 150.0961 0.0000 9.8195 0.0000
# 4 0.0000 0.0000 0.0000 68.3656 0.0000 -11.9853
# 5 10.7176 0.7470 9.8195 0.0000 34.9712 0.0000
# 6 0.0000 0.0000 0.0000 -11.9853 0.0000 33.8760
#
#
#
# Elastic Compliance Matrix: (Units=1/GPa)
#
#
# Indices 1 2 3 4 5 6 
#
# 1 0.016415 -0.001690 -0.003897 0.000000 -0.003901 0.000000
# 2 -0.001690 0.006734 -0.003366 0.000000 0.001319 0.000000
# 3 -0.003897 -0.003366 0.009875 0.000000 -0.001507 0.000000
# 4 0.000000 0.000000 0.000000 0.015594 0.000000 0.005517
# 5 -0.003901 0.001319 -0.001507 0.000000 0.030185 0.000000
# 6 0.000000 0.000000 0.000000 0.005517 0.000000 0.031471
#
#
# Mechanical properties :
#
#
# Convention : Reuss Voigt Hill
#
# Bulk Modulus (GPa) = 66.13531 86.09752 76.11642
# Shear Modulus (GPa) = 37.53178 44.60129 41.06654
#
# Velocity S-wave (km/s) = 4.44317 4.84359 4.64770
# Velocity P-wave (km/s) = 7.81727 8.75031 8.29691
#
# Compressibility (1/GPa) = 0.01512052
#
# Stress axis : x y z
#
# Youngs Moduli (GPa) = 60.91819 148.49014 101.26711
#
# Poissons Ratio (x) = 0.25090 0.39461
# Poissons Ratio (y) = 0.10293 0.34084
# Poissons Ratio (z) = 0.23738 0.49978
#
# Static dielectric constant tensor:
#      x y z
#    x 1.662290 0.000000 0.024290 
#    y 0.000000 1.666020 0.000000 
#    z 0.024290 0.000000 1.605960 
# 
# From -- ./inp_files/303610.got.cif
#   From: 2010.05.17/outbox.cif.g08.bks.cpg/sg12_152_cif.got.tgz:303610.got - 2010.06.03 13:09:07.
