data_PCOD9213048
_publ_section_title
;
Structure prediction by ZEFSAII (Michael W. Deem and Ramdas Pophale) SiO2 
 PCOD9213048
Probable space group: C 2/M
;
_chemical_formula_sum "Si O2"
_cell_formula_units_Z 50
_cell_length_a 9.263617
_cell_length_b 20.447643
_cell_length_c 13.964028
_cell_angle_alpha 90.000000
_cell_angle_beta 117.938108
_cell_angle_gamma 90.000000
_cell_volume 2336.784163
_symmetry_space_group_name_H-M "C 2/M"
_symmetry_group_IT_number 12
_symmetry_cell_setting 'monoclinic'
loop_
_space_group_symop_operation_xyz
x,y,z
-x,y,-z
-x,-y,-z
x,-y,z
1/2+x,1/2+y,z
1/2-x,1/2+y,-z
1/2-x,1/2-y,-z
1/2+x,1/2-y,z
loop_
_atom_site_type_symbol
_atom_site_label
_atom_site_fract_x
_atom_site_fract_y
_atom_site_fract_z
Si Si1 0.055118 0.931119 0.752066
Si Si2 0.999178 0.696518 0.705375
Si Si3 0.709552 0.388342 0.203507
Si Si4 0.380678 0.681789 0.377381
Si Si5 0.745662 0.901790 0.996646
Si Si6 0.551535 0.725427 0.912084
Si Si7 0.500000 0.000000 0.000000
O O1 0.871002 0.926038 0.734000
O O2 0.105487 0.870718 0.703224
O O3 0.158793 0.930655 0.882432
O O4 0.085139 0.000000 0.711236
O O5 0.805745 0.687841 0.646970
O O6 0.104087 0.631411 0.722934
O O7 0.055408 0.749757 0.645499
O O8 0.054979 0.723882 0.826763
O O9 0.598368 0.322645 0.164178
O O10 0.691258 0.416647 0.090774
O O11 0.500000 0.661999 0.500000
O O12 0.792967 0.824013 0.027263
O O13 0.575348 0.940462 0.953558
O O14 0.500000 0.751784 0.000000
#
# Coordination Sequence:
#
# PCOD9213048 Si02
#       7
#     8   8   8   8   8   8   2
#     4  11  23  45  66  87 131 181 219 268 325 383
#     4  12  22  41  68  95 132 163 213 269 333 405
#     4  10  22  37  62  98 126 173 213 249 323 395
#     4  12  26  44  67  96 125 165 222 282 344 387
#     4  10  22  36  58  92 137 173 212 257 303 384
#     4   9  19  37  57  90 129 172 197 245 322 388
#     4  12  24  36  54 100 138 182 238 252 296 368
#
# _framework density 21.396927000000002
#
# number of rings (size 3 to 8) (size 9 to 14) (size 15 to 20)
#    0.000    1.280    5.600    1.920    3.360    4.800 
#    0.000    0.800    0.000    0.960    0.000    0.000 
#    0.000    0.000    0.000    0.000    0.000    0.000 
#
# Total GULP energy -139261.561792 kJ/mol
# GULP energy per Si atom -5570.462472 kJ/mol
# Density = 2.134823 g / cm^3
# Si number density = 21.396927 Si / 1000 Ang^3
#
#
#
# Elastic Constant Matrix: (Units=GPa)
#
#
# Indices 1 2 3 4 5 6 
#
# 1 84.9657 3.2543 9.7734 0.0000 21.6731 0.0000
# 2 3.2543 30.3414 5.0017 0.0000 8.6782 0.0000
# 3 9.7734 5.0017 48.5176 0.0000 18.0712 0.0000
# 4 0.0000 0.0000 0.0000 -4.6205 0.0000 -1.2382
# 5 21.6731 8.6782 18.0712 0.0000 23.4109 0.0000
# 6 0.0000 0.0000 0.0000 -1.2382 0.0000 -12.6867
#
#
#
# Elastic Compliance Matrix: (Units=1/GPa)
#
#
# Indices 1 2 3 4 5 6 
#
# 1 0.015992 0.003029 0.003367 0.000000 -0.018526 0.000000
# 2 0.003029 0.037554 0.002453 0.000000 -0.018618 0.000000
# 3 0.003367 0.002453 0.029726 0.000000 -0.026973 0.000000
# 4 0.000000 0.000000 0.000000 -0.222238 0.000000 0.021689
# 5 -0.018526 -0.018618 -0.026973 0.000000 0.087589 0.000000
# 6 0.000000 0.000000 0.000000 0.021689 0.000000 -0.080939
#
#
# Mechanical properties :
#
#
# Convention : Reuss Voigt Hill
#
# Bulk Modulus (GPa) = 9.90394 22.20930 16.05662
# Shear Modulus (GPa) = -42.97123 10.94040 -16.01541
#
# Velocity S-wave (km/s) = -4.48626 2.26366 -2.73882
# Velocity P-wave (km/s) = 4.71133 4.15144 1.57515
#
# Compressibility (1/GPa) = 0.10096988
#
# Stress axis : x y z
#
# Youngs Moduli (GPa) = 62.53165 26.62815 33.64012
#
# Poissons Ratio (x) = -0.08065 -0.11326
# Poissons Ratio (y) = -0.18939 -0.08253
# Poissons Ratio (z) = -0.21053 -0.06532
#
# Static dielectric constant tensor:
#      x y z
#    x 1.844760 0.000000 0.046420 
#    y 0.000000 1.849060 0.000000 
#    z 0.046420 0.000000 1.770870 
# 
# From -- ./inp_files/198580.got.cif
#   From: 2010.05.17/outbox.cif.g08.bks.cpg/sg12_100_cif.got.tgz:198580.got - 2010.06.03 13:09:07.
