data_PCOD9213321
_publ_section_title
;
Structure prediction by ZEFSAII (Michael W. Deem and Ramdas Pophale) SiO2 
 PCOD9213321
Probable space group: C 2/M
;
_chemical_formula_sum "Si O2"
_cell_formula_units_Z 56
_cell_length_a 19.736801
_cell_length_b 7.842441
_cell_length_c 19.408434
_cell_angle_alpha 90.000000
_cell_angle_beta 60.701002
_cell_angle_gamma 90.000000
_cell_volume 2619.833938
_symmetry_space_group_name_H-M "C 2/M"
_symmetry_group_IT_number 12
_symmetry_cell_setting 'monoclinic'
loop_
_space_group_symop_operation_xyz
x,y,z
-x,y,-z
-x,-y,-z
x,-y,z
1/2+x,1/2+y,z
1/2-x,1/2+y,-z
1/2-x,1/2-y,-z
1/2+x,1/2-y,z
loop_
_atom_site_type_symbol
_atom_site_label
_atom_site_fract_x
_atom_site_fract_y
_atom_site_fract_z
Si Si1 0.667691 0.699989 0.247946
Si Si2 0.931949 0.793489 0.822622
Si Si3 0.175530 0.306704 0.495287
Si Si4 0.171607 0.797355 0.761925
Si Si5 0.093612 0.795055 0.665217
Si Si6 0.921126 0.707659 0.577785
Si Si7 0.985067 0.209143 0.085055
O O1 0.680298 0.500000 0.233093
O O2 0.639260 0.771841 0.188338
O O3 0.746013 0.768747 0.243528
O O4 0.597778 0.727270 0.337116
O O5 0.011107 0.758499 0.740995
O O6 0.950089 0.735710 0.891288
O O7 0.925072 0.000000 0.828871
O O8 0.191126 0.500000 0.468691
O O9 0.250000 0.250000 0.500000
O O10 0.106830 0.291388 0.585460
O O11 0.147295 0.225082 0.438644
O O12 0.157418 0.736238 0.690460
O O13 0.099165 0.735154 0.844269
O O14 0.161103 0.000000 0.761398
O O15 0.099949 0.000000 0.651410
O O16 0.920768 0.500000 0.580899
O O17 0.000000 0.758503 0.500000
O O18 0.985214 0.000000 0.084694
O O19 0.000000 0.266236 0.000000
#
# Coordination Sequence:
#
# PCOD9213321 Si02
#       7
#     8   8   8   8   8   8   8
#     4  11  21  32  49  73 102 133 163 200 246 297
#     4   8  16  30  48  72  98 124 158 199 240 281
#     4  11  22  33  47  68  93 122 159 205 250 289
#     4   9  18  32  51  75 101 129 163 204 245 286
#     4   9  17  32  51  67  89 123 162 204 244 283
#     4  10  22  38  52  68  95 131 169 210 252 290
#     4   8  14  29  55  80  99 126 166 204 236 281
#
# _framework density 21.375399999999999
#
# number of rings (size 3 to 8) (size 9 to 14) (size 15 to 20)
#    0.000    2.571    0.000    4.286    0.000    5.429 
#    0.000    1.429    0.000    2.143    0.000    0.000 
#    0.000    0.000    0.000    0.000    0.000    0.000 
#
# Total GULP energy -156196.691674 kJ/mol
# GULP energy per Si atom -5578.453274 kJ/mol
# Density = 2.132675 g / cm^3
# Si number density = 21.375400 Si / 1000 Ang^3
#
#
#
# Elastic Constant Matrix: (Units=GPa)
#
#
# Indices 1 2 3 4 5 6 
#
# 1 108.4408 -3.2365 25.7639 0.0006 31.9516 -0.0005
# 2 -3.2365 11.7223 -14.9996 0.0010 -2.0888 -0.0008
# 3 25.7639 -14.9996 86.1791 0.0003 30.0081 -0.0004
# 4 0.0006 0.0010 0.0003 6.7132 -0.0006 0.6942
# 5 31.9516 -2.0888 30.0081 -0.0006 35.1502 0.0006
# 6 -0.0005 -0.0008 -0.0004 0.6942 0.0006 8.2536
#
#
#
# Elastic Compliance Matrix: (Units=1/GPa)
#
#
# Indices 1 2 3 4 5 6 
#
# 1 0.012652 0.002422 0.000845 -0.000003 -0.012078 0.000002
# 2 0.002422 0.115223 0.025206 -0.000022 -0.016873 0.000016
# 3 0.000845 0.025206 0.022034 -0.000007 -0.018081 0.000006
# 4 -0.000003 -0.000022 -0.000007 0.150268 0.000010 -0.012639
# 5 -0.012078 -0.016873 -0.018081 0.000010 0.053862 -0.000008
# 6 0.000002 0.000016 0.000006 -0.012639 -0.000008 0.122222
#
#
# Mechanical properties :
#
#
# Convention : Reuss Voigt Hill
#
# Bulk Modulus (GPa) = 4.83430 24.59974 14.71702
# Shear Modulus (GPa) = 10.24031 23.27769 16.75900
#
# Velocity S-wave (km/s) = 2.19114 3.30357 2.80309
# Velocity P-wave (km/s) = 2.94415 5.10733 4.16850
#
# Compressibility (1/GPa) = 0.20685523
#
# Stress axis : x y z
#
# Youngs Moduli (GPa) = 79.03946 8.67881 45.38382
#
# Poissons Ratio (x) = -0.02102 -0.03834
# Poissons Ratio (y) = -0.19144 -1.14395
# Poissons Ratio (z) = -0.06677 -0.21876
#
# Static dielectric constant tensor:
#      x y z
#    x 1.854070 0.000000 0.020640 
#    y 0.000000 1.779680 0.000000 
#    z 0.020640 0.000000 1.771170 
# 
# From -- ./inp_files/275049.got.cif
#   From: 2010.05.17/outbox.cif.g08.bks.cpg/sg12_138_cif.got.tgz:275049.got - 2010.06.03 13:09:07.
