data_PCOD9213320
_publ_section_title
;
Structure prediction by ZEFSAII (Michael W. Deem and Ramdas Pophale) SiO2 
 PCOD9213320
Probable space group: C 2/M
;
_chemical_formula_sum "Si O2"
_cell_formula_units_Z 56
_cell_length_a 27.851046
_cell_length_b 13.722261
_cell_length_c 14.814277
_cell_angle_alpha 90.000000
_cell_angle_beta 152.102169
_cell_angle_gamma 90.000000
_cell_volume 2649.093650
_symmetry_space_group_name_H-M "C 2/M"
_symmetry_group_IT_number 12
_symmetry_cell_setting 'monoclinic'
loop_
_space_group_symop_operation_xyz
x,y,z
-x,y,-z
-x,-y,-z
x,-y,z
1/2+x,1/2+y,z
1/2-x,1/2+y,-z
1/2-x,1/2-y,-z
1/2+x,1/2-y,z
loop_
_atom_site_type_symbol
_atom_site_label
_atom_site_fract_x
_atom_site_fract_y
_atom_site_fract_z
Si Si1 0.711127 0.791845 0.243829
Si Si2 0.520679 0.881966 0.821878
Si Si3 0.889808 0.386533 0.764372
Si Si4 0.878756 0.883171 0.199954
Si Si5 0.031269 0.612849 0.457719
Si Si6 0.224204 0.888395 0.155074
Si Si7 0.376423 0.383962 0.396483
O O1 0.688838 0.822122 0.309273
O O2 0.697793 0.679455 0.195537
O O3 0.816983 0.828700 0.376389
O O4 0.623287 0.847856 0.040658
O O5 0.421490 0.852867 0.716871
O O6 0.514214 0.845002 0.709358
O O7 0.518833 0.000000 0.818651
O O8 0.856767 0.500000 0.708387
O O9 0.000000 0.384304 0.000000
O O10 0.844089 0.848966 0.241931
O O11 0.001176 0.871522 0.395128
O O12 0.859463 0.000000 0.170258
O O13 0.823136 0.848361 0.017116
O O14 0.994052 0.500000 0.398689
O O15 0.153242 0.611295 0.652119
O O16 0.000000 0.659731 0.500000
O O17 0.189887 0.000000 0.110868
O O18 0.355054 0.500000 0.368033
#
# Coordination Sequence:
#
# PCOD9213320 Si02
#       7
#     8   8   8   8   8   8   8
#     4  11  20  30  54  84 107 140 180 225 276 326
#     4   9  18  34  58  87 115 138 169 223 284 327
#     4   8  15  31  54  83 114 136 164 223 288 329
#     4   8  17  34  51  69 107 151 176 218 272 319
#     4   9  19  36  56  78 109 150 185 215 258 324
#     4  10  22  38  51  69 107 152 189 221 264 317
#     4   9  17  31  52  79 106 136 180 224 274 327
#
# _framework density 21.139305
#
# number of rings (size 3 to 8) (size 9 to 14) (size 15 to 20)
#    0.000    2.857    0.000    3.000    2.000    1.714 
#    2.571    0.714    0.000    5.571    0.000    8.000 
#    0.000    0.000    0.000    0.000    0.000    0.000 
#
# Total GULP energy -156332.099196 kJ/mol
# GULP energy per Si atom -5583.289257 kJ/mol
# Density = 2.109119 g / cm^3
# Si number density = 21.139305 Si / 1000 Ang^3
#
#
#
# Elastic Constant Matrix: (Units=GPa)
#
#
# Indices 1 2 3 4 5 6 
#
# 1 100.8263 24.1958 -7.5567 0.0000 -3.5415 0.0000
# 2 24.1958 72.9639 -10.9747 0.0000 -0.7531 0.0000
# 3 -7.5567 -10.9747 21.5762 0.0000 -8.1142 0.0000
# 4 0.0000 0.0000 0.0000 6.4878 0.0000 0.2801
# 5 -3.5415 -0.7531 -8.1142 0.0000 23.3239 0.0000
# 6 0.0000 0.0000 0.0000 0.2801 0.0000 8.1105
#
#
#
# Elastic Compliance Matrix: (Units=1/GPa)
#
#
# Indices 1 2 3 4 5 6 
#
# 1 0.011010 -0.003129 0.003285 0.000000 0.002714 0.000000
# 2 -0.003129 0.015993 0.008117 0.000000 0.002865 0.000000
# 3 0.003285 0.008117 0.059727 0.000000 0.021539 0.000000
# 4 0.000000 0.000000 0.000000 0.154366 0.000000 -0.005331
# 5 0.002714 0.002865 0.021539 0.000000 0.050872 0.000000
# 6 0.000000 0.000000 0.000000 -0.005331 0.000000 0.123480
#
#
# Mechanical properties :
#
#
# Convention : Reuss Voigt Hill
#
# Bulk Modulus (GPa) = 9.68278 22.96614 16.32446
# Shear Modulus (GPa) = 11.53855 20.23125 15.88490
#
# Velocity S-wave (km/s) = 2.33884 3.09697 2.74421
# Velocity P-wave (km/s) = 3.44732 4.86581 4.21664
#
# Compressibility (1/GPa) = 0.10327608
#
# Stress axis : x y z
#
# Youngs Moduli (GPa) = 90.82263 62.52549 16.74291
#
# Poissons Ratio (x) = 0.19565 -0.05500
# Poissons Ratio (y) = 0.28419 -0.13590
# Poissons Ratio (z) = -0.29837 -0.50750
#
# Static dielectric constant tensor:
#      x y z
#    x 1.784790 0.000000 -0.034850 
#    y 0.000000 1.812680 0.000000 
#    z -0.034850 0.000000 1.753680 
# 
# From -- ./inp_files/246601.got.cif
#   From: 2010.05.17/outbox.cif.g08.bks.cpg/sg12_124_cif.got.tgz:246601.got - 2010.06.03 13:09:07.
