data_PCOD9213979
_publ_section_title
;
Structure prediction by ZEFSAII (Michael W. Deem and Ramdas Pophale) SiO2 
 PCOD9213979
Probable space group: C 2/M
;
_chemical_formula_sum "Si O2"
_cell_formula_units_Z 64
_cell_length_a 16.251240
_cell_length_b 14.814877
_cell_length_c 14.353401
_cell_angle_alpha 90.000000
_cell_angle_beta 55.865913
_cell_angle_gamma 90.000000
_cell_volume 2860.396968
_symmetry_space_group_name_H-M "C 2/M"
_symmetry_group_IT_number 12
_symmetry_cell_setting 'monoclinic'
loop_
_space_group_symop_operation_xyz
x,y,z
-x,y,-z
-x,-y,-z
x,-y,z
1/2+x,1/2+y,z
1/2-x,1/2+y,-z
1/2-x,1/2-y,-z
1/2+x,1/2-y,z
loop_
_atom_site_type_symbol
_atom_site_label
_atom_site_fract_x
_atom_site_fract_y
_atom_site_fract_z
Si Si1 0.437402 0.843616 0.906610
Si Si2 0.102982 0.151981 0.969569
Si Si3 0.151942 0.399611 0.729656
Si Si4 0.540648 0.598874 0.579128
Si Si5 0.719516 0.403030 0.079142
Si Si6 0.255468 0.857595 0.504448
Si Si7 0.095630 0.753239 0.259222
Si Si8 0.253024 0.297765 0.289956
O O1 0.544482 0.889253 0.846345
O O2 0.338070 0.896258 0.996026
O O3 0.427415 0.819013 0.804147
O O4 0.430269 0.748641 0.965612
O O5 0.165364 0.106460 0.013273
O O6 0.175258 0.165113 0.836102
O O7 0.000000 0.108323 0.000000
O O8 0.191465 0.500000 0.729636
O O9 0.153337 0.394121 0.614986
O O10 0.209981 0.306243 0.716263
O O11 0.500000 0.607545 0.500000
O O12 0.509075 0.500000 0.633562
O O13 0.658604 0.603577 0.514591
O O14 0.496566 0.681449 0.664805
O O15 0.693102 0.500000 0.136553
O O16 0.680638 0.319169 0.163397
O O17 0.250000 0.750000 0.500000
O O18 0.247234 0.864335 0.620974
O O19 0.141358 0.711363 0.322634
#
# Coordination Sequence:
#
# PCOD9213979 Si02
#       8
#     8   8   8   8   8   8   8   8
#     4  11  21  40  64  86 124 167 205 253 301 374
#     4  11  21  40  64  90 125 163 212 250 304 383
#     4  11  23  39  61  90 123 160 203 262 317 358
#     4  11  23  39  60  91 125 156 198 263 319 360
#     4  11  23  39  60  92 127 162 204 258 313 364
#     4  10  22  39  61  87 119 164 213 250 303 373
#     4  11  21  38  64  87 118 161 210 247 305 377
#     4  11  21  40  64  90 121 165 208 254 306 375
#
# _framework density 22.374516
#
# number of rings (size 3 to 8) (size 9 to 14) (size 15 to 20)
#    0.000    1.125    3.750    4.875    1.750    2.250 
#    0.000    1.875    0.000    0.750    0.000    0.000 
#    0.000    0.000    0.000    0.000    0.000    0.000 
#
# Total GULP energy -178724.926592 kJ/mol
# GULP energy per Si atom -5585.153956 kJ/mol
# Density = 2.232359 g / cm^3
# Si number density = 22.374516 Si / 1000 Ang^3
#
#
#
# Elastic Constant Matrix: (Units=GPa)
#
#
# Indices 1 2 3 4 5 6 
#
# 1 77.8254 0.7310 19.0625 0.0000 8.5522 0.0000
# 2 0.7310 53.1281 -2.8519 0.0000 2.6995 0.0000
# 3 19.0625 -2.8519 74.2212 0.0000 -11.7863 0.0000
# 4 0.0000 0.0000 0.0000 -588.4915 0.0000 37.3244
# 5 8.5522 2.6995 -11.7863 0.0000 35.9156 0.0000
# 6 0.0000 0.0000 0.0000 37.3244 0.0000 -11.9082
#
#
#
# Elastic Compliance Matrix: (Units=1/GPa)
#
#
# Indices 1 2 3 4 5 6 
#
# 1 0.014497 -0.000192 -0.004512 0.000000 -0.004918 0.000000
# 2 -0.000192 0.018917 0.000588 0.000000 -0.001183 0.000000
# 3 -0.004512 0.000588 0.015633 0.000000 0.006160 0.000000
# 4 0.000000 0.000000 0.000000 -0.002121 0.000000 -0.006648
# 5 -0.004918 -0.001183 0.006160 0.000000 0.031125 0.000000
# 6 0.000000 0.000000 0.000000 -0.006648 0.000000 -0.104812
#
#
# Mechanical properties :
#
#
# Convention : Reuss Voigt Hill
#
# Bulk Modulus (GPa) = 24.50020 26.56199 25.53110
# Shear Modulus (GPa) = -1014.95887 -100.34793 -557.65340
#
# Velocity S-wave (km/s) = -21.32153 -6.70422 -15.80434
# Velocity P-wave (km/s) = 24.39610 6.93047 17.93322
#
# Compressibility (1/GPa) = 0.04081599
#
# Stress axis : x y z
#
# Youngs Moduli (GPa) = 68.98181 52.86317 63.96805
#
# Poissons Ratio (x) = 0.01014 0.28860
# Poissons Ratio (y) = 0.01323 -0.03763
# Poissons Ratio (z) = 0.31122 -0.03110
#
# Static dielectric constant tensor:
#      x y z
#    x 2.086420 0.000000 -0.058410 
#    y 0.000000 1.832750 0.000000 
#    z -0.058410 0.000000 1.896850 
# 
# From -- ./inp_files/225276.got.cif
#   From: 2010.05.17/outbox.cif.g08.bks.cpg/sg12_113_cif.got.tgz:225276.got - 2010.06.03 13:09:07.
