data_PCOD9213465
_publ_section_title
;
Structure prediction by ZEFSAII (Michael W. Deem and Ramdas Pophale) SiO2 
 PCOD9213465
Probable space group: C 2/M
;
_chemical_formula_sum "Si O2"
_cell_formula_units_Z 50
_cell_length_a 6.751909
_cell_length_b 13.225307
_cell_length_c 20.904440
_cell_angle_alpha 90.000000
_cell_angle_beta 116.317917
_cell_angle_gamma 90.000000
_cell_volume 1673.198450
_symmetry_space_group_name_H-M "C 2/M"
_symmetry_group_IT_number 12
_symmetry_cell_setting 'monoclinic'
loop_
_space_group_symop_operation_xyz
x,y,z
-x,y,-z
-x,-y,-z
x,-y,z
1/2+x,1/2+y,z
1/2-x,1/2+y,-z
1/2-x,1/2-y,-z
1/2+x,1/2-y,z
loop_
_atom_site_type_symbol
_atom_site_label
_atom_site_fract_x
_atom_site_fract_y
_atom_site_fract_z
Si Si1 0.764116 0.877595 0.049673
Si Si2 0.753308 0.380613 0.481103
Si Si3 0.000000 0.000000 0.000000
Si Si4 0.270336 0.138011 0.810206
Si Si5 0.863615 0.168087 0.670157
Si Si6 0.244561 0.327804 0.879862
Si Si7 0.126141 0.386035 0.359536
O O1 0.791005 0.901918 0.128910
O O2 0.801104 0.750332 0.068881
O O3 0.766797 0.000000 0.006805
O O4 0.500000 0.869945 0.000000
O O5 0.749632 0.500000 0.470033
O O6 0.609080 0.338189 0.402745
O O7 0.000000 0.341877 0.500000
O O8 0.734121 0.369477 0.554497
O O9 0.050405 0.103055 0.065171
O O10 0.285091 0.260551 0.823195
O O11 0.524031 0.109728 0.834382
O O12 0.068544 0.118536 0.734974
O O13 0.632096 0.117807 0.655966
O O14 0.850823 0.288322 0.681895
O O15 0.173245 0.500000 0.343178
#
# Coordination Sequence:
#
# PCOD9213465 Si02
#       7
#     8   8   2   8   8   8   8
#     4   9  20  39  62  87 125 157 205 249 308 369
#     4   8  16  33  54  82 123 163 216 278 332 391
#     4  12  24  40  62 100 128 168 198 258 318 372
#     4   9  17  35  60  91 117 163 214 257 314 391
#     4  11  19  34  62  90 118 169 222 263 337 404
#     4   8  17  38  63  82 118 166 197 253 300 379
#     4  10  22  38  58  90 126 167 219 282 334 395
#
# _framework density 29.882887
#
# number of rings (size 3 to 8) (size 9 to 14) (size 15 to 20)
#    0.960    1.760    0.000    2.880    0.000    0.640 
#    2.880    3.200    0.000    6.240    6.240    0.000 
#    0.000    0.000    0.000    0.000    0.000    0.000 
#
# Total GULP energy -139710.236625 kJ/mol
# GULP energy per Si atom -5588.409465 kJ/mol
# Density = 2.981487 g / cm^3
# Si number density = 29.882887 Si / 1000 Ang^3
#
#
#
# Elastic Constant Matrix: (Units=GPa)
#
#
# Indices 1 2 3 4 5 6 
#
# 1 153.9145 51.0502 75.9740 0.0000 25.8118 0.0000
# 2 51.0502 219.3426 45.9478 0.0000 15.8650 0.0000
# 3 75.9740 45.9478 241.2246 0.0000 54.4100 0.0000
# 4 0.0000 0.0000 0.0000 -16.0998 0.0000 -35.8404
# 5 25.8118 15.8650 54.4100 0.0000 55.1552 0.0000
# 6 0.0000 0.0000 0.0000 -35.8404 0.0000 33.0199
#
#
#
# Elastic Compliance Matrix: (Units=1/GPa)
#
#
# Indices 1 2 3 4 5 6 
#
# 1 0.008181 -0.001382 -0.001980 0.000000 -0.001478 0.000000
# 2 -0.001382 0.004998 -0.000435 0.000000 -0.000362 0.000000
# 3 -0.001980 -0.000435 0.005935 0.000000 -0.004804 0.000000
# 4 0.000000 0.000000 0.000000 -0.018181 0.000000 -0.019734
# 5 -0.001478 -0.000362 -0.004804 0.000000 0.023665 0.000000
# 6 0.000000 0.000000 0.000000 -0.019734 0.000000 0.008865
#
#
# Mechanical properties :
#
#
# Convention : Reuss Voigt Hill
#
# Bulk Modulus (GPa) = 86.80943 106.71399 96.76171
# Shear Modulus (GPa) = 111.36533 43.84902 77.60717
#
# Velocity S-wave (km/s) = 6.11131 3.83477 5.10165
# Velocity P-wave (km/s) = 8.88316 7.44282 8.19470
#
# Compressibility (1/GPa) = 0.01151949
#
# Stress axis : x y z
#
# Youngs Moduli (GPa) = 122.23830 200.07574 168.47955
#
# Poissons Ratio (x) = 0.27658 0.33358
# Poissons Ratio (y) = 0.16898 0.07331
# Poissons Ratio (z) = 0.24202 0.08705
#
# Static dielectric constant tensor:
#      x y z
#    x 2.358920 0.000000 0.003280 
#    y 0.000000 2.677770 0.000000 
#    z 0.003280 0.000000 2.266540 
# 
# From -- ./inp_files/356212.got.cif
#   From: 2010.05.17/outbox.cif.g08.bks.cpg/sg12_179_cif.got.tgz:356212.got - 2010.06.03 13:09:07.
