data_PCOD9213684
_publ_section_title
;
Structure prediction by ZEFSAII (Michael W. Deem and Ramdas Pophale) SiO2 
 PCOD9213684
Probable space group: C 2/M
;
_chemical_formula_sum "Si O2"
_cell_formula_units_Z 40
_cell_length_a 9.829605
_cell_length_b 29.533486
_cell_length_c 15.395590
_cell_angle_alpha 90.000000
_cell_angle_beta 153.345627
_cell_angle_gamma 90.000000
_cell_volume 2004.996298
_symmetry_space_group_name_H-M "C 2/M"
_symmetry_group_IT_number 12
_symmetry_cell_setting 'monoclinic'
loop_
_space_group_symop_operation_xyz
x,y,z
-x,y,-z
-x,-y,-z
x,-y,z
1/2+x,1/2+y,z
1/2-x,1/2+y,-z
1/2-x,1/2-y,-z
1/2+x,1/2-y,z
loop_
_atom_site_type_symbol
_atom_site_label
_atom_site_fract_x
_atom_site_fract_y
_atom_site_fract_z
Si Si1 0.426672 0.692990 0.362679
Si Si2 0.200078 0.500000 0.701296
Si Si3 0.774912 0.924755 0.005510
Si Si4 0.500000 0.130739 0.000000
Si Si5 0.500000 0.645081 0.000000
Si Si6 0.431751 0.796720 0.365749
Si Si7 0.641508 0.000000 0.306841
O O1 0.500000 0.674140 0.500000
O O2 0.313307 0.745004 0.307940
O O3 0.747733 0.699578 0.499155
O O4 0.200657 0.662360 0.177983
O O5 0.424249 0.456290 0.827743
O O6 0.000000 0.500000 0.500000
O O7 0.996238 0.500000 0.673060
O O8 0.714602 0.900723 0.062844
O O9 0.797918 0.886753 0.945125
O O10 0.497700 0.956941 0.821990
O O11 0.306360 0.675411 0.824889
O O12 0.500000 0.815360 0.500000
O O13 0.000000 0.000000 0.500000
#
# Coordination Sequence:
#
# PCOD9213684 Si02
#       7
#     8   4   8   4   4   8   4
#     4  10  22  42  59  92 135 174 221 274 317 382
#     4  11  25  48  71  95 129 175 207 263 334 401
#     4  11  25  44  65  96 136 162 220 271 321 399
#     4  12  25  39  66 100 132 174 218 275 327 376
#     4  12  21  41  66  94 130 176 208 281 327 376
#     4  10  22  38  64  91 128 178 226 264 324 387
#     4  11  25  48  73  95 128 172 208 262 336 396
#
# _framework density 19.950161999999999
#
# number of rings (size 3 to 8) (size 9 to 14) (size 15 to 20)
#    0.000    1.200    2.000    3.600    2.800    5.600 
#    0.000    8.000    0.000    0.000    0.000    0.000 
#    0.000    0.000    0.000    0.000    0.000    0.000 
#
# Total GULP energy -111781.348980 kJ/mol
# GULP energy per Si atom -5589.067449 kJ/mol
# Density = 1.990475 g / cm^3
# Si number density = 19.950162 Si / 1000 Ang^3
#
#
#
# Elastic Constant Matrix: (Units=GPa)
#
#
# Indices 1 2 3 4 5 6 
#
# 1 130.0791 42.0229 56.3474 0.0000 -22.1876 0.0000
# 2 42.0229 104.8769 79.9102 0.0000 -18.5995 0.0000
# 3 56.3474 79.9102 160.7018 0.0000 -23.1469 0.0000
# 4 0.0000 0.0000 0.0000 14.7610 0.0000 -26.8371
# 5 -22.1876 -18.5995 -23.1469 0.0000 41.6227 0.0000
# 6 0.0000 0.0000 0.0000 -26.8371 0.0000 58.6661
#
#
#
# Elastic Compliance Matrix: (Units=1/GPa)
#
#
# Indices 1 2 3 4 5 6 
#
# 1 0.009698 -0.001732 -0.002072 0.000000 0.003243 0.000000
# 2 -0.001732 0.015976 -0.007003 0.000000 0.002322 0.000000
# 3 -0.002072 -0.007003 0.010677 0.000000 0.001704 0.000000
# 4 0.000000 0.000000 0.000000 0.402543 0.000000 0.184145
# 5 0.003243 0.002322 0.001704 0.000000 0.027739 0.000000
# 6 0.000000 0.000000 0.000000 0.184145 0.000000 0.101284
#
#
# Mechanical properties :
#
#
# Convention : Reuss Voigt Hill
#
# Bulk Modulus (GPa) = 67.85266 83.57987 75.71626
# Shear Modulus (GPa) = 8.41125 37.50176 22.95650
#
# Velocity S-wave (km/s) = 2.05555 4.34034 3.39587
# Velocity P-wave (km/s) = 6.30227 8.19166 7.30828
#
# Compressibility (1/GPa) = 0.01473782
#
# Stress axis : x y z
#
# Youngs Moduli (GPa) = 103.11492 62.59266 93.66108
#
# Poissons Ratio (x) = 0.10840 0.19407
# Poissons Ratio (y) = 0.17858 0.65588
# Poissons Ratio (z) = 0.21366 0.43832
#
# Static dielectric constant tensor:
#      x y z
#    x 1.713610 0.000000 0.017180 
#    y 0.000000 14.710350 0.000010 
#    z 0.017180 0.000010 1.676420 
# 
# From -- ./inp_files/201441.got.cif
#   From: 2010.05.17/outbox.cif.g08.bks.cpg/sg12_101_cif.got.tgz:201441.got - 2010.06.03 13:09:07.
