data_PCOD9213004
_publ_section_title
;
Structure prediction by ZEFSAII (Michael W. Deem and Ramdas Pophale) SiO2 
 PCOD9213004
Probable space group: C 2/M
;
_chemical_formula_sum "Si O2"
_cell_formula_units_Z 56
_cell_length_a 10.487619
_cell_length_b 21.136323
_cell_length_c 13.166603
_cell_angle_alpha 90.000000
_cell_angle_beta 99.185254
_cell_angle_gamma 90.000000
_cell_volume 2881.212401
_symmetry_space_group_name_H-M "C 2/M"
_symmetry_group_IT_number 12
_symmetry_cell_setting 'monoclinic'
loop_
_space_group_symop_operation_xyz
x,y,z
-x,y,-z
-x,-y,-z
x,-y,z
1/2+x,1/2+y,z
1/2-x,1/2+y,-z
1/2-x,1/2-y,-z
1/2+x,1/2-y,z
loop_
_atom_site_type_symbol
_atom_site_label
_atom_site_fract_x
_atom_site_fract_y
_atom_site_fract_z
Si Si1 0.047470 0.813210 0.251296
Si Si2 0.389511 0.743819 0.069364
Si Si3 0.027086 0.071043 0.622700
Si Si4 0.665704 0.073950 0.322169
Si Si5 0.317933 0.848989 0.206309
Si Si6 0.013093 0.574461 0.886913
Si Si7 0.019732 0.310790 0.386732
O O1 0.173872 0.824150 0.198341
O O2 0.058157 0.749767 0.321927
O O3 0.923477 0.807942 0.160347
O O4 0.037459 0.873671 0.321815
O O5 0.399057 0.806750 0.137309
O O6 0.500000 0.739314 0.000000
O O7 0.250000 0.750000 0.000000
O O8 0.180388 0.074853 0.660812
O O9 0.000000 0.079225 0.500000
O O10 0.982919 0.000000 0.645533
O O11 0.599895 0.093398 0.206655
O O12 0.616519 0.129403 0.390708
O O13 0.627920 0.000000 0.340846
O O14 0.351935 0.914831 0.157335
O O15 0.386666 0.838317 0.322564
O O16 0.995445 0.500000 0.894977
O O17 0.000000 0.600690 0.000000
O O18 0.000000 0.290725 0.500000
#
# Coordination Sequence:
#
# PCOD9213004 Si02
#       7
#     8   8   8   8   8   8   8
#     4  11  24  38  60  91 125 160 211 260 311 379
#     4  11  22  40  61  86 122 163 201 250 316 378
#     4  10  23  42  63  87 122 171 213 257 320 384
#     4   9  20  39  61  86 118 160 212 257 309 386
#     4  10  22  36  55  88 117 156 199 249 309 369
#     4   9  18  36  61  87 116 153 200 257 314 372
#     4  10  23  37  58  88 119 157 199 259 317 366
#
# _framework density 19.436260999999998
#
# number of rings (size 3 to 8) (size 9 to 14) (size 15 to 20)
#    0.000    2.000    1.429    0.857    6.000    3.714 
#    0.000    0.000    0.000    0.429    0.000    0.000 
#    0.000    0.000    0.000    0.000    0.000    0.000 
#
# Total GULP energy -155874.832767 kJ/mol
# GULP energy per Si atom -5566.958313 kJ/mol
# Density = 1.939202 g / cm^3
# Si number density = 19.436261 Si / 1000 Ang^3
#
#
#
# Elastic Constant Matrix: (Units=GPa)
#
#
# Indices 1 2 3 4 5 6 
#
# 1 63.4324 24.9091 40.1115 0.0000 -3.1431 0.0000
# 2 24.9091 78.2316 35.0749 0.0000 -9.3750 0.0000
# 3 40.1115 35.0749 115.3341 0.0000 -3.5219 0.0000
# 4 0.0000 0.0000 0.0000 30.4108 0.0000 -4.0613
# 5 -3.1431 -9.3750 -3.5219 0.0000 18.9702 0.0000
# 6 0.0000 0.0000 0.0000 -4.0613 0.0000 23.8700
#
#
#
# Elastic Compliance Matrix: (Units=1/GPa)
#
#
# Indices 1 2 3 4 5 6 
#
# 1 0.021239 -0.003943 -0.006174 0.000000 0.000424 0.000000
# 2 -0.003943 0.016379 -0.003402 0.000000 0.006810 0.000000
# 3 -0.006174 -0.003402 0.011837 0.000000 -0.000507 0.000000
# 4 0.000000 0.000000 0.000000 0.033648 0.000000 0.005725
# 5 0.000424 0.006810 -0.000507 0.000000 0.056056 0.000000
# 6 0.000000 0.000000 0.000000 0.005725 0.000000 0.042868
#
#
# Mechanical properties :
#
#
# Convention : Reuss Voigt Hill
#
# Bulk Modulus (GPa) = 44.61125 50.79878 47.70501
# Shear Modulus (GPa) = 23.09074 25.11038 24.10056
#
# Velocity S-wave (km/s) = 3.45051 3.59825 3.52515
# Velocity P-wave (km/s) = 6.23515 6.59212 6.41612
#
# Compressibility (1/GPa) = 0.02241587
#
# Stress axis : x y z
#
# Youngs Moduli (GPa) = 47.08396 61.05227 84.48185
#
# Poissons Ratio (x) = 0.24075 0.52161
# Poissons Ratio (y) = 0.18567 0.28739
# Poissons Ratio (z) = 0.29071 0.20769
#
# Static dielectric constant tensor:
#      x y z
#    x 1.692390 0.000000 0.006330 
#    y 0.000000 1.813620 0.000000 
#    z 0.006330 0.000000 1.715700 
# 
# From -- ./inp_files/133234.got.cif
#   From: 2010.05.17/outbox.cif.g08.bks.cpg/sg12_67_cif.got.tgz:133234.got - 2010.06.03 13:09:07.
