data_PCOD9213814
_publ_section_title
;
Structure prediction by ZEFSAII (Michael W. Deem and Ramdas Pophale) SiO2 
 PCOD9213814
Probable space group: C 2/M
;
_chemical_formula_sum "Si O2"
_cell_formula_units_Z 36
_cell_length_a 13.169076
_cell_length_b 14.378509
_cell_length_c 9.401577
_cell_angle_alpha 90.000000
_cell_angle_beta 102.601171
_cell_angle_gamma 90.000000
_cell_volume 1737.323356
_symmetry_space_group_name_H-M "C 2/M"
_symmetry_group_IT_number 12
_symmetry_cell_setting 'monoclinic'
loop_
_space_group_symop_operation_xyz
x,y,z
-x,y,-z
-x,-y,-z
x,-y,z
1/2+x,1/2+y,z
1/2-x,1/2+y,-z
1/2-x,1/2-y,-z
1/2+x,1/2-y,z
loop_
_atom_site_type_symbol
_atom_site_label
_atom_site_fract_x
_atom_site_fract_y
_atom_site_fract_z
Si Si1 0.500000 0.353182 0.000000
Si Si2 0.773456 0.500000 0.928615
Si Si3 0.424994 0.158540 0.356321
Si Si4 0.203993 0.500000 0.531586
Si Si5 0.324975 0.299761 0.134182
Si Si6 0.157542 0.000000 0.177214
Si Si7 0.057060 0.500000 0.233923
O O1 0.561579 0.297930 0.902045
O O2 0.413663 0.414078 0.892573
O O3 0.715402 0.405228 0.860342
O O4 0.892100 0.500000 0.908653
O O5 0.755722 0.500000 0.096249
O O6 0.500000 0.200694 0.500000
O O7 0.354425 0.087311 0.420486
O O8 0.345127 0.234656 0.273185
O O9 0.491331 0.091964 0.265370
O O10 0.313754 0.500000 0.648084
O O11 0.167059 0.500000 0.357565
O O12 0.250000 0.250000 0.000000
#
# Coordination Sequence:
#
# PCOD9213814 Si02
#       7
#     4   4   8   4   8   4   4
#     4   9  20  34  54  81 114 156 196 235 290 363
#     4  10  22  39  57  92 120 148 199 258 288 349
#     4   9  19  38  60  84 120 161 199 244 299 360
#     4   9  17  38  61  86 113 163 197 242 303 361
#     4  11  23  39  60  88 125 155 199 249 303 353
#     4   9  17  37  58  75 117 156 192 235 301 354
#     4   9  20  38  63  89 120 149 210 252 293 345
#
# _framework density 20.721530000000001
#
# number of rings (size 3 to 8) (size 9 to 14) (size 15 to 20)
#    0.000    2.444    0.000    4.667    3.111    0.889 
#    4.000    5.000    0.000    0.000    0.000    0.000 
#    0.000    0.000    0.000    0.000    0.000    0.000 
#
# Total GULP energy -100212.237661 kJ/mol
# GULP energy per Si atom -5567.346537 kJ/mol
# Density = 2.067437 g / cm^3
# Si number density = 20.721530 Si / 1000 Ang^3
#
#
#
# Elastic Constant Matrix: (Units=GPa)
#
#
# Indices 1 2 3 4 5 6 
#
# 1 71.5003 10.6265 22.1054 0.0000 -3.3029 0.0000
# 2 10.6265 113.1849 36.6846 0.0000 13.1108 0.0000
# 3 22.1054 36.6846 49.0905 0.0000 30.5160 0.0000
# 4 0.0000 0.0000 0.0000 -49.3773 0.0000 52.1590
# 5 -3.3029 13.1108 30.5160 0.0000 47.5569 0.0000
# 6 0.0000 0.0000 0.0000 52.1590 0.0000 -31.1884
#
#
#
# Elastic Compliance Matrix: (Units=1/GPa)
#
#
# Indices 1 2 3 4 5 6 
#
# 1 0.020108 0.002845 -0.019233 0.000000 0.012953 0.000000
# 2 0.002845 0.012526 -0.014337 0.000000 0.005944 0.000000
# 3 -0.019233 -0.014337 0.063412 0.000000 -0.038073 0.000000
# 4 0.000000 0.000000 0.000000 0.026418 0.000000 0.044182
# 5 0.012953 0.005944 -0.038073 0.000000 0.044719 0.000000
# 6 0.000000 0.000000 0.000000 0.044182 0.000000 0.041825
#
#
# Mechanical properties :
#
#
# Convention : Reuss Voigt Hill
#
# Bulk Modulus (GPa) = 28.90391 41.40097 35.15244
# Shear Modulus (GPa) = 17.73119 4.35552 11.04336
#
# Velocity S-wave (km/s) = 2.92839 1.45138 2.31106
# Velocity P-wave (km/s) = 5.04113 4.77825 4.91145
#
# Compressibility (1/GPa) = 0.03459740
#
# Stress axis : x y z
#
# Youngs Moduli (GPa) = 49.73257 79.83297 15.76989
#
# Poissons Ratio (x) = -0.22715 0.30330
# Poissons Ratio (y) = -0.14150 0.22609
# Poissons Ratio (z) = 0.95650 1.14454
#
# Static dielectric constant tensor:
#      x y z
#    x 1.820000 0.000000 0.124450 
#    y 0.000000 1.746650 0.000000 
#    z 0.124450 0.000000 2.064710 
# 
# From -- ./inp_files/58644.got.cif
#   From: 2010.05.17/outbox.cif.g08.bks.cpg/sg12_30_cif.got.tgz:58644.got - 2010.06.03 13:09:07.
