data_PCOD9213933
_publ_section_title
;
Structure prediction by ZEFSAII (Michael W. Deem and Ramdas Pophale) SiO2 
 PCOD9213933
Probable space group: C 2/M
;
_chemical_formula_sum "Si O2"
_cell_formula_units_Z 48
_cell_length_a 24.934506
_cell_length_b 7.996260
_cell_length_c 11.849193
_cell_angle_alpha 90.000000
_cell_angle_beta 111.917446
_cell_angle_gamma 90.000000
_cell_volume 2191.768110
_symmetry_space_group_name_H-M "C 2/M"
_symmetry_group_IT_number 12
_symmetry_cell_setting 'monoclinic'
loop_
_space_group_symop_operation_xyz
x,y,z
-x,y,-z
-x,-y,-z
x,-y,z
1/2+x,1/2+y,z
1/2-x,1/2+y,-z
1/2-x,1/2-y,-z
1/2+x,1/2-y,z
loop_
_atom_site_type_symbol
_atom_site_label
_atom_site_fract_x
_atom_site_fract_y
_atom_site_fract_z
Si Si1 0.240209 0.196537 0.305938
Si Si2 0.304875 0.201643 0.967409
Si Si3 0.522097 0.202264 0.140287
Si Si4 0.370950 0.305675 0.402186
Si Si5 0.366536 0.299143 0.644807
Si Si6 0.085056 0.301032 0.803265
O O1 0.205174 0.218885 0.162124
O O2 0.301432 0.286613 0.340755
O O3 0.196753 0.263110 0.367716
O O4 0.252163 0.000000 0.332884
O O5 0.307174 0.000000 0.957270
O O6 0.250000 0.250000 0.000000
O O7 0.362203 0.261633 0.077341
O O8 0.585512 0.259634 0.224883
O O9 0.475813 0.262617 0.197233
O O10 0.523385 0.000000 0.140011
O O11 0.500000 0.257017 0.000000
O O12 0.386437 0.500000 0.412676
O O13 0.385736 0.233557 0.537260
O O14 0.400544 0.229313 0.315710
O O15 0.361247 0.500000 0.632006
O O16 0.084165 0.500000 0.818961
#
# Coordination Sequence:
#
# PCOD9213933 Si02
#       6
#     8   8   8   8   8   8
#     4  11  22  38  60  87 122 158 199 249 302 355
#     4  11  21  35  58  88 121 154 195 242 295 352
#     4  10  22  42  66  90 116 153 199 245 295 356
#     4  11  23  39  60  87 120 158 202 246 298 358
#     4  10  24  42  60  87 120 158 201 248 299 353
#     4  10  22  39  60  88 122 156 195 245 298 353
#
# _framework density 21.900127999999999
#
# number of rings (size 3 to 8) (size 9 to 14) (size 15 to 20)
#    0.000    1.500    1.667    3.000    0.000    6.333 
#    0.000    3.333    0.000    0.000    0.000    0.000 
#    0.000    0.000    0.000    0.000    0.000    0.000 
#
# Total GULP energy -134173.036771 kJ/mol
# GULP energy per Si atom -5590.543199 kJ/mol
# Density = 2.185028 g / cm^3
# Si number density = 21.900128 Si / 1000 Ang^3
#
#
#
# Elastic Constant Matrix: (Units=GPa)
#
#
# Indices 1 2 3 4 5 6 
#
# 1 107.1199 -9.5376 18.6572 0.0000 -9.0286 0.0000
# 2 -9.5376 19.1195 -13.4057 0.0000 1.1925 0.0000
# 3 18.6572 -13.4057 97.3209 0.0000 -10.2750 0.0000
# 4 0.0000 0.0000 0.0000 21.1067 0.0000 3.6876
# 5 -9.0286 1.1925 -10.2750 0.0000 25.1451 0.0000
# 6 0.0000 0.0000 0.0000 3.6876 0.0000 7.4197
#
#
#
# Elastic Compliance Matrix: (Units=1/GPa)
#
#
# Indices 1 2 3 4 5 6 
#
# 1 0.010141 0.004130 -0.001057 0.000000 0.003013 0.000000
# 2 0.004130 0.059583 0.007602 0.000000 0.001763 0.000000
# 3 -0.001057 0.007602 0.011963 0.000000 0.004148 0.000000
# 4 0.000000 0.000000 0.000000 0.051883 0.000000 -0.025786
# 5 0.003013 0.001763 0.004148 0.000000 0.042463 0.000000
# 6 0.000000 0.000000 0.000000 -0.025786 0.000000 0.147591
#
#
# Mechanical properties :
#
#
# Convention : Reuss Voigt Hill
#
# Bulk Modulus (GPa) = 9.70536 23.88756 16.79646
# Shear Modulus (GPa) = 14.85351 25.92406 20.38879
#
# Velocity S-wave (km/s) = 2.60713 3.44429 3.05452
# Velocity P-wave (km/s) = 3.67479 5.17191 4.48624
#
# Compressibility (1/GPa) = 0.10303584
#
# Stress axis : x y z
#
# Youngs Moduli (GPa) = 98.60832 16.78335 83.59067
#
# Poissons Ratio (x) = -0.06931 0.08837
# Poissons Ratio (y) = -0.40722 -0.63545
# Poissons Ratio (z) = 0.10424 -0.12759
#
# Static dielectric constant tensor:
#      x y z
#    x 1.816130 0.000000 -0.048150 
#    y 0.000000 1.779810 0.000000 
#    z -0.048150 0.000000 1.840800 
# 
# From -- ./inp_files/173077.got.cif
#   From: 2010.05.17/outbox.cif.g08.bks.cpg/sg12_87_cif.got.tgz:173077.got - 2010.06.03 13:09:07.
