data_PCOD9213886
_publ_section_title
;
Structure prediction by ZEFSAII (Michael W. Deem and Ramdas Pophale) SiO2 
 PCOD9213886
Probable space group: C 2/M
;
_chemical_formula_sum "Si O2"
_cell_formula_units_Z 56
_cell_length_a 9.696847
_cell_length_b 13.942617
_cell_length_c 22.614120
_cell_angle_alpha 90.000000
_cell_angle_beta 116.505643
_cell_angle_gamma 90.000000
_cell_volume 2736.052258
_symmetry_space_group_name_H-M "C 2/M"
_symmetry_group_IT_number 12
_symmetry_cell_setting 'monoclinic'
loop_
_space_group_symop_operation_xyz
x,y,z
-x,y,-z
-x,-y,-z
x,-y,z
1/2+x,1/2+y,z
1/2-x,1/2+y,-z
1/2-x,1/2-y,-z
1/2+x,1/2-y,z
loop_
_atom_site_type_symbol
_atom_site_label
_atom_site_fract_x
_atom_site_fract_y
_atom_site_fract_z
Si Si1 0.528965 0.616707 0.937890
Si Si2 0.319844 0.610491 0.482198
Si Si3 0.396566 0.885768 0.812563
Si Si4 0.306788 0.242942 0.300952
Si Si5 0.712591 0.114187 0.815790
Si Si6 0.154393 0.788872 0.392234
Si Si7 0.342283 0.883428 0.937865
O O1 0.535665 0.500000 0.938416
O O2 0.380534 0.643570 0.870984
O O3 0.688949 0.652472 0.941128
O O4 0.500000 0.643831 0.000000
O O5 0.500000 0.625338 0.500000
O O6 0.280858 0.500000 0.463135
O O7 0.217424 0.685413 0.426136
O O8 0.301302 0.637227 0.547700
O O9 0.302189 0.825936 0.746368
O O10 0.578121 0.866955 0.837640
O O11 0.345317 0.860210 0.869053
O O12 0.372159 0.000000 0.799904
O O13 0.327754 0.168252 0.251870
O O14 0.229173 0.194067 0.342877
O O15 0.471171 0.284994 0.350754
O O16 0.715558 0.000000 0.806592
O O17 0.339040 0.000000 0.940346
O O18 0.500000 0.854175 0.000000
#
# Coordination Sequence:
#
# PCOD9213886 Si02
#       7
#     8   8   8   8   8   8   8
#     4   9  17  31  54  83 117 157 204 262 317 361
#     4  10  22  43  71  98 125 161 204 245 293 357
#     4  10  22  39  60  86 119 164 211 252 305 373
#     4  12  24  41  62  91 131 165 201 247 305 362
#     4  10  22  39  59  86 121 162 208 256 309 367
#     4  11  24  42  65  96 128 162 199 250 298 354
#     4   9  17  31  54  83 116 157 207 260 312 367
#
# _framework density 20.467445999999999
#
# number of rings (size 3 to 8) (size 9 to 14) (size 15 to 20)
#    0.000    1.857    2.857    0.857    2.000    5.714 
#    0.000    1.429    0.000    3.429    0.000    0.000 
#    0.000    0.000    0.000    0.000    0.000    0.000 
#
# Total GULP energy -156561.338797 kJ/mol
# GULP energy per Si atom -5591.476386 kJ/mol
# Density = 2.042086 g / cm^3
# Si number density = 20.467446 Si / 1000 Ang^3
#
#
#
# Elastic Constant Matrix: (Units=GPa)
#
#
# Indices 1 2 3 4 5 6 
#
# 1 134.4641 15.1321 31.6340 0.0000 -10.5510 0.0000
# 2 15.1321 70.7756 8.1552 0.0000 3.4413 0.0000
# 3 31.6340 8.1552 79.4638 0.0000 -5.0080 0.0000
# 4 0.0000 0.0000 0.0000 17.7179 0.0000 3.2046
# 5 -10.5510 3.4413 -5.0080 0.0000 46.8927 0.0000
# 6 0.0000 0.0000 0.0000 3.2046 0.0000 17.2182
#
#
#
# Elastic Compliance Matrix: (Units=1/GPa)
#
#
# Indices 1 2 3 4 5 6 
#
# 1 0.008474 -0.001535 -0.003109 0.000000 0.001687 0.000000
# 2 -0.001535 0.014645 -0.000988 0.000000 -0.001526 0.000000
# 3 -0.003109 -0.000988 0.013978 0.000000 0.000866 0.000000
# 4 0.000000 0.000000 0.000000 0.058406 0.000000 -0.010870
# 5 0.001687 -0.001526 0.000866 0.000000 0.021909 0.000000
# 6 0.000000 0.000000 0.000000 -0.010870 0.000000 0.060101
#
#
# Mechanical properties :
#
#
# Convention : Reuss Voigt Hill
#
# Bulk Modulus (GPa) = 38.71216 43.83846 41.27531
# Shear Modulus (GPa) = 25.33055 31.68457 28.50756
#
# Velocity S-wave (km/s) = 3.52177 3.93879 3.73611
# Velocity P-wave (km/s) = 5.95754 6.49235 6.23068
#
# Compressibility (1/GPa) = 0.02583168
#
# Stress axis : x y z
#
# Youngs Moduli (GPa) = 118.01319 68.28045 71.54038
#
# Poissons Ratio (x) = 0.10484 0.22245
# Poissons Ratio (y) = 0.18120 0.07068
# Poissons Ratio (z) = 0.36695 0.06746
#
# Static dielectric constant tensor:
#      x y z
#    x 1.717180 0.000000 -0.008650 
#    y 0.000000 1.733500 0.000000 
#    z -0.008650 0.000000 1.664290 
# 
# From -- ./inp_files/333004.got.cif
#   From: 2010.05.17/outbox.cif.g08.bks.cpg/sg12_167_cif.got.tgz:333004.got - 2010.06.03 13:09:07.
