data_PCOD9213328
_publ_section_title
;
Structure prediction by ZEFSAII (Michael W. Deem and Ramdas Pophale) SiO2 
 PCOD9213328
Probable space group: C 2/M
;
_chemical_formula_sum "Si O2"
_cell_formula_units_Z 56
_cell_length_a 20.477313
_cell_length_b 8.750093
_cell_length_c 24.075904
_cell_angle_alpha 90.000000
_cell_angle_beta 135.049200
_cell_angle_gamma 90.000000
_cell_volume 3047.754581
_symmetry_space_group_name_H-M "C 2/M"
_symmetry_group_IT_number 12
_symmetry_cell_setting 'monoclinic'
loop_
_space_group_symop_operation_xyz
x,y,z
-x,y,-z
-x,-y,-z
x,-y,z
1/2+x,1/2+y,z
1/2-x,1/2+y,-z
1/2-x,1/2-y,-z
1/2+x,1/2-y,z
loop_
_atom_site_type_symbol
_atom_site_label
_atom_site_fract_x
_atom_site_fract_y
_atom_site_fract_z
Si Si1 0.053220 0.315986 0.320515
Si Si2 0.040569 0.316768 0.921644
Si Si3 0.164604 0.817649 0.200790
Si Si4 0.125128 0.685968 0.855781
Si Si5 0.268971 0.816518 0.648615
Si Si6 0.812646 0.184269 0.911491
Si Si7 0.337905 0.316939 0.519757
O O1 0.054407 0.500000 0.325633
O O2 0.136992 0.274392 0.328678
O O3 0.075429 0.246944 0.394126
O O4 0.956991 0.267154 0.235304
O O5 0.036908 0.500000 0.920303
O O6 0.097657 0.266354 0.901246
O O7 0.937434 0.253328 0.855010
O O8 0.094736 0.255374 0.007593
O O9 0.226453 0.758429 0.288646
O O10 0.200139 0.776361 0.160777
O O11 0.157539 0.000000 0.199646
O O12 0.126021 0.500000 0.856051
O O13 0.224597 0.737703 0.894249
O O14 0.183205 0.774787 0.556859
O O15 0.270245 0.000000 0.655423
O O16 0.819304 0.000000 0.919503
O O17 0.336370 0.500000 0.522448
O O18 0.250000 0.250000 0.500000
#
# Coordination Sequence:
#
# PCOD9213328 Si02
#       7
#     8   8   8   8   8   8   8
#     4   9  16  30  51  75 101 131 166 207 254 299
#     4  11  21  36  57  77  99 132 173 214 257 305
#     4  11  22  34  52  77 105 135 170 212 255 301
#     4   9  18  35  56  75 102 136 170 210 256 302
#     4   9  17  31  50  73 103 134 168 207 252 300
#     4  10  22  38  53  74 104 136 170 212 258 302
#     4   9  17  28  45  73 105 133 163 206 253 297
#
# _framework density 18.374184
#
# number of rings (size 3 to 8) (size 9 to 14) (size 15 to 20)
#    0.000    2.286    1.429    3.000    0.000    5.714 
#    0.000    1.429    0.000    0.857    0.000    6.000 
#    0.000    0.000    0.000    0.000    0.000    0.000 
#
# Total GULP energy -156188.391264 kJ/mol
# GULP energy per Si atom -5578.156831 kJ/mol
# Density = 1.833236 g / cm^3
# Si number density = 18.374184 Si / 1000 Ang^3
#
#
#
# Elastic Constant Matrix: (Units=GPa)
#
#
# Indices 1 2 3 4 5 6 
#
# 1 36.1726 8.9540 -5.2058 0.0000 -13.7347 0.0000
# 2 8.9540 18.9927 23.5031 0.0000 -10.5800 0.0000
# 3 -5.2058 23.5031 110.9036 0.0000 -17.8672 0.0000
# 4 0.0000 0.0000 0.0000 32.7004 0.0000 -3.0210
# 5 -13.7347 -10.5800 -17.8672 0.0000 21.1269 0.0000
# 6 0.0000 0.0000 0.0000 -3.0210 0.0000 15.9584
#
#
#
# Elastic Compliance Matrix: (Units=1/GPa)
#
#
# Indices 1 2 3 4 5 6 
#
# 1 0.044600 -0.017991 0.010565 0.000000 0.028921 0.000000
# 2 -0.017991 0.094344 -0.017494 0.000000 0.020755 0.000000
# 3 0.010565 -0.017494 0.014953 0.000000 0.010753 0.000000
# 4 0.000000 0.000000 0.000000 0.031125 0.000000 0.005892
# 5 0.028921 0.020755 0.010753 0.000000 0.085622 0.000000
# 6 0.000000 0.000000 0.000000 0.005892 0.000000 0.063778
#
#
# Mechanical properties :
#
#
# Convention : Reuss Voigt Hill
#
# Bulk Modulus (GPa) = 9.61007 24.50794 17.05901
# Shear Modulus (GPa) = 11.93468 23.21166 17.57317
#
# Velocity S-wave (km/s) = 2.55136 3.55812 3.09594
# Velocity P-wave (km/s) = 3.73106 5.49977 4.69938
#
# Compressibility (1/GPa) = 0.10405748
#
# Stress axis : x y z
#
# Youngs Moduli (GPa) = 22.42143 10.59953 66.87765
#
# Poissons Ratio (x) = 0.19069 -0.70659
# Poissons Ratio (y) = 0.40338 1.16998
# Poissons Ratio (z) = -0.23689 0.18543
#
# Static dielectric constant tensor:
#      x y z
#    x 1.621280 0.000000 -0.016040 
#    y 0.000000 1.618520 0.000000 
#    z -0.016040 0.000000 1.649870 
# 
# From -- ./inp_files/320200.got.cif
#   From: 2010.05.17/outbox.cif.g08.bks.cpg/sg12_161_cif.got.tgz:320200.got - 2010.06.03 13:09:07.
