data_PCOD9213944
_publ_section_title
;
Structure prediction by ZEFSAII (Michael W. Deem and Ramdas Pophale) SiO2 
 PCOD9213944
Probable space group: C 2/M
;
_chemical_formula_sum "Si O2"
_cell_formula_units_Z 44
_cell_length_a 8.079841
_cell_length_b 31.290993
_cell_length_c 8.453147
_cell_angle_alpha 90.000000
_cell_angle_beta 88.364901
_cell_angle_gamma 90.000000
_cell_volume 2136.307231
_symmetry_space_group_name_H-M "C 2/M"
_symmetry_group_IT_number 12
_symmetry_cell_setting 'monoclinic'
loop_
_space_group_symop_operation_xyz
x,y,z
-x,y,-z
-x,-y,-z
x,-y,z
1/2+x,1/2+y,z
1/2-x,1/2+y,-z
1/2-x,1/2-y,-z
1/2+x,1/2-y,z
loop_
_atom_site_type_symbol
_atom_site_label
_atom_site_fract_x
_atom_site_fract_y
_atom_site_fract_z
Si Si1 0.000000 0.391965 0.000000
Si Si2 0.574186 0.158344 0.676649
Si Si3 0.244742 0.241743 0.313682
Si Si4 0.445787 0.687885 0.182664
Si Si5 0.584490 0.607748 0.335605
Si Si6 0.182134 0.049687 0.069480
O O1 0.000664 0.365071 0.165193
O O2 0.832953 0.420825 0.004851
O O3 0.500000 0.157026 0.500000
O O4 0.611925 0.207014 0.723850
O O5 0.752259 0.136075 0.647968
O O6 0.250000 0.250000 0.500000
O O7 0.277999 0.286126 0.221493
O O8 0.079485 0.216574 0.272504
O O9 0.459985 0.639416 0.243515
O O10 0.500000 0.688057 0.000000
O O11 0.500000 0.596936 0.500000
O O12 0.646341 0.565645 0.246862
O O13 0.225627 0.000000 0.053377
O O14 0.000000 0.056472 0.000000
#
# Coordination Sequence:
#
# PCOD9213944 Si02
#       6
#     4   8   8   8   8   8
#     4  10  23  42  68  96 134 164 216 268 323 386
#     4  10  22  39  61  91 124 172 213 263 319 377
#     4  11  22  39  56  83 121 165 208 258 312 365
#     4  11  22  37  56  85 117 158 205 253 303 368
#     4  10  22  39  60  89 123 160 207 258 318 382
#     4  10  22  42  68  96 125 165 207 259 332 393
#
# _framework density 20.59629
#
# number of rings (size 3 to 8) (size 9 to 14) (size 15 to 20)
#    0.000    1.636    0.000    5.182    3.818    0.364 
#   13.091    0.000    0.000    2.727    0.000    0.000 
#    0.000    0.000    0.000    0.000    0.000    0.000 
#
# Total GULP energy -122790.479761 kJ/mol
# GULP energy per Si atom -5581.385444 kJ/mol
# Density = 2.054941 g / cm^3
# Si number density = 20.596290 Si / 1000 Ang^3
#
#
#
# Elastic Constant Matrix: (Units=GPa)
#
#
# Indices 1 2 3 4 5 6 
#
# 1 66.5418 39.7906 18.8419 0.0000 -12.6960 0.0000
# 2 39.7906 88.5319 23.3620 0.0000 -7.5805 0.0000
# 3 18.8419 23.3620 81.0527 0.0000 -24.3149 0.0000
# 4 0.0000 0.0000 0.0000 0.5562 0.0000 1.2171
# 5 -12.6960 -7.5805 -24.3149 0.0000 38.5779 0.0000
# 6 0.0000 0.0000 0.0000 1.2171 0.0000 16.9788
#
#
#
# Elastic Compliance Matrix: (Units=1/GPa)
#
#
# Indices 1 2 3 4 5 6 
#
# 1 0.021622 -0.009050 -0.001007 0.000000 0.004703 0.000000
# 2 -0.009050 0.016014 -0.003036 0.000000 -0.001745 0.000000
# 3 -0.001007 -0.003036 0.016239 0.000000 0.009307 0.000000
# 4 0.000000 0.000000 0.000000 2.132472 0.000000 -0.152867
# 5 0.004703 -0.001745 0.009307 0.000000 0.032992 0.000000
# 6 0.000000 0.000000 0.000000 -0.152867 0.000000 0.069856
#
#
# Mechanical properties :
#
#
# Convention : Reuss Voigt Hill
#
# Bulk Modulus (GPa) = 36.11344 44.45726 40.28535
# Shear Modulus (GPa) = 2.15090 21.49803 11.82447
#
# Velocity S-wave (km/s) = 1.02303 3.23427 2.39865
# Velocity P-wave (km/s) = 4.35516 5.96483 5.22239
#
# Compressibility (1/GPa) = 0.02769052
#
# Stress axis : x y z
#
# Youngs Moduli (GPa) = 46.24905 62.44413 61.58118
#
# Poissons Ratio (x) = 0.56509 0.06202
# Poissons Ratio (y) = 0.41853 0.18693
# Poissons Ratio (z) = 0.04658 0.18955
#
# Static dielectric constant tensor:
#      x y z
#    x 1.830160 0.000000 0.031540 
#    y 0.000000 1.721360 0.000000 
#    z 0.031540 0.000000 1.737000 
# 
# From -- ./inp_files/41606.got.cif
#   From: 2010.05.17/outbox.cif.g08.bks.cpg/sg12_21_cif.got.tgz:41606.got - 2010.06.03 13:09:07.
