data_PCOD9213887
_publ_section_title
;
Structure prediction by ZEFSAII (Michael W. Deem and Ramdas Pophale) SiO2 
 PCOD9213887
Probable space group: C 2/M
;
_chemical_formula_sum "Si O2"
_cell_formula_units_Z 42
_cell_length_a 9.105993
_cell_length_b 26.005485
_cell_length_c 9.289769
_cell_angle_alpha 90.000000
_cell_angle_beta 60.046804
_cell_angle_gamma 90.000000
_cell_volume 1906.041924
_symmetry_space_group_name_H-M "C 2/M"
_symmetry_group_IT_number 12
_symmetry_cell_setting 'monoclinic'
loop_
_space_group_symop_operation_xyz
x,y,z
-x,y,-z
-x,-y,-z
x,-y,z
1/2+x,1/2+y,z
1/2-x,1/2+y,-z
1/2-x,1/2-y,-z
1/2+x,1/2-y,z
loop_
_atom_site_type_symbol
_atom_site_label
_atom_site_fract_x
_atom_site_fract_y
_atom_site_fract_z
Si Si1 0.500000 0.500000 0.500000
Si Si2 0.160929 0.556560 0.725318
Si Si3 0.838762 0.288079 0.273401
Si Si4 0.211682 0.137680 0.113049
Si Si5 0.654238 0.673259 0.634849
Si Si6 0.896239 0.365034 0.736961
O O1 0.346663 0.544137 0.567707
O O2 0.091589 0.500000 0.794194
O O3 0.199840 0.591025 0.845447
O O4 0.025926 0.588144 0.698301
O O5 0.800290 0.311399 0.136637
O O6 0.692267 0.309717 0.452815
O O7 0.850186 0.227308 0.276849
O O8 0.003579 0.313804 0.263494
O O9 0.016731 0.142954 0.251326
O O10 0.247038 0.130518 0.928467
O O11 0.810913 0.642036 0.624950
#
# Coordination Sequence:
#
# PCOD9213887 Si02
#       6
#     2   8   8   8   8   8
#     4   8  20  40  70  94 108 164 206 258 310 384
#     4   9  21  40  66  89 117 154 210 248 318 378
#     4  10  22  39  59  86 123 175 212 248 292 362
#     4  11  23  37  63  89 124 165 206 246 311 373
#     4  11  23  38  59  90 129 163 209 255 302 352
#     4  11  23  38  60  95 124 160 200 263 311 355
#
# _framework density 22.035194000000001
#
# number of rings (size 3 to 8) (size 9 to 14) (size 15 to 20)
#    0.571    1.143    0.000    5.143    5.333    9.143 
#    0.000    0.952    0.000   12.571    0.000    0.000 
#    0.000    0.000    0.000    0.000    0.000    0.000 
#
# Total GULP energy -117086.036197 kJ/mol
# GULP energy per Si atom -5575.525533 kJ/mol
# Density = 2.198504 g / cm^3
# Si number density = 22.035194 Si / 1000 Ang^3
#
#
#
# Elastic Constant Matrix: (Units=GPa)
#
#
# Indices 1 2 3 4 5 6 
#
# 1 97.8378 29.8552 12.1957 0.0000 -16.7362 0.0000
# 2 29.8552 119.7375 30.1377 0.0000 -0.2975 0.0000
# 3 12.1957 30.1377 61.8239 0.0000 -4.9501 0.0000
# 4 0.0000 0.0000 0.0000 7.3015 0.0000 -14.5561
# 5 -16.7362 -0.2975 -4.9501 0.0000 34.8220 0.0000
# 6 0.0000 0.0000 0.0000 -14.5561 0.0000 16.0078
#
#
#
# Elastic Compliance Matrix: (Units=1/GPa)
#
#
# Indices 1 2 3 4 5 6 
#
# 1 0.012148 -0.002881 -0.000533 0.000000 0.005738 0.000000
# 2 -0.002881 0.010215 -0.004567 0.000000 -0.001946 0.000000
# 3 -0.000533 -0.004567 0.018696 0.000000 0.002363 0.000000
# 4 0.000000 0.000000 0.000000 -0.168506 0.000000 -0.153224
# 5 0.005738 -0.001946 0.002363 0.000000 0.031795 0.000000
# 6 0.000000 0.000000 0.000000 -0.153224 0.000000 -0.076859
#
#
# Mechanical properties :
#
#
# Convention : Reuss Voigt Hill
#
# Bulk Modulus (GPa) = 39.84456 47.08625 43.46541
# Shear Modulus (GPa) = -33.74152 25.44030 -4.15061
#
# Velocity S-wave (km/s) = -3.91737 3.40152 -1.37394
# Velocity P-wave (km/s) = 1.52957 6.06978 4.15347
#
# Compressibility (1/GPa) = 0.02509753
#
# Stress axis : x y z
#
# Youngs Moduli (GPa) = 82.31795 97.90002 53.48880
#
# Poissons Ratio (x) = 0.28201 0.02849
# Poissons Ratio (y) = 0.23713 0.24428
# Poissons Ratio (z) = 0.04385 0.44710
#
# Static dielectric constant tensor:
#      x y z
#    x 1.791740 0.000000 -0.053100 
#    y 0.000000 1.779290 0.000000 
#    z -0.053100 0.000000 1.886800 
# 
# From -- ./inp_files/42080.got.cif
#   From: 2010.05.17/outbox.cif.g08.bks.cpg/sg12_22_cif.got.tgz:42080.got - 2010.06.03 13:09:07.
