data_PCOD9213529
_publ_section_title
;
Structure prediction by ZEFSAII (Michael W. Deem and Ramdas Pophale) SiO2 
 PCOD9213529
Probable space group: C 2/M
;
_chemical_formula_sum "Si O2"
_cell_formula_units_Z 56
_cell_length_a 26.495829
_cell_length_b 14.221296
_cell_length_c 8.657518
_cell_angle_alpha 90.000000
_cell_angle_beta 63.986771
_cell_angle_gamma 90.000000
_cell_volume 2931.712353
_symmetry_space_group_name_H-M "C 2/M"
_symmetry_group_IT_number 12
_symmetry_cell_setting 'monoclinic'
loop_
_space_group_symop_operation_xyz
x,y,z
-x,y,-z
-x,-y,-z
x,-y,z
1/2+x,1/2+y,z
1/2-x,1/2+y,-z
1/2-x,1/2-y,-z
1/2+x,1/2-y,z
loop_
_atom_site_type_symbol
_atom_site_label
_atom_site_fract_x
_atom_site_fract_y
_atom_site_fract_z
Si Si1 0.976912 0.889275 0.359077
Si Si2 0.043243 0.739991 0.067007
Si Si3 0.738128 0.259275 0.195609
Si Si4 0.941205 0.611090 0.661924
Si Si5 0.841161 0.611603 0.554857
Si Si6 0.656287 0.754188 0.735638
Si Si7 0.343401 0.388974 0.522766
O O1 0.910149 0.870858 0.448401
O O2 0.000000 0.870875 0.500000
O O3 0.010049 0.825445 0.193035
O O4 0.985179 0.000000 0.314042
O O5 0.061265 0.669534 0.178212
O O6 0.099254 0.769046 0.901697
O O7 0.000000 0.697191 0.000000
O O8 0.712457 0.163123 0.299345
O O9 0.794819 0.281395 0.212327
O O10 0.691788 0.338797 0.295457
O O11 0.750000 0.250000 0.000000
O O12 0.939769 0.500000 0.698422
O O13 0.891799 0.630894 0.606763
O O14 0.000000 0.632732 0.500000
O O15 0.834808 0.500000 0.545790
O O16 0.853152 0.662877 0.376391
O O17 0.674725 0.664578 0.608695
O O18 0.333948 0.500000 0.531327
#
# Coordination Sequence:
#
# PCOD9213529 Si02
#       7
#     8   8   8   8   8   8   8
#     4  10  23  40  63  94 125 164 210 249 302 374
#     4  12  23  37  63  92 130 167 196 253 317 357
#     4  11  25  41  62  94 125 156 208 256 307 372
#     4  10  22  38  60  88 118 160 209 251 298 364
#     4  10  22  43  65  86 121 165 207 254 308 362
#     4  11  24  39  61  96 123 160 207 254 305 368
#     4  10  22  43  65  89 125 165 204 252 306 362
#
# _framework density 19.101464
#
# number of rings (size 3 to 8) (size 9 to 14) (size 15 to 20)
#    0.000    1.429    1.429    3.857    8.000    4.571 
#    0.000    0.000    0.000    0.000    0.000    0.000 
#    0.000    0.000    0.000    0.000    0.000    0.000 
#
# Total GULP energy -156506.109182 kJ/mol
# GULP energy per Si atom -5589.503899 kJ/mol
# Density = 1.905799 g / cm^3
# Si number density = 19.101464 Si / 1000 Ang^3
#
#
#
# Elastic Constant Matrix: (Units=GPa)
#
#
# Indices 1 2 3 4 5 6 
#
# 1 98.9589 42.7486 49.9469 0.0000 9.2717 0.0000
# 2 42.7486 115.4462 61.9707 0.0000 5.7515 0.0000
# 3 49.9469 61.9707 151.1131 0.0000 3.3870 0.0000
# 4 0.0000 0.0000 0.0000 3.2467 0.0000 -1.8203
# 5 9.2717 5.7515 3.3870 0.0000 34.1696 0.0000
# 6 0.0000 0.0000 0.0000 -1.8203 0.0000 27.5806
#
#
#
# Elastic Compliance Matrix: (Units=1/GPa)
#
#
# Indices 1 2 3 4 5 6 
#
# 1 0.013251 -0.003143 -0.003029 0.000000 -0.002766 0.000000
# 2 -0.003143 0.011922 -0.003833 0.000000 -0.000774 0.000000
# 3 -0.003029 -0.003833 0.009178 0.000000 0.000557 0.000000
# 4 0.000000 0.000000 0.000000 0.319842 0.000000 0.021109
# 5 -0.002766 -0.000774 0.000557 0.000000 0.030091 0.000000
# 6 0.000000 0.000000 0.000000 0.021109 0.000000 0.037650
#
#
# Mechanical properties :
#
#
# Convention : Reuss Voigt Hill
#
# Bulk Modulus (GPa) = 69.72869 74.98338 72.35604
# Shear Modulus (GPa) = 11.19258 27.05620 19.12439
#
# Velocity S-wave (km/s) = 2.42327 3.76765 3.16761
# Velocity P-wave (km/s) = 6.66433 7.63331 7.16522
#
# Compressibility (1/GPa) = 0.01434130
#
# Stress axis : x y z
#
# Youngs Moduli (GPa) = 75.46705 83.87930 108.95577
#
# Poissons Ratio (x) = 0.26363 0.33001
# Poissons Ratio (y) = 0.23719 0.41762
# Poissons Ratio (z) = 0.22858 0.32150
#
# Static dielectric constant tensor:
#      x y z
#    x 1.680060 0.000000 0.000530 
#    y 0.000000 1.652720 0.000000 
#    z 0.000530 0.000000 1.646630 
# 
# From -- ./inp_files/96784.got.cif
#   From: 2010.05.17/outbox.cif.g08.bks.cpg/sg12_49_cif.got.tgz:96784.got - 2010.06.03 13:09:07.
