data_PCOD9213732
_publ_section_title
;
Structure prediction by ZEFSAII (Michael W. Deem and Ramdas Pophale) SiO2 
 PCOD9213732
Probable space group: C 2/M
;
_chemical_formula_sum "Si O2"
_cell_formula_units_Z 42
_cell_length_a 14.462608
_cell_length_b 17.777504
_cell_length_c 9.139397
_cell_angle_alpha 90.000000
_cell_angle_beta 50.339087
_cell_angle_gamma 90.000000
_cell_volume 1808.975457
_symmetry_space_group_name_H-M "C 2/M"
_symmetry_group_IT_number 12
_symmetry_cell_setting 'monoclinic'
loop_
_space_group_symop_operation_xyz
x,y,z
-x,y,-z
-x,-y,-z
x,-y,z
1/2+x,1/2+y,z
1/2-x,1/2+y,-z
1/2-x,1/2-y,-z
1/2+x,1/2-y,z
loop_
_atom_site_type_symbol
_atom_site_label
_atom_site_fract_x
_atom_site_fract_y
_atom_site_fract_z
Si Si1 0.318003 0.198598 0.752902
Si Si2 0.000000 0.000000 0.000000
Si Si3 0.429636 0.382104 0.317855
Si Si4 0.068792 0.704071 0.666323
Si Si5 0.316457 0.918278 0.264074
Si Si6 0.192884 0.867557 0.128970
O O1 0.441632 0.187496 0.718067
O O2 0.337800 0.189569 0.561323
O O3 0.290639 0.285830 0.812336
O O4 0.223373 0.145199 0.928066
O O5 0.941034 0.065775 0.165961
O O6 0.427237 0.291713 0.294129
O O7 0.313546 0.404224 0.529114
O O8 0.555928 0.393569 0.276997
O O9 0.099132 0.648242 0.765709
O O10 0.286859 0.916729 0.122253
O O11 0.363356 0.000000 0.260792
#
# Coordination Sequence:
#
# PCOD9213732 Si02
#       6
#     8   2   8   8   8   8
#     4   9  20  41  67  96 124 176 237 279 330 401
#     4  12  28  40  66 108 136 180 214 292 340 410
#     4  11  24  42  65  99 142 173 225 284 346 405
#     4  10  22  43  69  96 134 181 229 280 338 404
#     4  12  25  41  66  98 140 184 224 282 342 407
#     4  10  22  38  66  96 132 175 222 285 343 401
#
# _framework density 23.217562999999998
#
# number of rings (size 3 to 8) (size 9 to 14) (size 15 to 20)
#    0.000    1.524    2.857    1.143    4.000    4.571 
#    0.000    4.762    0.000    0.000    0.000    0.000 
#    0.000    0.000    0.000    0.000    0.000    0.000 
#
# Total GULP energy -117221.107779 kJ/mol
# GULP energy per Si atom -5581.957513 kJ/mol
# Density = 2.316472 g / cm^3
# Si number density = 23.217563 Si / 1000 Ang^3
#
#
#
# Elastic Constant Matrix: (Units=GPa)
#
#
# Indices 1 2 3 4 5 6 
#
# 1 85.7958 39.8960 1.5857 0.0000 9.5797 0.0000
# 2 39.8960 109.3038 25.8150 0.0000 22.9905 0.0000
# 3 1.5857 25.8150 96.4702 0.0000 5.2156 0.0000
# 4 0.0000 0.0000 0.0000 26.6649 0.0000 0.3605
# 5 9.5797 22.9905 5.2156 0.0000 19.8299 0.0000
# 6 0.0000 0.0000 0.0000 0.3605 0.0000 -0.8085
#
#
#
# Elastic Compliance Matrix: (Units=1/GPa)
#
#
# Indices 1 2 3 4 5 6 
#
# 1 0.014192 -0.005237 0.001228 0.000000 -0.001107 0.000000
# 2 -0.005237 0.014665 -0.003100 0.000000 -0.013657 0.000000
# 3 0.001228 -0.003100 0.011172 0.000000 0.000062 0.000000
# 4 0.000000 0.000000 0.000000 0.037278 0.000000 0.016623
# 5 -0.001107 -0.013657 0.000062 0.000000 0.066781 0.000000
# 6 0.000000 0.000000 0.000000 0.016623 0.000000 -1.229512
#
#
# Mechanical properties :
#
#
# Convention : Reuss Voigt Hill
#
# Bulk Modulus (GPa) = 38.74364 47.35147 43.04756
# Shear Modulus (GPa) = -4.70543 24.08881 9.69169
#
# Velocity S-wave (km/s) = -1.42516 3.22456 2.04533
# Velocity P-wave (km/s) = 3.74371 5.85685 4.91518
#
# Compressibility (1/GPa) = 0.02581069
#
# Stress axis : x y z
#
# Youngs Moduli (GPa) = 70.46291 68.18903 89.51068
#
# Poissons Ratio (x) = 0.35712 -0.10992
# Poissons Ratio (y) = 0.36903 0.27747
# Poissons Ratio (z) = -0.08653 0.21138
#
# Static dielectric constant tensor:
#      x y z
#    x 1.887440 0.000000 -0.015530 
#    y 0.000000 1.855300 0.000000 
#    z -0.015530 0.000000 1.898850 
# 
# From -- ./inp_files/61589.got.cif
#   From: 2010.05.17/outbox.cif.g08.bks.cpg/sg12_31_cif.got.tgz:61589.got - 2010.06.03 13:09:07.
