data_PCOD9213547
_publ_section_title
;
Structure prediction by ZEFSAII (Michael W. Deem and Ramdas Pophale) SiO2 
 PCOD9213547
Probable space group: C 2/M
;
_chemical_formula_sum "Si O2"
_cell_formula_units_Z 56
_cell_length_a 9.141996
_cell_length_b 14.177079
_cell_length_c 24.524210
_cell_angle_alpha 90.000000
_cell_angle_beta 58.368886
_cell_angle_gamma 90.000000
_cell_volume 2706.312951
_symmetry_space_group_name_H-M "C 2/M"
_symmetry_group_IT_number 12
_symmetry_cell_setting 'monoclinic'
loop_
_space_group_symop_operation_xyz
x,y,z
-x,y,-z
-x,-y,-z
x,-y,z
1/2+x,1/2+y,z
1/2-x,1/2+y,-z
1/2-x,1/2-y,-z
1/2+x,1/2-y,z
loop_
_atom_site_type_symbol
_atom_site_label
_atom_site_fract_x
_atom_site_fract_y
_atom_site_fract_z
Si Si1 0.446721 0.721596 0.454700
Si Si2 0.316628 0.213122 0.045546
Si Si3 0.057459 0.792138 0.872181
Si Si4 0.984935 0.889848 0.669777
Si Si5 0.136511 0.611435 0.795187
Si Si6 0.867326 0.388440 0.751280
Si Si7 0.869026 0.609443 0.629940
O O1 0.500000 0.670509 0.500000
O O2 0.250000 0.750000 0.500000
O O3 0.491037 0.663147 0.392020
O O4 0.551471 0.818952 0.428240
O O5 0.373030 0.292711 0.078977
O O6 0.135217 0.169501 0.100834
O O7 0.500000 0.161102 0.000000
O O8 0.250000 0.250000 0.000000
O O9 0.065621 0.680936 0.855173
O O10 0.194571 0.841282 0.806613
O O11 0.163645 0.882942 0.666884
O O12 0.827237 0.859418 0.738765
O O13 0.951509 0.000000 0.664093
O O14 0.133689 0.500000 0.810076
O O15 0.015702 0.626504 0.766308
O O16 0.834783 0.500000 0.753650
O O17 0.924321 0.359536 0.679737
O O18 0.916217 0.500000 0.611095
#
# Coordination Sequence:
#
# PCOD9213547 Si02
#       7
#     8   8   8   8   8   8   8
#     4  12  25  40  61  87 113 152 203 244 280 349
#     4   9  20  36  58  86 119 160 203 232 282 342
#     4  11  19  36  64  86 114 161 193 242 292 339
#     4  10  23  42  60  84 120 153 187 243 302 347
#     4  10  22  38  60  91 121 148 191 246 297 350
#     4  10  22  38  60  91 119 150 193 240 297 357
#     4  10  23  42  61  83 119 156 188 239 301 352
#
# _framework density 20.692360999999998
#
# number of rings (size 3 to 8) (size 9 to 14) (size 15 to 20)
#    0.000    1.714    2.857    0.857    4.000    3.429 
#    0.000    0.000    0.000   17.143    0.000    0.000 
#    0.000    0.000    0.000    0.000    0.000    0.000 
#
# Total GULP energy -156199.669551 kJ/mol
# GULP energy per Si atom -5578.559627 kJ/mol
# Density = 2.064526 g / cm^3
# Si number density = 20.692361 Si / 1000 Ang^3
#
#
#
# Elastic Constant Matrix: (Units=GPa)
#
#
# Indices 1 2 3 4 5 6 
#
# 1 76.4928 14.1338 18.4508 0.0000 -11.1916 0.0000
# 2 14.1338 39.8864 22.3247 0.0000 -1.4518 0.0000
# 3 18.4508 22.3247 75.3724 0.0000 -3.1332 0.0000
# 4 0.0000 0.0000 0.0000 6.4468 0.0000 -3.4121
# 5 -11.1916 -1.4518 -3.1332 0.0000 52.2912 0.0000
# 6 0.0000 0.0000 0.0000 -3.4121 0.0000 19.2859
#
#
#
# Elastic Compliance Matrix: (Units=1/GPa)
#
#
# Indices 1 2 3 4 5 6 
#
# 1 0.014774 -0.003803 -0.002369 0.000000 0.002914 0.000000
# 2 -0.003803 0.031037 -0.008281 0.000000 -0.000448 0.000000
# 3 -0.002369 -0.008281 0.016310 0.000000 0.000240 0.000000
# 4 0.000000 0.000000 0.000000 0.171143 0.000000 0.030279
# 5 0.002914 -0.000448 0.000240 0.000000 0.019749 0.000000
# 6 0.000000 0.000000 0.000000 0.030279 0.000000 0.057208
#
#
# Mechanical properties :
#
#
# Convention : Reuss Voigt Hill
#
# Bulk Modulus (GPa) = 30.10631 33.50778 31.80704
# Shear Modulus (GPa) = 14.27761 24.72759 19.50260
#
# Velocity S-wave (km/s) = 2.62962 3.46064 3.07335
# Velocity P-wave (km/s) = 4.87862 5.67420 5.29138
#
# Compressibility (1/GPa) = 0.03321563
#
# Stress axis : x y z
#
# Youngs Moduli (GPa) = 67.68808 32.21936 61.31206
#
# Poissons Ratio (x) = 0.12253 0.14524
# Poissons Ratio (y) = 0.25742 0.50770
# Poissons Ratio (z) = 0.16035 0.26680
#
# Static dielectric constant tensor:
#      x y z
#    x 1.760400 0.000000 -0.001300 
#    y 0.000000 1.739690 0.000000 
#    z -0.001300 0.000000 1.757400 
# 
# From -- ./inp_files/332811.got.cif
#   From: 2010.05.17/outbox.cif.g08.bks.cpg/sg12_167_cif.got.tgz:332811.got - 2010.06.03 13:09:07.
