data_PCOD9213275
_publ_section_title
;
Structure prediction by ZEFSAII (Michael W. Deem and Ramdas Pophale) SiO2 
 PCOD9213275
Probable space group: C 2/M
;
_chemical_formula_sum "Si O2"
_cell_formula_units_Z 58
_cell_length_a 16.806437
_cell_length_b 9.258074
_cell_length_c 20.626364
_cell_angle_alpha 90.000000
_cell_angle_beta 122.596283
_cell_angle_gamma 90.000000
_cell_volume 2703.848566
_symmetry_space_group_name_H-M "C 2/M"
_symmetry_group_IT_number 12
_symmetry_cell_setting 'monoclinic'
loop_
_space_group_symop_operation_xyz
x,y,z
-x,y,-z
-x,-y,-z
x,-y,z
1/2+x,1/2+y,z
1/2-x,1/2+y,-z
1/2-x,1/2-y,-z
1/2+x,1/2-y,z
loop_
_atom_site_type_symbol
_atom_site_label
_atom_site_fract_x
_atom_site_fract_y
_atom_site_fract_z
Si Si1 0.624673 0.662331 0.894995
Si Si2 0.112052 0.328221 0.537861
Si Si3 0.339424 0.225112 0.948552
Si Si4 0.000000 0.500000 0.000000
Si Si5 0.224715 0.162605 0.209686
Si Si6 0.718968 0.826689 0.329708
Si Si7 0.117392 0.829191 0.405145
Si Si8 0.087297 0.829494 0.741531
O O1 0.593700 0.500000 0.892930
O O2 0.734137 0.665963 0.918829
O O3 0.567333 0.716704 0.807563
O O4 0.622331 0.735862 0.963307
O O5 0.133750 0.500000 0.550567
O O6 0.174424 0.235410 0.615209
O O7 0.136781 0.260041 0.478761
O O8 0.000000 0.311567 0.500000
O O9 0.321532 0.335539 0.882030
O O10 0.417475 0.121100 0.955215
O O11 0.180341 0.267580 0.244175
O O12 0.329131 0.227277 0.244735
O O13 0.226466 0.000000 0.235876
O O14 0.665608 0.748950 0.365432
O O15 0.716425 0.000000 0.332284
O O16 0.005610 0.821642 0.341908
O O17 0.143382 0.000000 0.421847
O O18 0.117195 0.000000 0.756003
#
# Coordination Sequence:
#
# PCOD9213275 Si02
#       8
#     8   8   8   2   8   8   8   8
#     4   9  17  38  63  89 121 168 218 264 320 397
#     4  11  24  43  68  96 128 167 214 264 316 386
#     4  10  22  37  62  91 127 168 214 270 330 385
#     4  12  24  40  58  96 128 166 212 276 330 392
#     4  11  23  41  64  92 127 172 216 265 322 390
#     4  12  26  42  64  92 128 173 215 265 328 386
#     4  11  23  41  64  95 133 169 210 268 323 385
#     4   9  20  38  65  95 126 164 216 269 320 380
#
# _framework density 21.450906
#
# number of rings (size 3 to 8) (size 9 to 14) (size 15 to 20)
#    0.000    1.517    0.690    4.138    1.931    5.517 
#    1.241    2.759    0.000    0.000    0.000    0.000 
#    0.000    0.000    0.000    0.000    0.000    0.000 
#
# Total GULP energy -161579.007973 kJ/mol
# GULP energy per Si atom -5571.689930 kJ/mol
# Density = 2.140208 g / cm^3
# Si number density = 21.450906 Si / 1000 Ang^3
#
#
#
# Elastic Constant Matrix: (Units=GPa)
#
#
# Indices 1 2 3 4 5 6 
#
# 1 49.5874 29.7412 -2.9640 0.0000 -5.9808 0.0000
# 2 29.7412 136.2803 20.8447 0.0000 -11.4524 0.0000
# 3 -2.9640 20.8447 80.6210 0.0000 -25.2555 0.0000
# 4 0.0000 0.0000 0.0000 23.7606 0.0000 12.1096
# 5 -5.9808 -11.4524 -25.2555 0.0000 31.5226 0.0000
# 6 0.0000 0.0000 0.0000 12.1096 0.0000 5.2526
#
#
#
# Elastic Compliance Matrix: (Units=1/GPa)
#
#
# Indices 1 2 3 4 5 6 
#
# 1 0.024420 -0.005466 0.004193 0.000000 0.006006 0.000000
# 2 -0.005466 0.008924 -0.002426 0.000000 0.000261 0.000000
# 3 0.004193 -0.002426 0.017567 0.000000 0.013989 0.000000
# 4 0.000000 0.000000 0.000000 -0.240514 0.000000 0.554497
# 5 0.006006 0.000261 0.013989 0.000000 0.044165 0.000000
# 6 0.000000 0.000000 0.000000 0.554497 0.000000 -1.087990
#
#
# Mechanical properties :
#
#
# Convention : Reuss Voigt Hill
#
# Bulk Modulus (GPa) = 22.98251 40.19251 31.58751
# Shear Modulus (GPa) = -4.12703 26.69826 11.28561
#
# Velocity S-wave (km/s) = -1.38857 3.53175 2.29621
# Velocity P-wave (km/s) = 2.85770 5.95052 4.66771
#
# Compressibility (1/GPa) = 0.04351134
#
# Stress axis : x y z
#
# Youngs Moduli (GPa) = 40.95058 112.06102 56.92400
#
# Poissons Ratio (x) = 0.61250 -0.23865
# Poissons Ratio (y) = 0.22383 0.13812
# Poissons Ratio (z) = -0.17169 0.27191
#
# Static dielectric constant tensor:
#      x y z
#    x 1.803650 0.000000 -0.027680 
#    y 0.000000 1.732670 0.000000 
#    z -0.027680 0.000000 1.870380 
# 
# From -- ./inp_files/314867.got.cif
#   From: 2010.05.17/outbox.cif.g08.bks.cpg/sg12_158_cif.got.tgz:314867.got - 2010.06.03 13:09:07.
