data_PCOD9213449
_publ_section_title
;
Structure prediction by ZEFSAII (Michael W. Deem and Ramdas Pophale) SiO2 
 PCOD9213449
Probable space group: C 2/M
;
_chemical_formula_sum "Si O2"
_cell_formula_units_Z 32
_cell_length_a 25.429076
_cell_length_b 11.195665
_cell_length_c 11.638230
_cell_angle_alpha 90.000000
_cell_angle_beta 23.232528
_cell_angle_gamma 90.000000
_cell_volume 1306.996451
_symmetry_space_group_name_H-M "C 2/M"
_symmetry_group_IT_number 12
_symmetry_cell_setting 'monoclinic'
loop_
_space_group_symop_operation_xyz
x,y,z
-x,y,-z
-x,-y,-z
x,-y,z
1/2+x,1/2+y,z
1/2-x,1/2+y,-z
1/2-x,1/2-y,-z
1/2+x,1/2-y,z
loop_
_atom_site_type_symbol
_atom_site_label
_atom_site_fract_x
_atom_site_fract_y
_atom_site_fract_z
Si Si1 0.860917 0.000000 0.347971
Si Si2 0.904488 0.232553 0.842850
Si Si3 0.170777 0.870669 0.231839
Si Si4 0.456729 0.259023 0.219394
Si Si5 0.885331 0.500000 0.327276
O O1 0.860732 0.875257 0.418491
O O2 0.748147 0.000000 0.478954
O O3 0.000000 0.000000 0.000000
O O4 0.833884 0.140248 0.897217
O O5 0.060725 0.224842 0.494404
O O6 0.916907 0.213387 0.953095
O O7 0.816444 0.347229 0.989213
O O8 0.120458 0.000000 0.367180
O O9 0.401621 0.126724 0.359799
O O10 0.500000 0.251550 0.000000
O O11 0.000000 0.500000 0.000000
#
# Coordination Sequence:
#
# PCOD9213449 Si02
#       5
#     4   8   8   8   4
#     4  10  22  38  58  86 128 168 210 260 317 386
#     4  10  22  41  67 100 127 176 227 275 336 405
#     4  10  23  44  70  94 136 176 228 279 343 400
#     4  10  23  41  66  97 133 174 219 270 336 403
#     4  10  22  40  60  88 128 172 216 260 317 396
#
# _framework density 24.483615
#
# number of rings (size 3 to 8) (size 9 to 14) (size 15 to 20)
#    0.000    2.000    0.000    2.250    5.250    8.000 
#    0.000   11.250    0.000    0.000    0.000    0.000 
#    0.000    0.000    0.000    0.000    0.000    0.000 
#
# Total GULP energy -89240.351857 kJ/mol
# GULP energy per Si atom -5577.521991 kJ/mol
# Density = 2.442789 g / cm^3
# Si number density = 24.483615 Si / 1000 Ang^3
#
#
#
# Elastic Constant Matrix: (Units=GPa)
#
#
# Indices 1 2 3 4 5 6 
#
# 1 165.9914 24.7828 31.3217 0.0000 -30.8391 0.0000
# 2 24.7828 169.1575 33.1131 0.0000 -6.4635 0.0000
# 3 31.3217 33.1131 117.3957 0.0000 -21.5882 0.0000
# 4 0.0000 0.0000 0.0000 21.3770 0.0000 -0.5755
# 5 -30.8391 -6.4635 -21.5882 0.0000 30.5677 0.0000
# 6 0.0000 0.0000 0.0000 -0.5755 0.0000 7.2944
#
#
#
# Elastic Compliance Matrix: (Units=1/GPa)
#
#
# Indices 1 2 3 4 5 6 
#
# 1 0.007549 -0.000737 -0.000499 0.000000 0.007108 0.000000
# 2 -0.000737 0.006329 -0.001700 0.000000 -0.000606 0.000000
# 3 -0.000499 -0.001700 0.010311 0.000000 0.006419 0.000000
# 4 0.000000 0.000000 0.000000 0.046879 0.000000 0.003698
# 5 0.007108 -0.000606 0.006419 0.000000 0.044290 0.000000
# 6 0.000000 0.000000 0.000000 0.003698 0.000000 0.137382
#
#
# Mechanical properties :
#
#
# Convention : Reuss Voigt Hill
#
# Bulk Modulus (GPa) = 54.59206 70.10888 62.35047
# Shear Modulus (GPa) = 18.88792 36.06963 27.47877
#
# Velocity S-wave (km/s) = 2.78051 3.84241 3.35376
# Velocity P-wave (km/s) = 5.71438 6.95577 6.36541
#
# Compressibility (1/GPa) = 0.01831768
#
# Stress axis : x y z
#
# Youngs Moduli (GPa) = 132.46532 157.99708 96.98041
#
# Poissons Ratio (x) = 0.11639 0.04842
# Poissons Ratio (y) = 0.09758 0.16487
# Poissons Ratio (z) = 0.06614 0.26860
#
# Static dielectric constant tensor:
#      x y z
#    x 2.024590 0.000000 0.079390 
#    y 0.000000 2.018980 0.000000 
#    z 0.079390 0.000000 1.932800 
# 
# From -- ./inp_files/245483.got.cif
#   From: 2010.05.17/outbox.cif.g08.bks.cpg/sg12_123_cif.got.tgz:245483.got - 2010.06.03 13:09:07.
