data_PCOD9213000
_publ_section_title
;
Structure prediction by ZEFSAII (Michael W. Deem and Ramdas Pophale) SiO2 
 PCOD9213000
Probable space group: C 2/M
;
_chemical_formula_sum "Si O2"
_cell_formula_units_Z 48
_cell_length_a 28.764745
_cell_length_b 8.711196
_cell_length_c 10.493989
_cell_angle_alpha 90.000000
_cell_angle_beta 90.002297
_cell_angle_gamma 90.000000
_cell_volume 2629.534771
_symmetry_space_group_name_H-M "C 2/M"
_symmetry_group_IT_number 12
_symmetry_cell_setting 'monoclinic'
loop_
_space_group_symop_operation_xyz
x,y,z
-x,y,-z
-x,-y,-z
x,-y,z
1/2+x,1/2+y,z
1/2-x,1/2+y,-z
1/2-x,1/2-y,-z
1/2+x,1/2-y,z
loop_
_atom_site_type_symbol
_atom_site_label
_atom_site_fract_x
_atom_site_fract_y
_atom_site_fract_z
Si Si1 0.053393 0.684812 0.851122
Si Si2 0.197835 0.683156 0.500107
Si Si3 0.644634 0.683978 0.743504
Si Si4 0.355373 0.683983 0.743290
Si Si5 0.446603 0.184814 0.851118
Si Si6 0.198437 0.184751 0.000120
O O1 0.057694 0.500000 0.843261
O O2 0.091691 0.762747 0.763121
O O3 0.999998 0.724804 0.819849
O O4 0.061289 0.727975 0.000003
O O5 0.200432 0.500000 0.500104
O O6 0.250000 0.750000 0.500000
O O7 0.170132 0.741225 0.623913
O O8 0.170072 0.741230 0.376396
O O9 0.646818 0.500000 0.732291
O O10 0.671299 0.732327 0.872862
O O11 0.353193 0.500000 0.732087
O O12 0.408307 0.737249 0.763103
O O13 0.328648 0.732349 0.872549
O O14 0.442300 0.000000 0.843258
O O15 0.200420 0.000000 0.000130
O O16 0.250000 0.250000 0.000000
#
# Coordination Sequence:
#
# PCOD9213000 Si02
#       6
#     8   8   8   8   8   8
#     4   9  18  34  58  89 123 159 198 241 294 353
#     4  12  26  44  63  86 117 160 202 245 299 357
#     4  11  22  39  60  88 120 156 199 245 297 354
#     4  11  22  39  60  88 120 156 199 245 297 354
#     4   9  18  34  58  89 123 159 198 241 294 353
#     4  10  22  36  55  84 115 147 190 241 293 346
#
# _framework density 18.254179000000001
#
# number of rings (size 3 to 8) (size 9 to 14) (size 15 to 20)
#    0.000    1.667    1.667    4.500    0.000    6.000 
#    0.000    2.500    0.000    5.000    0.000    0.000 
#    0.000    0.000    0.000    0.000    0.000    0.000 
#
# Total GULP energy -134103.700873 kJ/mol
# GULP energy per Si atom -5587.654203 kJ/mol
# Density = 1.821263 g / cm^3
# Si number density = 18.254179 Si / 1000 Ang^3
#
#
#
# Elastic Constant Matrix: (Units=GPa)
#
#
# Indices 1 2 3 4 5 6 
#
# 1 175.0541 64.3719 95.0405 0.0000 -0.1584 0.0000
# 2 64.3719 73.3207 62.3570 0.0000 -0.0801 0.0000
# 3 95.0405 62.3570 152.7697 0.0000 -0.2026 0.0000
# 4 0.0000 0.0000 0.0000 19.8816 0.0000 -0.0022
# 5 -0.1584 -0.0801 -0.2026 0.0000 30.6848 0.0000
# 6 0.0000 0.0000 0.0000 -0.0022 0.0000 39.1861
#
#
#
# Elastic Compliance Matrix: (Units=1/GPa)
#
#
# Indices 1 2 3 4 5 6 
#
# 1 0.009779 -0.005225 -0.003951 0.000000 0.000011 0.000000
# 2 -0.005225 0.023683 -0.006416 0.000000 -0.000008 0.000000
# 3 -0.003951 -0.006416 0.011623 0.000000 0.000040 0.000000
# 4 0.000000 0.000000 0.000000 0.050298 0.000000 0.000003
# 5 0.000011 -0.000008 0.000040 0.000000 0.032590 0.000000
# 6 0.000000 0.000000 0.000000 0.000003 0.000000 0.025519
#
#
# Mechanical properties :
#
#
# Convention : Reuss Voigt Hill
#
# Bulk Modulus (GPa) = 71.94186 93.85371 82.89778
# Shear Modulus (GPa) = 26.41179 29.90882 28.16031
#
# Velocity S-wave (km/s) = 3.80793 4.05219 3.93195
# Velocity P-wave (km/s) = 7.67010 8.56856 8.13175
#
# Compressibility (1/GPa) = 0.01390011
#
# Stress axis : x y z
#
# Youngs Moduli (GPa) = 102.25968 42.22424 86.03966
#
# Poissons Ratio (x) = 0.22064 0.33992
# Poissons Ratio (y) = 0.53436 0.55203
# Poissons Ratio (z) = 0.40400 0.27091
#
# Static dielectric constant tensor:
#      x y z
#    x 1.613240 0.000000 0.000020 
#    y 0.000000 1.613580 0.000000 
#    z 0.000020 0.000000 1.607500 
# 
# From -- ./inp_files/108701.got.cif
#   From: 2010.05.17/outbox.cif.g08.bks.cpg/sg12_55_cif.got.tgz:108701.got - 2010.06.03 13:09:07.
