data_PCOD9213510
_publ_section_title
;
Structure prediction by ZEFSAII (Michael W. Deem and Ramdas Pophale) SiO2 
 PCOD9213510
Probable space group: C 2/M
;
_chemical_formula_sum "Si O2"
_cell_formula_units_Z 64
_cell_length_a 14.224250
_cell_length_b 24.135673
_cell_length_c 11.653970
_cell_angle_alpha 90.000000
_cell_angle_beta 48.562447
_cell_angle_gamma 90.000000
_cell_volume 2999.419043
_symmetry_space_group_name_H-M "C 2/M"
_symmetry_group_IT_number 12
_symmetry_cell_setting 'monoclinic'
loop_
_space_group_symop_operation_xyz
x,y,z
-x,y,-z
-x,-y,-z
x,-y,z
1/2+x,1/2+y,z
1/2-x,1/2+y,-z
1/2-x,1/2-y,-z
1/2+x,1/2-y,z
loop_
_atom_site_type_symbol
_atom_site_label
_atom_site_fract_x
_atom_site_fract_y
_atom_site_fract_z
Si Si1 0.190622 0.260549 0.423303
Si Si2 0.779070 0.616548 0.557251
Si Si3 0.516975 0.938276 0.289105
Si Si4 0.705037 0.436863 0.835142
Si Si5 0.870299 0.232783 0.058746
Si Si6 0.433572 0.353319 0.442517
Si Si7 0.153339 0.864897 0.085911
Si Si8 0.415704 0.142715 0.960482
O O1 0.250000 0.250000 0.500000
O O2 0.155393 0.325196 0.460615
O O3 0.281755 0.255727 0.239399
O O4 0.096870 0.209479 0.495461
O O5 0.886667 0.570750 0.458978
O O6 0.689070 0.600062 0.735355
O O7 0.694997 0.622811 0.509848
O O8 0.645285 0.934618 0.257303
O O9 0.522922 0.886925 0.197290
O O10 0.518079 0.000000 0.234830
O O11 0.668646 0.500000 0.844197
O O12 0.640685 0.412283 0.000564
O O13 0.813158 0.189941 0.015101
O O14 0.909346 0.290594 0.968090
O O15 0.000000 0.207192 0.000000
O O16 0.500000 0.380849 0.500000
O O17 0.533126 0.353779 0.259268
O O18 0.271436 0.876839 0.073328
O O19 0.500000 0.126405 0.000000
#
# Coordination Sequence:
#
# PCOD9213510 Si02
#       8
#     8   8   8   8   8   8   8   8
#     4  10  22  38  59  96 133 175 213 257 322 396
#     4  11  22  40  68  96 133 170 219 269 333 394
#     4  10  23  41  66  97 127 164 218 280 336 383
#     4  10  22  44  70  98 125 164 222 288 338 380
#     4  11  21  37  65  98 134 169 215 265 324 387
#     4  11  26  40  63  92 142 183 217 257 326 400
#     4  11  23  42  65  97 133 174 213 274 324 393
#     4  10  24  38  65  91 127 170 222 265 321 383
#
# _framework density 21.337467
#
# number of rings (size 3 to 8) (size 9 to 14) (size 15 to 20)
#    0.000    1.500    1.250    3.375   10.500    2.250 
#    0.000    1.875    0.000    1.875    0.000    0.000 
#    0.000    0.000    0.000    0.000    0.000    0.000 
#
# Total GULP energy -178605.936377 kJ/mol
# GULP energy per Si atom -5581.435512 kJ/mol
# Density = 2.128890 g / cm^3
# Si number density = 21.337467 Si / 1000 Ang^3
#
#
#
# Elastic Constant Matrix: (Units=GPa)
#
#
# Indices 1 2 3 4 5 6 
#
# 1 84.7269 9.7320 32.6401 0.0000 10.2354 0.0000
# 2 9.7320 85.3118 27.6195 0.0000 16.7672 0.0000
# 3 32.6401 27.6195 109.5013 0.0000 -1.1692 0.0000
# 4 0.0000 0.0000 0.0000 26.1474 0.0000 1.5992
# 5 10.2354 16.7672 -1.1692 0.0000 27.0464 0.0000
# 6 0.0000 0.0000 0.0000 1.5992 0.0000 10.9760
#
#
#
# Elastic Compliance Matrix: (Units=1/GPa)
#
#
# Indices 1 2 3 4 5 6 
#
# 1 0.014193 0.001088 -0.004572 0.000000 -0.006243 0.000000
# 2 0.001088 0.014881 -0.004183 0.000000 -0.009818 0.000000
# 3 -0.004572 -0.004183 0.011602 0.000000 0.004825 0.000000
# 4 0.000000 0.000000 0.000000 0.038589 0.000000 -0.005622
# 5 -0.006243 -0.009818 0.004825 0.000000 0.045632 0.000000
# 6 0.000000 0.000000 0.000000 -0.005622 0.000000 0.091927
#
#
# Mechanical properties :
#
#
# Convention : Reuss Voigt Hill
#
# Bulk Modulus (GPa) = 39.45820 46.61372 43.03596
# Shear Modulus (GPa) = 20.78107 26.80386 23.79246
#
# Velocity S-wave (km/s) = 3.12416 3.54812 3.34287
# Velocity P-wave (km/s) = 5.61662 6.21924 5.92559
#
# Compressibility (1/GPa) = 0.02534328
#
# Stress axis : x y z
#
# Youngs Moduli (GPa) = 70.45673 67.19800 86.19508
#
# Poissons Ratio (x) = -0.07312 0.39407
# Poissons Ratio (y) = -0.07666 0.36053
# Poissons Ratio (z) = 0.32211 0.28107
#
# Static dielectric constant tensor:
#      x y z
#    x 1.719920 0.000000 -0.068420 
#    y 0.000000 1.754220 0.000000 
#    z -0.068420 0.000000 1.751060 
# 
# From -- ./inp_files/149739.got.cif
#   From: 2010.05.17/outbox.cif.g08.bks.cpg/sg12_75_cif.got.tgz:149739.got - 2010.06.03 13:09:07.
