data_PCOD9213845
_publ_section_title
;
Structure prediction by ZEFSAII (Michael W. Deem and Ramdas Pophale) SiO2 
 PCOD9213845
Probable space group: C 2/M
;
_chemical_formula_sum "Si O2"
_cell_formula_units_Z 56
_cell_length_a 13.960835
_cell_length_b 14.721716
_cell_length_c 21.110618
_cell_angle_alpha 90.000000
_cell_angle_beta 34.659128
_cell_angle_gamma 90.000000
_cell_volume 2467.451268
_symmetry_space_group_name_H-M "C 2/M"
_symmetry_group_IT_number 12
_symmetry_cell_setting 'monoclinic'
loop_
_space_group_symop_operation_xyz
x,y,z
-x,y,-z
-x,-y,-z
x,-y,z
1/2+x,1/2+y,z
1/2-x,1/2+y,-z
1/2-x,1/2-y,-z
1/2+x,1/2-y,z
loop_
_atom_site_type_symbol
_atom_site_label
_atom_site_fract_x
_atom_site_fract_y
_atom_site_fract_z
Si Si1 0.331631 0.609372 0.937546
Si Si2 0.310714 0.796975 0.597729
Si Si3 0.708524 0.734559 0.246790
Si Si4 0.541255 0.103175 0.846885
Si Si5 0.302623 0.401164 0.586137
Si Si6 0.496218 0.394130 0.716842
Si Si7 0.380991 0.398106 0.125036
O O1 0.336366 0.500000 0.943274
O O2 0.367171 0.627809 0.844694
O O3 0.492717 0.640033 0.889949
O O4 0.148202 0.638638 0.061507
O O5 0.500000 0.832409 0.500000
O O6 0.286197 0.766092 0.683624
O O7 0.287696 0.702850 0.570130
O O8 0.178648 0.869640 0.644949
O O9 0.866224 0.666997 0.153495
O O10 0.551522 0.672842 0.313787
O O11 0.732621 0.826751 0.194863
O O12 0.664187 0.097573 0.718679
O O13 0.527038 0.000000 0.878851
O O14 0.500000 0.403326 0.500000
O O15 0.277122 0.500000 0.566136
O O16 0.481237 0.500000 0.708228
O O17 0.321132 0.500000 0.173664
O O18 0.500000 0.404267 0.000000
#
# Coordination Sequence:
#
# PCOD9213845 Si02
#       7
#     8   8   8   8   8   8   8
#     4   9  19  37  59  84 123 167 212 262 318 383
#     4  10  22  42  67  94 128 170 219 270 328 391
#     4  11  23  38  63  94 126 171 215 266 321 397
#     4   9  18  32  54  87 123 162 209 261 314 374
#     4   8  15  31  55  83 117 158 203 253 311 368
#     4  11  24  42  65  95 131 171 214 271 332 383
#     4  10  22  39  58  85 126 173 215 264 318 380
#
# _framework density 22.695482999999999
#
# number of rings (size 3 to 8) (size 9 to 14) (size 15 to 20)
#    0.000    2.286    1.429    0.429    2.000    4.286 
#    0.000    4.286    0.000    0.000    0.000    0.000 
#    0.000    0.000    0.000    0.000    0.000    0.000 
#
# Total GULP energy -156045.469677 kJ/mol
# GULP energy per Si atom -5573.052488 kJ/mol
# Density = 2.264383 g / cm^3
# Si number density = 22.695483 Si / 1000 Ang^3
#
#
#
# Elastic Constant Matrix: (Units=GPa)
#
#
# Indices 1 2 3 4 5 6 
#
# 1 58.6661 33.8050 19.1076 -0.0001 -9.9595 0.0000
# 2 33.8050 94.7165 35.9269 -0.0003 -10.0526 0.0001
# 3 19.1076 35.9269 101.6032 -0.0015 -20.8525 0.0004
# 4 -0.0001 -0.0003 -0.0015 18.0840 0.0003 -15.6849
# 5 -9.9595 -10.0526 -20.8525 0.0003 25.2961 -0.0001
# 6 0.0000 0.0001 0.0004 -15.6849 -0.0001 32.9182
#
#
#
# Elastic Compliance Matrix: (Units=1/GPa)
#
#
# Indices 1 2 3 4 5 6 
#
# 1 0.022280 -0.007169 -0.000529 0.000000 0.005487 0.000000
# 2 -0.007169 0.014551 -0.003839 0.000000 -0.000205 0.000000
# 3 -0.000529 -0.003839 0.013172 0.000001 0.009124 0.000000
# 4 0.000000 0.000000 0.000001 0.094247 0.000000 0.044907
# 5 0.005487 -0.000205 0.009124 0.000000 0.049132 0.000000
# 6 0.000000 0.000000 0.000000 0.044907 0.000000 0.051775
#
#
# Mechanical properties :
#
#
# Convention : Reuss Voigt Hill
#
# Bulk Modulus (GPa) = 37.13450 48.07385 42.60417
# Shear Modulus (GPa) = 18.03702 26.33608 22.18655
#
# Velocity S-wave (km/s) = 2.82217 3.41018 3.13001
# Velocity P-wave (km/s) = 5.19780 6.06084 5.64584
#
# Compressibility (1/GPa) = 0.02692914
#
# Stress axis : x y z
#
# Youngs Moduli (GPa) = 44.88242 68.72401 75.92021
#
# Poissons Ratio (x) = 0.49268 0.04016
# Poissons Ratio (y) = 0.32176 0.29146
# Poissons Ratio (z) = 0.02374 0.26383
#
# Static dielectric constant tensor:
#      x y z
#    x 1.895110 0.000000 0.027310 
#    y 0.000000 1.924730 0.000000 
#    z 0.027310 0.000000 1.921020 
# 
# From -- ./inp_files/340312.got.cif
#   From: 2010.05.17/outbox.cif.g08.bks.cpg/sg12_171_cif.got.tgz:340312.got - 2010.06.03 13:09:07.
