data_PCOD9213331
_publ_section_title
;
Structure prediction by ZEFSAII (Michael W. Deem and Ramdas Pophale) SiO2 
 PCOD9213331
Probable space group: C 2/M
;
_chemical_formula_sum "Si O2"
_cell_formula_units_Z 48
_cell_length_a 25.632544
_cell_length_b 7.425987
_cell_length_c 13.997701
_cell_angle_alpha 90.000000
_cell_angle_beta 130.592137
_cell_angle_gamma 90.000000
_cell_volume 2023.255239
_symmetry_space_group_name_H-M "C 2/M"
_symmetry_group_IT_number 12
_symmetry_cell_setting 'monoclinic'
loop_
_space_group_symop_operation_xyz
x,y,z
-x,y,-z
-x,-y,-z
x,-y,z
1/2+x,1/2+y,z
1/2-x,1/2+y,-z
1/2-x,1/2-y,-z
1/2+x,1/2-y,z
loop_
_atom_site_type_symbol
_atom_site_label
_atom_site_fract_x
_atom_site_fract_y
_atom_site_fract_z
Si Si1 0.788475 0.220454 0.744942
Si Si2 0.340591 0.217790 0.520604
Si Si3 0.205054 0.215198 0.039499
Si Si4 0.527916 0.783068 0.432527
Si Si5 0.579572 0.293694 0.191643
Si Si6 0.949707 0.212142 0.143434
O O1 0.734668 0.279835 0.600317
O O2 0.764779 0.274093 0.822471
O O3 0.866473 0.283773 0.819666
O O4 0.789305 0.000000 0.741309
O O5 0.393935 0.265756 0.499720
O O6 0.374174 0.292943 0.656594
O O7 0.340222 0.000000 0.530038
O O8 0.200138 0.000000 0.038813
O O9 0.250000 0.250000 0.000000
O O10 0.127023 0.286530 0.942687
O O11 0.500000 0.714864 0.500000
O O12 0.482806 0.727061 0.287915
O O13 0.525409 0.000000 0.432256
O O14 0.566947 0.500000 0.147947
O O15 0.506445 0.212984 0.136201
O O16 0.944562 0.000000 0.114495
#
# Coordination Sequence:
#
# PCOD9213331 Si02
#       6
#     8   8   8   8   8   8
#     4   9  18  32  53  76 100 134 171 207 249 299
#     4   9  17  30  48  75 105 130 165 209 249 297
#     4  10  22  38  54  74 101 136 174 212 251 298
#     4   9  18  30  49  74  98 134 175 205 243 297
#     4   9  17  32  53  77 103 131 163 205 258 305
#     4   9  19  34  51  74 103 130 164 211 257 297
#
# _framework density 23.724145
#
# number of rings (size 3 to 8) (size 9 to 14) (size 15 to 20)
#    0.000    2.833    0.000    0.500    2.333    1.667 
#    0.000    5.000    0.000    0.000    0.000    5.833 
#    0.000    0.000    0.000    0.000    0.000    0.000 
#
# Total GULP energy -134013.245927 kJ/mol
# GULP energy per Si atom -5583.885247 kJ/mol
# Density = 2.367015 g / cm^3
# Si number density = 23.724145 Si / 1000 Ang^3
#
#
#
# Elastic Constant Matrix: (Units=GPa)
#
#
# Indices 1 2 3 4 5 6 
#
# 1 151.1506 5.6090 49.5202 0.0000 -5.7072 0.0000
# 2 5.6090 74.7037 -2.4036 0.0000 2.0906 0.0000
# 3 49.5202 -2.4036 82.3408 0.0000 10.8677 0.0000
# 4 0.0000 0.0000 0.0000 2.6076 0.0000 5.6645
# 5 -5.7072 2.0906 10.8677 0.0000 45.5205 0.0000
# 6 0.0000 0.0000 0.0000 5.6645 0.0000 1.4082
#
#
#
# Elastic Compliance Matrix: (Units=1/GPa)
#
#
# Indices 1 2 3 4 5 6 
#
# 1 0.008535 -0.000885 -0.005478 0.000000 0.002419 0.000000
# 2 -0.000885 0.013514 0.001056 0.000000 -0.000984 0.000000
# 3 -0.005478 0.001056 0.016073 0.000000 -0.004573 0.000000
# 4 0.000000 0.000000 0.000000 -0.049558 0.000000 0.199351
# 5 0.002419 -0.000984 -0.004573 0.000000 0.023408 0.000000
# 6 0.000000 0.000000 0.000000 0.199351 0.000000 -0.091770
#
#
# Mechanical properties :
#
#
# Convention : Reuss Voigt Hill
#
# Bulk Modulus (GPa) = 36.35046 45.96070 41.15558
# Shear Modulus (GPa) = -83.31159 26.93856 -28.18651
#
# Velocity S-wave (km/s) = -5.93237 3.37336 -3.45061
# Velocity P-wave (km/s) = 5.61860 5.88114 1.22864
#
# Compressibility (1/GPa) = 0.02750997
#
# Stress axis : x y z
#
# Youngs Moduli (GPa) = 117.16820 73.99643 62.21443
#
# Poissons Ratio (x) = 0.06547 0.34080
# Poissons Ratio (y) = 0.10366 -0.06573
# Poissons Ratio (z) = 0.64183 -0.07817
#
# Static dielectric constant tensor:
#      x y z
#    x 1.925790 0.000000 0.004870 
#    y 0.000000 1.950790 0.000000 
#    z 0.004870 0.000000 1.874650 
# 
# From -- ./inp_files/165188.got.cif
#   From: 2010.05.17/outbox.cif.g08.bks.cpg/sg12_83_cif.got.tgz:165188.got - 2010.06.03 13:09:07.
