data_PCOD9213442
_publ_section_title
;
Structure prediction by ZEFSAII (Michael W. Deem and Ramdas Pophale) SiO2 
 PCOD9213442
Probable space group: C 2/M
;
_chemical_formula_sum "Si O2"
_cell_formula_units_Z 50
_cell_length_a 27.392203
_cell_length_b 7.885350
_cell_length_c 15.466186
_cell_angle_alpha 90.000000
_cell_angle_beta 42.054300
_cell_angle_gamma 90.000000
_cell_volume 2237.683907
_symmetry_space_group_name_H-M "C 2/M"
_symmetry_group_IT_number 12
_symmetry_cell_setting 'monoclinic'
loop_
_space_group_symop_operation_xyz
x,y,z
-x,y,-z
-x,-y,-z
x,-y,z
1/2+x,1/2+y,z
1/2-x,1/2+y,-z
1/2-x,1/2-y,-z
1/2+x,1/2-y,z
loop_
_atom_site_type_symbol
_atom_site_label
_atom_site_fract_x
_atom_site_fract_y
_atom_site_fract_z
Si Si1 0.593628 0.195297 0.794859
Si Si2 0.819492 0.796310 0.145141
Si Si3 0.685036 0.689103 0.526923
Si Si4 0.001067 0.193189 0.621985
Si Si5 0.961976 0.202880 0.872495
Si Si6 0.000000 0.500000 0.500000
Si Si7 0.659121 0.807827 0.381557
O O1 0.639803 0.247165 0.818423
O O2 0.619071 0.307119 0.680132
O O3 0.507039 0.214775 0.892992
O O4 0.612014 0.000000 0.754312
O O5 0.735438 0.739846 0.243203
O O6 0.812637 0.000000 0.155787
O O7 0.877525 0.744736 0.995896
O O8 0.696114 0.500000 0.477975
O O9 0.750000 0.750000 0.500000
O O10 0.677807 0.816141 0.458325
O O11 0.086546 0.196677 0.481795
O O12 0.990443 0.236145 0.737907
O O13 0.971350 0.347906 0.604989
O O14 0.973495 0.000000 0.644870
O O15 0.964636 0.000000 0.882083
O O16 0.638038 0.000000 0.379051
#
# Coordination Sequence:
#
# PCOD9213442 Si02
#       7
#     8   8   8   8   8   2   8
#     4  12  23  33  51  83 126 174 225 263 299 351
#     4  10  22  38  58  85 127 180 219 256 302 358
#     4  12  22  33  51  79 120 169 218 267 309 352
#     4  11  24  44  73 103 127 158 204 260 327 392
#     4  10  22  40  60  88 125 172 216 259 309 371
#     4  12  26  48  76 106 126 152 196 270 332 398
#     4  11  21  37  61  92 124 164 212 261 314 372
#
# _framework density 22.344532000000001
#
# number of rings (size 3 to 8) (size 9 to 14) (size 15 to 20)
#    0.000    0.960    4.000    4.080    1.120    3.200 
#    0.000    0.000    0.000    0.960    0.000    0.000 
#    0.000    0.000    0.000    0.000    0.000    0.000 
#
# Total GULP energy -139170.555850 kJ/mol
# GULP energy per Si atom -5566.822234 kJ/mol
# Density = 2.229368 g / cm^3
# Si number density = 22.344532 Si / 1000 Ang^3
#
#
#
# Elastic Constant Matrix: (Units=GPa)
#
#
# Indices 1 2 3 4 5 6 
#
# 1 46.4703 27.6223 17.4437 0.0002 23.0882 -0.0001
# 2 27.6223 110.1977 19.1451 0.0053 10.9346 -0.0004
# 3 17.4437 19.1451 120.4488 0.0017 -11.2077 -0.0004
# 4 0.0002 0.0053 0.0017 16.9670 -0.0004 2.0347
# 5 23.0882 10.9346 -11.2077 -0.0004 28.3947 -0.0001
# 6 -0.0001 -0.0004 -0.0004 2.0347 -0.0001 35.9635
#
#
#
# Elastic Compliance Matrix: (Units=1/GPa)
#
#
# Indices 1 2 3 4 5 6 
#
# 1 0.050365 -0.006647 -0.010184 0.000001 -0.042413 0.000000
# 2 -0.006647 0.010754 -0.000653 -0.000003 0.001005 0.000000
# 3 -0.010184 -0.000653 0.011082 0.000000 0.012906 0.000000
# 4 0.000001 -0.000003 0.000000 0.059341 0.000001 -0.003357
# 5 -0.042413 0.001005 0.012906 0.000001 0.074412 0.000000
# 6 0.000000 0.000000 0.000000 -0.003357 0.000000 0.027996
#
#
# Mechanical properties :
#
#
# Convention : Reuss Voigt Hill
#
# Bulk Modulus (GPa) = 26.85758 45.05987 35.95872
# Shear Modulus (GPa) = 17.77282 30.45875 24.11578
#
# Velocity S-wave (km/s) = 2.82334 3.69608 3.28879
# Velocity P-wave (km/s) = 4.76174 6.19874 5.52714
#
# Compressibility (1/GPa) = 0.03723344
#
# Stress axis : x y z
#
# Youngs Moduli (GPa) = 19.85505 92.98501 90.23707
#
# Poissons Ratio (x) = 0.61805 0.91897
# Poissons Ratio (y) = 0.13197 0.05895
# Poissons Ratio (z) = 0.20220 0.06074
#
# Static dielectric constant tensor:
#      x y z
#    x 2.419190 0.000000 -0.458570 
#    y 0.000000 1.777500 0.000000 
#    z -0.458570 0.000000 2.290210 
# 
# From -- ./inp_files/294757.got.cif
#   From: 2010.05.17/outbox.cif.g08.bks.cpg/sg12_148_cif.got.tgz:294757.got - 2010.06.03 13:09:07.
