data_PCOD9213798
_publ_section_title
;
Structure prediction by ZEFSAII (Michael W. Deem and Ramdas Pophale) SiO2 
 PCOD9213798
Probable space group: C 2/M
;
_chemical_formula_sum "Si O2"
_cell_formula_units_Z 56
_cell_length_a 19.659148
_cell_length_b 8.862850
_cell_length_c 18.396025
_cell_angle_alpha 90.000000
_cell_angle_beta 98.322950
_cell_angle_gamma 90.000000
_cell_volume 3171.493213
_symmetry_space_group_name_H-M "C 2/M"
_symmetry_group_IT_number 12
_symmetry_cell_setting 'monoclinic'
loop_
_space_group_symop_operation_xyz
x,y,z
-x,y,-z
-x,-y,-z
x,-y,z
1/2+x,1/2+y,z
1/2-x,1/2+y,-z
1/2-x,1/2-y,-z
1/2+x,1/2-y,z
loop_
_atom_site_type_symbol
_atom_site_label
_atom_site_fract_x
_atom_site_fract_y
_atom_site_fract_z
Si Si1 0.893341 0.680602 0.447756
Si Si2 0.301807 0.679922 0.317500
Si Si3 0.460764 0.817725 0.604856
Si Si4 0.455453 0.680310 0.762745
Si Si5 0.766988 0.680125 0.080540
Si Si6 0.679102 0.818812 0.197314
Si Si7 0.887194 0.181018 0.186302
O O1 0.888787 0.500000 0.446605
O O2 0.828829 0.747040 0.395307
O O3 0.907328 0.726964 0.533098
O O4 0.963227 0.719936 0.414333
O O5 0.303127 0.500000 0.326458
O O6 0.227351 0.722550 0.274182
O O7 0.354678 0.719179 0.260173
O O8 0.448938 0.738229 0.679171
O O9 0.457619 0.000000 0.613113
O O10 0.447612 0.500000 0.763933
O O11 0.396840 0.759211 0.800763
O O12 0.532520 0.717653 0.801120
O O13 0.763184 0.500000 0.077802
O O14 0.714403 0.745389 0.132549
O O15 0.841801 0.734011 0.119871
O O16 0.750000 0.750000 0.000000
O O17 0.681035 0.000000 0.190629
O O18 0.878639 0.000000 0.175688
#
# Coordination Sequence:
#
# PCOD9213798 Si02
#       7
#     8   8   8   8   8   8   8
#     4   9  17  29  48  74 104 139 185 233 276 324
#     4   9  17  32  52  75 104 140 181 228 278 323
#     4   9  18  31  47  73 108 144 180 228 284 326
#     4  11  21  35  55  82 112 145 186 228 273 326
#     4  11  22  39  64  90 114 143 179 217 261 318
#     4  10  22  39  57  80 114 148 179 223 275 324
#     4   9  19  35  55  82 114 144 179 225 270 318
#
# _framework density 17.657298000000001
#
# number of rings (size 3 to 8) (size 9 to 14) (size 15 to 20)
#    0.000    2.286    1.429    3.857    0.000    4.571 
#    0.000    2.857    0.000    4.286    0.000    0.000 
#    0.000    0.000    0.000    0.000    0.000    0.000 
#
# Total GULP energy -156240.798362 kJ/mol
# GULP energy per Si atom -5580.028513 kJ/mol
# Density = 1.761711 g / cm^3
# Si number density = 17.657298 Si / 1000 Ang^3
#
#
#
# Elastic Constant Matrix: (Units=GPa)
#
#
# Indices 1 2 3 4 5 6 
#
# 1 102.0389 48.7518 46.5180 0.0000 11.7757 0.0000
# 2 48.7518 63.2885 54.3700 0.0000 8.0038 0.0000
# 3 46.5180 54.3700 127.7987 0.0000 14.1543 0.0000
# 4 0.0000 0.0000 0.0000 33.6254 0.0000 1.9617
# 5 11.7757 8.0038 14.1543 0.0000 16.8892 0.0000
# 6 0.0000 0.0000 0.0000 1.9617 0.0000 27.8385
#
#
#
# Elastic Compliance Matrix: (Units=1/GPa)
#
#
# Indices 1 2 3 4 5 6 
#
# 1 0.016013 -0.011279 -0.000425 0.000000 -0.005464 0.000000
# 2 -0.011279 0.033006 -0.010004 0.000000 0.000606 0.000000
# 3 -0.000425 -0.010004 0.012872 0.000000 -0.005751 0.000000
# 4 0.000000 0.000000 0.000000 0.029862 0.000000 -0.002104
# 5 -0.005464 0.000606 -0.005751 0.000000 0.067551 0.000000
# 6 0.000000 0.000000 0.000000 -0.002104 0.000000 0.036070
#
#
# Mechanical properties :
#
#
# Convention : Reuss Voigt Hill
#
# Bulk Modulus (GPa) = 54.12328 65.82287 59.97308
# Shear Modulus (GPa) = 20.41233 25.23637 22.82435
#
# Velocity S-wave (km/s) = 3.40373 3.78462 3.59922
# Velocity P-wave (km/s) = 6.79454 7.51377 7.16319
#
# Compressibility (1/GPa) = 0.01847634
#
# Stress axis : x y z
#
# Youngs Moduli (GPa) = 62.44756 30.29712 77.68565
#
# Poissons Ratio (x) = 0.34173 0.03303
# Poissons Ratio (y) = 0.70435 0.77714
# Poissons Ratio (z) = 0.02655 0.30308
#
# Static dielectric constant tensor:
#      x y z
#    x 1.600940 0.000000 0.012030 
#    y 0.000000 1.589180 0.000000 
#    z 0.012030 0.000000 1.590300 
# 
# From -- ./inp_files/275601.got.cif
#   From: 2010.05.17/outbox.cif.g08.bks.cpg/sg12_138_cif.got.tgz:275601.got - 2010.06.03 13:09:07.
