data_PCOD9213718
_publ_section_title
;
Structure prediction by ZEFSAII (Michael W. Deem and Ramdas Pophale) SiO2 
 PCOD9213718
Probable space group: C 2/M
;
_chemical_formula_sum "Si O2"
_cell_formula_units_Z 32
_cell_length_a 24.838169
_cell_length_b 13.812130
_cell_length_c 9.741287
_cell_angle_alpha 90.000000
_cell_angle_beta 26.641271
_cell_angle_gamma 90.000000
_cell_volume 1498.528911
_symmetry_space_group_name_H-M "C 2/M"
_symmetry_group_IT_number 12
_symmetry_cell_setting 'monoclinic'
loop_
_space_group_symop_operation_xyz
x,y,z
-x,y,-z
-x,-y,-z
x,-y,z
1/2+x,1/2+y,z
1/2-x,1/2+y,-z
1/2-x,1/2-y,-z
1/2+x,1/2-y,z
loop_
_atom_site_type_symbol
_atom_site_label
_atom_site_fract_x
_atom_site_fract_y
_atom_site_fract_z
Si Si1 0.673400 0.783805 0.803465
Si Si2 0.864068 0.205180 0.819618
Si Si3 0.500000 0.161546 0.000000
Si Si4 0.656722 0.000000 0.942243
Si Si5 0.107852 0.500000 0.588940
Si Si6 0.210314 0.000000 0.073222
O O1 0.750000 0.750000 0.500000
O O2 0.541141 0.780611 0.037970
O O3 0.700555 0.895787 0.783553
O O4 0.673748 0.718062 0.936135
O O5 0.000000 0.248688 0.500000
O O6 0.867583 0.096843 0.752927
O O7 0.750000 0.250000 0.000000
O O8 0.399231 0.090211 0.291170
O O9 0.697249 0.000000 0.008900
O O10 0.515603 0.000000 0.220566
O O11 0.213715 0.500000 0.240540
#
# Coordination Sequence:
#
# PCOD9213718 Si02
#       6
#     8   8   4   4   4   4
#     4  11  24  41  69 101 141 187 242 297 357 425
#     4  12  29  47  73 106 146 193 243 296 361 429
#     4   9  20  36  60  99 138 174 248 293 344 413
#     4  10  22  38  66 105 138 181 252 294 349 429
#     4   9  19  35  65 101 133 184 234 300 352 415
#     4  12  23  43  71  97 149 184 237 293 371 415
#
# _framework density 21.354275000000001
#
# number of rings (size 3 to 8) (size 9 to 14) (size 15 to 20)
#    0.000    1.250    2.500    3.000   10.500    1.000 
#    0.000    0.000    0.000    3.000    0.000    0.000 
#    0.000    0.000    0.000    0.000    0.000    0.000 
#
# Total GULP energy -89177.933875 kJ/mol
# GULP energy per Si atom -5573.620867 kJ/mol
# Density = 2.130567 g / cm^3
# Si number density = 21.354275 Si / 1000 Ang^3
#
#
#
# Elastic Constant Matrix: (Units=GPa)
#
#
# Indices 1 2 3 4 5 6 
#
# 1 168.8836 30.0598 16.2920 0.0000 11.0664 0.0000
# 2 30.0598 78.5589 -6.4018 0.0000 -9.4205 0.0000
# 3 16.2920 -6.4018 76.7521 0.0000 1.2075 0.0000
# 4 0.0000 0.0000 0.0000 16.8745 0.0000 2.4183
# 5 11.0664 -9.4205 1.2075 0.0000 36.6501 0.0000
# 6 0.0000 0.0000 0.0000 2.4183 0.0000 37.2428
#
#
#
# Elastic Compliance Matrix: (Units=1/GPa)
#
#
# Indices 1 2 3 4 5 6 
#
# 1 0.006812 -0.003077 -0.001659 0.000000 -0.002793 0.000000
# 2 -0.003077 0.014608 0.001799 0.000000 0.004624 0.000000
# 3 -0.001659 0.001799 0.013523 0.000000 0.000518 0.000000
# 4 0.000000 0.000000 0.000000 0.059818 0.000000 -0.003884
# 5 -0.002793 0.004624 0.000518 0.000000 0.029300 0.000000
# 6 0.000000 0.000000 0.000000 -0.003884 0.000000 0.027103
#
#
# Mechanical properties :
#
#
# Convention : Reuss Voigt Hill
#
# Bulk Modulus (GPa) = 34.40037 44.89940 39.64989
# Shear Modulus (GPa) = 29.98936 37.10311 33.54624
#
# Velocity S-wave (km/s) = 3.75156 4.17286 3.96781
# Velocity P-wave (km/s) = 5.90846 6.65497 6.29280
#
# Compressibility (1/GPa) = 0.02906946
#
# Stress axis : x y z
#
# Youngs Moduli (GPa) = 146.80277 68.45728 73.94858
#
# Poissons Ratio (x) = 0.21061 0.12265
# Poissons Ratio (y) = 0.45165 -0.13301
# Poissons Ratio (z) = 0.24349 -0.12313
#
# Static dielectric constant tensor:
#      x y z
#    x 1.821430 0.000000 -0.117150 
#    y 0.000000 1.697660 0.000000 
#    z -0.117150 0.000000 1.864390 
# 
# From -- ./inp_files/45296.got.cif
#   From: 2010.05.17/outbox.cif.g08.bks.cpg/sg12_23_cif.got.tgz:45296.got - 2010.06.03 13:09:07.
