data_PCOD9213708
_publ_section_title
;
Structure prediction by ZEFSAII (Michael W. Deem and Ramdas Pophale) SiO2 
 PCOD9213708
Probable space group: C 2/M
;
_chemical_formula_sum "Si O2"
_cell_formula_units_Z 56
_cell_length_a 15.436178
_cell_length_b 18.696679
_cell_length_c 16.807073
_cell_angle_alpha 90.000000
_cell_angle_beta 144.197781
_cell_angle_gamma 90.000000
_cell_volume 2837.553769
_symmetry_space_group_name_H-M "C 2/M"
_symmetry_group_IT_number 12
_symmetry_cell_setting 'monoclinic'
loop_
_space_group_symop_operation_xyz
x,y,z
-x,y,-z
-x,-y,-z
x,-y,z
1/2+x,1/2+y,z
1/2-x,1/2+y,-z
1/2-x,1/2-y,-z
1/2+x,1/2-y,z
loop_
_atom_site_type_symbol
_atom_site_label
_atom_site_fract_x
_atom_site_fract_y
_atom_site_fract_z
Si Si1 0.164981 0.301368 0.042228
Si Si2 0.221005 0.414737 0.411828
Si Si3 0.353616 0.352384 0.036038
Si Si4 0.673902 0.821176 0.228031
Si Si5 0.652774 0.414714 0.329352
Si Si6 0.158433 0.323238 0.638347
Si Si7 0.101269 0.582258 0.750445
O O1 0.140952 0.215485 0.019782
O O2 0.003197 0.331045 0.899782
O O3 0.283857 0.322100 0.065294
O O4 0.211809 0.330474 0.163184
O O5 0.232407 0.500000 0.406458
O O6 0.242727 0.371231 0.346831
O O7 0.332472 0.394170 0.566588
O O8 0.054645 0.400903 0.322313
O O9 0.510236 0.385795 0.176126
O O10 0.237323 0.408057 0.912836
O O11 0.721475 0.739340 0.277837
O O12 0.654901 0.500000 0.327374
O O13 0.794919 0.382510 0.390890
O O14 0.137595 0.363694 0.706097
O O15 0.000000 0.290009 0.500000
O O16 0.093177 0.500000 0.716502
#
# Coordination Sequence:
#
# PCOD9213708 Si02
#       7
#     8   8   8   8   8   8   8
#     4  10  22  38  65  90 130 164 212 277 321 371
#     4  10  23  44  66  91 129 173 213 263 324 384
#     4  11  21  41  63  94 128 170 214 266 324 381
#     4  11  22  42  63  95 126 165 220 268 316 388
#     4  11  24  41  64  96 133 171 214 267 324 387
#     4  12  24  39  62  96 131 168 219 266 323 386
#     4  11  22  39  64  92 128 171 214 260 323 390
#
# _framework density 19.735309000000001
#
# number of rings (size 3 to 8) (size 9 to 14) (size 15 to 20)
#    0.000    1.143    5.714    0.857    0.000    2.857 
#    0.000    4.286    0.000    2.143    0.000    0.000 
#    0.000    0.000    0.000    0.000    0.000    0.000 
#
# Total GULP energy -156266.957627 kJ/mol
# GULP energy per Si atom -5580.962772 kJ/mol
# Density = 1.969039 g / cm^3
# Si number density = 19.735309 Si / 1000 Ang^3
#
#
#
# Elastic Constant Matrix: (Units=GPa)
#
#
# Indices 1 2 3 4 5 6 
#
# 1 51.4848 26.4003 22.4437 -0.0019 -16.4408 -0.0014
# 2 26.4003 61.8093 25.0110 -0.0017 -21.9220 -0.0016
# 3 22.4437 25.0110 95.2684 -0.0045 -17.1699 -0.0042
# 4 -0.0019 -0.0017 -0.0045 26.7759 -0.0027 -9.4643
# 5 -16.4408 -21.9220 -17.1699 -0.0027 31.9287 -0.0020
# 6 -0.0014 -0.0016 -0.0042 -9.4643 -0.0020 19.6846
#
#
#
# Elastic Compliance Matrix: (Units=1/GPa)
#
#
# Indices 1 2 3 4 5 6 
#
# 1 0.026971 -0.007852 -0.003057 0.000002 0.006852 0.000002
# 2 -0.007852 0.024645 -0.002546 0.000003 0.011508 0.000004
# 3 -0.003057 -0.002546 0.012498 0.000004 0.003398 0.000004
# 4 0.000002 0.000003 0.000004 0.044993 0.000010 0.021633
# 5 0.006852 0.011508 0.003398 0.000010 0.044577 0.000012
# 6 0.000002 0.000004 0.000004 0.021633 0.000012 0.061202
#
#
# Mechanical properties :
#
#
# Convention : Reuss Voigt Hill
#
# Bulk Modulus (GPa) = 26.88055 39.58586 33.23321
# Shear Modulus (GPa) = 19.66971 24.65834 22.16402
#
# Velocity S-wave (km/s) = 3.16044 3.53859 3.35485
# Velocity P-wave (km/s) = 5.19307 6.06609 5.64648
#
# Compressibility (1/GPa) = 0.03720161
#
# Stress axis : x y z
#
# Youngs Moduli (GPa) = 37.07722 40.57675 80.01389
#
# Poissons Ratio (x) = 0.31862 0.24463
# Poissons Ratio (y) = 0.29114 0.20372
# Poissons Ratio (z) = 0.11336 0.10331
#
# Static dielectric constant tensor:
#      x y z
#    x 1.675880 0.000000 -0.017080 
#    y 0.000000 1.677370 0.000000 
#    z -0.017080 0.000000 1.717130 
# 
# From -- ./inp_files/217740.got.cif
#   From: 2010.05.17/outbox.cif.g08.bks.cpg/sg12_109_cif.got.tgz:217740.got - 2010.06.03 13:09:07.
