data_PCOD9213535
_publ_section_title
;
Structure prediction by ZEFSAII (Michael W. Deem and Ramdas Pophale) SiO2 
 PCOD9213535
Probable space group: C 2/M
;
_chemical_formula_sum "Si O2"
_cell_formula_units_Z 64
_cell_length_a 32.824363
_cell_length_b 8.687664
_cell_length_c 15.299993
_cell_angle_alpha 90.000000
_cell_angle_beta 132.868263
_cell_angle_gamma 90.000000
_cell_volume 3197.768630
_symmetry_space_group_name_H-M "C 2/M"
_symmetry_group_IT_number 12
_symmetry_cell_setting 'monoclinic'
loop_
_space_group_symop_operation_xyz
x,y,z
-x,y,-z
-x,-y,-z
x,-y,z
1/2+x,1/2+y,z
1/2-x,1/2+y,-z
1/2-x,1/2-y,-z
1/2+x,1/2-y,z
loop_
_atom_site_type_symbol
_atom_site_label
_atom_site_fract_x
_atom_site_fract_y
_atom_site_fract_z
Si Si1 0.708157 0.817634 0.083052
Si Si2 0.870532 0.185712 0.495718
Si Si3 0.651545 0.316808 0.163714
Si Si4 0.187967 0.185419 0.409022
Si Si5 0.032360 0.681540 0.957221
Si Si6 0.612468 0.316024 0.819412
Si Si7 0.493511 0.684937 0.723612
Si Si8 0.172726 0.682327 0.746110
O O1 0.693999 0.769025 0.161672
O O2 0.765389 0.737605 0.139097
O O3 0.714026 0.000000 0.084458
O O4 0.656720 0.760713 0.949475
O O5 0.844744 0.232805 0.551519
O O6 0.839915 0.265525 0.370870
O O7 0.936011 0.223895 0.592311
O O8 0.864694 0.000000 0.478686
O O9 0.660369 0.500000 0.168916
O O10 0.659231 0.269139 0.275751
O O11 0.589802 0.274394 0.042794
O O12 0.250000 0.250000 0.500000
O O13 0.189979 0.000000 0.412698
O O14 0.044698 0.500000 0.968233
O O15 0.996903 0.735978 0.822860
O O16 0.000000 0.709376 0.000000
O O17 0.617530 0.500000 0.834392
O O18 0.549645 0.272981 0.753956
O O19 0.629301 0.262720 0.747651
O O20 0.493692 0.500000 0.736670
O O21 0.169004 0.500000 0.749591
#
# Coordination Sequence:
#
# PCOD9213535 Si02
#       8
#     8   8   8   8   8   8   8   8
#     4  12  24  41  65  95 130 165 205 264 321 380
#     4  10  22  43  65  91 124 166 215 264 315 372
#     4  11  22  38  61  91 124 163 208 254 311 379
#     4  10  22  38  60  88 123 163 209 258 309 368
#     4  11  23  37  57  89 126 164 207 256 310 366
#     4  11  23  42  67  96 126 163 209 262 320 382
#     4  10  22  41  67  92 123 165 211 262 316 377
#     4  12  26  43  64  92 125 167 212 262 319 381
#
# _framework density 20.013956
#
# number of rings (size 3 to 8) (size 9 to 14) (size 15 to 20)
#    0.000    1.125    1.250    5.250    0.000    7.000 
#    0.000    2.500    0.000    0.000    0.000    0.000 
#    0.000    0.000    0.000    0.000    0.000    0.000 
#
# Total GULP energy -179046.988344 kJ/mol
# GULP energy per Si atom -5595.218386 kJ/mol
# Density = 1.996840 g / cm^3
# Si number density = 20.013956 Si / 1000 Ang^3
#
#
#
# Elastic Constant Matrix: (Units=GPa)
#
#
# Indices 1 2 3 4 5 6 
#
# 1 74.2766 -0.3452 4.5652 0.0000 0.0304 0.0000
# 2 -0.3452 13.7286 -4.0104 0.0000 2.0770 0.0000
# 3 4.5652 -4.0104 56.7281 0.0000 6.3735 0.0000
# 4 0.0000 0.0000 0.0000 30.5767 0.0000 -0.4181
# 5 0.0304 2.0770 6.3735 0.0000 37.1770 0.0000
# 6 0.0000 0.0000 0.0000 -0.4181 0.0000 27.3844
#
#
#
# Elastic Compliance Matrix: (Units=1/GPa)
#
#
# Indices 1 2 3 4 5 6 
#
# 1 0.013531 -0.000011 -0.001110 0.000000 0.000180 0.000000
# 2 -0.000011 0.075359 0.005915 0.000000 -0.005224 0.000000
# 3 -0.001110 0.005915 0.018529 0.000000 -0.003506 0.000000
# 4 0.000000 0.000000 0.000000 0.032711 0.000000 0.000499
# 5 0.000180 -0.005224 -0.003506 0.000000 0.027791 0.000000
# 6 0.000000 0.000000 0.000000 0.000499 0.000000 0.036525
#
#
# Mechanical properties :
#
#
# Convention : Reuss Voigt Hill
#
# Bulk Modulus (GPa) = 8.54643 16.12806 12.33724
# Shear Modulus (GPa) = 21.38022 28.66254 25.02138
#
# Velocity S-wave (km/s) = 3.27198 3.78845 3.53965
# Velocity P-wave (km/s) = 4.30743 5.21655 4.78364
#
# Compressibility (1/GPa) = 0.11700792
#
# Stress axis : x y z
#
# Youngs Moduli (GPa) = 73.90287 13.26985 53.96838
#
# Poissons Ratio (x) = 0.00015 0.05990
# Poissons Ratio (y) = 0.00083 -0.31924
# Poissons Ratio (z) = 0.08203 -0.07850
#
# Static dielectric constant tensor:
#      x y z
#    x 1.704430 0.000000 -0.009150 
#    y 0.000000 1.673450 0.000000 
#    z -0.009150 0.000000 1.690730 
# 
# From -- ./inp_files/250008.got.cif
#   From: 2010.05.17/outbox.cif.g08.bks.cpg/sg12_126_cif.got.tgz:250008.got - 2010.06.03 13:09:07.
