data_PCOD9213772
_publ_section_title
;
Structure prediction by ZEFSAII (Michael W. Deem and Ramdas Pophale) SiO2 
 PCOD9213772
Probable space group: C 2/M
;
_chemical_formula_sum "Si O2"
_cell_formula_units_Z 56
_cell_length_a 18.236921
_cell_length_b 14.049202
_cell_length_c 10.900582
_cell_angle_alpha 90.000000
_cell_angle_beta 73.825664
_cell_angle_gamma 90.000000
_cell_volume 2682.337381
_symmetry_space_group_name_H-M "C 2/M"
_symmetry_group_IT_number 12
_symmetry_cell_setting 'monoclinic'
loop_
_space_group_symop_operation_xyz
x,y,z
-x,y,-z
-x,-y,-z
x,-y,z
1/2+x,1/2+y,z
1/2-x,1/2+y,-z
1/2-x,1/2-y,-z
1/2+x,1/2-y,z
loop_
_atom_site_type_symbol
_atom_site_label
_atom_site_fract_x
_atom_site_fract_y
_atom_site_fract_z
Si Si1 0.849746 0.215193 0.695512
Si Si2 0.392500 0.612387 0.191914
Si Si3 0.237005 0.611762 0.144703
Si Si4 0.698782 0.111383 0.693311
Si Si5 0.891818 0.247485 0.407605
Si Si6 0.027216 0.759777 0.175634
Si Si7 0.624608 0.888431 0.982236
O O1 0.811475 0.316370 0.749268
O O2 0.781707 0.142622 0.700286
O O3 0.895697 0.224844 0.547752
O O4 0.904077 0.189508 0.783514
O O5 0.402567 0.500000 0.192294
O O6 0.325884 0.634742 0.125410
O O7 0.368297 0.655737 0.335845
O O8 0.471591 0.666529 0.134970
O O9 0.226690 0.500000 0.182017
O O10 0.203005 0.623960 0.024159
O O11 0.671462 0.173284 0.591712
O O12 0.695536 0.000000 0.671019
O O13 0.641737 0.134765 0.833383
O O14 0.971637 0.280388 0.309412
O O15 0.062674 0.678357 0.074815
O O16 0.603547 0.000000 0.000824
#
# Coordination Sequence:
#
# PCOD9213772 Si02
#       7
#     8   8   8   8   8   8   8
#     4  11  20  39  59  87 120 152 194 245 287 348
#     4   9  19  37  59  86 117 151 192 233 288 350
#     4   9  18  35  61  85 112 156 197 239 289 341
#     4  11  24  39  60  89 117 153 198 244 293 345
#     4  10  22  39  55  87 120 154 194 234 294 346
#     4   9  21  37  61  85 116 156 196 234 293 350
#     4   9  20  40  62  86 116 151 197 246 291 341
#
# _framework density 20.877313999999998
#
# number of rings (size 3 to 8) (size 9 to 14) (size 15 to 20)
#    0.857    1.429    1.429    0.857    0.000    5.143 
#    0.000    2.143    0.000    6.857    0.000    0.000 
#    0.000    0.000    0.000    0.000    0.000    0.000 
#
# Total GULP energy -156326.199269 kJ/mol
# GULP energy per Si atom -5583.078545 kJ/mol
# Density = 2.082980 g / cm^3
# Si number density = 20.877314 Si / 1000 Ang^3
#
#
#
# Elastic Constant Matrix: (Units=GPa)
#
#
# Indices 1 2 3 4 5 6 
#
# 1 103.9174 29.6119 7.6327 0.0000 -4.4019 0.0000
# 2 29.6119 77.2612 15.2085 0.0000 -0.4147 0.0000
# 3 7.6327 15.2085 72.0757 0.0000 2.0299 0.0000
# 4 0.0000 0.0000 0.0000 11.6150 0.0000 1.5759
# 5 -4.4019 -0.4147 2.0299 0.0000 20.8235 0.0000
# 6 0.0000 0.0000 0.0000 1.5759 0.0000 25.7105
#
#
#
# Elastic Compliance Matrix: (Units=1/GPa)
#
#
# Indices 1 2 3 4 5 6 
#
# 1 0.010913 -0.004101 -0.000354 0.000000 0.002260 0.000000
# 2 -0.004101 0.015051 -0.002733 0.000000 -0.000301 0.000000
# 3 -0.000354 -0.002733 0.014532 0.000000 -0.001546 0.000000
# 4 0.000000 0.000000 0.000000 0.086817 0.000000 -0.005321
# 5 0.002260 -0.000301 -0.001546 0.000000 0.048645 0.000000
# 6 0.000000 0.000000 0.000000 -0.005321 0.000000 0.039221
#
#
# Mechanical properties :
#
#
# Convention : Reuss Voigt Hill
#
# Bulk Modulus (GPa) = 38.28426 39.79560 39.03993
# Shear Modulus (GPa) = 20.98521 25.01655 23.00088
#
# Velocity S-wave (km/s) = 3.17388 3.46535 3.32281
# Velocity P-wave (km/s) = 5.63994 5.92576 5.78461
#
# Compressibility (1/GPa) = 0.02612040
#
# Stress axis : x y z
#
# Youngs Moduli (GPa) = 91.63099 66.43957 68.81340
#
# Poissons Ratio (x) = 0.27246 0.02436
# Poissons Ratio (y) = 0.37577 0.18808
# Poissons Ratio (z) = 0.03244 0.18159
#
# Static dielectric constant tensor:
#      x y z
#    x 1.790070 0.000000 -0.004170 
#    y 0.000000 1.715640 0.000000 
#    z -0.004170 0.000000 1.754310 
# 
# From -- ./inp_files/155992.got.cif
#   From: 2010.05.17/outbox.cif.g08.bks.cpg/sg12_78_cif.got.tgz:155992.got - 2010.06.03 13:09:07.
