data_PCOD9213810
_publ_section_title
;
Structure prediction by ZEFSAII (Michael W. Deem and Ramdas Pophale) SiO2 
 PCOD9213810
Probable space group: C 2/M
;
_chemical_formula_sum "Si O2"
_cell_formula_units_Z 56
_cell_length_a 9.334096
_cell_length_b 31.048726
_cell_length_c 21.329160
_cell_angle_alpha 90.000000
_cell_angle_beta 28.805824
_cell_angle_gamma 90.000000
_cell_volume 2978.483000
_symmetry_space_group_name_H-M "C 2/M"
_symmetry_group_IT_number 12
_symmetry_cell_setting 'monoclinic'
loop_
_space_group_symop_operation_xyz
x,y,z
-x,y,-z
-x,-y,-z
x,-y,z
1/2+x,1/2+y,z
1/2-x,1/2+y,-z
1/2-x,1/2-y,-z
1/2+x,1/2-y,z
loop_
_atom_site_type_symbol
_atom_site_label
_atom_site_fract_x
_atom_site_fract_y
_atom_site_fract_z
Si Si1 0.730120 0.768189 0.293042
Si Si2 0.068874 0.050621 0.403883
Si Si3 0.580055 0.880701 0.898042
Si Si4 0.167253 0.450084 0.101866
Si Si5 0.382095 0.686502 0.479476
Si Si6 0.831049 0.885373 0.397388
Si Si7 0.662981 0.217873 0.874004
O O1 0.572364 0.729210 0.391148
O O2 0.465159 0.801601 0.382311
O O3 0.846790 0.749265 0.182013
O O4 0.994162 0.786330 0.234702
O O5 0.413334 0.056629 0.252116
O O6 0.000000 0.066403 0.500000
O O7 0.871547 0.074270 0.427868
O O8 0.005775 0.000000 0.426379
O O9 0.397847 0.913075 0.923804
O O10 0.534398 0.829238 0.905812
O O11 0.925743 0.889141 0.750253
O O12 0.500000 0.889528 0.000000
O O13 0.870999 0.500000 0.906253
O O14 0.500000 0.446316 0.000000
O O15 0.500000 0.668865 0.500000
O O16 0.420780 0.654854 0.406529
O O17 0.500000 0.880430 0.500000
O O18 0.500000 0.233635 0.000000
#
# Coordination Sequence:
#
# PCOD9213810 Si02
#       7
#     8   8   8   8   8   8   8
#     4  11  22  38  59  83 107 149 195 244 291 341
#     4   9  19  37  60  87 123 156 188 236 292 353
#     4  10  22  39  57  85 122 154 189 241 297 347
#     4   9  19  38  64  91 117 153 198 238 282 344
#     4  11  22  36  59  83 109 143 192 249 292 336
#     4  11  22  37  59  85 117 153 196 244 290 349
#     4  11  22  40  58  81 117 155 195 239 296 357
#
# _framework density 18.801517
#
# number of rings (size 3 to 8) (size 9 to 14) (size 15 to 20)
#    0.000    1.714    2.857    1.714    0.000    1.714 
#    0.000    9.286    0.000    0.000    0.000    0.000 
#    0.000    0.000    0.000    0.000    0.000    0.000 
#
# Total GULP energy -156309.965679 kJ/mol
# GULP energy per Si atom -5582.498774 kJ/mol
# Density = 1.875872 g / cm^3
# Si number density = 18.801517 Si / 1000 Ang^3
#
#
#
# Elastic Constant Matrix: (Units=GPa)
#
#
# Indices 1 2 3 4 5 6 
#
# 1 95.0553 44.1226 49.6152 0.0000 1.8407 0.0000
# 2 44.1226 77.2613 29.3777 0.0000 5.0704 -0.0001
# 3 49.6152 29.3777 68.2142 -0.0003 13.8839 0.0000
# 4 0.0000 0.0000 -0.0003 21.4168 0.0000 2.8700
# 5 1.8407 5.0704 13.8839 0.0000 42.2772 0.0001
# 6 0.0000 -0.0001 0.0000 2.8700 0.0001 26.5823
#
#
#
# Elastic Compliance Matrix: (Units=1/GPa)
#
#
# Indices 1 2 3 4 5 6 
#
# 1 0.020261 -0.007078 -0.012518 0.000000 0.004078 0.000000
# 2 -0.007078 0.017956 -0.002367 0.000000 -0.001068 0.000000
# 3 -0.012518 -0.002367 0.026379 0.000000 -0.007834 0.000000
# 4 0.000000 0.000000 0.000000 0.047378 0.000000 -0.005115
# 5 0.004078 -0.001068 -0.007834 0.000000 0.026177 0.000000
# 6 0.000000 0.000000 0.000000 -0.005115 0.000000 0.038171
#
#
# Mechanical properties :
#
#
# Convention : Reuss Voigt Hill
#
# Bulk Modulus (GPa) = 48.38458 54.08466 51.23462
# Shear Modulus (GPa) = 22.01312 25.88295 23.94803
#
# Velocity S-wave (km/s) = 3.42543 3.71434 3.57281
# Velocity P-wave (km/s) = 6.43701 6.87195 6.65803
#
# Compressibility (1/GPa) = 0.02066774
#
# Stress axis : x y z
#
# Youngs Moduli (GPa) = 49.35628 55.69298 37.90948
#
# Poissons Ratio (x) = 0.39422 0.47456
# Poissons Ratio (y) = 0.34936 0.08974
# Poissons Ratio (z) = 0.61785 0.13183
#
# Static dielectric constant tensor:
#      x y z
#    x 1.613750 0.000000 0.013850 
#    y 0.000000 1.660950 0.000000 
#    z 0.013850 0.000000 1.653660 
# 
# From -- ./inp_files/302968.got.cif
#   From: 2010.05.17/outbox.cif.g08.bks.cpg/sg12_152_cif.got.tgz:302968.got - 2010.06.03 13:09:07.
