data_PCOD9213793
_publ_section_title
;
Structure prediction by ZEFSAII (Michael W. Deem and Ramdas Pophale) SiO2 
 PCOD9213793
Probable space group: C 2/M
;
_chemical_formula_sum "Si O2"
_cell_formula_units_Z 48
_cell_length_a 17.779383
_cell_length_b 15.625251
_cell_length_c 9.680337
_cell_angle_alpha 90.000000
_cell_angle_beta 94.947063
_cell_angle_gamma 90.000000
_cell_volume 2679.250430
_symmetry_space_group_name_H-M "C 2/M"
_symmetry_group_IT_number 12
_symmetry_cell_setting 'monoclinic'
loop_
_space_group_symop_operation_xyz
x,y,z
-x,y,-z
-x,-y,-z
x,-y,z
1/2+x,1/2+y,z
1/2-x,1/2+y,-z
1/2-x,1/2-y,-z
1/2+x,1/2-y,z
loop_
_atom_site_type_symbol
_atom_site_label
_atom_site_fract_x
_atom_site_fract_y
_atom_site_fract_z
Si Si1 0.817178 0.682364 0.504237
Si Si2 0.548428 0.807163 0.279256
Si Si3 0.125149 0.747484 0.750627
Si Si4 0.150089 0.674367 0.045507
Si Si5 0.770137 0.100017 0.277589
Si Si6 0.420218 0.000000 0.068702
Si Si7 0.992982 0.500000 0.663250
O O1 0.750000 0.750000 0.500000
O O2 0.892615 0.717351 0.591726
O O3 0.839119 0.676623 0.347732
O O4 0.781708 0.607064 0.591767
O O5 0.465025 0.767687 0.271145
O O6 0.587415 0.788268 0.139650
O O7 0.544159 0.910739 0.296175
O O8 0.155157 0.840168 0.703387
O O9 0.154850 0.732402 0.910726
O O10 0.220283 0.648317 0.152799
O O11 0.120922 0.584624 0.983241
O O12 0.783594 0.000000 0.249429
O O13 0.431457 0.000000 0.234537
O O14 0.500000 0.000000 0.000000
O O15 0.000000 0.500000 0.500000
#
# Coordination Sequence:
#
# PCOD9213793 Si02
#       7
#     8   8   8   8   8   4   4
#     4   9  21  37  55  78 110 147 184 229 275 333
#     4  11  21  34  55  82 118 143 178 231 282 339
#     4  11  20  36  57  84 110 148 191 225 279 335
#     4  11  20  35  54  82 115 151 179 227 279 339
#     4  10  22  39  57  78 113 152 189 230 279 330
#     4  12  18  32  48  78 124 141 172 223 282 335
#     4  12  22  30  48  86 114 145 177 216 287 338
#
# _framework density 17.915458999999998
#
# number of rings (size 3 to 8) (size 9 to 14) (size 15 to 20)
#    0.000    1.333    4.167    2.500    3.500    0.000 
#    3.000    0.000    0.000   10.000    0.000    0.000 
#    0.000    0.000    0.000    0.000    0.000    0.000 
#
# Total GULP energy -133696.848100 kJ/mol
# GULP energy per Si atom -5570.702004 kJ/mol
# Density = 1.787468 g / cm^3
# Si number density = 17.915459 Si / 1000 Ang^3
#
#
#
# Elastic Constant Matrix: (Units=GPa)
#
#
# Indices 1 2 3 4 5 6 
#
# 1 100.4024 56.0282 30.2259 0.0000 0.6751 0.0000
# 2 56.0282 64.2620 14.1182 0.0000 -10.5536 0.0000
# 3 30.2259 14.1182 122.0557 0.0000 -20.2288 0.0000
# 4 0.0000 0.0000 0.0000 13.8168 0.0000 8.0474
# 5 0.6751 -10.5536 -20.2288 0.0000 27.6918 0.0000
# 6 0.0000 0.0000 0.0000 8.0474 0.0000 21.1434
#
#
#
# Elastic Compliance Matrix: (Units=1/GPa)
#
#
# Indices 1 2 3 4 5 6 
#
# 1 0.023777 -0.021629 -0.005516 0.000000 -0.012852 0.000000
# 2 -0.021629 0.036382 0.004020 0.000000 0.017329 0.000000
# 3 -0.005516 0.004020 0.010661 0.000000 0.009454 0.000000
# 4 0.000000 0.000000 0.000000 0.092990 0.000000 -0.035393
# 5 -0.012852 0.017329 0.009454 0.000000 0.049936 0.000000
# 6 0.000000 0.000000 0.000000 -0.035393 0.000000 0.060767
#
#
# Mechanical properties :
#
#
# Convention : Reuss Voigt Hill
#
# Bulk Modulus (GPa) = 40.70207 54.16273 47.43240
# Shear Modulus (GPa) = 15.19972 24.95359 20.07666
#
# Velocity S-wave (km/s) = 2.91591 3.73614 3.35122
# Velocity P-wave (km/s) = 5.83995 6.99355 6.44262
#
# Compressibility (1/GPa) = 0.02456877
#
# Stress axis : x y z
#
# Youngs Moduli (GPa) = 42.05765 27.48617 93.80023
#
# Poissons Ratio (x) = 0.59450 0.51743
# Poissons Ratio (y) = 0.90967 -0.37708
# Poissons Ratio (z) = 0.23200 -0.11049
#
# Static dielectric constant tensor:
#      x y z
#    x 1.640970 0.000000 -0.008290 
#    y 0.000000 1.609940 0.000000 
#    z -0.008290 0.000000 1.702390 
# 
# From -- ./inp_files/61781.got.cif
#   From: 2010.05.17/outbox.cif.g08.bks.cpg/sg12_31_cif.got.tgz:61781.got - 2010.06.03 13:09:07.
