data_PCOD9213609
_publ_section_title
;
Structure prediction by ZEFSAII (Michael W. Deem and Ramdas Pophale) SiO2 
 PCOD9213609
Probable space group: C 2/M
;
_chemical_formula_sum "Si O2"
_cell_formula_units_Z 48
_cell_length_a 24.928744
_cell_length_b 23.120109
_cell_length_c 11.432185
_cell_angle_alpha 90.000000
_cell_angle_beta 23.149632
_cell_angle_gamma 90.000000
_cell_volume 2590.358393
_symmetry_space_group_name_H-M "C 2/M"
_symmetry_group_IT_number 12
_symmetry_cell_setting 'monoclinic'
loop_
_space_group_symop_operation_xyz
x,y,z
-x,y,-z
-x,-y,-z
x,-y,z
1/2+x,1/2+y,z
1/2-x,1/2+y,-z
1/2-x,1/2-y,-z
1/2+x,1/2-y,z
loop_
_atom_site_type_symbol
_atom_site_label
_atom_site_fract_x
_atom_site_fract_y
_atom_site_fract_z
Si Si1 0.777729 0.329671 0.200526
Si Si2 0.586187 0.500000 0.208624
Si Si3 0.728998 0.307960 0.801410
Si Si4 0.457551 0.874242 0.450963
Si Si5 0.334580 0.809890 0.339829
Si Si6 0.013033 0.875004 0.615500
Si Si7 0.091855 0.500000 0.432867
O O1 0.751988 0.260939 0.237314
O O2 0.784274 0.343719 0.325652
O O3 0.666928 0.365767 0.350375
O O4 0.926428 0.342002 0.852418
O O5 0.500000 0.500000 0.500000
O O6 0.544671 0.438660 0.235167
O O7 0.746546 0.500000 0.915963
O O8 0.818923 0.338731 0.719366
O O9 0.787474 0.332170 0.560951
O O10 0.575872 0.327095 0.137373
O O11 0.500000 0.877260 0.500000
O O12 0.439972 0.939684 0.440811
O O13 0.250000 0.750000 0.500000
O O14 0.500000 0.802196 0.000000
O O15 0.000000 0.868343 0.500000
O O16 0.000000 0.500000 0.500000
#
# Coordination Sequence:
#
# PCOD9213609 Si02
#       7
#     8   4   8   8   8   8   4
#     4  11  24  37  60  91 122 158 199 243 303 356
#     4  10  22  40  60  83 118 160 208 244 286 357
#     4  11  22  39  61  87 126 158 197 247 299 357
#     4  11  22  37  60  88 121 158 199 242 301 358
#     4  10  22  39  61  86 118 161 211 244 285 357
#     4  11  24  39  61  90 124 160 198 247 300 359
#     4  10  22  38  62  85 113 163 209 241 289 356
#
# _framework density 18.530255
#
# number of rings (size 3 to 8) (size 9 to 14) (size 15 to 20)
#    0.000    1.333    3.333    2.000   14.000    4.000 
#    0.000    0.000    0.000    6.000    0.000    0.000 
#    0.000    0.000    0.000    0.000    0.000    0.000 
#
# Total GULP energy -133807.158679 kJ/mol
# GULP energy per Si atom -5575.298278 kJ/mol
# Density = 1.848808 g / cm^3
# Si number density = 18.530255 Si / 1000 Ang^3
#
#
#
# Elastic Constant Matrix: (Units=GPa)
#
#
# Indices 1 2 3 4 5 6 
#
# 1 63.9405 15.2767 1.4552 0.0002 -0.1668 -0.0001
# 2 15.2767 80.5518 -5.3534 -0.0001 -2.9976 -0.0002
# 3 1.4552 -5.3534 38.1835 -0.0001 1.5174 0.0003
# 4 0.0002 -0.0001 -0.0001 15.5284 0.0003 -23.8568
# 5 -0.1668 -2.9976 1.5174 0.0003 36.2229 0.0001
# 6 -0.0001 -0.0002 0.0003 -23.8568 0.0001 -22.0385
#
#
#
# Elastic Compliance Matrix: (Units=1/GPa)
#
#
# Indices 1 2 3 4 5 6 
#
# 1 0.016426 -0.003192 -0.001068 0.000000 -0.000144 0.000000
# 2 -0.003192 0.013185 0.001931 0.000000 0.000996 0.000000
# 3 -0.001068 0.001931 0.026539 0.000000 -0.000957 0.000000
# 4 0.000000 0.000000 0.000000 0.024182 0.000000 -0.026177
# 5 -0.000144 0.000996 -0.000957 0.000000 0.027729 0.000000
# 6 0.000000 0.000000 0.000000 -0.026177 0.000000 -0.017038
#
#
# Mechanical properties :
#
#
# Convention : Reuss Voigt Hill
#
# Bulk Modulus (GPa) = 19.42033 22.82587 21.12310
# Shear Modulus (GPa) = 44.30935 17.36238 30.83586
#
# Velocity S-wave (km/s) = 4.89528 3.06432 4.08374
# Velocity P-wave (km/s) = 6.51574 4.98648 5.80172
#
# Compressibility (1/GPa) = 0.05149244
#
# Stress axis : x y z
#
# Youngs Moduli (GPa) = 60.87919 75.84377 37.68077
#
# Poissons Ratio (x) = 0.24206 0.04023
# Poissons Ratio (y) = 0.19430 -0.07275
# Poissons Ratio (z) = 0.06500 -0.14643
#
# Static dielectric constant tensor:
#      x y z
#    x 1.674220 0.000000 0.014300 
#    y 0.000000 1.670330 0.000000 
#    z 0.014300 0.000000 1.623410 
# 
# From -- ./inp_files/185018.got.cif
#   From: 2010.05.17/outbox.cif.g08.bks.cpg/sg12_93_cif.got.tgz:185018.got - 2010.06.03 13:09:07.
