data_PCOD9213601
_publ_section_title
;
Structure prediction by ZEFSAII (Michael W. Deem and Ramdas Pophale) SiO2 
 PCOD9213601
Probable space group: C 2/M
;
_chemical_formula_sum "Si O2"
_cell_formula_units_Z 56
_cell_length_a 11.337840
_cell_length_b 18.318933
_cell_length_c 13.314623
_cell_angle_alpha 90.000000
_cell_angle_beta 64.003360
_cell_angle_gamma 90.000000
_cell_volume 2485.604234
_symmetry_space_group_name_H-M "C 2/M"
_symmetry_group_IT_number 12
_symmetry_cell_setting 'monoclinic'
loop_
_space_group_symop_operation_xyz
x,y,z
-x,y,-z
-x,-y,-z
x,-y,z
1/2+x,1/2+y,z
1/2-x,1/2+y,-z
1/2-x,1/2-y,-z
1/2+x,1/2-y,z
loop_
_atom_site_type_symbol
_atom_site_label
_atom_site_fract_x
_atom_site_fract_y
_atom_site_fract_z
Si Si1 0.340819 0.084991 0.181001
Si Si2 0.902237 0.348670 0.829894
Si Si3 0.673742 0.586106 0.037752
Si Si4 0.240989 0.276690 0.388747
Si Si5 0.907107 0.141730 0.622128
Si Si6 0.884533 0.418551 0.623152
Si Si7 0.507152 0.692856 0.203348
O O1 0.476175 0.127731 0.145037
O O2 0.264190 0.097253 0.104722
O O3 0.233012 0.103762 0.307134
O O4 0.374928 0.000000 0.173919
O O5 0.931169 0.380324 0.708511
O O6 0.892952 0.261115 0.834970
O O7 0.767167 0.385403 0.914990
O O8 0.644232 0.500000 0.040369
O O9 0.546833 0.637274 0.101172
O O10 0.250000 0.250000 0.500000
O O11 0.125904 0.226173 0.389241
O O12 0.213956 0.362043 0.390853
O O13 0.367263 0.268088 0.269984
O O14 0.980266 0.144803 0.700425
O O15 0.000000 0.112002 0.500000
O O16 0.834093 0.500000 0.662907
O O17 0.000000 0.423868 0.500000
#
# Coordination Sequence:
#
# PCOD9213601 Si02
#       7
#     8   8   8   8   8   8   8
#     4  10  22  38  61  94 127 164 213 262 314 376
#     4  12  21  41  67  92 125 171 215 266 320 380
#     4  10  23  42  63  91 129 170 214 267 322 374
#     4  12  22  40  64  90 124 170 206 256 320 385
#     4  11  21  37  60  91 124 162 209 253 315 381
#     4  11  25  41  62  95 129 164 215 269 321 383
#     4  11  23  38  63  92 124 160 214 266 312 383
#
# _framework density 22.529733
#
# number of rings (size 3 to 8) (size 9 to 14) (size 15 to 20)
#    0.000    1.000    4.286    3.429    0.000    2.000 
#    0.000    0.714    0.000    1.714    0.000    0.000 
#    0.000    0.000    0.000    0.000    0.000    0.000 
#
# Total GULP energy -156422.344482 kJ/mol
# GULP energy per Si atom -5586.512303 kJ/mol
# Density = 2.247845 g / cm^3
# Si number density = 22.529733 Si / 1000 Ang^3
#
#
#
# Elastic Constant Matrix: (Units=GPa)
#
#
# Indices 1 2 3 4 5 6 
#
# 1 33.3257 -3.8331 3.7459 0.0000 -7.7881 0.0000
# 2 -3.8331 102.8769 9.6583 0.0000 5.9441 0.0000
# 3 3.7459 9.6583 100.8506 0.0000 -13.5336 0.0000
# 4 0.0000 0.0000 0.0000 27.7281 0.0000 -6.9858
# 5 -7.7881 5.9441 -13.5336 0.0000 27.2394 0.0000
# 6 0.0000 0.0000 0.0000 -6.9858 0.0000 18.4620
#
#
#
# Elastic Compliance Matrix: (Units=1/GPa)
#
#
# Indices 1 2 3 4 5 6 
#
# 1 0.032202 0.000682 -0.000049 0.000000 0.009034 0.000000
# 2 0.000682 0.010025 -0.001342 0.000000 -0.002660 0.000000
# 3 -0.000049 -0.001342 0.010804 0.000000 0.005647 0.000000
# 4 0.000000 0.000000 0.000000 0.039865 0.000000 0.015084
# 5 0.009034 -0.002660 0.005647 0.000000 0.042680 0.000000
# 6 0.000000 0.000000 0.000000 0.015084 0.000000 0.059873
#
#
# Mechanical properties :
#
#
# Convention : Reuss Voigt Hill
#
# Bulk Modulus (GPa) = 19.37491 28.46614 23.92052
# Shear Modulus (GPa) = 23.35665 29.85137 26.60401
#
# Velocity S-wave (km/s) = 3.22328 3.64397 3.44006
# Velocity P-wave (km/s) = 4.74037 5.51063 5.13995
#
# Compressibility (1/GPa) = 0.05161315
#
# Stress axis : x y z
#
# Youngs Moduli (GPa) = 31.05397 99.74587 92.56014
#
# Poissons Ratio (x) = -0.06807 0.00455
# Poissons Ratio (y) = -0.02119 0.12425
# Poissons Ratio (z) = 0.00153 0.13390
#
# Static dielectric constant tensor:
#      x y z
#    x 1.895680 0.000000 -0.064870 
#    y 0.000000 1.825640 0.000000 
#    z -0.064870 0.000000 2.048660 
# 
# From -- ./inp_files/206569.got.cif
#   From: 2010.05.17/outbox.cif.g08.bks.cpg/sg12_104_cif.got.tgz:206569.got - 2010.06.03 13:09:07.
