data_PCOD9213153
_publ_section_title
;
Structure prediction by ZEFSAII (Michael W. Deem and Ramdas Pophale) SiO2 
 PCOD9213153
Probable space group: C 2/M
;
_chemical_formula_sum "Si O2"
_cell_formula_units_Z 64
_cell_length_a 14.409814
_cell_length_b 18.284074
_cell_length_c 13.623247
_cell_angle_alpha 90.000000
_cell_angle_beta 101.516761
_cell_angle_gamma 90.000000
_cell_volume 3517.052212
_symmetry_space_group_name_H-M "C 2/M"
_symmetry_group_IT_number 12
_symmetry_cell_setting 'monoclinic'
loop_
_space_group_symop_operation_xyz
x,y,z
-x,y,-z
-x,-y,-z
x,-y,z
1/2+x,1/2+y,z
1/2-x,1/2+y,-z
1/2-x,1/2-y,-z
1/2+x,1/2-y,z
loop_
_atom_site_type_symbol
_atom_site_label
_atom_site_fract_x
_atom_site_fract_y
_atom_site_fract_z
Si Si1 0.846833 0.848277 0.162185
Si Si2 0.671921 0.915646 0.035968
Si Si3 0.317832 0.665310 0.766038
Si Si4 0.143404 0.314973 0.844589
Si Si5 0.447387 0.792639 0.885240
Si Si6 0.025197 0.919848 0.118684
Si Si7 0.112656 0.085428 0.407804
Si Si8 0.616189 0.584976 0.633726
O O1 0.778886 0.905870 0.095931
O O2 0.823058 0.767260 0.120619
O O3 0.839247 0.861094 0.276908
O O4 0.954945 0.864394 0.156764
O O5 0.606116 0.866548 0.093332
O O6 0.644090 0.000000 0.026505
O O7 0.666166 0.875199 0.930656
O O8 0.206262 0.668744 0.762701
O O9 0.372125 0.736468 0.822180
O O10 0.367130 0.601731 0.841236
O O11 0.344641 0.641515 0.661758
O O12 0.029988 0.308482 0.823857
O O13 0.500000 0.767279 0.000000
O O14 0.006497 0.000000 0.156451
O O15 0.000000 0.919328 0.000000
O O16 0.142260 0.100123 0.526466
O O17 0.998107 0.090263 0.382239
O O18 0.136512 0.000000 0.390326
O O19 0.640989 0.500000 0.660875
#
# Coordination Sequence:
#
# PCOD9213153 Si02
#       8
#     8   8   8   8   8   8   8   8
#     4  12  20  35  58  82 111 147 186 229 275 325
#     4  11  24  39  56  79 110 150 197 233 260 316
#     4  12  20  34  55  79 114 145 181 221 281 338
#     4  11  24  36  57  81 110 150 182 226 278 329
#     4  10  22  37  56  76 108 154 190 226 270 321
#     4  11  22  31  49  83 117 144 174 218 277 339
#     4   9  18  32  52  81 115 147 176 221 280 335
#     4   9  17  32  55  82 112 144 182 224 273 330
#
# _framework density 18.197057000000001
#
# number of rings (size 3 to 8) (size 9 to 14) (size 15 to 20)
#    0.000    1.375    3.750    3.750    3.500    4.250 
#    0.000    0.625    0.000    0.000    0.000    0.000 
#    0.000    3.000    0.000    0.125    0.000    0.000 
#
# Total GULP energy -178453.689354 kJ/mol
# GULP energy per Si atom -5576.677792 kJ/mol
# Density = 1.815564 g / cm^3
# Si number density = 18.197057 Si / 1000 Ang^3
#
#
#
# Elastic Constant Matrix: (Units=GPa)
#
#
# Indices 1 2 3 4 5 6 
#
# 1 82.4223 21.2731 12.6325 0.0000 -26.3544 0.0000
# 2 21.2731 117.8690 40.2849 0.0000 -16.7639 0.0000
# 3 12.6325 40.2849 67.7113 0.0000 -17.6204 0.0000
# 4 0.0000 0.0000 0.0000 22.1097 0.0000 -10.3169
# 5 -26.3544 -16.7639 -17.6204 0.0000 26.7170 0.0000
# 6 0.0000 0.0000 0.0000 -10.3169 0.0000 15.0111
#
#
#
# Elastic Compliance Matrix: (Units=1/GPa)
#
#
# Indices 1 2 3 4 5 6 
#
# 1 0.018031 -0.001412 0.002262 0.000000 0.018393 0.000000
# 2 -0.001412 0.010966 -0.005834 0.000000 0.001641 0.000000
# 3 0.002262 -0.005834 0.021060 0.000000 0.012460 0.000000
# 4 0.000000 0.000000 0.000000 0.066582 0.000000 0.045761
# 5 0.018393 0.001641 0.012460 0.000000 0.064820 0.000000
# 6 0.000000 0.000000 0.000000 0.045761 0.000000 0.098068
#
#
# Mechanical properties :
#
#
# Convention : Reuss Voigt Hill
#
# Bulk Modulus (GPa) = 24.94343 46.26484 35.60413
# Shear Modulus (GPa) = 16.50942 25.68836 21.09889
#
# Velocity S-wave (km/s) = 3.01534 3.76130 3.40879
# Velocity P-wave (km/s) = 5.08529 6.65904 5.92465
#
# Compressibility (1/GPa) = 0.04009071
#
# Stress axis : x y z
#
# Youngs Moduli (GPa) = 55.45894 91.19089 47.48344
#
# Poissons Ratio (x) = 0.12872 -0.10741
# Poissons Ratio (y) = 0.07828 0.27701
# Poissons Ratio (z) = -0.12546 0.53200
#
# Static dielectric constant tensor:
#      x y z
#    x 1.658990 0.000000 -0.014430 
#    y 0.000000 1.651910 0.000000 
#    z -0.014430 0.000000 1.635320 
# 
# From -- ./inp_files/215963.got.cif
#   From: 2010.05.17/outbox.cif.g08.bks.cpg/sg12_108_cif.got.tgz:215963.got - 2010.06.03 13:09:07.
