data_PCOD9213359
_publ_section_title
;
Structure prediction by ZEFSAII (Michael W. Deem and Ramdas Pophale) SiO2 
 PCOD9213359
Probable space group: C 2/M
;
_chemical_formula_sum "Si O2"
_cell_formula_units_Z 56
_cell_length_a 30.730847
_cell_length_b 8.685030
_cell_length_c 22.458530
_cell_angle_alpha 90.000000
_cell_angle_beta 33.052175
_cell_angle_gamma 90.000000
_cell_volume 3269.221326
_symmetry_space_group_name_H-M "C 2/M"
_symmetry_group_IT_number 12
_symmetry_cell_setting 'monoclinic'
loop_
_space_group_symop_operation_xyz
x,y,z
-x,y,-z
-x,-y,-z
x,-y,z
1/2+x,1/2+y,z
1/2-x,1/2+y,-z
1/2-x,1/2-y,-z
1/2+x,1/2-y,z
loop_
_atom_site_type_symbol
_atom_site_label
_atom_site_fract_x
_atom_site_fract_y
_atom_site_fract_z
Si Si1 0.235741 0.815571 0.639437
Si Si2 0.083852 0.684530 0.607776
Si Si3 0.086242 0.315117 0.742615
Si Si4 0.461271 0.315362 0.980118
Si Si5 0.788929 0.316196 0.199948
Si Si6 0.124729 0.684212 0.348169
Si Si7 0.506403 0.316759 0.583371
O O1 0.324768 0.779532 0.515110
O O2 0.169604 0.754639 0.669740
O O3 0.220180 0.740282 0.721405
O O4 0.228338 0.000000 0.653957
O O5 0.073670 0.500000 0.612880
O O6 0.071405 0.725800 0.690836
O O7 0.026311 0.768791 0.627536
O O8 0.090345 0.500000 0.742348
O O9 0.017668 0.251899 0.864355
O O10 0.457852 0.500000 0.979451
O O11 0.372996 0.245840 0.079768
O O12 0.500000 0.277082 0.000000
O O13 0.786752 0.500000 0.200542
O O14 0.713958 0.246941 0.250520
O O15 0.123708 0.500000 0.350345
O O16 0.075429 0.747138 0.348434
O O17 0.075822 0.746006 0.461707
O O18 0.506218 0.500000 0.576433
#
# Coordination Sequence:
#
# PCOD9213359 Si02
#       7
#     8   8   8   8   8   8   8
#     4  11  21  35  55  81 116 155 189 227 281 342
#     4  10  22  38  56  81 117 156 190 229 285 341
#     4  11  23  38  57  82 113 152 196 238 278 333
#     4  11  23  39  59  81 110 150 192 237 285 336
#     4  12  23  36  58  86 115 146 188 237 282 334
#     4  11  21  36  57  82 116 151 184 229 287 339
#     4  11  21  34  56  85 115 148 190 233 277 333
#
# _framework density 17.129462
#
# number of rings (size 3 to 8) (size 9 to 14) (size 15 to 20)
#    0.000    1.000    2.857    6.429    0.000    2.286 
#    0.000    0.000    0.000    0.857    0.000    0.000 
#    0.000    0.000    0.000    0.000    0.000    0.000 
#
# Total GULP energy -156573.841228 kJ/mol
# GULP energy per Si atom -5591.922901 kJ/mol
# Density = 1.709047 g / cm^3
# Si number density = 17.129462 Si / 1000 Ang^3
#
#
#
# Elastic Constant Matrix: (Units=GPa)
#
#
# Indices 1 2 3 4 5 6 
#
# 1 146.5744 61.8131 57.8789 -0.0034 -12.0678 -0.0011
# 2 61.8131 100.4964 34.7700 0.0092 -5.5117 -0.0037
# 3 57.8789 34.7700 59.4362 -0.0076 -2.6352 -0.0010
# 4 -0.0034 0.0092 -0.0076 14.7714 0.0083 -3.0301
# 5 -12.0678 -5.5117 -2.6352 0.0083 31.2841 -0.0023
# 6 -0.0011 -0.0037 -0.0010 -3.0301 -0.0023 31.6444
#
#
#
# Elastic Compliance Matrix: (Units=1/GPa)
#
#
# Indices 1 2 3 4 5 6 
#
# 1 0.012766 -0.004286 -0.009775 -0.000001 0.003346 0.000000
# 2 -0.004286 0.013994 -0.003991 -0.000012 0.000476 0.000000
# 3 -0.009775 -0.003991 0.028587 0.000016 -0.002066 0.000002
# 4 -0.000001 -0.000012 0.000016 0.069055 -0.000019 0.006612
# 5 0.003346 0.000476 -0.002066 -0.000019 0.033166 0.000001
# 6 0.000000 0.000000 0.000002 0.006612 0.000001 0.032234
#
#
# Mechanical properties :
#
#
# Convention : Reuss Voigt Hill
#
# Bulk Modulus (GPa) = 51.97243 68.38120 60.17682
# Shear Modulus (GPa) = 21.52193 25.67632 23.59912
#
# Velocity S-wave (km/s) = 3.54846 3.87584 3.71575
# Velocity P-wave (km/s) = 6.86990 7.74831 7.32229
#
# Compressibility (1/GPa) = 0.01924097
#
# Stress axis : x y z
#
# Youngs Moduli (GPa) = 78.33562 71.45899 34.98050
#
# Poissons Ratio (x) = 0.30629 0.34195
# Poissons Ratio (y) = 0.33577 0.13962
# Poissons Ratio (z) = 0.76576 0.28522
#
# Static dielectric constant tensor:
#      x y z
#    x 1.575170 0.000000 -0.003680 
#    y 0.000000 1.571910 0.000000 
#    z -0.003680 0.000000 1.551520 
# 
# From -- ./inp_files/329558.got.cif
#   From: 2010.05.17/outbox.cif.g08.bks.cpg/sg12_165_cif.got.tgz:329558.got - 2010.06.03 13:09:07.
