data_PCOD9213676
_publ_section_title
;
Structure prediction by ZEFSAII (Michael W. Deem and Ramdas Pophale) SiO2 
 PCOD9213676
Probable space group: C 2/M
;
_chemical_formula_sum "Si O2"
_cell_formula_units_Z 32
_cell_length_a 20.095150
_cell_length_b 14.145519
_cell_length_c 5.191101
_cell_angle_alpha 90.000000
_cell_angle_beta 100.950569
_cell_angle_gamma 90.000000
_cell_volume 1448.734681
_symmetry_space_group_name_H-M "C 2/M"
_symmetry_group_IT_number 12
_symmetry_cell_setting 'monoclinic'
loop_
_space_group_symop_operation_xyz
x,y,z
-x,y,-z
-x,-y,-z
x,-y,z
1/2+x,1/2+y,z
1/2-x,1/2+y,-z
1/2-x,1/2-y,-z
1/2+x,1/2-y,z
loop_
_atom_site_type_symbol
_atom_site_label
_atom_site_fract_x
_atom_site_fract_y
_atom_site_fract_z
Si Si1 0.286703 0.707761 0.777268
Si Si2 0.582110 0.500000 0.802993
Si Si3 0.328278 0.500000 0.652106
Si Si4 0.547865 0.000000 0.285015
Si Si5 0.572256 0.794069 0.204414
Si Si6 0.500000 0.660477 0.500000
O O1 0.250000 0.750000 0.500000
O O2 0.289811 0.595577 0.713331
O O3 0.363271 0.745919 0.873477
O O4 0.250000 0.750000 0.000000
O O5 0.641463 0.500000 0.620330
O O6 0.535858 0.591200 0.725219
O O7 0.607938 0.500000 0.110164
O O8 0.500000 0.000000 0.500000
O O9 0.587716 0.901711 0.298031
O O10 0.500000 0.000000 0.000000
O O11 0.557321 0.728816 0.436495
O O12 0.500000 0.794064 0.000000
#
# Coordination Sequence:
#
# PCOD9213676 Si02
#       6
#     8   4   4   4   8   4
#     4  12  29  48  72 104 145 190 235 292 359 423
#     4  11  24  38  71 110 138 178 225 294 358 420
#     4  12  24  49  71  98 144 188 235 282 359 430
#     4  10  22  38  64 100 133 179 235 295 348 398
#     4  11  24  43  72 101 141 184 239 294 349 418
#     4  11  22  37  70 106 140 175 234 287 356 412
#
# _framework density 22.088242000000001
#
# number of rings (size 3 to 8) (size 9 to 14) (size 15 to 20)
#    0.000    0.750    3.750    3.000    3.500    3.000 
#    0.000    0.000    0.000    0.000    0.000    0.000 
#    0.000    0.000    0.000    0.000    0.000    0.000 
#
# Total GULP energy -89391.120769 kJ/mol
# GULP energy per Si atom -5586.945048 kJ/mol
# Density = 2.203797 g / cm^3
# Si number density = 22.088242 Si / 1000 Ang^3
#
#
#
# Elastic Constant Matrix: (Units=GPa)
#
#
# Indices 1 2 3 4 5 6 
#
# 1 113.3892 49.9422 29.4905 0.0000 -26.9377 0.0000
# 2 49.9422 218.3910 16.4554 0.0000 -10.6947 0.0000
# 3 29.4905 16.4554 97.6474 0.0000 -9.6361 0.0000
# 4 0.0000 0.0000 0.0000 15.5970 0.0000 -6.3665
# 5 -26.9377 -10.6947 -9.6361 0.0000 53.9753 0.0000
# 6 0.0000 0.0000 0.0000 -6.3665 0.0000 -32.3249
#
#
#
# Elastic Compliance Matrix: (Units=1/GPa)
#
#
# Indices 1 2 3 4 5 6 
#
# 1 0.011656 -0.002225 -0.002662 0.000000 0.004901 0.000000
# 2 -0.002225 0.005096 -0.000200 0.000000 -0.000136 0.000000
# 3 -0.002662 -0.000200 0.011140 0.000000 0.000621 0.000000
# 4 0.000000 0.000000 0.000000 0.059344 0.000000 -0.011688
# 5 0.004901 -0.000136 0.000621 0.000000 0.021057 0.000000
# 6 0.000000 0.000000 0.000000 -0.011688 0.000000 -0.028634
#
#
# Mechanical properties :
#
#
# Convention : Reuss Voigt Hill
#
# Bulk Modulus (GPa) = 56.43954 69.02264 62.73109
# Shear Modulus (GPa) = 52.22587 29.68545 40.95566
#
# Velocity S-wave (km/s) = 4.86781 3.66997 4.31069
# Velocity P-wave (km/s) = 7.56316 7.01959 7.29644
#
# Compressibility (1/GPa) = 0.01771808
#
# Stress axis : x y z
#
# Youngs Moduli (GPa) = 85.79494 196.22635 89.76855
#
# Poissons Ratio (x) = 0.43659 0.23892
# Poissons Ratio (y) = 0.19089 0.01798
# Poissons Ratio (z) = 0.22835 0.03931
#
# Static dielectric constant tensor:
#      x y z
#    x 1.657220 0.000000 0.121180 
#    y 0.000000 1.830510 0.000000 
#    z 0.121180 0.000000 1.715350 
# 
# From -- ./inp_files/14585.got.cif
#   From: 2010.05.17/outbox.cif.g08.bks.cpg/sg12_8_cif.got.tgz:14585.got - 2010.06.03 13:09:07.
