data_PCOD9213561
_publ_section_title
;
Structure prediction by ZEFSAII (Michael W. Deem and Ramdas Pophale) SiO2 
 PCOD9213561
Probable space group: C 2/M
;
_chemical_formula_sum "Si O2"
_cell_formula_units_Z 24
_cell_length_a 9.095581
_cell_length_b 11.160620
_cell_length_c 10.726617
_cell_angle_alpha 90.000000
_cell_angle_beta 125.255420
_cell_angle_gamma 90.000000
_cell_volume 889.168317
_symmetry_space_group_name_H-M "C 2/M"
_symmetry_group_IT_number 12
_symmetry_cell_setting 'monoclinic'
loop_
_space_group_symop_operation_xyz
x,y,z
-x,y,-z
-x,-y,-z
x,-y,z
1/2+x,1/2+y,z
1/2-x,1/2+y,-z
1/2-x,1/2-y,-z
1/2+x,1/2-y,z
loop_
_atom_site_type_symbol
_atom_site_label
_atom_site_fract_x
_atom_site_fract_y
_atom_site_fract_z
Si Si1 0.858417 0.127528 0.542115
Si Si2 0.116721 0.175618 0.174882
Si Si3 0.127574 0.636935 0.889288
O O1 0.750000 0.250000 0.500000
O O2 0.939916 0.122385 0.721583
O O3 0.000000 0.135663 0.500000
O O4 0.758082 0.000000 0.475540
O O5 0.318398 0.145474 0.230659
O O6 0.069582 0.316407 0.168463
O O7 0.000000 0.129599 0.000000
O O8 0.155644 0.500000 0.943011
O O9 0.250000 0.750000 0.000000
#
# Coordination Sequence:
#
# PCOD9213561 Si02
#       3
#     8   8   8
#     4  11  25  44  66  94 129 170 213 260 318 382
#     4  10  22  41  67  94 126 165 212 263 314 371
#     4  10  22  38  60  93 129 164 206 259 317 373
#
# _framework density 26.991513999999999
#
# number of rings (size 3 to 8) (size 9 to 14) (size 15 to 20)
#    0.000    1.667    0.000    3.000    0.000   20.000 
#    0.000    6.667    0.000    0.000    0.000    0.000 
#    0.000    0.000    0.000    0.000    0.000    0.000 
#
# Total GULP energy -66917.939926 kJ/mol
# GULP energy per Si atom -5576.494994 kJ/mol
# Density = 2.693008 g / cm^3
# Si number density = 26.991514 Si / 1000 Ang^3
#
#
#
# Elastic Constant Matrix: (Units=GPa)
#
#
# Indices 1 2 3 4 5 6 
#
# 1 114.5566 76.9171 33.4931 0.0000 -40.8459 0.0000
# 2 76.9171 315.4311 43.2313 0.0000 -8.8249 0.0000
# 3 33.4931 43.2313 148.9018 0.0000 -42.4321 0.0000
# 4 0.0000 0.0000 0.0000 12.5806 0.0000 9.5022
# 5 -40.8459 -8.8249 -42.4321 0.0000 48.4329 0.0000
# 6 0.0000 0.0000 0.0000 9.5022 0.0000 37.4363
#
#
#
# Elastic Compliance Matrix: (Units=1/GPa)
#
#
# Indices 1 2 3 4 5 6 
#
# 1 0.015681 -0.003639 0.001478 0.000000 0.013856 0.000000
# 2 -0.003639 0.004150 -0.001393 0.000000 -0.003533 0.000000
# 3 0.001478 -0.001393 0.009423 0.000000 0.009248 0.000000
# 4 0.000000 0.000000 0.000000 0.098341 0.000000 -0.024961
# 5 0.013856 -0.003533 0.009248 0.000000 0.039791 0.000000
# 6 0.000000 0.000000 0.000000 -0.024961 0.000000 0.033048
#
#
# Mechanical properties :
#
#
# Convention : Reuss Voigt Hill
#
# Bulk Modulus (GPa) = 45.15512 98.46362 71.80937
# Shear Modulus (GPa) = 23.26414 48.03984 35.65199
#
# Velocity S-wave (km/s) = 2.93901 4.22336 3.63831
# Velocity P-wave (km/s) = 5.31815 7.76795 6.65672
#
# Compressibility (1/GPa) = 0.02214588
#
# Stress axis : x y z
#
# Youngs Moduli (GPa) = 63.77219 240.98584 106.11947
#
# Poissons Ratio (x) = 0.87685 -0.15682
# Poissons Ratio (y) = 0.23204 0.14784
# Poissons Ratio (z) = -0.09424 0.33572
#
# Static dielectric constant tensor:
#      x y z
#    x 2.412680 0.000000 0.156570 
#    y 0.000000 2.124290 0.000000 
#    z 0.156570 0.000000 2.372330 
# 
# From -- ./inp_files/43880.got.cif
#   From: 2010.05.17/outbox.cif.g08.bks.cpg/sg12_22_cif.got.tgz:43880.got - 2010.06.03 13:09:07.
