data_PCOD9213160
_publ_section_title
;
Structure prediction by ZEFSAII (Michael W. Deem and Ramdas Pophale) SiO2 
 PCOD9213160
Probable space group: C 2/M
;
_chemical_formula_sum "Si O2"
_cell_formula_units_Z 40
_cell_length_a 21.982622
_cell_length_b 7.387945
_cell_length_c 28.969132
_cell_angle_alpha 90.000000
_cell_angle_beta 160.346957
_cell_angle_gamma 90.000000
_cell_volume 1582.325834
_symmetry_space_group_name_H-M "C 2/M"
_symmetry_group_IT_number 12
_symmetry_cell_setting 'monoclinic'
loop_
_space_group_symop_operation_xyz
x,y,z
-x,y,-z
-x,-y,-z
x,-y,z
1/2+x,1/2+y,z
1/2-x,1/2+y,-z
1/2-x,1/2-y,-z
1/2+x,1/2-y,z
loop_
_atom_site_type_symbol
_atom_site_label
_atom_site_fract_x
_atom_site_fract_y
_atom_site_fract_z
Si Si1 0.666017 0.719874 0.830523
Si Si2 0.924621 0.713600 0.092385
Si Si3 0.539015 0.222385 0.579889
Si Si4 0.825451 0.208813 0.851238
Si Si5 0.168128 0.793017 0.347946
O O1 0.665786 0.500000 0.831707
O O2 0.678424 0.784295 0.787342
O O3 0.488599 0.785402 0.731393
O O4 0.848275 0.778127 0.988580
O O5 0.956069 0.500000 0.112392
O O6 0.088932 0.794662 0.238861
O O7 0.750000 0.750000 0.000000
O O8 0.500000 0.278211 0.500000
O O9 0.727949 0.285534 0.736571
O O10 0.367654 0.285731 0.487667
O O11 0.540702 0.000000 0.581974
O O12 0.868944 0.000000 0.872375
O O13 0.000000 0.296072 0.000000
O O14 0.188122 0.000000 0.377349
#
# Coordination Sequence:
#
# PCOD9213160 Si02
#       5
#     8   8   8   8   8
#     4   9  19  34  52  79 112 145 178 221 281 336
#     4   9  17  30  50  80 114 145 181 221 270 327
#     4   9  19  36  57  81 111 146 183 231 285 327
#     4  10  22  37  56  84 109 139 190 235 270 328
#     4   9  18  33  56  82 110 146 187 228 278 333
#
# _framework density 25.279246000000001
#
# number of rings (size 3 to 8) (size 9 to 14) (size 15 to 20)
#    0.000    2.800    0.000    1.800    2.800    5.200 
#    0.000    1.000    0.000    1.200    0.000    0.000 
#    0.000    0.000    0.000    0.000    0.000    0.000 
#
# Total GULP energy -111737.339324 kJ/mol
# GULP energy per Si atom -5586.866966 kJ/mol
# Density = 2.522171 g / cm^3
# Si number density = 25.279246 Si / 1000 Ang^3
#
#
#
# Elastic Constant Matrix: (Units=GPa)
#
#
# Indices 1 2 3 4 5 6 
#
# 1 96.6632 5.7392 44.9165 0.0072 -8.5086 -0.0002
# 2 5.7392 104.3114 3.4590 0.0175 6.8582 0.0020
# 3 44.9165 3.4590 188.3344 0.0282 -5.9774 0.0056
# 4 0.0072 0.0175 0.0282 -1.8145 -0.0001 -0.0191
# 5 -8.5086 6.8582 -5.9774 -0.0001 43.7151 -0.0018
# 6 -0.0002 0.0020 0.0056 -0.0191 -0.0018 18.3328
#
#
#
# Elastic Compliance Matrix: (Units=1/GPa)
#
#
# Indices 1 2 3 4 5 6 
#
# 1 0.011842 -0.000694 -0.002747 -0.000002 0.002038 0.000001
# 2 -0.000694 0.009737 -0.000066 0.000090 -0.001672 -0.000001
# 3 -0.002747 -0.000066 0.005975 0.000081 0.000293 -0.000002
# 4 -0.000002 0.000090 0.000081 -0.551097 -0.000005 -0.000575
# 5 0.002038 -0.001672 0.000293 -0.000005 0.023574 0.000002
# 6 0.000001 -0.000001 -0.000002 -0.000575 0.000002 0.054546
#
#
# Mechanical properties :
#
#
# Convention : Reuss Voigt Hill
#
# Bulk Modulus (GPa) = 48.68714 55.28206 51.98460
# Shear Modulus (GPa) = -11.58588 34.39296 11.40354
#
# Velocity S-wave (km/s) = -2.14315 3.69253 2.12622
# Velocity P-wave (km/s) = 3.63007 6.33212 5.16106
#
# Compressibility (1/GPa) = 0.02053931
#
# Stress axis : x y z
#
# Youngs Moduli (GPa) = 84.44363 102.70116 167.35543
#
# Poissons Ratio (x) = 0.07132 0.45970
# Poissons Ratio (y) = 0.05864 0.01109
# Poissons Ratio (z) = 0.23195 0.00681
#
# Static dielectric constant tensor:
#      x y z
#    x 2.001230 0.000000 0.007490 
#    y 0.000000 1.943420 0.000000 
#    z 0.007490 0.000000 2.002080 
# 
# From -- ./inp_files/162749.got.cif
#   From: 2010.05.17/outbox.cif.g08.bks.cpg/sg12_82_cif.got.tgz:162749.got - 2010.06.03 13:09:07.
