data_PCOD9213052
_publ_section_title
;
Structure prediction by ZEFSAII (Michael W. Deem and Ramdas Pophale) SiO2 
 PCOD9213052
Probable space group: C 2/M
;
_chemical_formula_sum "Si O2"
_cell_formula_units_Z 44
_cell_length_a 23.468603
_cell_length_b 17.024084
_cell_length_c 5.065721
_cell_angle_alpha 90.000000
_cell_angle_beta 93.323811
_cell_angle_gamma 90.000000
_cell_volume 2020.510338
_symmetry_space_group_name_H-M "C 2/M"
_symmetry_group_IT_number 12
_symmetry_cell_setting 'monoclinic'
loop_
_space_group_symop_operation_xyz
x,y,z
-x,y,-z
-x,-y,-z
x,-y,z
1/2+x,1/2+y,z
1/2-x,1/2+y,-z
1/2-x,1/2-y,-z
1/2+x,1/2-y,z
loop_
_atom_site_type_symbol
_atom_site_label
_atom_site_fract_x
_atom_site_fract_y
_atom_site_fract_z
Si Si1 0.441485 0.915076 0.824891
Si Si2 0.199391 0.694943 0.586454
Si Si3 0.934454 0.908679 0.876142
Si Si4 0.406319 0.311141 0.341005
Si Si5 0.681831 0.908142 0.066718
Si Si6 0.500000 0.207549 0.500000
O O1 0.452937 0.845714 0.627461
O O2 0.432970 0.000000 0.686407
O O3 0.500000 0.918576 0.000000
O O4 0.386876 0.903761 0.994595
O O5 0.250000 0.750000 0.500000
O O6 0.146167 0.753246 0.622139
O O7 0.211143 0.646282 0.856627
O O8 0.188735 0.630373 0.356006
O O9 0.896883 0.869843 0.096917
O O10 0.920816 0.000000 0.826602
O O11 0.923343 0.859747 0.607430
O O12 0.000000 0.906534 0.000000
O O13 0.462840 0.259848 0.292526
O O14 0.698393 0.000000 0.061915
#
# Coordination Sequence:
#
# PCOD9213052 Si02
#       6
#     8   8   8   8   8   4
#     4  10  22  36  58  94 137 177 209 256 318 393
#     4  12  26  47  68  97 132 172 226 280 324 376
#     4  11  23  42  63  94 131 167 207 266 338 401
#     4  12  24  39  67  96 126 168 216 267 326 385
#     4  11  24  45  70  98 134 178 219 266 329 390
#     4  12  21  34  61  92 132 160 216 252 323 380
#
# _framework density 21.776678
#
# number of rings (size 3 to 8) (size 9 to 14) (size 15 to 20)
#    0.000    0.727    3.636    4.091    2.545    1.455 
#    0.000    5.455    0.000    0.000    0.000    0.000 
#    0.000    0.000    0.000    0.000    0.000    0.000 
#
# Total GULP energy -123030.242815 kJ/mol
# GULP energy per Si atom -5592.283764 kJ/mol
# Density = 2.172711 g / cm^3
# Si number density = 21.776678 Si / 1000 Ang^3
#
#
#
# Elastic Constant Matrix: (Units=GPa)
#
#
# Indices 1 2 3 4 5 6 
#
# 1 44.6760 24.4992 -9.6817 0.0000 -20.7152 0.0000
# 2 24.4992 151.8479 45.1906 0.0000 -16.8063 0.0000
# 3 -9.6817 45.1906 100.8016 0.0000 -10.0292 0.0000
# 4 0.0000 0.0000 0.0000 29.7247 0.0000 -8.0272
# 5 -20.7152 -16.8063 -10.0292 0.0000 24.3176 0.0000
# 6 0.0000 0.0000 0.0000 -8.0272 0.0000 18.5648
#
#
#
# Elastic Compliance Matrix: (Units=1/GPa)
#
#
# Indices 1 2 3 4 5 6 
#
# 1 0.047227 -0.006568 0.011504 0.000000 0.040436 0.000000
# 2 -0.006568 0.008908 -0.004764 0.000000 -0.001403 0.000000
# 3 0.011504 -0.004764 0.014399 0.000000 0.012446 0.000000
# 4 0.000000 0.000000 0.000000 0.038090 0.000000 0.016469
# 5 0.040436 -0.001403 0.012446 0.000000 0.079732 0.000000
# 6 0.000000 0.000000 0.000000 0.016469 0.000000 0.060986
#
#
# Mechanical properties :
#
#
# Convention : Reuss Voigt Hill
#
# Bulk Modulus (GPa) = 14.10868 46.37131 30.23999
# Shear Modulus (GPa) = 18.34027 30.34258 24.34143
#
# Velocity S-wave (km/s) = 2.90521 3.73681 3.34694
# Velocity P-wave (km/s) = 4.21267 6.32128 5.37146
#
# Compressibility (1/GPa) = 0.07087834
#
# Stress axis : x y z
#
# Youngs Moduli (GPa) = 21.17419 112.26373 69.44763
#
# Poissons Ratio (x) = 0.73732 -0.79890
# Poissons Ratio (y) = 0.13907 0.33084
# Poissons Ratio (z) = -0.24358 0.53480
#
# Static dielectric constant tensor:
#      x y z
#    x 1.805260 0.000000 0.019660 
#    y 0.000000 1.837800 0.000000 
#    z 0.019660 0.000000 1.809900 
# 
# From -- ./inp_files/24271.got.cif
#   From: 2010.05.17/outbox.cif.g08.bks.cpg/sg12_13_cif.got.tgz:24271.got - 2010.06.03 13:09:07.
