data_PCOD9213589
_publ_section_title
;
Structure prediction by ZEFSAII (Michael W. Deem and Ramdas Pophale) SiO2 
 PCOD9213589
Probable space group: C 2/M
;
_chemical_formula_sum "Si O2"
_cell_formula_units_Z 64
_cell_length_a 24.256585
_cell_length_b 15.651213
_cell_length_c 14.905918
_cell_angle_alpha 90.000000
_cell_angle_beta 29.259124
_cell_angle_gamma 90.000000
_cell_volume 2765.872773
_symmetry_space_group_name_H-M "C 2/M"
_symmetry_group_IT_number 12
_symmetry_cell_setting 'monoclinic'
loop_
_space_group_symop_operation_xyz
x,y,z
-x,y,-z
-x,-y,-z
x,-y,z
1/2+x,1/2+y,z
1/2-x,1/2+y,-z
1/2-x,1/2-y,-z
1/2+x,1/2-y,z
loop_
_atom_site_type_symbol
_atom_site_label
_atom_site_fract_x
_atom_site_fract_y
_atom_site_fract_z
Si Si1 0.620703 0.331073 0.305068
Si Si2 0.373378 0.605003 0.202979
Si Si3 0.934472 0.872616 0.803859
Si Si4 0.347207 0.100688 0.576866
Si Si5 0.799208 0.398842 0.181660
Si Si6 0.938345 0.668541 0.819594
Si Si7 0.809479 0.354067 0.822424
Si Si8 0.816872 0.901979 0.478998
O O1 0.500000 0.292262 0.500000
O O2 0.590195 0.390161 0.265090
O O3 0.682371 0.381556 0.294838
O O4 0.697203 0.249589 0.171698
O O5 0.377470 0.500000 0.199389
O O6 0.278833 0.632407 0.266401
O O7 0.330504 0.636304 0.360927
O O8 0.500000 0.633461 0.000000
O O9 0.941142 0.770206 0.804529
O O10 0.053748 0.905273 0.668356
O O11 0.813604 0.896007 0.017085
O O12 0.435810 0.138895 0.381641
O O13 0.376409 0.120843 0.638212
O O14 0.348813 0.000000 0.562555
O O15 0.821348 0.500000 0.155598
O O16 0.768874 0.364869 0.324664
O O17 0.891720 0.358300 0.983320
O O18 0.863632 0.627938 0.843119
O O19 0.779163 0.000000 0.520253
#
# Coordination Sequence:
#
# PCOD9213589 Si02
#       8
#     8   8   8   8   8   8   8   8
#     4  11  19  35  54  80 119 161 198 231 286 352
#     4   9  19  41  65  86 117 152 193 250 310 356
#     4  11  20  35  61  85 117 164 198 235 291 356
#     4  11  24  39  61  89 115 153 201 251 302 352
#     4  11  22  36  56  83 121 158 191 240 290 345
#     4  11  22  39  57  85 124 164 195 234 293 359
#     4  11  21  36  58  85 120 163 198 237 294 359
#     4  10  22  38  61  91 116 149 201 253 296 345
#
# _framework density 23.139171000000001
#
# number of rings (size 3 to 8) (size 9 to 14) (size 15 to 20)
#    0.000    1.375    3.750    3.750    0.000    3.750 
#    0.000    1.250    0.000    4.500    0.000    0.000 
#    0.000    0.000    0.000    0.000    0.000    0.000 
#
# Total GULP energy -178601.131303 kJ/mol
# GULP energy per Si atom -5581.285353 kJ/mol
# Density = 2.308651 g / cm^3
# Si number density = 23.139171 Si / 1000 Ang^3
#
#
#
# Elastic Constant Matrix: (Units=GPa)
#
#
# Indices 1 2 3 4 5 6 
#
# 1 70.2804 0.5965 48.8098 0.0000 21.9643 0.0000
# 2 0.5965 46.8913 14.4124 0.0000 2.0218 0.0000
# 3 48.8098 14.4124 159.0705 0.0000 20.7492 0.0000
# 4 0.0000 0.0000 0.0000 20.1337 0.0000 -1.6088
# 5 21.9643 2.0218 20.7492 0.0000 44.1074 0.0000
# 6 0.0000 0.0000 0.0000 -1.6088 0.0000 17.4466
#
#
#
# Elastic Compliance Matrix: (Units=1/GPa)
#
#
# Indices 1 2 3 4 5 6 
#
# 1 0.020368 0.001733 -0.005405 0.000000 -0.007679 0.000000
# 2 0.001733 0.022085 -0.002438 0.000000 -0.000729 0.000000
# 3 -0.005405 -0.002438 0.008310 0.000000 -0.001106 0.000000
# 4 0.000000 0.000000 0.000000 0.050037 0.000000 0.004614
# 5 -0.007679 -0.000729 -0.001106 0.000000 0.027050 0.000000
# 6 0.000000 0.000000 0.000000 0.004614 0.000000 0.057743
#
#
# Mechanical properties :
#
#
# Convention : Reuss Voigt Hill
#
# Bulk Modulus (GPa) = 25.94472 44.87552 35.41012
# Shear Modulus (GPa) = 23.73504 30.49910 27.11707
#
# Velocity S-wave (km/s) = 3.20621 3.63447 3.42703
# Velocity P-wave (km/s) = 4.99432 6.08673 5.56738
#
# Compressibility (1/GPa) = 0.03854349
#
# Stress axis : x y z
#
# Youngs Moduli (GPa) = 49.09702 45.28056 120.33445
#
# Poissons Ratio (x) = -0.07849 0.65042
# Poissons Ratio (y) = -0.08510 0.29334
# Poissons Ratio (z) = 0.26537 0.11038
#
# Static dielectric constant tensor:
#      x y z
#    x 1.874340 0.000000 0.036550 
#    y 0.000000 1.848270 0.000000 
#    z 0.036550 0.000000 2.015830 
# 
# From -- ./inp_files/241461.got.cif
#   From: 2010.05.17/outbox.cif.g08.bks.cpg/sg12_121_cif.got.tgz:241461.got - 2010.06.03 13:09:07.
