data_PCOD9213991
_publ_section_title
;
Structure prediction by ZEFSAII (Michael W. Deem and Ramdas Pophale) SiO2 
 PCOD9213991
Probable space group: C 2/M
;
_chemical_formula_sum "Si O2"
_cell_formula_units_Z 48
_cell_length_a 14.932576
_cell_length_b 16.474085
_cell_length_c 19.308788
_cell_angle_alpha 90.000000
_cell_angle_beta 31.637325
_cell_angle_gamma 90.000000
_cell_volume 2491.553393
_symmetry_space_group_name_H-M "C 2/M"
_symmetry_group_IT_number 12
_symmetry_cell_setting 'monoclinic'
loop_
_space_group_symop_operation_xyz
x,y,z
-x,y,-z
-x,-y,-z
x,-y,z
1/2+x,1/2+y,z
1/2-x,1/2+y,-z
1/2-x,1/2-y,-z
1/2+x,1/2-y,z
loop_
_atom_site_type_symbol
_atom_site_label
_atom_site_fract_x
_atom_site_fract_y
_atom_site_fract_z
Si Si1 0.483994 0.904103 0.911177
Si Si2 0.644860 0.194558 0.123816
Si Si3 0.621576 0.693089 0.627407
Si Si4 0.203559 0.595124 0.364872
Si Si5 0.700545 0.401607 0.212547
Si Si6 0.699561 0.406616 0.853752
O O1 0.430502 0.878939 0.870902
O O2 0.673642 0.874984 0.807662
O O3 0.492573 0.000000 0.914272
O O4 0.327588 0.879125 0.064810
O O5 0.492777 0.248624 0.251032
O O6 0.733574 0.155627 0.132518
O O7 0.750000 0.250000 0.000000
O O8 0.750000 0.750000 0.500000
O O9 0.719651 0.637009 0.617959
O O10 0.481915 0.641736 0.674776
O O11 0.248603 0.500000 0.339015
O O12 0.268188 0.622792 0.246305
O O13 0.000000 0.604084 0.500000
O O14 0.676762 0.500000 0.228651
O O15 0.770737 0.500000 0.812724
O O16 0.500000 0.412573 0.000000
#
# Coordination Sequence:
#
# PCOD9213991 Si02
#       6
#     8   8   8   8   8   8
#     4   9  19  38  64  89 117 158 211 261 303 359
#     4  12  23  37  58  92 127 161 200 257 320 368
#     4  12  25  39  60  94 130 163 200 252 320 382
#     4  10  22  43  65  85 117 168 215 250 299 368
#     4   9  19  39  64  88 116 161 212 254 301 367
#     4  10  22  39  61  88 119 158 208 258 302 358
#
# _framework density 19.265089
#
# number of rings (size 3 to 8) (size 9 to 14) (size 15 to 20)
#    0.000    1.667    1.667    4.000    0.000    4.000 
#    0.000    2.500    0.000    2.000    0.000    0.000 
#    0.000    0.000    0.000    0.000    0.000    0.000 
#
# Total GULP energy -133798.854621 kJ/mol
# GULP energy per Si atom -5574.952276 kJ/mol
# Density = 1.922124 g / cm^3
# Si number density = 19.265089 Si / 1000 Ang^3
#
#
#
# Elastic Constant Matrix: (Units=GPa)
#
#
# Indices 1 2 3 4 5 6 
#
# 1 138.7933 50.4426 54.4516 0.0011 -2.6434 0.0015
# 2 50.4426 46.8462 44.3349 0.0022 -9.0507 0.0013
# 3 54.4516 44.3349 110.4900 0.0016 12.8593 0.0008
# 4 0.0011 0.0022 0.0016 44.7802 -0.0005 -18.6693
# 5 -2.6434 -9.0507 12.8593 -0.0005 20.9183 -0.0015
# 6 0.0015 0.0013 0.0008 -18.6693 -0.0015 44.6271
#
#
#
# Elastic Compliance Matrix: (Units=1/GPa)
#
#
# Indices 1 2 3 4 5 6 
#
# 1 0.012223 -0.014426 0.000336 0.000000 -0.004904 0.000000
# 2 -0.014426 0.070621 -0.026465 -0.000002 0.045002 0.000000
# 3 0.000336 -0.026465 0.022438 0.000000 -0.025201 0.000000
# 4 0.000000 -0.000002 0.000000 0.027049 0.000001 0.011316
# 5 -0.004904 0.045002 -0.025201 0.000001 0.082148 0.000002
# 6 0.000000 0.000000 0.000000 0.011316 0.000002 0.027142
#
#
# Mechanical properties :
#
#
# Convention : Reuss Voigt Hill
#
# Bulk Modulus (GPa) = 41.37363 66.06529 53.71946
# Shear Modulus (GPa) = 15.11538 31.85850 23.48694
#
# Velocity S-wave (km/s) = 2.80411 4.07097 3.49541
# Velocity P-wave (km/s) = 5.65744 7.51427 6.65097
#
# Compressibility (1/GPa) = 0.02416998
#
# Stress axis : x y z
#
# Youngs Moduli (GPa) = 81.81336 14.16007 44.56821
#
# Poissons Ratio (x) = 0.20428 -0.01496
# Poissons Ratio (y) = 1.18027 1.17950
# Poissons Ratio (z) = -0.02746 0.37475
#
# Static dielectric constant tensor:
#      x y z
#    x 1.406110 0.000000 0.004920 
#    y 0.000000 1.675090 0.000000 
#    z 0.004920 0.000000 1.647900 
# 
# From -- ./inp_files/271621.got.cif
#   From: 2010.05.17/outbox.cif.g08.bks.cpg/sg12_136_cif.got.tgz:271621.got - 2010.06.03 13:09:07.
