data_PCOD9213007
_publ_section_title
;
Structure prediction by ZEFSAII (Michael W. Deem and Ramdas Pophale) SiO2 
 PCOD9213007
Probable space group: C 2/M
;
_chemical_formula_sum "Si O2"
_cell_formula_units_Z 38
_cell_length_a 5.187976
_cell_length_b 25.366168
_cell_length_c 12.492195
_cell_angle_alpha 90.000000
_cell_angle_beta 89.480558
_cell_angle_gamma 90.000000
_cell_volume 1643.893695
_symmetry_space_group_name_H-M "C 2/M"
_symmetry_group_IT_number 12
_symmetry_cell_setting 'monoclinic'
loop_
_space_group_symop_operation_xyz
x,y,z
-x,y,-z
-x,-y,-z
x,-y,z
1/2+x,1/2+y,z
1/2-x,1/2+y,-z
1/2-x,1/2-y,-z
1/2+x,1/2-y,z
loop_
_atom_site_type_symbol
_atom_site_label
_atom_site_fract_x
_atom_site_fract_y
_atom_site_fract_z
Si Si1 0.312735 0.085706 0.407180
Si Si2 0.337286 0.718625 0.275253
Si Si3 0.569889 0.624193 0.886053
Si Si4 0.563125 0.937235 0.828553
Si Si5 0.500000 0.680135 0.500000
Si Si6 0.000000 0.000000 0.500000
O O1 0.500000 0.064559 0.500000
O O2 0.455738 0.081133 0.295322
O O3 0.211351 0.142685 0.441439
O O4 0.072713 0.046186 0.411929
O O5 0.551349 0.762616 0.248093
O O6 0.408946 0.666540 0.208960
O O7 0.364514 0.709868 0.402874
O O8 0.835741 0.592361 0.890627
O O9 0.341711 0.583245 0.863043
O O10 0.500000 0.650259 0.000000
O O11 0.540708 0.000000 0.836557
#
# Coordination Sequence:
#
# PCOD9213007 Si02
#       6
#     8   8   8   8   4   2
#     4  11  23  37  66  97 149 192 233 283 351 426
#     4  12  27  47  75 106 139 186 239 297 369 428
#     4  12  28  51  74 104 144 188 246 307 353 422
#     4  12  26  45  75 107 148 193 238 292 357 425
#     4  11  24  43  68 102 146 180 227 290 361 432
#     4  10  22  36  56 106 138 194 242 276 336 430
#
# _framework density 23.115852
#
# number of rings (size 3 to 8) (size 9 to 14) (size 15 to 20)
#    0.000    0.421    3.158    4.737    5.895    3.368 
#    0.000    0.000    0.000    0.000    0.000    0.000 
#    0.000    0.000    0.000    0.000    0.000    0.000 
#
# Total GULP energy -106187.672195 kJ/mol
# GULP energy per Si atom -5588.824852 kJ/mol
# Density = 2.306324 g / cm^3
# Si number density = 23.115852 Si / 1000 Ang^3
#
#
#
# Elastic Constant Matrix: (Units=GPa)
#
#
# Indices 1 2 3 4 5 6 
#
# 1 81.4510 25.3802 13.2101 0.0000 -10.9487 0.0000
# 2 25.3802 67.2403 18.3170 0.0000 -17.4920 0.0000
# 3 13.2101 18.3170 110.6245 0.0000 -13.0267 0.0000
# 4 0.0000 0.0000 0.0000 -9.0099 0.0000 15.2990
# 5 -10.9487 -17.4920 -13.0267 0.0000 32.9417 0.0000
# 6 0.0000 0.0000 0.0000 15.2990 0.0000 26.7526
#
#
#
# Elastic Compliance Matrix: (Units=1/GPa)
#
#
# Indices 1 2 3 4 5 6 
#
# 1 0.014092 -0.004623 -0.000687 0.000000 0.001957 0.000000
# 2 -0.004623 0.019147 -0.001680 0.000000 0.007966 0.000000
# 3 -0.000687 -0.001680 0.009721 0.000000 0.002723 0.000000
# 4 0.000000 0.000000 0.000000 -0.056310 0.000000 0.032202
# 5 0.001957 0.007966 0.002723 0.000000 0.036314 0.000000
# 6 0.000000 0.000000 0.000000 0.032202 0.000000 0.018964
#
#
# Mechanical properties :
#
#
# Convention : Reuss Voigt Hill
#
# Bulk Modulus (GPa) = 34.50675 41.45895 37.98285
# Shear Modulus (GPa) = 76.25613 23.63079 49.94346
#
# Velocity S-wave (km/s) = 5.74981 3.20077 4.65324
# Velocity P-wave (km/s) = 7.68378 5.62443 6.73330
#
# Compressibility (1/GPa) = 0.02897984
#
# Stress axis : x y z
#
# Youngs Moduli (GPa) = 70.96056 52.22752 102.87511
#
# Poissons Ratio (x) = 0.24144 0.07066
# Poissons Ratio (y) = 0.32804 0.17285
# Poissons Ratio (z) = 0.04874 0.08775
#
# Static dielectric constant tensor:
#      x y z
#    x 1.937670 0.000000 0.007900 
#    y 0.000000 1.835190 0.000000 
#    z 0.007900 0.000000 1.948800 
# 
# From -- ./inp_files/115477.got.cif
#   From: 2010.05.17/outbox.cif.g08.bks.cpg/sg12_58_cif.got.tgz:115477.got - 2010.06.03 13:09:07.
