data_PCOD9213779
_publ_section_title
;
Structure prediction by ZEFSAII (Michael W. Deem and Ramdas Pophale) SiO2 
 PCOD9213779
Probable space group: C 2/M
;
_chemical_formula_sum "Si O2"
_cell_formula_units_Z 48
_cell_length_a 16.197183
_cell_length_b 7.622085
_cell_length_c 15.076265
_cell_angle_alpha 90.000000
_cell_angle_beta 102.450183
_cell_angle_gamma 90.000000
_cell_volume 1817.490265
_symmetry_space_group_name_H-M "C 2/M"
_symmetry_group_IT_number 12
_symmetry_cell_setting 'monoclinic'
loop_
_space_group_symop_operation_xyz
x,y,z
-x,y,-z
-x,-y,-z
x,-y,z
1/2+x,1/2+y,z
1/2-x,1/2+y,-z
1/2-x,1/2-y,-z
1/2+x,1/2-y,z
loop_
_atom_site_type_symbol
_atom_site_label
_atom_site_fract_x
_atom_site_fract_y
_atom_site_fract_z
Si Si1 0.773335 0.205581 0.220692
Si Si2 0.842840 0.208463 0.559142
Si Si3 0.395318 0.706179 0.389102
Si Si4 0.469958 0.200865 0.723376
Si Si5 0.907950 0.283814 0.890870
Si Si6 0.155363 0.708879 0.942076
O O1 0.815767 0.285372 0.317348
O O2 0.684809 0.275961 0.165038
O O3 0.841196 0.219258 0.156241
O O4 0.759022 0.000000 0.232527
O O5 0.750000 0.250000 0.500000
O O6 0.901347 0.274036 0.490167
O O7 0.876284 0.292993 0.657503
O O8 0.850506 0.000000 0.574876
O O9 0.378329 0.500000 0.398465
O O10 0.471929 0.714952 0.338156
O O11 0.467274 0.272112 0.823076
O O12 0.497503 0.000000 0.736100
O O13 0.911570 0.500000 0.893052
O O14 0.907916 0.230281 0.994347
O O15 0.145576 0.500000 0.933377
O O16 0.250000 0.750000 0.000000
#
# Coordination Sequence:
#
# PCOD9213779 Si02
#       6
#     8   8   8   8   8   8
#     4   9  17  33  55  76 102 138 180 222 265 314
#     4  11  23  40  61  83 108 139 177 220 268 320
#     4  10  22  39  56  77 111 149 177 213 271 326
#     4  11  22  37  57  81 110 144 182 221 263 316
#     4   8  16  32  53  76 104 140 177 216 266 318
#     4   9  16  29  50  76 105 136 174 219 267 315
#
# _framework density 26.410046999999999
#
# number of rings (size 3 to 8) (size 9 to 14) (size 15 to 20)
#    0.000    2.333    0.000    4.000    0.000    6.667 
#    0.000   12.500    0.000    5.000    0.000    0.000 
#    0.000    0.000    0.000    0.000    0.000    0.000 
#
# Total GULP energy -134123.776991 kJ/mol
# GULP energy per Si atom -5588.490708 kJ/mol
# Density = 2.634994 g / cm^3
# Si number density = 26.410047 Si / 1000 Ang^3
#
#
#
# Elastic Constant Matrix: (Units=GPa)
#
#
# Indices 1 2 3 4 5 6 
#
# 1 85.0912 -8.6631 17.9565 0.0000 -18.5486 0.0000
# 2 -8.6631 71.1775 1.5283 0.0000 -0.7019 0.0000
# 3 17.9565 1.5283 191.4181 0.0000 -14.0109 0.0000
# 4 0.0000 0.0000 0.0000 18.7591 0.0000 -5.7697
# 5 -18.5486 -0.7019 -14.0109 0.0000 50.8008 0.0000
# 6 0.0000 0.0000 0.0000 -5.7697 0.0000 14.2597
#
#
#
# Elastic Compliance Matrix: (Units=1/GPa)
#
#
# Indices 1 2 3 4 5 6 
#
# 1 0.013106 0.001660 -0.000909 0.000000 0.004558 0.000000
# 2 0.001660 0.014263 -0.000215 0.000000 0.000744 0.000000
# 3 -0.000909 -0.000215 0.005396 0.000000 0.001153 0.000000
# 4 0.000000 0.000000 0.000000 0.060884 0.000000 0.024635
# 5 0.004558 0.000744 0.001153 0.000000 0.021677 0.000000
# 6 0.000000 0.000000 0.000000 0.024635 0.000000 0.080095
#
#
# Mechanical properties :
#
#
# Convention : Reuss Voigt Hill
#
# Bulk Modulus (GPa) = 29.55423 41.03671 35.29547
# Shear Modulus (GPa) = 24.31553 39.22160 31.76857
#
# Velocity S-wave (km/s) = 3.03758 3.85788 3.47204
# Velocity P-wave (km/s) = 4.84947 5.95117 5.42834
#
# Compressibility (1/GPa) = 0.03383610
#
# Stress axis : x y z
#
# Youngs Moduli (GPa) = 76.29850 70.10985 185.33705
#
# Poissons Ratio (x) = -0.11636 0.16850
# Poissons Ratio (y) = -0.12663 0.03987
# Poissons Ratio (z) = 0.06937 0.01508
#
# Static dielectric constant tensor:
#      x y z
#    x 2.201720 0.000000 -0.015140 
#    y 0.000000 1.983750 0.000000 
#    z -0.015140 0.000000 2.065240 
# 
# From -- ./inp_files/221614.got.cif
#   From: 2010.05.17/outbox.cif.g08.bks.cpg/sg12_111_cif.got.tgz:221614.got - 2010.06.03 13:09:07.
