data_PCOD9213542
_publ_section_title
;
Structure prediction by ZEFSAII (Michael W. Deem and Ramdas Pophale) SiO2 
 PCOD9213542
Probable space group: C 2/M
;
_chemical_formula_sum "Si O2"
_cell_formula_units_Z 32
_cell_length_a 17.874119
_cell_length_b 15.052713
_cell_length_c 11.832703
_cell_angle_alpha 90.000000
_cell_angle_beta 153.034166
_cell_angle_gamma 90.000000
_cell_volume 1443.648671
_symmetry_space_group_name_H-M "C 2/M"
_symmetry_group_IT_number 12
_symmetry_cell_setting 'monoclinic'
loop_
_space_group_symop_operation_xyz
x,y,z
-x,y,-z
-x,-y,-z
x,-y,z
1/2+x,1/2+y,z
1/2-x,1/2+y,-z
1/2-x,1/2-y,-z
1/2+x,1/2-y,z
loop_
_atom_site_type_symbol
_atom_site_label
_atom_site_fract_x
_atom_site_fract_y
_atom_site_fract_z
Si Si1 0.327714 0.000000 0.912610
Si Si2 0.755767 0.000000 0.939690
Si Si3 0.500000 0.703855 0.000000
Si Si4 0.398280 0.854382 0.696843
Si Si5 0.184647 0.397209 0.647919
Si Si6 0.644683 0.500000 0.436916
O O1 0.446052 0.915109 0.058209
O O2 0.261528 0.000000 0.950763
O O3 0.191951 0.000000 0.633055
O O4 0.947672 0.000000 0.162732
O O5 0.666741 0.915411 0.758564
O O6 0.588660 0.766602 0.211503
O O7 0.634347 0.643678 0.120378
O O8 0.410091 0.843030 0.576924
O O9 0.236141 0.913569 0.507267
O O10 0.174268 0.500000 0.592661
#
# Coordination Sequence:
#
# PCOD9213542 Si02
#       6
#     4   4   4   8   8   4
#     4  11  20  39  62  91 123 163 203 245 306 366
#     4  10  23  38  62  85 122 174 204 232 296 391
#     4  12  21  37  60 102 122 150 204 263 305 344
#     4  11  21  37  67  91 120 154 207 260 300 348
#     4  10  22  38  60  90 122 165 196 247 303 365
#     4  11  18  37  62  91 121 161 203 251 304 354
#
# _framework density 22.166059000000001
#
# number of rings (size 3 to 8) (size 9 to 14) (size 15 to 20)
#    0.750    0.500    5.000    3.750    0.000    2.000 
#    0.000    1.250    0.000    0.000    0.000    0.000 
#    0.000    0.000    0.000    0.000    0.000    0.000 
#
# Total GULP energy -89273.619235 kJ/mol
# GULP energy per Si atom -5579.601202 kJ/mol
# Density = 2.211561 g / cm^3
# Si number density = 22.166059 Si / 1000 Ang^3
#
#
#
# Elastic Constant Matrix: (Units=GPa)
#
#
# Indices 1 2 3 4 5 6 
#
# 1 134.3823 18.2517 25.1914 0.0000 -38.5343 0.0000
# 2 18.2517 36.3379 -5.9692 0.0000 -6.0403 0.0000
# 3 25.1914 -5.9692 107.5995 0.0000 -18.7302 0.0000
# 4 0.0000 0.0000 0.0000 26.1846 0.0000 -6.5295
# 5 -38.5343 -6.0403 -18.7302 0.0000 43.9914 0.0000
# 6 0.0000 0.0000 0.0000 -6.5295 0.0000 19.4545
#
#
#
# Elastic Compliance Matrix: (Units=1/GPa)
#
#
# Indices 1 2 3 4 5 6 
#
# 1 0.010588 -0.004175 -0.001292 0.000000 0.008151 0.000000
# 2 -0.004175 0.030402 0.002975 0.000000 0.001783 0.000000
# 3 -0.001292 0.002975 0.010407 0.000000 0.003708 0.000000
# 4 0.000000 0.000000 0.000000 0.041679 0.000000 0.013989
# 5 0.008151 0.001783 0.003708 0.000000 0.031696 0.000000
# 6 0.000000 0.000000 0.000000 0.013989 0.000000 0.056097
#
#
# Mechanical properties :
#
#
# Convention : Reuss Voigt Hill
#
# Bulk Modulus (GPa) = 21.54634 39.25196 30.39915
# Shear Modulus (GPa) = 24.83570 33.98247 29.40909
#
# Velocity S-wave (km/s) = 3.35093 3.91971 3.64643
# Velocity P-wave (km/s) = 4.97123 6.18321 5.61005
#
# Compressibility (1/GPa) = 0.04641160
#
# Stress axis : x y z
#
# Youngs Moduli (GPa) = 94.44547 32.89288 96.09315
#
# Poissons Ratio (x) = 0.13734 0.12411
# Poissons Ratio (y) = 0.39434 -0.28583
# Poissons Ratio (z) = 0.12199 -0.09784
#
# Static dielectric constant tensor:
#      x y z
#    x 1.879790 0.000000 -0.029830 
#    y 0.000000 1.764830 0.000000 
#    z -0.029830 0.000000 1.865310 
# 
# From -- ./inp_files/46060.got.cif
#   From: 2010.05.17/outbox.cif.g08.bks.cpg/sg12_24_cif.got.tgz:46060.got - 2010.06.03 13:09:07.
