data_PCOD9213369
_publ_section_title
;
Structure prediction by ZEFSAII (Michael W. Deem and Ramdas Pophale) SiO2 
 PCOD9213369
Probable space group: C 2/M
;
_chemical_formula_sum "Si O2"
_cell_formula_units_Z 56
_cell_length_a 10.392703
_cell_length_b 24.061777
_cell_length_c 21.444287
_cell_angle_alpha 90.000000
_cell_angle_beta 145.505465
_cell_angle_gamma 90.000000
_cell_volume 3036.935535
_symmetry_space_group_name_H-M "C 2/M"
_symmetry_group_IT_number 12
_symmetry_cell_setting 'monoclinic'
loop_
_space_group_symop_operation_xyz
x,y,z
-x,y,-z
-x,-y,-z
x,-y,z
1/2+x,1/2+y,z
1/2-x,1/2+y,-z
1/2-x,1/2-y,-z
1/2+x,1/2-y,z
loop_
_atom_site_type_symbol
_atom_site_label
_atom_site_fract_x
_atom_site_fract_y
_atom_site_fract_z
Si Si1 0.493409 0.319214 0.069108
Si Si2 0.853696 0.889491 0.504762
Si Si3 0.263647 0.000000 0.325268
Si Si4 0.310210 0.500000 0.562564
Si Si5 0.900347 0.802263 0.310971
Si Si6 0.499012 0.185068 0.071527
Si Si7 0.779833 0.281177 0.369465
Si Si8 0.184832 0.381472 0.706494
O O1 0.529101 0.252397 0.085232
O O2 0.676003 0.351226 0.183666
O O3 0.500000 0.336547 0.000000
O O4 0.243084 0.329019 0.996352
O O5 0.893809 0.945795 0.559583
O O6 0.583598 0.884279 0.385072
O O7 0.000000 0.888458 0.500000
O O8 0.934576 0.840004 0.581753
O O9 0.535731 0.000000 0.446450
O O10 0.144453 0.000000 0.345376
O O11 0.223001 0.942984 0.271825
O O12 0.707842 0.835804 0.196728
O O13 0.785958 0.759776 0.313321
O O14 0.058315 0.772705 0.322853
O O15 0.500000 0.167673 0.000000
O O16 0.787946 0.343297 0.344535
O O17 0.000000 0.271658 0.500000
#
# Coordination Sequence:
#
# PCOD9213369 Si02
#       8
#     8   8   4   4   8   8   8   8
#     4  10  22  38  60  82 115 157 201 249 289 347
#     4  11  24  37  61  90 125 160 195 246 309 358
#     4   9  20  36  67  85 113 153 210 245 299 347
#     4   9  19  40  58  89 118 157 199 248 290 365
#     4  12  25  37  59  89 126 161 199 246 299 365
#     4  10  22  38  56  83 115 161 203 239 293 352
#     4  12  24  37  55  90 128 161 193 243 302 367
#     4  11  22  41  61  89 119 157 201 253 296 358
#
# _framework density 18.439640000000001
#
# number of rings (size 3 to 8) (size 9 to 14) (size 15 to 20)
#    0.000    1.286    2.857    2.786   10.000    0.000 
#    0.000    0.357    0.000    0.857    0.000    3.000 
#    0.000    0.000    0.000    0.000    0.000    0.000 
#
# Total GULP energy -156472.276483 kJ/mol
# GULP energy per Si atom -5588.295589 kJ/mol
# Density = 1.839767 g / cm^3
# Si number density = 18.439640 Si / 1000 Ang^3
#
#
#
# Elastic Constant Matrix: (Units=GPa)
#
#
# Indices 1 2 3 4 5 6 
#
# 1 164.4262 33.6241 59.0008 0.0055 -12.1393 -0.0034
# 2 33.6241 69.2743 25.3668 -0.0025 -7.7041 0.0023
# 3 59.0008 25.3668 118.5004 0.0092 -7.9355 -0.0102
# 4 0.0055 -0.0025 0.0092 149.3177 0.0055 -89.2459
# 5 -12.1393 -7.7041 -7.9355 0.0055 27.3949 -0.0037
# 6 -0.0034 0.0023 -0.0102 -89.2459 -0.0037 73.3928
#
#
#
# Elastic Compliance Matrix: (Units=1/GPa)
#
#
# Indices 1 2 3 4 5 6 
#
# 1 0.007894 -0.002420 -0.003287 -0.000001 0.001865 -0.000001
# 2 -0.002420 0.016742 -0.002177 0.000000 0.003005 -0.000001
# 3 -0.003287 -0.002177 0.010609 0.000001 0.001004 0.000003
# 4 -0.000001 0.000000 0.000001 0.024513 -0.000001 0.029808
# 5 0.001865 0.003005 0.001004 -0.000001 0.038465 0.000001
# 6 -0.000001 -0.000001 0.000003 0.029808 0.000001 0.049872
#
#
# Mechanical properties :
#
#
# Convention : Reuss Voigt Hill
#
# Bulk Modulus (GPa) = 51.35014 65.35380 58.35197
# Shear Modulus (GPa) = 29.35008 65.63503 47.49256
#
# Velocity S-wave (km/s) = 3.99392 5.97259 5.08051
# Velocity P-wave (km/s) = 7.01261 9.11490 8.13197
#
# Compressibility (1/GPa) = 0.01947414
#
# Stress axis : x y z
#
# Youngs Moduli (GPa) = 126.67840 59.73109 94.26029
#
# Poissons Ratio (x) = 0.14457 0.30987
# Poissons Ratio (y) = 0.30661 0.20525
# Poissons Ratio (z) = 0.41644 0.13006
#
# Static dielectric constant tensor:
#      x y z
#    x 1.624300 0.000000 -0.000480 
#    y 0.000000 1.646000 0.000000 
#    z -0.000480 0.000000 1.628430 
# 
# From -- ./inp_files/259886.got.cif
#   From: 2010.05.17/outbox.cif.g08.bks.cpg/sg12_130_cif.got.tgz:259886.got - 2010.06.03 13:09:07.
