data_PCOD9213745
_publ_section_title
;
Structure prediction by ZEFSAII (Michael W. Deem and Ramdas Pophale) SiO2 
 PCOD9213745
Probable space group: C 2/M
;
_chemical_formula_sum "Si O2"
_cell_formula_units_Z 32
_cell_length_a 8.134493
_cell_length_b 24.028772
_cell_length_c 13.529203
_cell_angle_alpha 90.000000
_cell_angle_beta 31.672796
_cell_angle_gamma 90.000000
_cell_volume 1388.511633
_symmetry_space_group_name_H-M "C 2/M"
_symmetry_group_IT_number 12
_symmetry_cell_setting 'monoclinic'
loop_
_space_group_symop_operation_xyz
x,y,z
-x,y,-z
-x,-y,-z
x,-y,z
1/2+x,1/2+y,z
1/2-x,1/2+y,-z
1/2-x,1/2-y,-z
1/2+x,1/2-y,z
loop_
_atom_site_type_symbol
_atom_site_label
_atom_site_fract_x
_atom_site_fract_y
_atom_site_fract_z
Si Si1 0.310600 0.564422 0.493844
Si Si2 0.186134 0.650611 0.226606
Si Si3 0.488234 0.798610 0.146758
Si Si4 0.450034 0.657873 0.774551
O O1 0.500000 0.569636 0.500000
O O2 0.305792 0.500000 0.467829
O O3 0.461673 0.604165 0.333628
O O4 0.965299 0.590137 0.685405
O O5 0.946386 0.685626 0.281396
O O6 0.269650 0.672623 0.292897
O O7 0.500000 0.652123 0.000000
O O8 0.178394 0.796427 0.238413
O O9 0.750000 0.750000 0.000000
O O10 0.667593 0.849341 0.998088
#
# Coordination Sequence:
#
# PCOD9213745 Si02
#       4
#     8   8   8   8
#     4  11  23  44  69  96 137 179 218 282 346 395
#     4  10  22  40  67  96 133 170 226 274 324 406
#     4  10  22  40  65  94 133 175 214 274 333 389
#     4  10  22  38  67  96 131 172 222 271 326 404
#
# _framework density 23.046261999999999
#
# number of rings (size 3 to 8) (size 9 to 14) (size 15 to 20)
#    0.000    1.750    2.500    0.750   10.500    2.500 
#    0.000    7.500   11.000    0.000    0.000    0.000 
#    0.000    0.000    0.000    0.000    0.000    0.000 
#
# Total GULP energy -89121.979265 kJ/mol
# GULP energy per Si atom -5570.123704 kJ/mol
# Density = 2.299381 g / cm^3
# Si number density = 23.046262 Si / 1000 Ang^3
#
#
#
# Elastic Constant Matrix: (Units=GPa)
#
#
# Indices 1 2 3 4 5 6 
#
# 1 260.5892 77.6295 15.4560 0.0000 7.5749 0.0000
# 2 77.6295 122.4996 23.4768 0.0000 13.1320 0.0000
# 3 15.4560 23.4768 75.6303 0.0000 12.4679 0.0000
# 4 0.0000 0.0000 0.0000 61.5102 0.0000 -0.1540
# 5 7.5749 13.1320 12.4679 0.0000 22.8331 0.0000
# 6 0.0000 0.0000 0.0000 -0.1540 0.0000 37.9336
#
#
#
# Elastic Compliance Matrix: (Units=1/GPa)
#
#
# Indices 1 2 3 4 5 6 
#
# 1 0.004731 -0.003007 -0.000066 0.000000 0.000196 0.000000
# 2 -0.003007 0.010913 -0.002091 0.000000 -0.004137 0.000000
# 3 -0.000066 -0.002091 0.015036 0.000000 -0.006986 0.000000
# 4 0.000000 0.000000 0.000000 0.016258 0.000000 0.000066
# 5 0.000196 -0.004137 -0.006986 0.000000 0.049925 0.000000
# 6 0.000000 0.000000 0.000000 0.000066 0.000000 0.026362
#
#
# Mechanical properties :
#
#
# Convention : Reuss Voigt Hill
#
# Bulk Modulus (GPa) = 49.13144 76.87152 63.00148
# Shear Modulus (GPa) = 35.62841 47.26582 41.44711
#
# Velocity S-wave (km/s) = 3.93612 4.53361 4.24539
# Velocity P-wave (km/s) = 6.48246 7.79952 7.17129
#
# Compressibility (1/GPa) = 0.02035357
#
# Stress axis : x y z
#
# Youngs Moduli (GPa) = 211.35549 91.63465 66.50503
#
# Poissons Ratio (x) = 0.27552 0.00438
# Poissons Ratio (y) = 0.63548 0.13907
# Poissons Ratio (z) = 0.01392 0.19161
#
# Static dielectric constant tensor:
#      x y z
#    x 2.028820 0.000000 -0.060840 
#    y 0.000000 1.853070 0.000000 
#    z -0.060840 0.000000 1.894140 
# 
# From -- ./inp_files/198163.got.cif
#   From: 2010.05.17/outbox.cif.g08.bks.cpg/sg12_100_cif.got.tgz:198163.got - 2010.06.03 13:09:07.
