data_PCOD9213959
_publ_section_title
;
Structure prediction by ZEFSAII (Michael W. Deem and Ramdas Pophale) SiO2 
 PCOD9213959
Probable space group: C 2/M
;
_chemical_formula_sum "Si O2"
_cell_formula_units_Z 34
_cell_length_a 24.081724
_cell_length_b 7.475843
_cell_length_c 20.664185
_cell_angle_alpha 90.000000
_cell_angle_beta 155.240857
_cell_angle_gamma 90.000000
_cell_volume 1558.036124
_symmetry_space_group_name_H-M "C 2/M"
_symmetry_group_IT_number 12
_symmetry_cell_setting 'monoclinic'
loop_
_space_group_symop_operation_xyz
x,y,z
-x,y,-z
-x,-y,-z
x,-y,z
1/2+x,1/2+y,z
1/2-x,1/2+y,-z
1/2-x,1/2-y,-z
1/2+x,1/2-y,z
loop_
_atom_site_type_symbol
_atom_site_label
_atom_site_fract_x
_atom_site_fract_y
_atom_site_fract_z
Si Si1 0.881568 0.283804 0.059145
Si Si2 0.566276 0.783487 0.137484
Si Si3 0.000000 0.000000 0.500000
Si Si4 0.864126 0.292526 0.424621
Si Si5 0.578709 0.210470 0.753860
O O1 0.885407 0.500000 0.064706
O O2 0.923017 0.217726 0.174620
O O3 0.978336 0.221936 0.104989
O O4 0.728330 0.233301 0.887303
O O5 0.717378 0.720813 0.297894
O O6 0.567648 0.000000 0.140154
O O7 0.500000 0.726455 0.000000
O O8 0.886232 0.158574 0.388889
O O9 0.890703 0.500000 0.437354
O O10 0.970064 0.217382 0.589370
O O11 0.549482 0.000000 0.727185
#
# Coordination Sequence:
#
# PCOD9213959 Si02
#       5
#     8   8   2   8   8
#     4   9  19  36  62  89 126 169 208 257 311 374
#     4  10  22  39  60  91 128 168 212 259 319 376
#     4  12  26  44  66  94 128 168 206 264 312 390
#     4  11  25  42  65  94 126 166 213 260 315 375
#     4   9  20  38  59  92 124 161 215 261 310 368
#
# _framework density 21.822344000000001
#
# number of rings (size 3 to 8) (size 9 to 14) (size 15 to 20)
#    0.000    2.118    1.176    0.353    4.941    2.353 
#    0.000    0.000    0.000    0.000    0.000    0.000 
#    0.000    0.000    0.000    0.000    0.000    0.000 
#
# Total GULP energy -94761.539791 kJ/mol
# GULP energy per Si atom -5574.208223 kJ/mol
# Density = 2.177268 g / cm^3
# Si number density = 21.822344 Si / 1000 Ang^3
#
#
#
# Elastic Constant Matrix: (Units=GPa)
#
#
# Indices 1 2 3 4 5 6 
#
# 1 154.4096 11.9958 66.6884 0.0000 24.8210 0.0000
# 2 11.9958 106.0433 0.7943 0.0000 -4.4257 0.0000
# 3 66.6884 0.7943 134.8042 0.0000 4.1602 0.0000
# 4 0.0000 0.0000 0.0000 29.1604 0.0000 5.1497
# 5 24.8210 -4.4257 4.1602 0.0000 28.0927 0.0000
# 6 0.0000 0.0000 0.0000 5.1497 0.0000 20.6072
#
#
#
# Elastic Compliance Matrix: (Units=1/GPa)
#
#
# Indices 1 2 3 4 5 6 
#
# 1 0.009932 -0.001436 -0.004648 0.000000 -0.008313 0.000000
# 2 -0.001436 0.009701 0.000569 0.000000 0.002712 0.000000
# 3 -0.004648 0.000569 0.009629 0.000000 0.002771 0.000000
# 4 0.000000 0.000000 0.000000 0.035876 0.000000 -0.008965
# 5 -0.008313 0.002712 0.002771 0.000000 0.042958 0.000000
# 6 0.000000 0.000000 0.000000 -0.008965 0.000000 0.050767
#
#
# Mechanical properties :
#
#
# Convention : Reuss Voigt Hill
#
# Bulk Modulus (GPa) = 54.84598 61.57934 58.21266
# Shear Modulus (GPa) = 28.41395 36.62398 32.51897
#
# Velocity S-wave (km/s) = 3.61232 4.10112 3.86446
# Velocity P-wave (km/s) = 6.52579 7.12077 6.82976
#
# Compressibility (1/GPa) = 0.01823288
#
# Stress axis : x y z
#
# Youngs Moduli (GPa) = 100.68879 103.07738 103.85509
#
# Poissons Ratio (x) = 0.14798 0.48274
# Poissons Ratio (y) = 0.14455 -0.05913
# Poissons Ratio (z) = 0.46802 -0.05868
#
# Static dielectric constant tensor:
#      x y z
#    x 1.858070 0.000000 -0.069810 
#    y 0.000000 1.816770 0.000000 
#    z -0.069810 0.000000 1.798700 
# 
# From -- ./inp_files/92488.got.cif
#   From: 2010.05.17/outbox.cif.g08.bks.cpg/sg12_47_cif.got.tgz:92488.got - 2010.06.03 13:09:07.
