data_PCOD9213724
_publ_section_title
;
Structure prediction by ZEFSAII (Michael W. Deem and Ramdas Pophale) SiO2 
 PCOD9213724
Probable space group: C 2/M
;
_chemical_formula_sum "Si O2"
_cell_formula_units_Z 52
_cell_length_a 8.573452
_cell_length_b 29.494347
_cell_length_c 11.178130
_cell_angle_alpha 90.000000
_cell_angle_beta 123.648594
_cell_angle_gamma 90.000000
_cell_volume 2353.003929
_symmetry_space_group_name_H-M "C 2/M"
_symmetry_group_IT_number 12
_symmetry_cell_setting 'monoclinic'
loop_
_space_group_symop_operation_xyz
x,y,z
-x,y,-z
-x,-y,-z
x,-y,z
1/2+x,1/2+y,z
1/2-x,1/2+y,-z
1/2-x,1/2-y,-z
1/2+x,1/2-y,z
loop_
_atom_site_type_symbol
_atom_site_label
_atom_site_fract_x
_atom_site_fract_y
_atom_site_fract_z
Si Si1 0.942907 0.396531 0.595064
Si Si2 0.260161 0.553014 0.284757
Si Si3 0.092104 0.698747 0.670417
Si Si4 0.860892 0.843819 0.055170
Si Si5 0.000000 0.606697 0.000000
Si Si6 0.986885 0.749225 0.864653
Si Si7 0.961899 0.132935 0.612566
O O1 0.870819 0.431028 0.661791
O O2 0.758901 0.368316 0.479789
O O3 0.000000 0.422086 0.500000
O O4 0.085955 0.356044 0.687174
O O5 0.294831 0.500000 0.297104
O O6 0.448520 0.582796 0.362402
O O7 0.139755 0.572955 0.126211
O O8 0.294114 0.722341 0.763047
O O9 0.000000 0.708492 0.500000
O O10 0.995572 0.719477 0.748416
O O11 0.953463 0.851259 0.226455
O O12 0.861141 0.789453 0.051892
O O13 0.651179 0.865422 0.981268
O O14 0.000000 0.857930 0.000000
O O15 0.000000 0.725055 0.000000
O O16 0.000000 0.157046 0.500000
#
# Coordination Sequence:
#
# PCOD9213724 Si02
#       7
#     8   8   8   8   4   8   8
#     4  10  22  38  66  93 130 168 222 269 338 406
#     4  10  22  41  66  96 130 168 218 278 341 407
#     4  11  24  44  65  94 134 183 224 279 340 409
#     4  10  22  40  67  97 133 179 227 279 339 398
#     4  10  23  40  70  98 134 188 222 270 345 424
#     4  11  25  43  64  99 137 171 231 294 332 393
#     4   9  20  39  61  96 125 169 215 271 332 408
#
# _framework density 22.099412999999998
#
# number of rings (size 3 to 8) (size 9 to 14) (size 15 to 20)
#    0.000    1.846    0.000    3.000    6.462    7.385 
#    2.769    0.000    0.000    2.308    0.000    0.000 
#    0.000    0.000    0.000    0.000    0.000    0.000 
#
# Total GULP energy -144776.269374 kJ/mol
# GULP energy per Si atom -5568.318053 kJ/mol
# Density = 2.204911 g / cm^3
# Si number density = 22.099413 Si / 1000 Ang^3
#
#
#
# Elastic Constant Matrix: (Units=GPa)
#
#
# Indices 1 2 3 4 5 6 
#
# 1 107.6405 32.5738 17.3604 0.0000 -27.9962 0.0000
# 2 32.5738 96.3666 22.7839 0.0000 -27.6154 0.0000
# 3 17.3604 22.7839 126.4892 0.0000 -34.9511 0.0000
# 4 0.0000 0.0000 0.0000 -32.4416 0.0000 28.2225
# 5 -27.9962 -27.6154 -34.9511 0.0000 42.6650 0.0000
# 6 0.0000 0.0000 0.0000 28.2225 0.0000 0.2908
#
#
#
# Elastic Compliance Matrix: (Units=1/GPa)
#
#
# Indices 1 2 3 4 5 6 
#
# 1 0.011589 -0.002135 0.000664 0.000000 0.006766 0.000000
# 2 -0.002135 0.013134 -0.000143 0.000000 0.006982 0.000000
# 3 0.000664 -0.000143 0.010257 0.000000 0.008745 0.000000
# 4 0.000000 0.000000 0.000000 -0.000361 0.000000 0.035018
# 5 0.006766 0.006982 0.008745 0.000000 0.039562 0.000000
# 6 0.000000 0.000000 0.000000 0.035018 0.000000 0.040253
#
#
# Mechanical properties :
#
#
# Convention : Reuss Voigt Hill
#
# Bulk Modulus (GPa) = 31.49618 52.88138 42.18878
# Shear Modulus (GPa) = 38.98735 19.28808 29.13771
#
# Velocity S-wave (km/s) = 4.20477 2.95750 3.63503
# Velocity P-wave (km/s) = 6.15276 5.97020 6.06216
#
# Compressibility (1/GPa) = 0.03174988
#
# Stress axis : x y z
#
# Youngs Moduli (GPa) = 86.28766 76.14065 97.49441
#
# Poissons Ratio (x) = 0.16258 -0.06470
# Poissons Ratio (y) = 0.18425 0.01397
# Poissons Ratio (z) = -0.05726 0.01091
#
# Static dielectric constant tensor:
#      x y z
#    x 1.951350 0.000000 -0.050830 
#    y 0.000000 1.783800 0.000000 
#    z -0.050830 0.000000 2.088220 
# 
# From -- ./inp_files/125397.got.cif
#   From: 2010.05.17/outbox.cif.g08.bks.cpg/sg12_63_cif.got.tgz:125397.got - 2010.06.03 13:09:07.
