data_PCOD9213860
_publ_section_title
;
Structure prediction by ZEFSAII (Michael W. Deem and Ramdas Pophale) SiO2 
 PCOD9213860
Probable space group: C 2/M
;
_chemical_formula_sum "Si O2"
_cell_formula_units_Z 32
_cell_length_a 9.280724
_cell_length_b 18.131158
_cell_length_c 11.245090
_cell_angle_alpha 90.000000
_cell_angle_beta 123.244655
_cell_angle_gamma 90.000000
_cell_volume 1582.529457
_symmetry_space_group_name_H-M "C 2/M"
_symmetry_group_IT_number 12
_symmetry_cell_setting 'monoclinic'
loop_
_space_group_symop_operation_xyz
x,y,z
-x,y,-z
-x,-y,-z
x,-y,z
1/2+x,1/2+y,z
1/2-x,1/2+y,-z
1/2-x,1/2-y,-z
1/2+x,1/2-y,z
loop_
_atom_site_type_symbol
_atom_site_label
_atom_site_fract_x
_atom_site_fract_y
_atom_site_fract_z
Si Si1 0.500000 0.872600 0.500000
Si Si2 0.755551 0.500000 0.388739
Si Si3 0.147541 0.000000 0.819281
Si Si4 0.844999 0.500000 0.149148
Si Si5 0.402688 0.877448 0.837955
Si Si6 0.679291 0.733733 0.598248
O O1 0.355904 0.928466 0.485337
O O2 0.613870 0.812104 0.623742
O O3 0.551488 0.500000 0.306908
O O4 0.790726 0.500000 0.261766
O O5 0.191519 0.000000 0.981191
O O6 0.247121 0.930077 0.810158
O O7 0.964091 0.429004 0.173815
O O8 0.321369 0.809799 0.732637
O O9 0.500000 0.851921 0.000000
O O10 0.500000 0.689798 0.500000
O O11 0.750000 0.750000 0.500000
#
# Coordination Sequence:
#
# PCOD9213860 Si02
#       6
#     4   4   4   4   8   8
#     4   9  24  34  54  79 122 144 194 233 292 330
#     4  11  19  36  58  82 113 155 192 237 290 336
#     4   9  20  34  61  87 112 147 199 234 280 347
#     4   9  18  36  57  85 117 150 186 241 288 336
#     4   9  19  39  61  86 118 152 191 238 289 340
#     4  10  22  39  59  81 120 152 190 242 286 341
#
# _framework density 20.220793
#
# number of rings (size 3 to 8) (size 9 to 14) (size 15 to 20)
#    0.750    1.750    0.000    3.375    3.500    0.000 
#    0.000    5.000    0.000    0.000    0.000    0.000 
#    0.000    0.000    0.000    0.000    0.000    0.000 
#
# Total GULP energy -89137.550755 kJ/mol
# GULP energy per Si atom -5571.096922 kJ/mol
# Density = 2.017477 g / cm^3
# Si number density = 20.220793 Si / 1000 Ang^3
#
#
#
# Elastic Constant Matrix: (Units=GPa)
#
#
# Indices 1 2 3 4 5 6 
#
# 1 86.2679 10.7915 48.9377 0.0000 12.6067 0.0000
# 2 10.7915 123.1314 76.2070 0.0000 9.2855 0.0000
# 3 48.9377 76.2070 129.7213 0.0000 20.6892 0.0000
# 4 0.0000 0.0000 0.0000 53.3271 0.0000 6.7345
# 5 12.6067 9.2855 20.6892 0.0000 43.0689 0.0000
# 6 0.0000 0.0000 0.0000 6.7345 0.0000 3.4919
#
#
#
# Elastic Compliance Matrix: (Units=1/GPa)
#
#
# Indices 1 2 3 4 5 6 
#
# 1 0.015808 0.003562 -0.007793 0.000000 -0.001652 0.000000
# 2 0.003562 0.013598 -0.009420 0.000000 0.000551 0.000000
# 3 -0.007793 -0.009420 0.016781 0.000000 -0.003749 0.000000
# 4 0.000000 0.000000 0.000000 0.024790 0.000000 -0.047809
# 5 -0.001652 0.000551 -0.003749 0.000000 0.025384 0.000000
# 6 0.000000 0.000000 0.000000 -0.047809 0.000000 0.378577
#
#
# Mechanical properties :
#
#
# Convention : Reuss Voigt Hill
#
# Bulk Modulus (GPa) = 52.95131 67.88810 60.41971
# Shear Modulus (GPa) = 9.83219 33.52321 21.67770
#
# Velocity S-wave (km/s) = 2.20748 4.07610 3.27777
# Velocity P-wave (km/s) = 5.72195 7.46988 6.65356
#
# Compressibility (1/GPa) = 0.01888527
#
# Stress axis : x y z
#
# Youngs Moduli (GPa) = 63.25774 73.54165 59.59271
#
# Poissons Ratio (x) = -0.26197 0.46441
# Poissons Ratio (y) = -0.22534 0.56136
# Poissons Ratio (z) = 0.49297 0.69276
#
# Static dielectric constant tensor:
#      x y z
#    x 1.775130 0.000000 -0.025770 
#    y 0.000000 1.747420 0.000000 
#    z -0.025770 0.000000 1.719670 
# 
# From -- ./inp_files/206889.got.cif
#   From: 2010.05.17/outbox.cif.g08.bks.cpg/sg12_104_cif.got.tgz:206889.got - 2010.06.03 13:09:07.
