data_PCOD9213452
_publ_section_title
;
Structure prediction by ZEFSAII (Michael W. Deem and Ramdas Pophale) SiO2 
 PCOD9213452
Probable space group: C 2/M
;
_chemical_formula_sum "Si O2"
_cell_formula_units_Z 64
_cell_length_a 27.814672
_cell_length_b 18.461644
_cell_length_c 22.014245
_cell_angle_alpha 90.000000
_cell_angle_beta 19.006150
_cell_angle_gamma 90.000000
_cell_volume 3681.504943
_symmetry_space_group_name_H-M "C 2/M"
_symmetry_group_IT_number 12
_symmetry_cell_setting 'monoclinic'
loop_
_space_group_symop_operation_xyz
x,y,z
-x,y,-z
-x,-y,-z
x,-y,z
1/2+x,1/2+y,z
1/2-x,1/2+y,-z
1/2-x,1/2-y,-z
1/2+x,1/2-y,z
loop_
_atom_site_type_symbol
_atom_site_label
_atom_site_fract_x
_atom_site_fract_y
_atom_site_fract_z
Si Si1 0.941029 0.584028 0.139414
Si Si2 0.353597 0.584456 0.828010
Si Si3 0.412198 0.723337 0.325708
Si Si4 0.643552 0.330070 0.478690
Si Si5 0.178646 0.420140 0.291452
Si Si6 0.357085 0.829618 0.010739
Si Si7 0.102939 0.916010 0.083332
Si Si8 0.836882 0.263465 0.665417
O O1 0.907776 0.500000 0.190902
O O2 0.794709 0.632201 0.318235
O O3 0.060855 0.613476 0.043566
O O4 0.000000 0.590440 0.000000
O O5 0.332045 0.500000 0.841285
O O6 0.520566 0.608849 0.614239
O O7 0.334014 0.596187 0.923909
O O8 0.247727 0.631278 0.912309
O O9 0.250000 0.750000 0.500000
O O10 0.413079 0.717438 0.397421
O O11 0.524674 0.782186 0.166320
O O12 0.474424 0.644444 0.228663
O O13 0.664097 0.282341 0.394666
O O14 0.223077 0.500000 0.262295
O O15 0.211714 0.346473 0.287907
O O16 0.000000 0.422194 0.500000
O O17 0.266844 0.410358 0.122271
O O18 0.266426 0.775669 0.162348
O O19 0.048649 0.000000 0.146285
O O20 0.000000 0.264374 0.500000
#
# Coordination Sequence:
#
# PCOD9213452 Si02
#       8
#     8   8   8   8   8   8   8   8
#     4  11  23  38  58  84 118 159 199 234 283 351
#     4  10  22  38  58  87 121 152 191 242 296 345
#     4  11  23  39  59  85 115 154 202 242 286 348
#     4  11  22  39  60  85 118 159 195 238 290 347
#     4   9  18  33  57  85 116 150 187 234 294 357
#     4  12  22  38  59  86 118 152 193 247 295 336
#     4   9  19  37  60  86 117 154 193 239 298 356
#     4  11  21  36  58  90 120 149 192 242 296 345
#
# _framework density 17.384194999999998
#
# number of rings (size 3 to 8) (size 9 to 14) (size 15 to 20)
#    0.000    1.500    5.000    0.750    0.000    4.500 
#    0.000    0.625    0.000    1.500    0.000    2.625 
#    0.000    0.000    0.000    0.000    0.000    0.000 
#
# Total GULP energy -178431.347929 kJ/mol
# GULP energy per Si atom -5575.979623 kJ/mol
# Density = 1.734463 g / cm^3
# Si number density = 17.384195 Si / 1000 Ang^3
#
#
#
# Elastic Constant Matrix: (Units=GPa)
#
#
# Indices 1 2 3 4 5 6 
#
# 1 31.8114 22.7623 25.2464 -0.0005 -5.8357 0.0006
# 2 22.7623 84.6685 29.2003 -0.0001 4.9151 -0.0022
# 3 25.2464 29.2003 89.8768 0.0020 7.2742 -0.0056
# 4 -0.0005 -0.0001 0.0020 9.4318 -0.0037 35.1055
# 5 -5.8357 4.9151 7.2742 -0.0037 26.7888 0.0093
# 6 0.0006 -0.0022 -0.0056 35.1055 0.0093 -82.4711
#
#
#
# Elastic Compliance Matrix: (Units=1/GPa)
#
#
# Indices 1 2 3 4 5 6 
#
# 1 0.052042 -0.010645 -0.012511 0.000000 0.016687 0.000003
# 2 -0.010645 0.015523 -0.001672 0.000001 -0.004713 -0.000001
# 3 -0.012511 -0.001672 0.015725 0.000000 -0.006689 -0.000002
# 4 0.000000 0.000001 0.000000 0.041025 -0.000001 0.017463
# 5 0.016687 -0.004713 -0.006689 -0.000001 0.043645 0.000005
# 6 0.000003 -0.000001 -0.000002 0.017463 0.000005 -0.004692
#
#
# Mechanical properties :
#
#
# Convention : Reuss Voigt Hill
#
# Bulk Modulus (GPa) = 29.73068 40.08607 34.90837
# Shear Modulus (GPa) = 22.30793 -0.64027 10.83383
#
# Velocity S-wave (km/s) = 3.58611 -0.60754 2.49911
# Velocity P-wave (km/s) = 5.85544 4.75572 5.33399
#
# Compressibility (1/GPa) = 0.03363529
#
# Stress axis : x y z
#
# Youngs Moduli (GPa) = 19.21508 64.42192 63.59280
#
# Poissons Ratio (x) = 0.68578 0.79560
# Poissons Ratio (y) = 0.20455 0.10630
# Poissons Ratio (z) = 0.24040 0.10768
#
# Static dielectric constant tensor:
#      x y z
#    x 1.566140 0.000000 0.015090 
#    y 0.000000 1.602550 0.000000 
#    z 0.015090 0.000000 1.605690 
# 
# From -- ./inp_files/328602.got.cif
#   From: 2010.05.17/outbox.cif.g08.bks.cpg/sg12_165_cif.got.tgz:328602.got - 2010.06.03 13:09:07.
