data_PCOD9213230
_publ_section_title
;
Structure prediction by ZEFSAII (Michael W. Deem and Ramdas Pophale) SiO2 
 PCOD9213230
Probable space group: C 2/M
;
_chemical_formula_sum "Si O2"
_cell_formula_units_Z 36
_cell_length_a 9.336830
_cell_length_b 13.422094
_cell_length_c 12.592117
_cell_angle_alpha 90.000000
_cell_angle_beta 110.111233
_cell_angle_gamma 90.000000
_cell_volume 1481.823549
_symmetry_space_group_name_H-M "C 2/M"
_symmetry_group_IT_number 12
_symmetry_cell_setting 'monoclinic'
loop_
_space_group_symop_operation_xyz
x,y,z
-x,y,-z
-x,-y,-z
x,-y,z
1/2+x,1/2+y,z
1/2-x,1/2+y,-z
1/2-x,1/2-y,-z
1/2+x,1/2-y,z
loop_
_atom_site_type_symbol
_atom_site_label
_atom_site_fract_x
_atom_site_fract_y
_atom_site_fract_z
Si Si1 0.806093 0.119201 0.815688
Si Si2 0.928572 0.384196 0.873940
Si Si3 0.339222 0.382330 0.052085
Si Si4 0.686828 0.787470 0.349373
Si Si5 0.500000 0.293650 0.500000
O O1 0.767153 0.186418 0.704106
O O2 0.986373 0.141384 0.880955
O O3 0.781690 0.000000 0.792087
O O4 0.752707 0.153291 0.921650
O O5 0.972403 0.500000 0.882034
O O6 0.752202 0.371592 0.863135
O O7 0.931511 0.342572 0.757961
O O8 0.000000 0.341145 0.000000
O O9 0.342110 0.500000 0.030085
O O10 0.590851 0.765937 0.431197
O O11 0.848347 0.844359 0.410290
#
# Coordination Sequence:
#
# PCOD9213230 Si02
#       5
#     8   8   8   8   4
#     4   9  18  33  59  89 118 154 193 239 295 363
#     4  10  22  37  59  94 126 152 190 245 311 375
#     4   8  16  32  52  87 126 146 185 235 286 371
#     4  11  23  43  64  81 124 161 202 255 301 338
#     4  10  26  46  58  88 118 160 224 256 266 356
#
# _framework density 24.294391000000001
#
# number of rings (size 3 to 8) (size 9 to 14) (size 15 to 20)
#    0.000    2.444    0.000    2.667    6.222    0.889 
#    0.000    6.667    0.000    0.000    0.000    0.000 
#    0.000    0.000    0.000    0.000    0.000    0.000 
#
# Total GULP energy -100254.164280 kJ/mol
# GULP energy per Si atom -5569.675793 kJ/mol
# Density = 2.423910 g / cm^3
# Si number density = 24.294391 Si / 1000 Ang^3
#
#
#
# Elastic Constant Matrix: (Units=GPa)
#
#
# Indices 1 2 3 4 5 6 
#
# 1 84.0968 -25.1514 36.7792 0.0000 -4.4116 0.0000
# 2 -25.1514 78.8459 19.4416 0.0000 6.8945 0.0000
# 3 36.7792 19.4416 136.7916 0.0000 -7.7443 0.0000
# 4 0.0000 0.0000 0.0000 11.5518 0.0000 1.2049
# 5 -4.4116 6.8945 -7.7443 0.0000 50.8684 0.0000
# 6 0.0000 0.0000 0.0000 1.2049 0.0000 6.8703
#
#
#
# Elastic Compliance Matrix: (Units=1/GPa)
#
#
# Indices 1 2 3 4 5 6 
#
# 1 0.016113 0.006463 -0.005267 0.000000 -0.000280 0.000000
# 2 0.006463 0.015959 -0.004132 0.000000 -0.002232 0.000000
# 3 -0.005267 -0.004132 0.009401 0.000000 0.001534 0.000000
# 4 0.000000 0.000000 0.000000 0.088179 0.000000 -0.015464
# 5 -0.000280 -0.002232 0.001534 0.000000 0.020170 0.000000
# 6 0.000000 0.000000 0.000000 -0.015464 0.000000 0.148266
#
#
# Mechanical properties :
#
#
# Convention : Reuss Voigt Hill
#
# Bulk Modulus (GPa) = 28.08972 40.20812 34.14892
# Shear Modulus (GPa) = 15.83151 31.76910 23.80030
#
# Velocity S-wave (km/s) = 2.55552 3.62010 3.13335
# Velocity P-wave (km/s) = 4.50499 5.83608 5.21319
#
# Compressibility (1/GPa) = 0.03560022
#
# Stress axis : x y z
#
# Youngs Moduli (GPa) = 62.06317 62.66191 106.37629
#
# Poissons Ratio (x) = -0.40498 0.56025
# Poissons Ratio (y) = -0.40111 0.43957
# Poissons Ratio (z) = 0.32686 0.25893
#
# Static dielectric constant tensor:
#      x y z
#    x 2.069220 0.000000 0.017060 
#    y 0.000000 2.003450 0.000000 
#    z 0.017060 0.000000 2.010430 
# 
# From -- ./inp_files/129393.got.cif
#   From: 2010.05.17/outbox.cif.g08.bks.cpg/sg12_65_cif.got.tgz:129393.got - 2010.06.03 13:09:07.
