data_PCOD9213931
_publ_section_title
;
Structure prediction by ZEFSAII (Michael W. Deem and Ramdas Pophale) SiO2 
 PCOD9213931
Probable space group: C 2/M
;
_chemical_formula_sum "Si O2"
_cell_formula_units_Z 40
_cell_length_a 10.049696
_cell_length_b 15.033620
_cell_length_c 13.318604
_cell_angle_alpha 90.000000
_cell_angle_beta 112.404605
_cell_angle_gamma 90.000000
_cell_volume 1860.327263
_symmetry_space_group_name_H-M "C 2/M"
_symmetry_group_IT_number 12
_symmetry_cell_setting 'monoclinic'
loop_
_space_group_symop_operation_xyz
x,y,z
-x,y,-z
-x,-y,-z
x,-y,z
1/2+x,1/2+y,z
1/2-x,1/2+y,-z
1/2-x,1/2-y,-z
1/2+x,1/2-y,z
loop_
_atom_site_type_symbol
_atom_site_label
_atom_site_fract_x
_atom_site_fract_y
_atom_site_fract_z
Si Si1 0.545643 0.500000 0.898441
Si Si2 0.720836 0.683774 0.221195
Si Si3 0.154269 0.322720 0.526848
Si Si4 0.089716 0.000000 0.629500
Si Si5 0.723074 0.000000 0.794198
Si Si6 0.394236 0.000000 0.617598
Si Si7 0.586667 0.654487 0.788052
O O1 0.389037 0.500000 0.794126
O O2 0.631884 0.585231 0.887125
O O3 0.500000 0.500000 0.000000
O O4 0.786074 0.653644 0.347093
O O5 0.758665 0.600897 0.158904
O O6 0.555094 0.698197 0.202986
O O7 0.799097 0.772068 0.208683
O O8 0.250000 0.250000 0.500000
O O9 0.130812 0.411665 0.455984
O O10 0.000000 0.279165 0.500000
O O11 0.056809 0.089654 0.683851
O O12 0.000000 0.000000 0.500000
O O13 0.262011 0.000000 0.658165
O O14 0.558692 0.000000 0.704967
#
# Coordination Sequence:
#
# PCOD9213931 Si02
#       7
#     4   8   8   4   4   4   8
#     4   9  21  48  76  94 121 160 203 264 340 404
#     4  11  21  38  56  89 126 164 211 258 311 373
#     4  12  23  35  54  83 122 174 224 256 302 357
#     4  11  23  41  56  86 131 178 226 260 305 365
#     4  10  22  39  60  88 120 164 208 264 325 367
#     4  12  23  39  57  85 127 182 230 269 300 358
#     4  10  23  39  65  94 126 165 212 264 318 382
#
# _framework density 21.501594000000001
#
# number of rings (size 3 to 8) (size 9 to 14) (size 15 to 20)
#    0.000    1.200    2.000    5.100    2.800    1.600 
#    0.000    4.000    0.000    2.400    0.000    0.000 
#    0.000    0.000    0.000    0.000    0.000    0.000 
#
# Total GULP energy -111451.642541 kJ/mol
# GULP energy per Si atom -5572.582127 kJ/mol
# Density = 2.145266 g / cm^3
# Si number density = 21.501594 Si / 1000 Ang^3
#
#
#
# Elastic Constant Matrix: (Units=GPa)
#
#
# Indices 1 2 3 4 5 6 
#
# 1 159.2281 91.2170 28.0259 0.0000 -19.1773 0.0000
# 2 91.2170 179.9376 41.3959 0.0000 -25.9747 0.0000
# 3 28.0259 41.3959 78.5080 0.0000 -16.5257 0.0000
# 4 0.0000 0.0000 0.0000 -0.4617 0.0000 -15.4944
# 5 -19.1773 -25.9747 -16.5257 0.0000 24.0535 0.0000
# 6 0.0000 0.0000 0.0000 -15.4944 0.0000 23.8331
#
#
#
# Elastic Compliance Matrix: (Units=1/GPa)
#
#
# Indices 1 2 3 4 5 6 
#
# 1 0.009012 -0.004097 -0.000556 0.000000 0.002378 0.000000
# 2 -0.004097 0.008825 -0.002189 0.000000 0.004760 0.000000
# 3 -0.000556 -0.002189 0.015782 0.000000 0.008036 0.000000
# 4 0.000000 0.000000 0.000000 -0.094922 0.000000 -0.061711
# 5 0.002378 0.004760 0.008036 0.000000 0.054131 0.000000
# 6 0.000000 0.000000 0.000000 -0.061711 0.000000 0.001839
#
#
# Mechanical properties :
#
#
# Convention : Reuss Voigt Hill
#
# Bulk Modulus (GPa) = 50.16420 82.10568 66.13494
# Shear Modulus (GPa) = 333.45421 26.62064 180.03742
#
# Velocity S-wave (km/s) = 12.46676 3.52245 9.16045
# Velocity P-wave (km/s) = 15.18578 7.40353 11.94613
#
# Compressibility (1/GPa) = 0.01993453
#
# Stress axis : x y z
#
# Youngs Moduli (GPa) = 110.96625 113.31318 63.36470
#
# Poissons Ratio (x) = 0.46426 0.03523
# Poissons Ratio (y) = 0.45464 0.13869
# Poissons Ratio (z) = 0.06170 0.24802
#
# Static dielectric constant tensor:
#      x y z
#    x 1.807680 0.000000 0.036830 
#    y 0.000000 1.854690 0.000000 
#    z 0.036830 0.000000 1.933000 
# 
# From -- ./inp_files/194631.got.cif
#   From: 2010.05.17/outbox.cif.g08.bks.cpg/sg12_98_cif.got.tgz:194631.got - 2010.06.03 13:09:07.
