data_PCOD9213637
_publ_section_title
;
Structure prediction by ZEFSAII (Michael W. Deem and Ramdas Pophale) SiO2 
 PCOD9213637
Probable space group: C 2/M
;
_chemical_formula_sum "Si O2"
_cell_formula_units_Z 64
_cell_length_a 21.873817
_cell_length_b 23.457753
_cell_length_c 16.640613
_cell_angle_alpha 90.000000
_cell_angle_beta 158.387385
_cell_angle_gamma 90.000000
_cell_volume 3144.970090
_symmetry_space_group_name_H-M "C 2/M"
_symmetry_group_IT_number 12
_symmetry_cell_setting 'monoclinic'
loop_
_space_group_symop_operation_xyz
x,y,z
-x,y,-z
-x,-y,-z
x,-y,z
1/2+x,1/2+y,z
1/2-x,1/2+y,-z
1/2-x,1/2-y,-z
1/2+x,1/2-y,z
loop_
_atom_site_type_symbol
_atom_site_label
_atom_site_fract_x
_atom_site_fract_y
_atom_site_fract_z
Si Si1 0.261025 0.869181 0.370379
Si Si2 0.923033 0.865775 0.493761
Si Si3 0.091636 0.642397 0.034567
Si Si4 0.314413 0.250935 0.953218
Si Si5 0.879477 0.868605 0.963127
Si Si6 0.970037 0.933848 0.229025
Si Si7 0.969017 0.252415 0.627533
Si Si8 0.352612 0.065672 0.635915
O O1 0.232511 0.893017 0.245743
O O2 0.354768 0.808271 0.483290
O O3 0.353156 0.909606 0.546219
O O4 0.072438 0.865169 0.173141
O O5 0.000000 0.857616 0.500000
O O6 0.035891 0.901438 0.693072
O O7 0.888441 0.805343 0.495234
O O8 0.744862 0.893496 0.258027
O O9 0.163337 0.691911 0.065695
O O10 0.968562 0.604228 0.832679
O O11 0.000000 0.667926 0.000000
O O12 0.464582 0.255915 0.200713
O O13 0.324085 0.303858 0.906180
O O14 0.138946 0.256665 0.783834
O O15 0.870854 0.901758 0.037004
O O16 0.163499 0.931086 0.437856
O O17 0.922913 0.000000 0.177832
O O18 0.403679 0.000000 0.699609
#
# Coordination Sequence:
#
# PCOD9213637 Si02
#       8
#     8   8   8   8   8   8   8   8
#     4  10  22  38  63  94 123 160 200 255 307 361
#     4  12  24  40  61  91 128 159 203 250 310 370
#     4  12  24  38  62  96 123 161 206 251 303 368
#     4  11  23  39  63  91 125 164 200 249 309 371
#     4  10  22  38  62  95 122 156 209 250 301 370
#     4  10  22  42  64  88 122 164 206 258 308 356
#     4  11  23  40  62  88 129 165 197 247 314 372
#     4  10  22  42  64  90 122 161 211 258 303 355
#
# _framework density 20.349955999999999
#
# number of rings (size 3 to 8) (size 9 to 14) (size 15 to 20)
#    0.000    1.250    5.000    0.750    3.500    2.000 
#    0.000    2.500    0.000    0.000    0.000    1.750 
#    0.000    0.000    0.000    0.000    0.000    0.000 
#
# Total GULP energy -178703.162022 kJ/mol
# GULP energy per Si atom -5584.473813 kJ/mol
# Density = 2.030364 g / cm^3
# Si number density = 20.349956 Si / 1000 Ang^3
#
#
#
# Elastic Constant Matrix: (Units=GPa)
#
#
# Indices 1 2 3 4 5 6 
#
# 1 92.8180 33.1055 27.4235 0.0000 -37.1653 0.0000
# 2 33.1055 94.3499 10.1374 0.0000 -18.5506 0.0000
# 3 27.4235 10.1374 67.4194 0.0000 -28.3518 0.0000
# 4 0.0000 0.0000 0.0000 -5.8655 0.0000 -6.2083
# 5 -37.1653 -18.5506 -28.3518 0.0000 32.2878 0.0000
# 6 0.0000 0.0000 0.0000 -6.2083 0.0000 -5.2922
#
#
#
# Elastic Compliance Matrix: (Units=1/GPa)
#
#
# Indices 1 2 3 4 5 6 
#
# 1 0.020860 -0.002771 0.002156 0.000000 0.024312 0.000000
# 2 -0.002771 0.012445 0.001461 0.000000 0.005244 0.000000
# 3 0.002156 0.001461 0.023992 0.000000 0.024388 0.000000
# 4 0.000000 0.000000 0.000000 0.705504 0.000000 -0.827630
# 5 0.024312 0.005244 0.024388 0.000000 0.083383 0.000000
# 6 0.000000 0.000000 0.000000 -0.827630 0.000000 0.781938
#
#
# Mechanical properties :
#
#
# Convention : Reuss Voigt Hill
#
# Bulk Modulus (GPa) = 16.95263 43.99111 30.47187
# Shear Modulus (GPa) = 3.03749 16.48742 9.76246
#
# Velocity S-wave (km/s) = 1.22306 2.84948 2.19265
# Velocity P-wave (km/s) = 3.21607 5.70002 4.62782
#
# Compressibility (1/GPa) = 0.05898788
#
# Stress axis : x y z
#
# Youngs Moduli (GPa) = 47.93886 80.35308 41.68091
#
# Poissons Ratio (x) = 0.22264 -0.08984
# Poissons Ratio (y) = 0.13283 -0.06089
# Poissons Ratio (z) = -0.10333 -0.11738
#
# Static dielectric constant tensor:
#      x y z
#    x 1.744830 0.000000 -0.000710 
#    y 0.000000 1.684440 0.000000 
#    z -0.000710 0.000000 1.750780 
# 
# From -- ./inp_files/290967.got.cif
#   From: 2010.05.17/outbox.cif.g08.bks.cpg/sg12_146_cif.got.tgz:290967.got - 2010.06.03 13:09:07.
