data_PCOD9213005
_publ_section_title
;
Structure prediction by ZEFSAII (Michael W. Deem and Ramdas Pophale) SiO2 
 PCOD9213005
Probable space group: C 2/M
;
_chemical_formula_sum "Si O2"
_cell_formula_units_Z 56
_cell_length_a 7.365647
_cell_length_b 27.922762
_cell_length_c 12.086386
_cell_angle_alpha 90.000000
_cell_angle_beta 65.011834
_cell_angle_gamma 90.000000
_cell_volume 2253.114509
_symmetry_space_group_name_H-M "C 2/M"
_symmetry_group_IT_number 12
_symmetry_cell_setting 'monoclinic'
loop_
_space_group_symop_operation_xyz
x,y,z
-x,y,-z
-x,-y,-z
x,-y,z
1/2+x,1/2+y,z
1/2-x,1/2+y,-z
1/2-x,1/2-y,-z
1/2+x,1/2-y,z
loop_
_atom_site_type_symbol
_atom_site_label
_atom_site_fract_x
_atom_site_fract_y
_atom_site_fract_z
Si Si1 0.356731 0.104887 0.706971
Si Si2 0.676057 0.697316 0.036786
Si Si3 0.772071 0.946227 0.587561
Si Si4 0.804138 0.292226 0.623492
Si Si5 0.321810 0.900862 0.972617
Si Si6 0.887531 0.807894 0.692165
Si Si7 0.919045 0.911010 0.752778
O O1 0.572435 0.084537 0.612853
O O2 0.341777 0.163030 0.697167
O O3 0.326120 0.087921 0.842273
O O4 0.160644 0.087502 0.688647
O O5 0.592290 0.698003 0.181175
O O6 0.500000 0.684913 0.000000
O O7 0.750000 0.750000 0.000000
O O8 0.838541 0.657025 0.971803
O O9 0.000000 0.928681 0.500000
O O10 0.800205 0.949556 0.713597
O O11 0.748961 0.000000 0.547252
O O12 0.616349 0.304759 0.593272
O O13 0.000000 0.290132 0.500000
O O14 0.770516 0.238595 0.680555
O O15 0.500000 0.922024 0.000000
O O16 0.134313 0.909656 0.103030
O O17 0.829782 0.863446 0.710828
#
# Coordination Sequence:
#
# PCOD9213005 Si02
#       7
#     8   8   8   8   8   8   8
#     4  11  24  43  70  99 140 177 227 283 346 404
#     4  11  20  32  52  82 124 172 227 278 333 393
#     4  11  27  48  74 105 134 174 231 284 338 405
#     4  11  24  38  57  89 129 181 231 271 331 398
#     4  11  20  38  64  99 131 178 221 279 343 411
#     4  10  22  36  55  88 128 175 222 273 324 390
#     4  10  23  43  69 100 141 182 223 280 345 406
#
# _framework density 24.854485
#
# number of rings (size 3 to 8) (size 9 to 14) (size 15 to 20)
#    0.000    1.286    1.429    5.571    6.000    2.286 
#    0.000    2.857    0.000    1.714    0.000    0.000 
#    0.000    0.000    0.000    0.000    0.000    0.000 
#
# Total GULP energy -156223.063077 kJ/mol
# GULP energy per Si atom -5579.395110 kJ/mol
# Density = 2.479791 g / cm^3
# Si number density = 24.854485 Si / 1000 Ang^3
#
#
#
# Elastic Constant Matrix: (Units=GPa)
#
#
# Indices 1 2 3 4 5 6 
#
# 1 116.1754 30.9872 8.0575 0.0000 -9.4222 0.0000
# 2 30.9872 91.3922 13.7694 0.0000 -12.2079 0.0000
# 3 8.0575 13.7694 54.0457 0.0000 -7.4044 0.0000
# 4 0.0000 0.0000 0.0000 15.0531 0.0000 5.2974
# 5 -9.4222 -12.2079 -7.4044 0.0000 40.4640 0.0000
# 6 0.0000 0.0000 0.0000 5.2974 0.0000 12.7369
#
#
#
# Elastic Compliance Matrix: (Units=1/GPa)
#
#
# Indices 1 2 3 4 5 6 
#
# 1 0.009541 -0.002997 -0.000491 0.000000 0.001228 0.000000
# 2 -0.002997 0.012681 -0.002416 0.000000 0.002686 0.000000
# 3 -0.000491 -0.002416 0.019567 0.000000 0.002737 0.000000
# 4 0.000000 0.000000 0.000000 0.077822 0.000000 -0.032366
# 5 0.001228 0.002686 0.002737 0.000000 0.026310 0.000000
# 6 0.000000 0.000000 0.000000 -0.032366 0.000000 0.091973
#
#
# Mechanical properties :
#
#
# Convention : Reuss Voigt Hill
#
# Bulk Modulus (GPa) = 33.35463 40.80462 37.07963
# Shear Modulus (GPa) = 19.25343 27.57074 23.41208
#
# Velocity S-wave (km/s) = 2.78627 3.33421 3.07248
# Velocity P-wave (km/s) = 4.87854 5.59246 5.24766
#
# Compressibility (1/GPa) = 0.02998085
#
# Stress axis : x y z
#
# Youngs Moduli (GPa) = 104.81491 78.85981 51.10765
#
# Poissons Ratio (x) = 0.23634 0.02508
# Poissons Ratio (y) = 0.31412 0.12347
# Poissons Ratio (z) = 0.05143 0.19052
#
# Static dielectric constant tensor:
#      x y z
#    x 1.976670 0.000000 -0.117640 
#    y 0.000000 2.098190 0.000000 
#    z -0.117640 0.000000 2.117160 
# 
# From -- ./inp_files/200840.got.cif
#   From: 2010.05.17/outbox.cif.g08.bks.cpg/sg12_101_cif.got.tgz:200840.got - 2010.06.03 13:09:07.
