data_PCOD9213180
_publ_section_title
;
Structure prediction by ZEFSAII (Michael W. Deem and Ramdas Pophale) SiO2 
 PCOD9213180
Probable space group: C 2/M
;
_chemical_formula_sum "Si O2"
_cell_formula_units_Z 64
_cell_length_a 26.662053
_cell_length_b 14.319647
_cell_length_c 11.187700
_cell_angle_alpha 90.000000
_cell_angle_beta 138.804116
_cell_angle_gamma 90.000000
_cell_volume 2813.272399
_symmetry_space_group_name_H-M "C 2/M"
_symmetry_group_IT_number 12
_symmetry_cell_setting 'monoclinic'
loop_
_space_group_symop_operation_xyz
x,y,z
-x,y,-z
-x,-y,-z
x,-y,z
1/2+x,1/2+y,z
1/2-x,1/2+y,-z
1/2-x,1/2-y,-z
1/2+x,1/2-y,z
loop_
_atom_site_type_symbol
_atom_site_label
_atom_site_fract_x
_atom_site_fract_y
_atom_site_fract_z
Si Si1 0.916962 0.895953 0.909875
Si Si2 0.071696 0.607627 0.554112
Si Si3 0.442676 0.610228 0.238539
Si Si4 0.848050 0.276183 0.849275
Si Si5 0.611544 0.387854 0.609853
Si Si6 0.994530 0.394403 0.155472
Si Si7 0.340876 0.890397 0.627285
Si Si8 0.797879 0.276996 0.313640
O O1 0.865843 0.807956 0.787953
O O2 0.887279 0.000000 0.830353
O O3 0.923454 0.883896 0.065088
O O4 0.000000 0.888701 0.000000
O O5 0.085458 0.500000 0.618089
O O6 0.151292 0.663038 0.688868
O O7 0.000000 0.646303 0.500000
O O8 0.037805 0.605463 0.359942
O O9 0.449146 0.500000 0.274369
O O10 0.387649 0.639813 0.247763
O O11 0.528199 0.644347 0.414522
O O12 0.809741 0.355140 0.697831
O O13 0.792588 0.237564 0.851936
O O14 0.926750 0.320364 0.037296
O O15 0.620941 0.500000 0.612405
O O16 0.669235 0.326704 0.638317
O O17 0.964963 0.500000 0.082678
O O18 0.066661 0.376551 0.198288
O O19 0.311355 0.829733 0.463704
O O20 0.327697 0.000000 0.581323
#
# Coordination Sequence:
#
# PCOD9213180 Si02
#       8
#     8   8   8   8   8   8   8   8
#     4  10  22  37  57  86 122 163 201 241 297 368
#     4   9  20  40  65  89 114 156 212 261 308 369
#     4   8  17  36  58  83 112 154 205 244 289 346
#     4  12  24  37  56  90 126 155 199 252 325 378
#     4   9  19  35  59  86 117 155 200 250 296 357
#     4   9  19  37  63  87 112 153 206 261 302 355
#     4  10  22  43  65  85 116 165 216 260 308 373
#     4  11  24  37  58  91 121 156 200 254 325 372
#
# _framework density 22.749307999999999
#
# number of rings (size 3 to 8) (size 9 to 14) (size 15 to 20)
#    0.000    2.250    0.000    3.750    7.000    3.000 
#    0.000    2.500    0.000    4.500    0.000    0.000 
#    0.000    0.000    0.000    0.000    0.000    0.000 
#
# Total GULP energy -178512.548385 kJ/mol
# GULP energy per Si atom -5578.517137 kJ/mol
# Density = 2.269753 g / cm^3
# Si number density = 22.749308 Si / 1000 Ang^3
#
#
#
# Elastic Constant Matrix: (Units=GPa)
#
#
# Indices 1 2 3 4 5 6 
#
# 1 102.0472 45.4102 14.7389 0.0000 25.7490 0.0000
# 2 45.4102 129.0462 20.6256 0.0000 26.0301 0.0000
# 3 14.7389 20.6256 26.3679 0.0000 9.0603 0.0000
# 4 0.0000 0.0000 0.0000 6.2340 0.0000 -9.9103
# 5 25.7490 26.0301 9.0603 0.0000 33.9472 0.0000
# 6 0.0000 0.0000 0.0000 -9.9103 0.0000 31.3108
#
#
#
# Elastic Compliance Matrix: (Units=1/GPa)
#
#
# Indices 1 2 3 4 5 6 
#
# 1 0.013244 -0.002769 -0.002769 0.000000 -0.007183 0.000000
# 2 -0.002769 0.010453 -0.005061 0.000000 -0.004564 0.000000
# 3 -0.002769 -0.005061 0.045554 0.000000 -0.006178 0.000000
# 4 0.000000 0.000000 0.000000 0.322866 0.000000 0.102192
# 5 -0.007183 -0.004564 -0.006178 0.000000 0.040055 0.000000
# 6 0.000000 0.000000 0.000000 0.102192 0.000000 0.064283
#
#
# Mechanical properties :
#
#
# Convention : Reuss Voigt Hill
#
# Bulk Modulus (GPa) = 20.80975 46.55674 33.68325
# Shear Modulus (GPa) = 9.36910 26.07750 17.72330
#
# Velocity S-wave (km/s) = 2.03159 3.38938 2.79421
# Velocity P-wave (km/s) = 3.83020 5.98554 5.02479
#
# Compressibility (1/GPa) = 0.04805440
#
# Stress axis : x y z
#
# Youngs Moduli (GPa) = 75.50598 95.66605 21.95206
#
# Poissons Ratio (x) = 0.26489 0.06078
# Poissons Ratio (y) = 0.20907 0.11109
# Poissons Ratio (z) = 0.20906 0.48412
#
# Static dielectric constant tensor:
#      x y z
#    x 1.912450 0.000000 -0.012880 
#    y 0.000000 1.908010 0.000000 
#    z -0.012880 0.000000 1.906820 
# 
# From -- ./inp_files/183805.got.cif
#   From: 2010.05.17/outbox.cif.g08.bks.cpg/sg12_92_cif.got.tgz:183805.got - 2010.06.03 13:09:07.
