data_PCOD9213500
_publ_section_title
;
Structure prediction by ZEFSAII (Michael W. Deem and Ramdas Pophale) SiO2 
 PCOD9213500
Probable space group: C 2/M
;
_chemical_formula_sum "Si O2"
_cell_formula_units_Z 56
_cell_length_a 22.107403
_cell_length_b 15.444127
_cell_length_c 22.755699
_cell_angle_alpha 90.000000
_cell_angle_beta 22.017607
_cell_angle_gamma 90.000000
_cell_volume 2912.707445
_symmetry_space_group_name_H-M "C 2/M"
_symmetry_group_IT_number 12
_symmetry_cell_setting 'monoclinic'
loop_
_space_group_symop_operation_xyz
x,y,z
-x,y,-z
-x,-y,-z
x,-y,z
1/2+x,1/2+y,z
1/2-x,1/2+y,-z
1/2-x,1/2-y,-z
1/2+x,1/2-y,z
loop_
_atom_site_type_symbol
_atom_site_label
_atom_site_fract_x
_atom_site_fract_y
_atom_site_fract_z
Si Si1 0.336121 0.397316 0.958444
Si Si2 0.361308 0.161567 0.083845
Si Si3 0.584889 0.714694 0.804291
Si Si4 0.822879 0.686862 0.687447
Si Si5 0.605864 0.401571 0.226655
Si Si6 0.167371 0.241987 0.510862
Si Si7 0.932285 0.398524 0.704748
O O1 0.360107 0.500000 0.942665
O O2 0.486814 0.347691 0.849958
O O3 0.323032 0.377170 0.901399
O O4 0.180172 0.376313 0.138134
O O5 0.242270 0.221279 0.230012
O O6 0.248295 0.103151 0.145777
O O7 0.500000 0.120738 0.000000
O O8 0.458655 0.227260 0.953823
O O9 0.694234 0.663281 0.753050
O O10 0.702335 0.771890 0.657801
O O11 0.836010 0.623576 0.731486
O O12 0.000000 0.693678 0.500000
O O13 0.542861 0.500000 0.279975
O O14 0.467019 0.332852 0.366887
O O15 0.250000 0.250000 0.500000
O O16 0.081436 0.333161 0.573273
O O17 0.974313 0.500000 0.668432
#
# Coordination Sequence:
#
# PCOD9213500 Si02
#       7
#     8   8   8   8   8   8   8
#     4  10  22  38  59  90 125 159 205 254 300 365
#     4  10  22  39  65  91 120 160 211 259 305 365
#     4  11  21  37  62  89 123 162 205 249 304 370
#     4  11  20  38  60  88 124 164 204 246 305 361
#     4  11  23  42  65  90 123 164 208 258 313 364
#     4  12  24  39  63  90 123 167 200 254 311 366
#     4  11  24  41  61  90 126 164 205 248 303 371
#
# _framework density 19.226099000000001
#
# number of rings (size 3 to 8) (size 9 to 14) (size 15 to 20)
#    0.000    1.143    5.714    0.000    2.000    3.429 
#    0.000    2.143    0.000    8.143    0.000    0.000 
#    0.000    0.000    0.000    0.000    0.000    0.000 
#
# Total GULP energy -156371.714508 kJ/mol
# GULP energy per Si atom -5584.704090 kJ/mol
# Density = 1.918234 g / cm^3
# Si number density = 19.226099 Si / 1000 Ang^3
#
#
#
# Elastic Constant Matrix: (Units=GPa)
#
#
# Indices 1 2 3 4 5 6 
#
# 1 106.1191 12.5075 0.1813 0.0038 -10.1026 -0.0013
# 2 12.5075 36.6798 17.9732 0.0014 -7.4347 -0.0013
# 3 0.1813 17.9732 78.7763 -0.0024 11.9642 -0.0010
# 4 0.0038 0.0014 -0.0024 9.4178 -0.0030 7.4448
# 5 -10.1026 -7.4347 11.9642 -0.0030 34.2222 0.0016
# 6 -0.0013 -0.0013 -0.0010 7.4448 0.0016 20.8510
#
#
#
# Elastic Compliance Matrix: (Units=1/GPa)
#
#
# Indices 1 2 3 4 5 6 
#
# 1 0.009998 -0.003160 0.000374 -0.000004 0.002134 0.000002
# 2 -0.003160 0.035023 -0.009502 -0.000005 0.009998 0.000003
# 3 0.000374 -0.009502 0.016008 0.000003 -0.007550 0.000000
# 4 -0.000004 -0.000005 0.000003 0.147936 0.000012 -0.052820
# 5 0.002134 0.009998 -0.007550 0.000012 0.034663 -0.000006
# 6 0.000002 0.000003 0.000000 -0.052820 -0.000006 0.066819
#
#
# Mechanical properties :
#
#
# Convention : Reuss Voigt Hill
#
# Bulk Modulus (GPa) = 27.43232 31.43322 29.43277
# Shear Modulus (GPa) = 14.40203 25.62574 20.01389
#
# Velocity S-wave (km/s) = 2.73992 3.65480 3.22991
# Velocity P-wave (km/s) = 4.93039 5.84763 5.40849
#
# Compressibility (1/GPa) = 0.03645335
#
# Stress axis : x y z
#
# Youngs Moduli (GPa) = 100.01634 28.55285 62.46917
#
# Poissons Ratio (x) = 0.09022 -0.02335
# Poissons Ratio (y) = 0.31604 0.59357
# Poissons Ratio (z) = -0.03738 0.27130
#
# Static dielectric constant tensor:
#      x y z
#    x 1.693830 0.000000 0.010860 
#    y 0.000000 1.638370 0.000000 
#    z 0.010860 0.000000 1.680530 
# 
# From -- ./inp_files/349718.got.cif
#   From: 2010.05.17/outbox.cif.g08.bks.cpg/sg12_175_cif.got.tgz:349718.got - 2010.06.03 13:09:07.
