data_PCOD9213063
_publ_section_title
;
Structure prediction by ZEFSAII (Michael W. Deem and Ramdas Pophale) SiO2 
 PCOD9213063
Probable space group: C 2/M
;
_chemical_formula_sum "Si O2"
_cell_formula_units_Z 40
_cell_length_a 8.158571
_cell_length_b 19.005957
_cell_length_c 13.841795
_cell_angle_alpha 90.000000
_cell_angle_beta 56.301000
_cell_angle_gamma 90.000000
_cell_volume 1785.667875
_symmetry_space_group_name_H-M "C 2/M"
_symmetry_group_IT_number 12
_symmetry_cell_setting 'monoclinic'
loop_
_space_group_symop_operation_xyz
x,y,z
-x,y,-z
-x,-y,-z
x,-y,z
1/2+x,1/2+y,z
1/2-x,1/2+y,-z
1/2-x,1/2-y,-z
1/2+x,1/2-y,z
loop_
_atom_site_type_symbol
_atom_site_label
_atom_site_fract_x
_atom_site_fract_y
_atom_site_fract_z
Si Si1 0.668522 0.727861 0.865712
Si Si2 0.890634 0.891690 0.253004
Si Si3 0.672313 0.895541 0.868854
Si Si4 0.700111 0.416323 0.494345
Si Si5 0.466486 0.885831 0.748504
O O1 0.614780 0.689018 0.783170
O O2 0.696529 0.810741 0.853208
O O3 0.864194 0.683366 0.828662
O O4 0.500000 0.712623 0.000000
O O5 0.831541 0.898996 0.383375
O O6 0.722587 0.923058 0.237833
O O7 0.111529 0.920355 0.171410
O O8 0.595662 0.920443 0.789936
O O9 0.500000 0.911589 0.000000
O O10 0.500000 0.402664 0.500000
O O11 0.744602 0.500000 0.471685
O O12 0.880063 0.373874 0.388231
#
# Coordination Sequence:
#
# PCOD9213063 Si02
#       5
#     8   8   8   8   8
#     4   9  20  37  59  90 126 163 194 224 281 351
#     4  10  22  36  60  92 116 152 204 242 285 346
#     4  11  20  37  61  88 130 167 190 228 279 345
#     4  11  23  45  68  82 108 154 201 252 314 355
#     4  10  22  36  60  92 116 152 204 242 285 346
#
# _framework density 22.400580999999999
#
# number of rings (size 3 to 8) (size 9 to 14) (size 15 to 20)
#    1.200    0.600    2.000    3.000    0.000    4.800 
#    0.000    6.000    0.000    7.200    0.000    0.000 
#    0.000    0.000    0.000    0.000    0.000    0.000 
#
# Total GULP energy -111558.459054 kJ/mol
# GULP energy per Si atom -5577.922953 kJ/mol
# Density = 2.234960 g / cm^3
# Si number density = 22.400581 Si / 1000 Ang^3
#
#
#
# Elastic Constant Matrix: (Units=GPa)
#
#
# Indices 1 2 3 4 5 6 
#
# 1 149.0742 -8.8091 11.6174 0.0000 -26.8973 0.0000
# 2 -8.8091 97.2163 18.7887 0.0000 -12.5593 0.0000
# 3 11.6174 18.7887 97.3631 0.0000 -24.3558 0.0000
# 4 0.0000 0.0000 0.0000 -119.4570 0.0000 -235.5346
# 5 -26.8973 -12.5593 -24.3558 0.0000 44.6404 0.0000
# 6 0.0000 0.0000 0.0000 -235.5346 0.0000 -599.0959
#
#
#
# Elastic Compliance Matrix: (Units=1/GPa)
#
#
# Indices 1 2 3 4 5 6 
#
# 1 0.007693 0.001333 0.000090 0.000000 0.005060 0.000000
# 2 0.001333 0.011102 -0.001528 0.000000 0.003093 0.000000
# 3 0.000090 -0.001528 0.012114 0.000000 0.006234 0.000000
# 4 0.000000 0.000000 0.000000 -0.037235 0.000000 0.014639
# 5 0.005060 0.003093 0.006234 0.000000 0.029722 0.000000
# 6 0.000000 0.000000 0.000000 0.014639 0.000000 -0.007424
#
#
# Mechanical properties :
#
#
# Convention : Reuss Voigt Hill
#
# Bulk Modulus (GPa) = 32.57209 42.98307 37.77758
# Shear Modulus (GPa) = 189.30049 -113.31207 37.99421
#
# Velocity S-wave (km/s) = 9.20274 -7.11999 4.12287
# Velocity P-wave (km/s) = 11.29127 6.95430 6.29009
#
# Compressibility (1/GPa) = 0.03070113
#
# Stress axis : x y z
#
# Youngs Moduli (GPa) = 129.99353 90.07368 82.54642
#
# Poissons Ratio (x) = -0.12009 -0.00747
# Poissons Ratio (y) = -0.17331 0.12611
# Poissons Ratio (z) = -0.01176 0.13761
#
# Static dielectric constant tensor:
#      x y z
#    x 1.889430 0.000000 -0.014350 
#    y 0.000000 1.832870 0.000000 
#    z -0.014350 0.000000 1.783210 
# 
# From -- ./inp_files/197879.got.cif
#   From: 2010.05.17/outbox.cif.g08.bks.cpg/sg12_99_cif.got.tgz:197879.got - 2010.06.03 13:09:07.
