data_PCOD9213812
_publ_section_title
;
Structure prediction by ZEFSAII (Michael W. Deem and Ramdas Pophale) SiO2 
 PCOD9213812
Probable space group: C 2/M
;
_chemical_formula_sum "Si O2"
_cell_formula_units_Z 44
_cell_length_a 10.476200
_cell_length_b 30.422367
_cell_length_c 7.793130
_cell_angle_alpha 90.000000
_cell_angle_beta 62.810735
_cell_angle_gamma 90.000000
_cell_volume 2209.304779
_symmetry_space_group_name_H-M "C 2/M"
_symmetry_group_IT_number 12
_symmetry_cell_setting 'monoclinic'
loop_
_space_group_symop_operation_xyz
x,y,z
-x,y,-z
-x,-y,-z
x,-y,z
1/2+x,1/2+y,z
1/2-x,1/2+y,-z
1/2-x,1/2-y,-z
1/2+x,1/2-y,z
loop_
_atom_site_type_symbol
_atom_site_label
_atom_site_fract_x
_atom_site_fract_y
_atom_site_fract_z
Si Si1 0.616532 0.551327 0.572202
Si Si2 0.500000 0.414930 0.000000
Si Si3 0.446871 0.812381 0.846970
Si Si4 0.690040 0.665339 0.824397
Si Si5 0.614857 0.113842 0.555313
Si Si6 0.913632 0.770292 0.389833
O O1 0.500000 0.563522 0.500000
O O2 0.652931 0.500000 0.530371
O O3 0.758382 0.581354 0.467058
O O4 0.541517 0.558612 0.804213
O O5 0.628103 0.379821 0.937253
O O6 0.276734 0.813703 0.926490
O O7 0.525805 0.858362 0.749552
O O8 0.495257 0.773064 0.697836
O O9 0.500000 0.800426 0.000000
O O10 0.807726 0.650333 0.610900
O O11 0.588339 0.696365 0.772278
O O12 0.500000 0.090709 0.500000
O O13 0.750000 0.750000 0.500000
O O14 0.000000 0.791477 0.500000
#
# Coordination Sequence:
#
# PCOD9213812 Si02
#       6
#     8   4   8   8   8   8
#     4  10  22  40  66  96 123 153 197 251 309 375
#     4  10  23  40  64  88 126 158 202 252 305 368
#     4  11  23  36  58  85 122 162 205 257 303 352
#     4  10  22  39  57  87 116 160 211 248 299 361
#     4   9  19  40  60  84 119 160 199 240 304 368
#     4  12  22  40  59  80 120 163 209 258 300 347
#
# _framework density 19.915769000000001
#
# number of rings (size 3 to 8) (size 9 to 14) (size 15 to 20)
#    0.000    1.636    3.636    0.818    3.818    5.455 
#    0.000    0.000    0.000    0.545    0.000    0.000 
#    0.000    0.000    0.000    0.000    0.000    0.000 
#
# Total GULP energy -122538.866298 kJ/mol
# GULP energy per Si atom -5569.948468 kJ/mol
# Density = 1.987044 g / cm^3
# Si number density = 19.915769 Si / 1000 Ang^3
#
#
#
# Elastic Constant Matrix: (Units=GPa)
#
#
# Indices 1 2 3 4 5 6 
#
# 1 135.2532 41.1676 15.1878 0.0000 23.1566 0.0000
# 2 41.1676 66.0496 0.0133 0.0000 9.5704 0.0000
# 3 15.1878 0.0133 33.1710 0.0000 8.6192 0.0000
# 4 0.0000 0.0000 0.0000 102.7692 0.0000 -45.4152
# 5 23.1566 9.5704 8.6192 0.0000 28.1270 0.0000
# 6 0.0000 0.0000 0.0000 -45.4152 0.0000 55.4641
#
#
#
# Elastic Compliance Matrix: (Units=1/GPa)
#
#
# Indices 1 2 3 4 5 6 
#
# 1 0.010473 -0.005706 -0.003321 0.000000 -0.005663 0.000000
# 2 -0.005706 0.019106 0.003339 0.000000 -0.002826 0.000000
# 3 -0.003321 0.003339 0.033955 0.000000 -0.008807 0.000000
# 4 0.000000 0.000000 0.000000 0.015248 0.000000 0.012485
# 5 -0.005663 -0.002826 -0.008807 0.000000 0.043875 0.000000
# 6 0.000000 0.000000 0.000000 0.012485 0.000000 0.028253
#
#
# Mechanical properties :
#
#
# Convention : Reuss Voigt Hill
#
# Bulk Modulus (GPa) = 19.17312 38.57901 28.87607
# Shear Modulus (GPa) = 27.82850 49.14574 38.48712
#
# Velocity S-wave (km/s) = 3.74212 4.97296 4.40078
# Velocity P-wave (km/s) = 5.32158 7.23788 6.35241
#
# Compressibility (1/GPa) = 0.05215634
#
# Stress axis : x y z
#
# Youngs Moduli (GPa) = 95.48444 52.34047 29.45105
#
# Poissons Ratio (x) = 0.29868 0.09782
# Poissons Ratio (y) = 0.54487 -0.09835
# Poissons Ratio (z) = 0.31715 -0.17479
#
# Static dielectric constant tensor:
#      x y z
#    x 1.878120 0.000000 0.003790 
#    y 0.000000 1.663060 0.000000 
#    z 0.003790 0.000000 1.759160 
# 
# From -- ./inp_files/41527.got.cif
#   From: 2010.05.17/outbox.cif.g08.bks.cpg/sg12_21_cif.got.tgz:41527.got - 2010.06.03 13:09:07.
