data_PCOD9213280
_publ_section_title
;
Structure prediction by ZEFSAII (Michael W. Deem and Ramdas Pophale) SiO2 
 PCOD9213280
Probable space group: C 2/M
;
_chemical_formula_sum "Si O2"
_cell_formula_units_Z 40
_cell_length_a 15.496115
_cell_length_b 22.190313
_cell_length_c 8.997153
_cell_angle_alpha 90.000000
_cell_angle_beta 37.336333
_cell_angle_gamma 90.000000
_cell_volume 1876.363393
_symmetry_space_group_name_H-M "C 2/M"
_symmetry_group_IT_number 12
_symmetry_cell_setting 'monoclinic'
loop_
_space_group_symop_operation_xyz
x,y,z
-x,y,-z
-x,-y,-z
x,-y,z
1/2+x,1/2+y,z
1/2-x,1/2+y,-z
1/2-x,1/2-y,-z
1/2+x,1/2-y,z
loop_
_atom_site_type_symbol
_atom_site_label
_atom_site_fract_x
_atom_site_fract_y
_atom_site_fract_z
Si Si1 0.748734 0.500000 0.830283
Si Si2 0.481263 0.000000 0.758087
Si Si3 0.500000 0.819741 0.500000
Si Si4 0.227671 0.323710 0.602596
Si Si5 0.008604 0.767136 0.748123
Si Si6 0.000000 0.589766 0.000000
Si Si7 0.800972 0.132453 0.175983
O O1 0.831728 0.500000 0.875044
O O2 0.664939 0.563005 0.913817
O O3 0.883195 0.500000 0.534268
O O4 0.498136 0.945270 0.848680
O O5 0.549236 0.779578 0.292124
O O6 0.363013 0.858397 0.646468
O O7 0.109335 0.272730 0.722388
O O8 0.360975 0.300705 0.512895
O O9 0.141195 0.371735 0.810098
O O10 0.294089 0.352806 0.361538
O O11 0.900090 0.815370 0.966246
#
# Coordination Sequence:
#
# PCOD9213280 Si02
#       7
#     4   4   4   8   8   4   8
#     4  11  22  40  63  90 125 165 214 253 309 367
#     4  10  22  40  60  91 123 165 216 257 298 372
#     4  10  22  37  62  95 122 166 208 254 314 374
#     4  10  23  38  62  93 122 165 202 257 319 374
#     4  10  23  39  61  92 130 157 205 258 320 376
#     4  11  22  38  64  90 122 161 214 262 306 363
#     4  11  22  41  61  93 125 166 211 254 311 372
#
# _framework density 21.317831999999999
#
# number of rings (size 3 to 8) (size 9 to 14) (size 15 to 20)
#    0.000    1.600    2.000    2.400   11.200    1.600 
#    0.000    4.000    0.000    1.800    0.000    0.000 
#    0.000    0.000    0.000    0.000    0.000    0.000 
#
# Total GULP energy -111570.907429 kJ/mol
# GULP energy per Si atom -5578.545371 kJ/mol
# Density = 2.126931 g / cm^3
# Si number density = 21.317832 Si / 1000 Ang^3
#
#
#
# Elastic Constant Matrix: (Units=GPa)
#
#
# Indices 1 2 3 4 5 6 
#
# 1 46.3914 5.6640 -3.6972 0.0000 -5.2430 0.0000
# 2 5.6640 108.6630 26.7815 0.0000 -0.2478 0.0000
# 3 -3.6972 26.7815 68.3375 0.0000 -2.7021 0.0000
# 4 0.0000 0.0000 0.0000 23.9845 0.0000 2.8248
# 5 -5.2430 -0.2478 -2.7021 0.0000 17.9883 0.0000
# 6 0.0000 0.0000 0.0000 2.8248 0.0000 5.9194
#
#
#
# Elastic Compliance Matrix: (Units=1/GPa)
#
#
# Indices 1 2 3 4 5 6 
#
# 1 0.022719 -0.001703 0.002171 0.000000 0.006925 0.000000
# 2 -0.001703 0.010318 -0.004175 0.000000 -0.000981 0.000000
# 3 0.002171 -0.004175 0.016508 0.000000 0.003055 0.000000
# 4 0.000000 0.000000 0.000000 0.044177 0.000000 -0.021082
# 5 0.006925 -0.000981 0.003055 0.000000 0.058055 0.000000
# 6 0.000000 0.000000 0.000000 -0.021082 0.000000 0.178997
#
#
# Mechanical properties :
#
#
# Convention : Reuss Voigt Hill
#
# Bulk Modulus (GPa) = 23.73608 31.20982 27.47295
# Shear Modulus (GPa) = 14.19519 22.55467 18.37493
#
# Velocity S-wave (km/s) = 2.58327 3.25625 2.93909
# Velocity P-wave (km/s) = 4.47842 5.36745 4.94297
#
# Compressibility (1/GPa) = 0.04212995
#
# Stress axis : x y z
#
# Youngs Moduli (GPa) = 44.01547 96.91597 60.57840
#
# Poissons Ratio (x) = 0.16509 -0.13149
# Poissons Ratio (y) = 0.07498 0.25290
# Poissons Ratio (z) = -0.09554 0.40459
#
# Static dielectric constant tensor:
#      x y z
#    x 1.756720 0.000000 0.005070 
#    y 0.000000 1.886600 0.000000 
#    z 0.005070 0.000000 1.761330 
# 
# From -- ./inp_files/79295.got.cif
#   From: 2010.05.17/outbox.cif.g08.bks.cpg/sg12_40_cif.got.tgz:79295.got - 2010.06.03 13:09:07.
