data_PCOD9213747
_publ_section_title
;
Structure prediction by ZEFSAII (Michael W. Deem and Ramdas Pophale) SiO2 
 PCOD9213747
Probable space group: C 2/M
;
_chemical_formula_sum "Si O2"
_cell_formula_units_Z 48
_cell_length_a 8.704118
_cell_length_b 27.867690
_cell_length_c 20.349535
_cell_angle_alpha 90.000000
_cell_angle_beta 28.699624
_cell_angle_gamma 90.000000
_cell_volume 2370.382495
_symmetry_space_group_name_H-M "C 2/M"
_symmetry_group_IT_number 12
_symmetry_cell_setting 'monoclinic'
loop_
_space_group_symop_operation_xyz
x,y,z
-x,y,-z
-x,-y,-z
x,-y,z
1/2+x,1/2+y,z
1/2-x,1/2+y,-z
1/2-x,1/2-y,-z
1/2+x,1/2-y,z
loop_
_atom_site_type_symbol
_atom_site_label
_atom_site_fract_x
_atom_site_fract_y
_atom_site_fract_z
Si Si1 0.773778 0.109205 0.147594
Si Si2 0.126410 0.098405 0.653703
Si Si3 0.611669 0.297039 0.651044
Si Si4 0.373309 0.445552 0.874422
Si Si5 0.346178 0.444397 0.627879
Si Si6 0.771209 0.303249 0.342379
O O1 0.531149 0.064481 0.231901
O O2 0.532953 0.154386 0.245320
O O3 0.990912 0.094623 0.127813
O O4 0.000000 0.115587 0.000000
O O5 0.500000 0.098628 0.500000
O O6 0.024786 0.151738 0.715138
O O7 0.045081 0.060759 0.740158
O O8 0.969610 0.086006 0.642930
O O9 0.429094 0.297810 0.649883
O O10 0.550026 0.247150 0.710564
O O11 0.000000 0.297331 0.500000
O O12 0.420002 0.500000 0.882224
O O13 0.000000 0.438882 0.000000
O O14 0.500000 0.430055 0.500000
O O15 0.427192 0.500000 0.607892
O O16 0.500000 0.311232 0.500000
#
# Coordination Sequence:
#
# PCOD9213747 Si02
#       6
#     8   8   8   8   8   8
#     4  12  26  43  65  96 129 174 220 271 328 393
#     4  11  23  39  66  99 131 164 214 266 325 386
#     4  10  22  38  68 101 129 169 213 266 327 385
#     4  11  26  45  66  91 128 176 219 266 323 391
#     4  11  23  41  67  98 131 169 215 271 327 387
#     4  11  23  42  69  99 130 170 218 270 325 394
#
# _framework density 20.249896
#
# number of rings (size 3 to 8) (size 9 to 14) (size 15 to 20)
#    0.000    1.000    1.667    5.500    7.000    5.333 
#    0.000    1.667    0.000    0.000    0.000    0.000 
#    0.000    0.000    0.000    0.000    0.000    0.000 
#
# Total GULP energy -134034.762043 kJ/mol
# GULP energy per Si atom -5584.781752 kJ/mol
# Density = 2.020381 g / cm^3
# Si number density = 20.249896 Si / 1000 Ang^3
#
#
#
# Elastic Constant Matrix: (Units=GPa)
#
#
# Indices 1 2 3 4 5 6 
#
# 1 136.2079 56.3585 30.8063 -0.0351 -7.6165 -0.0309
# 2 56.3585 117.9897 30.6217 0.0024 -6.5638 0.0060
# 3 30.8063 30.6217 95.6166 -0.1176 -1.8709 -0.0935
# 4 -0.0351 0.0024 -0.1176 40.3168 0.0850 15.7617
# 5 -7.6165 -6.5638 -1.8709 0.0850 20.2031 0.0655
# 6 -0.0309 0.0060 -0.0935 15.7617 0.0655 57.9026
#
#
#
# Elastic Compliance Matrix: (Units=1/GPa)
#
#
# Indices 1 2 3 4 5 6 
#
# 1 0.009496 -0.003964 -0.001749 -0.000001 0.002130 0.000001
# 2 -0.003964 0.011051 -0.002225 -0.000012 0.001890 -0.000006
# 3 -0.001749 -0.002225 0.011729 0.000029 -0.000296 0.000011
# 4 -0.000001 -0.000012 0.000029 0.027758 -0.000094 -0.007556
# 5 0.002130 0.001890 -0.000296 -0.000094 0.050888 -0.000032
# 6 0.000001 -0.000006 0.000011 -0.007556 -0.000032 0.019327
#
#
# Mechanical properties :
#
#
# Convention : Reuss Voigt Hill
#
# Bulk Modulus (GPa) = 60.97022 65.04302 63.00662
# Shear Modulus (GPa) = 32.98352 39.15301 36.06826
#
# Velocity S-wave (km/s) = 4.04025 4.40192 4.22496
# Velocity P-wave (km/s) = 7.20688 7.61746 7.41501
#
# Compressibility (1/GPa) = 0.01640145
#
# Stress axis : x y z
#
# Youngs Moduli (GPa) = 105.30361 90.48746 85.26118
#
# Poissons Ratio (x) = 0.35866 0.14908
# Poissons Ratio (y) = 0.41739 0.18972
# Poissons Ratio (z) = 0.18412 0.20135
#
# Static dielectric constant tensor:
#      x y z
#    x 2.974000 -0.000020 -0.133510 
#    y -0.000020 1.753990 0.000000 
#    z -0.133510 0.000000 1.688520 
# 
# From -- ./inp_files/260215.got.cif
#   From: 2010.05.17/outbox.cif.g08.bks.cpg/sg12_131_cif.got.tgz:260215.got - 2010.06.03 13:09:07.
