data_PCOD9213648
_publ_section_title
;
Structure prediction by ZEFSAII (Michael W. Deem and Ramdas Pophale) SiO2 
 PCOD9213648
Probable space group: C 2/M
;
_chemical_formula_sum "Si O2"
_cell_formula_units_Z 48
_cell_length_a 11.277280
_cell_length_b 23.117177
_cell_length_c 9.119526
_cell_angle_alpha 90.000000
_cell_angle_beta 77.113870
_cell_angle_gamma 90.000000
_cell_volume 2317.574609
_symmetry_space_group_name_H-M "C 2/M"
_symmetry_group_IT_number 12
_symmetry_cell_setting 'monoclinic'
loop_
_space_group_symop_operation_xyz
x,y,z
-x,y,-z
-x,-y,-z
x,-y,z
1/2+x,1/2+y,z
1/2-x,1/2+y,-z
1/2-x,1/2-y,-z
1/2+x,1/2-y,z
loop_
_atom_site_type_symbol
_atom_site_label
_atom_site_fract_x
_atom_site_fract_y
_atom_site_fract_z
Si Si1 0.658252 0.063675 0.315677
Si Si2 0.106020 0.762156 0.086097
Si Si3 0.770895 0.431816 0.362918
Si Si4 0.078359 0.064451 0.832104
Si Si5 0.013338 0.637602 0.827892
Si Si6 0.553174 0.646017 0.339053
O O1 0.697525 0.071582 0.472919
O O2 0.778151 0.065722 0.181791
O O3 0.567639 0.108719 0.274643
O O4 0.601436 0.000000 0.320184
O O5 0.036571 0.703228 0.153633
O O6 0.114617 0.807491 0.216087
O O7 0.250000 0.750000 0.000000
O O8 0.000000 0.785060 0.000000
O O9 0.783753 0.500000 0.316868
O O10 0.638087 0.406878 0.367186
O O11 0.854675 0.385320 0.255134
O O12 0.049140 0.115164 0.729237
O O13 0.052643 0.000000 0.777110
O O14 0.000000 0.070515 0.000000
O O15 0.000000 0.616888 0.000000
O O16 0.500000 0.674417 0.500000
#
# Coordination Sequence:
#
# PCOD9213648 Si02
#       6
#     8   8   8   8   8   8
#     4  10  22  41  64  96 134 173 216 274 341 404
#     4  11  27  49  72  97 139 187 236 298 354 413
#     4  11  24  43  67  98 143 182 218 280 351 414
#     4  10  22  38  62  96 134 173 217 271 335 404
#     4  11  25  44  66  96 129 178 235 285 335 411
#     4  12  24  41  69 103 133 178 226 285 344 412
#
# _framework density 20.711309
#
# number of rings (size 3 to 8) (size 9 to 14) (size 15 to 20)
#    0.000    1.167    1.667    4.000    7.000    4.667 
#    0.000    2.500    0.000    0.000    0.000    0.000 
#    0.000    0.000    0.000    0.000    0.000    0.000 
#
# Total GULP energy -133741.407044 kJ/mol
# GULP energy per Si atom -5572.558627 kJ/mol
# Density = 2.066417 g / cm^3
# Si number density = 20.711309 Si / 1000 Ang^3
#
#
#
# Elastic Constant Matrix: (Units=GPa)
#
#
# Indices 1 2 3 4 5 6 
#
# 1 66.8816 24.3414 16.8428 0.0000 -6.0785 0.0000
# 2 24.3414 79.8546 26.2221 0.0000 2.5067 0.0000
# 3 16.8428 26.2221 61.8183 0.0000 -9.2813 0.0000
# 4 0.0000 0.0000 0.0000 32.5683 0.0000 -4.4376
# 5 -6.0785 2.5067 -9.2813 0.0000 37.5282 0.0000
# 6 0.0000 0.0000 0.0000 -4.4376 0.0000 23.5751
#
#
#
# Elastic Compliance Matrix: (Units=1/GPa)
#
#
# Indices 1 2 3 4 5 6 
#
# 1 0.017470 -0.004609 -0.002424 0.000000 0.002538 0.000000
# 2 -0.004609 0.016013 -0.006033 0.000000 -0.003308 0.000000
# 3 -0.002424 -0.006033 0.020146 0.000000 0.004993 0.000000
# 4 0.000000 0.000000 0.000000 0.031513 0.000000 0.005932
# 5 0.002538 -0.003308 0.004993 0.000000 0.028514 0.000000
# 6 0.000000 0.000000 0.000000 0.005932 0.000000 0.043534
#
#
# Mechanical properties :
#
#
# Convention : Reuss Voigt Hill
#
# Bulk Modulus (GPa) = 36.36826 38.15192 37.26009
# Shear Modulus (GPa) = 25.97584 28.14420 27.06002
#
# Velocity S-wave (km/s) = 3.54529 3.69030 3.61852
# Velocity P-wave (km/s) = 5.86144 6.05133 5.95714
#
# Compressibility (1/GPa) = 0.02749650
#
# Stress axis : x y z
#
# Youngs Moduli (GPa) = 57.23994 62.45050 49.63879
#
# Poissons Ratio (x) = 0.28784 0.12031
# Poissons Ratio (y) = 0.26383 0.29948
# Poissons Ratio (z) = 0.13874 0.37677
#
# Static dielectric constant tensor:
#      x y z
#    x 1.851390 0.000000 -0.003770 
#    y 0.000000 1.754410 0.000000 
#    z -0.003770 0.000000 1.767550 
# 
# From -- ./inp_files/50590.got.cif
#   From: 2010.05.17/outbox.cif.g08.bks.cpg/sg12_26_cif.got.tgz:50590.got - 2010.06.03 13:09:07.
