data_PCOD9213623
_publ_section_title
;
Structure prediction by ZEFSAII (Michael W. Deem and Ramdas Pophale) SiO2 
 PCOD9213623
Probable space group: C 2/M
;
_chemical_formula_sum "Si O2"
_cell_formula_units_Z 56
_cell_length_a 17.423794
_cell_length_b 16.611201
_cell_length_c 8.582353
_cell_angle_alpha 90.000000
_cell_angle_beta 108.712738
_cell_angle_gamma 90.000000
_cell_volume 2352.685323
_symmetry_space_group_name_H-M "C 2/M"
_symmetry_group_IT_number 12
_symmetry_cell_setting 'monoclinic'
loop_
_space_group_symop_operation_xyz
x,y,z
-x,y,-z
-x,-y,-z
x,-y,z
1/2+x,1/2+y,z
1/2-x,1/2+y,-z
1/2-x,1/2-y,-z
1/2+x,1/2-y,z
loop_
_atom_site_type_symbol
_atom_site_label
_atom_site_fract_x
_atom_site_fract_y
_atom_site_fract_z
Si Si1 0.177377 0.329164 0.896705
Si Si2 0.205813 0.902603 0.237874
Si Si3 0.886690 0.171507 0.312936
Si Si4 0.727878 0.086672 0.197018
Si Si5 0.497901 0.138708 0.179783
Si Si6 0.556364 0.313429 0.301011
Si Si7 0.643950 0.913066 0.475089
O O1 0.262312 0.372100 0.907736
O O2 0.156460 0.243094 0.811696
O O3 0.092558 0.374666 0.814724
O O4 0.185264 0.336969 0.088298
O O5 0.124263 0.861786 0.248908
O O6 0.287352 0.868953 0.379251
O O7 0.198573 0.000000 0.243885
O O8 0.822676 0.100527 0.280634
O O9 0.906576 0.202588 0.501452
O O10 0.970304 0.145042 0.285584
O O11 0.690548 0.082330 0.342163
O O12 0.710122 0.000000 0.107982
O O13 0.526555 0.232305 0.196576
O O14 0.556182 0.108534 0.355374
O O15 0.500000 0.108491 0.000000
O O16 0.637554 0.000000 0.548187
#
# Coordination Sequence:
#
# PCOD9213623 Si02
#       7
#     8   8   8   8   8   8   8
#     4  11  24  40  63  93 130 168 209 260 318 374
#     4  11  24  42  64  94 129 168 211 258 319 380
#     4  10  22  41  65  95 124 165 215 263 311 372
#     4  11  22  39  63  94 126 162 209 258 313 374
#     4  11  23  41  62  92 126 165 210 260 318 373
#     4  10  23  40  64  94 126 163 213 262 313 374
#     4  10  22  38  62  91 121 162 209 253 307 375
#
# _framework density 23.802589999999999
#
# number of rings (size 3 to 8) (size 9 to 14) (size 15 to 20)
#    0.000    1.429    2.857    1.714    2.000    7.143 
#    0.000    2.857    0.000    2.143    0.000    0.000 
#    0.000    0.000    0.000    0.000    0.000    0.000 
#
# Total GULP energy -155970.344885 kJ/mol
# GULP energy per Si atom -5570.369460 kJ/mol
# Density = 2.374841 g / cm^3
# Si number density = 23.802590 Si / 1000 Ang^3
#
#
#
# Elastic Constant Matrix: (Units=GPa)
#
#
# Indices 1 2 3 4 5 6 
#
# 1 145.0779 32.6523 -5.9568 0.0000 6.6287 0.0000
# 2 32.6523 47.8356 10.4328 0.0000 -0.4176 0.0000
# 3 -5.9568 10.4328 50.7856 0.0000 8.6871 0.0000
# 4 0.0000 0.0000 0.0000 27.7456 0.0000 0.7336
# 5 6.6287 -0.4176 8.6871 0.0000 35.1154 0.0000
# 6 0.0000 0.0000 0.0000 0.7336 0.0000 28.6858
#
#
#
# Elastic Compliance Matrix: (Units=1/GPa)
#
#
# Indices 1 2 3 4 5 6 
#
# 1 0.008569 -0.006468 0.002740 0.000000 -0.002372 0.000000
# 2 -0.006468 0.026836 -0.006824 0.000000 0.003228 0.000000
# 3 0.002740 -0.006824 0.022467 0.000000 -0.006156 0.000000
# 4 0.000000 0.000000 0.000000 0.036066 0.000000 -0.000922
# 5 -0.002372 0.003228 -0.006156 0.000000 0.030487 0.000000
# 6 0.000000 0.000000 0.000000 -0.000922 0.000000 0.034884
#
#
# Mechanical properties :
#
#
# Convention : Reuss Voigt Hill
#
# Bulk Modulus (GPa) = 27.19699 35.32841 31.26270
# Shear Modulus (GPa) = 25.95126 32.08074 29.01600
#
# Velocity S-wave (km/s) = 3.30551 3.67520 3.49524
# Velocity P-wave (km/s) = 5.10092 5.73445 5.42694
#
# Compressibility (1/GPa) = 0.03676877
#
# Stress axis : x y z
#
# Youngs Moduli (GPa) = 116.69467 37.26325 44.51018
#
# Poissons Ratio (x) = 0.24100 -0.12194
# Poissons Ratio (y) = 0.75474 0.30372
# Poissons Ratio (z) = -0.31969 0.25427
#
# Static dielectric constant tensor:
#      x y z
#    x 1.957320 0.000000 0.017630 
#    y 0.000000 2.340530 0.000000 
#    z 0.017630 0.000000 2.054590 
# 
# From -- ./inp_files/76024.got.cif
#   From: 2010.05.17/outbox.cif.g08.bks.cpg/sg12_39_cif.got.tgz:76024.got - 2010.06.03 13:09:07.
