data_PCOD9213898
_publ_section_title
;
Structure prediction by ZEFSAII (Michael W. Deem and Ramdas Pophale) SiO2 
 PCOD9213898
Probable space group: C 2/M
;
_chemical_formula_sum "Si O2"
_cell_formula_units_Z 56
_cell_length_a 30.925236
_cell_length_b 8.203001
_cell_length_c 12.171958
_cell_angle_alpha 90.000000
_cell_angle_beta 60.954983
_cell_angle_gamma 90.000000
_cell_volume 2699.455500
_symmetry_space_group_name_H-M "C 2/M"
_symmetry_group_IT_number 12
_symmetry_cell_setting 'monoclinic'
loop_
_space_group_symop_operation_xyz
x,y,z
-x,y,-z
-x,-y,-z
x,-y,z
1/2+x,1/2+y,z
1/2-x,1/2+y,-z
1/2-x,1/2-y,-z
1/2+x,1/2-y,z
loop_
_atom_site_type_symbol
_atom_site_label
_atom_site_fract_x
_atom_site_fract_y
_atom_site_fract_z
Si Si1 0.746180 0.306137 0.376952
Si Si2 0.359462 0.194720 0.511208
Si Si3 0.010475 0.688866 0.113078
Si Si4 0.402560 0.687842 0.854213
Si Si5 0.656290 0.302386 0.871899
Si Si6 0.943470 0.693106 0.575600
Si Si7 0.909197 0.810002 0.245408
O O1 0.743457 0.500000 0.381214
O O2 0.750000 0.250000 0.500000
O O3 0.696269 0.233883 0.385239
O O4 0.793143 0.253787 0.245932
O O5 0.403169 0.254848 0.537498
O O6 0.366781 0.285104 0.386733
O O7 0.363778 0.000000 0.490904
O O8 0.025870 0.500000 0.099731
O O9 0.049840 0.799064 0.124992
O O10 0.956200 0.711094 0.230954
O O11 0.000000 0.735605 0.000000
O O12 0.392954 0.500000 0.837237
O O13 0.418885 0.780112 0.724858
O O14 0.357917 0.750587 0.987029
O O15 0.655389 0.500000 0.872598
O O16 0.612492 0.247671 0.843046
O O17 0.947734 0.500000 0.550389
O O18 0.000000 0.760299 0.500000
O O19 0.922391 0.000000 0.219057
#
# Coordination Sequence:
#
# PCOD9213898 Si02
#       7
#     8   8   8   8   8   8   8
#     4  12  24  39  63  93 127 166 211 260 312 374
#     4  11  23  40  64  92 126 164 207 258 314 371
#     4  11  22  34  53  83 121 161 202 246 301 373
#     4  11  23  40  63  89 123 163 206 260 315 372
#     4  10  22  39  59  89 126 160 199 254 316 370
#     4  10  23  44  67  92 125 165 210 259 308 369
#     4  11  21  35  58  87 124 160 200 253 308 370
#
# _framework density 20.744924000000001
#
# number of rings (size 3 to 8) (size 9 to 14) (size 15 to 20)
#    0.000    1.143    2.857    3.857    0.000    4.857 
#    0.000    0.714    0.000    0.000    0.000    0.000 
#    0.000    0.000    0.000    0.000    0.000    0.000 
#
# Total GULP energy -156382.535615 kJ/mol
# GULP energy per Si atom -5585.090558 kJ/mol
# Density = 2.069771 g / cm^3
# Si number density = 20.744924 Si / 1000 Ang^3
#
#
#
# Elastic Constant Matrix: (Units=GPa)
#
#
# Indices 1 2 3 4 5 6 
#
# 1 92.1696 6.7275 37.7157 0.0000 -12.3438 0.0000
# 2 6.7275 40.4215 -1.9965 0.0000 -1.3892 0.0000
# 3 37.7157 -1.9965 105.2040 0.0000 -12.5725 0.0000
# 4 0.0000 0.0000 0.0000 26.5455 0.0000 -2.5749
# 5 -12.3438 -1.3892 -12.5725 0.0000 33.1113 0.0000
# 6 0.0000 0.0000 0.0000 -2.5749 0.0000 21.1374
#
#
#
# Elastic Compliance Matrix: (Units=1/GPa)
#
#
# Indices 1 2 3 4 5 6 
#
# 1 0.013249 -0.002314 -0.004415 0.000000 0.003166 0.000000
# 2 -0.002314 0.025218 0.001395 0.000000 0.000725 0.000000
# 3 -0.004415 0.001395 0.011444 0.000000 0.002758 0.000000
# 4 0.000000 0.000000 0.000000 0.038122 0.000000 0.004644
# 5 0.003166 0.000725 0.002758 0.000000 0.032459 0.000000
# 6 0.000000 0.000000 0.000000 0.004644 0.000000 0.047875
#
#
# Mechanical properties :
#
#
# Convention : Reuss Voigt Hill
#
# Bulk Modulus (GPa) = 25.48288 35.85427 30.66857
# Shear Modulus (GPa) = 26.02563 29.18207 27.60385
#
# Velocity S-wave (km/s) = 3.54581 3.75468 3.65174
# Velocity P-wave (km/s) = 5.39206 6.00980 5.70929
#
# Compressibility (1/GPa) = 0.03924203
#
# Stress axis : x y z
#
# Youngs Moduli (GPa) = 75.47594 39.65367 87.37931
#
# Poissons Ratio (x) = 0.09177 0.38582
# Poissons Ratio (y) = 0.17468 -0.12189
# Poissons Ratio (z) = 0.33326 -0.05531
#
# Static dielectric constant tensor:
#      x y z
#    x 1.747140 0.000000 -0.027780 
#    y 0.000000 1.733340 0.000000 
#    z -0.027780 0.000000 1.812450 
# 
# From -- ./inp_files/187240.got.cif
#   From: 2010.05.17/outbox.cif.g08.bks.cpg/sg12_94_cif.got.tgz:187240.got - 2010.06.03 13:09:07.
