data_PCOD9213725
_publ_section_title
;
Structure prediction by ZEFSAII (Michael W. Deem and Ramdas Pophale) SiO2 
 PCOD9213725
Probable space group: C 2/M
;
_chemical_formula_sum "Si O2"
_cell_formula_units_Z 52
_cell_length_a 14.288228
_cell_length_b 12.672290
_cell_length_c 16.204238
_cell_angle_alpha 90.000000
_cell_angle_beta 128.164173
_cell_angle_gamma 90.000000
_cell_volume 2306.848732
_symmetry_space_group_name_H-M "C 2/M"
_symmetry_group_IT_number 12
_symmetry_cell_setting 'monoclinic'
loop_
_space_group_symop_operation_xyz
x,y,z
-x,y,-z
-x,-y,-z
x,-y,z
1/2+x,1/2+y,z
1/2-x,1/2+y,-z
1/2-x,1/2-y,-z
1/2+x,1/2-y,z
loop_
_atom_site_type_symbol
_atom_site_label
_atom_site_fract_x
_atom_site_fract_y
_atom_site_fract_z
Si Si1 0.638268 0.378842 0.895151
Si Si2 0.969877 0.117364 0.580220
Si Si3 0.635069 0.313945 0.246672
Si Si4 0.704585 0.881258 0.394553
Si Si5 0.458799 0.845777 0.340482
Si Si6 0.741324 0.313357 0.122680
Si Si7 0.688739 0.000000 0.629654
O O1 0.644599 0.500000 0.873316
O O2 0.504062 0.335164 0.815836
O O3 0.725990 0.303308 0.891641
O O4 0.676588 0.369529 0.011969
O O5 0.829004 0.141051 0.507289
O O6 0.000000 0.112747 0.500000
O O7 0.039386 0.219192 0.649829
O O8 0.994123 0.000000 0.627674
O O9 0.675497 0.204802 0.309919
O O10 0.666390 0.314410 0.166267
O O11 0.709782 0.407933 0.327825
O O12 0.592649 0.880842 0.395322
O O13 0.716593 0.000000 0.366662
O O14 0.366496 0.868512 0.215886
O O15 0.403735 0.907437 0.386901
#
# Coordination Sequence:
#
# PCOD9213725 Si02
#       7
#     8   8   8   8   8   8   4
#     4  11  23  41  65  92 129 174 216 270 321 387
#     4  10  22  41  66  95 126 172 218 263 324 390
#     4  11  22  42  66  98 132 171 218 268 322 388
#     4  11  23  42  68  93 131 174 216 263 327 392
#     4  11  21  41  65  93 133 169 214 269 323 387
#     4  10  24  39  62  95 127 165 218 265 322 381
#     4  10  22  38  66  94 127 171 212 268 318 384
#
# _framework density 22.541573
#
# number of rings (size 3 to 8) (size 9 to 14) (size 15 to 20)
#    0.000    1.385    3.077    2.769    4.308    1.846 
#    1.385    3.462    0.000    2.769    0.000    0.000 
#    0.000    0.000    0.000    0.000    0.000    0.000 
#
# Total GULP energy -145023.150102 kJ/mol
# GULP energy per Si atom -5577.813465 kJ/mol
# Density = 2.249027 g / cm^3
# Si number density = 22.541573 Si / 1000 Ang^3
#
#
#
# Elastic Constant Matrix: (Units=GPa)
#
#
# Indices 1 2 3 4 5 6 
#
# 1 81.4964 0.0344 13.1334 0.0000 8.0029 0.0000
# 2 0.0344 159.5006 34.7686 0.0000 7.3831 0.0000
# 3 13.1334 34.7686 93.8844 0.0000 3.9704 0.0000
# 4 0.0000 0.0000 0.0000 20.2284 0.0000 18.7478
# 5 8.0029 7.3831 3.9704 0.0000 30.9845 0.0000
# 6 0.0000 0.0000 0.0000 18.7478 0.0000 23.4562
#
#
#
# Elastic Compliance Matrix: (Units=1/GPa)
#
#
# Indices 1 2 3 4 5 6 
#
# 1 0.012888 0.000554 -0.001872 0.000000 -0.003221 0.000000
# 2 0.000554 0.006897 -0.002570 0.000000 -0.001457 0.000000
# 3 -0.001872 -0.002570 0.011883 0.000000 -0.000427 0.000000
# 4 0.000000 0.000000 0.000000 0.190698 0.000000 -0.152418
# 5 -0.003221 -0.001457 -0.000427 0.000000 0.033508 0.000000
# 6 0.000000 0.000000 0.000000 -0.152418 0.000000 0.164455
#
#
# Mechanical properties :
#
#
# Convention : Reuss Voigt Hill
#
# Bulk Modulus (GPa) = 41.85335 47.86156 44.85745
# Shear Modulus (GPa) = 11.46606 34.06348 22.76477
#
# Velocity S-wave (km/s) = 2.25780 3.89156 3.18134
# Velocity P-wave (km/s) = 5.04028 6.43979 5.78253
#
# Compressibility (1/GPa) = 0.02389295
#
# Stress axis : x y z
#
# Youngs Moduli (GPa) = 77.59017 144.98711 84.15277
#
# Poissons Ratio (x) = -0.08038 0.15753
# Poissons Ratio (y) = -0.04302 0.21629
# Poissons Ratio (z) = 0.14525 0.37264
#
# Static dielectric constant tensor:
#      x y z
#    x 1.847900 0.000000 -0.025890 
#    y 0.000000 1.815470 0.000000 
#    z -0.025890 0.000000 1.854850 
# 
# From -- ./inp_files/315805.got.cif
#   From: 2010.05.17/outbox.cif.g08.bks.cpg/sg12_158_cif.got.tgz:315805.got - 2010.06.03 13:09:07.
