data_PCOD9213741
_publ_section_title
;
Structure prediction by ZEFSAII (Michael W. Deem and Ramdas Pophale) SiO2 
 PCOD9213741
Probable space group: C 2/M
;
_chemical_formula_sum "Si O2"
_cell_formula_units_Z 40
_cell_length_a 13.804547
_cell_length_b 20.953491
_cell_length_c 8.794820
_cell_angle_alpha 90.000000
_cell_angle_beta 129.647915
_cell_angle_gamma 90.000000
_cell_volume 1958.776567
_symmetry_space_group_name_H-M "C 2/M"
_symmetry_group_IT_number 12
_symmetry_cell_setting 'monoclinic'
loop_
_space_group_symop_operation_xyz
x,y,z
-x,y,-z
-x,-y,-z
x,-y,z
1/2+x,1/2+y,z
1/2-x,1/2+y,-z
1/2-x,1/2-y,-z
1/2+x,1/2-y,z
loop_
_atom_site_type_symbol
_atom_site_label
_atom_site_fract_x
_atom_site_fract_y
_atom_site_fract_z
Si Si1 0.000000 0.589353 0.000000
Si Si2 0.633838 0.810785 0.337955
Si Si3 0.219925 0.328829 0.767232
Si Si4 0.000000 0.208544 0.000000
Si Si5 0.769027 0.571577 0.975952
Si Si6 0.854333 0.191464 0.315850
O O1 0.936624 0.630266 0.804841
O O2 0.881930 0.561732 0.970512
O O3 0.659551 0.824432 0.539021
O O4 0.547339 0.752460 0.188971
O O5 0.765851 0.806108 0.378196
O O6 0.372580 0.328785 0.911407
O O7 0.176318 0.260227 0.791298
O O8 0.183347 0.391215 0.825579
O O9 0.715477 0.500000 0.951853
O O10 0.683461 0.627649 0.813911
O O11 0.000000 0.189175 0.500000
#
# Coordination Sequence:
#
# PCOD9213741 Si02
#       6
#     4   8   8   4   8   8
#     4   9  21  44  65  82 125 169 209 258 301 375
#     4   9  20  38  63  97 122 160 207 258 317 366
#     4  11  23  37  67  97 125 158 211 262 313 360
#     4   9  18  36  62  94 134 159 202 258 310 367
#     4  11  25  43  62  91 126 169 210 253 313 373
#     4  10  22  38  67  93 124 164 210 256 309 372
#
# _framework density 20.420911
#
# number of rings (size 3 to 8) (size 9 to 14) (size 15 to 20)
#    0.000    2.000    0.000    4.500    8.400    0.400 
#    0.000    6.500    0.000    0.000    0.000    0.000 
#    0.000    0.000    0.000    0.000    0.000    0.000 
#
# Total GULP energy -111411.136779 kJ/mol
# GULP energy per Si atom -5570.556839 kJ/mol
# Density = 2.037443 g / cm^3
# Si number density = 20.420911 Si / 1000 Ang^3
#
#
#
# Elastic Constant Matrix: (Units=GPa)
#
#
# Indices 1 2 3 4 5 6 
#
# 1 68.0569 20.9540 34.3527 0.0000 3.7292 0.0000
# 2 20.9540 149.4292 47.6694 0.0000 -11.7235 0.0000
# 3 34.3527 47.6694 150.7765 0.0000 -13.0638 0.0000
# 4 0.0000 0.0000 0.0000 5.9590 0.0000 8.1006
# 5 3.7292 -11.7235 -13.0638 0.0000 42.7082 0.0000
# 6 0.0000 0.0000 0.0000 8.1006 0.0000 -4.6851
#
#
#
# Elastic Compliance Matrix: (Units=1/GPa)
#
#
# Indices 1 2 3 4 5 6 
#
# 1 0.017187 -0.001463 -0.003717 0.000000 -0.003039 0.000000
# 2 -0.001463 0.007645 -0.001942 0.000000 0.001632 0.000000
# 3 -0.003717 -0.001942 0.008295 0.000000 0.002329 0.000000
# 4 0.000000 0.000000 0.000000 0.050087 0.000000 0.086602
# 5 -0.003039 0.001632 0.002329 0.000000 0.024840 0.000000
# 6 0.000000 0.000000 0.000000 0.086602 0.000000 -0.063707
#
#
# Mechanical properties :
#
#
# Convention : Reuss Voigt Hill
#
# Bulk Modulus (GPa) = 52.95780 63.80164 58.37972
# Shear Modulus (GPa) = 77.05986 26.48221 51.77103
#
# Velocity S-wave (km/s) = 6.14961 3.60504 5.04054
# Velocity P-wave (km/s) = 8.74145 6.97421 7.90736
#
# Compressibility (1/GPa) = 0.01888296
#
# Stress axis : x y z
#
# Youngs Moduli (GPa) = 58.18520 130.80569 120.55517
#
# Poissons Ratio (x) = 0.19134 0.44805
# Poissons Ratio (y) = 0.08511 0.23416
# Poissons Ratio (z) = 0.21625 0.25407
#
# Static dielectric constant tensor:
#      x y z
#    x 1.753080 0.000000 -0.010550 
#    y 0.000000 1.760720 0.000000 
#    z -0.010550 0.000000 1.731790 
# 
# From -- ./inp_files/63829.got.cif
#   From: 2010.05.17/outbox.cif.g08.bks.cpg/sg12_32_cif.got.tgz:63829.got - 2010.06.03 13:09:07.
