data_PCOD9213066
_publ_section_title
;
Structure prediction by ZEFSAII (Michael W. Deem and Ramdas Pophale) SiO2 
 PCOD9213066
Probable space group: C 2/M
;
_chemical_formula_sum "Si O2"
_cell_formula_units_Z 56
_cell_length_a 15.556419
_cell_length_b 22.594712
_cell_length_c 10.167049
_cell_angle_alpha 90.000000
_cell_angle_beta 125.394254
_cell_angle_gamma 90.000000
_cell_volume 2913.184633
_symmetry_space_group_name_H-M "C 2/M"
_symmetry_group_IT_number 12
_symmetry_cell_setting 'monoclinic'
loop_
_space_group_symop_operation_xyz
x,y,z
-x,y,-z
-x,-y,-z
x,-y,z
1/2+x,1/2+y,z
1/2-x,1/2+y,-z
1/2-x,1/2-y,-z
1/2+x,1/2-y,z
loop_
_atom_site_type_symbol
_atom_site_label
_atom_site_fract_x
_atom_site_fract_y
_atom_site_fract_z
Si Si1 0.165456 0.070884 0.129516
Si Si2 0.065744 0.770376 0.177915
Si Si3 0.581309 0.664097 0.467897
Si Si4 0.996095 0.929513 0.779731
Si Si5 0.592834 0.069739 0.689919
Si Si6 0.232693 0.220818 0.785818
Si Si7 0.108566 0.687618 0.855761
O O1 0.288247 0.084632 0.255006
O O2 0.094963 0.084893 0.193779
O O3 0.159579 0.000000 0.113770
O O4 0.105504 0.092556 0.944150
O O5 0.082515 0.803130 0.329983
O O6 0.178070 0.756080 0.214818
O O7 0.990154 0.716035 0.154404
O O8 0.000000 0.799834 0.000000
O O9 0.500000 0.690824 0.500000
O O10 0.536394 0.600894 0.384164
O O11 0.687189 0.673161 0.642860
O O12 0.000845 0.000000 0.769516
O O13 0.500000 0.074415 0.500000
O O14 0.577842 0.122284 0.781021
O O15 0.593851 0.000000 0.734282
O O16 0.149640 0.267685 0.776281
O O17 0.292053 0.188170 0.957492
#
# Coordination Sequence:
#
# PCOD9213066 Si02
#       7
#     8   8   8   8   8   8   8
#     4   8  17  36  58  85 118 158 208 245 296 369
#     4  10  23  41  62  88 120 165 209 251 313 373
#     4  12  24  36  58  90 126 152 208 253 303 378
#     4   9  20  36  57  85 121 163 200 251 311 370
#     4  10  22  36  60  94 124 163 210 260 317 371
#     4  10  23  41  60  90 120 167 205 251 317 369
#     4  10  22  41  65  87 128 160 206 264 312 373
#
# _framework density 19.222950000000001
#
# number of rings (size 3 to 8) (size 9 to 14) (size 15 to 20)
#    0.000    2.143    1.429    1.286    8.000    1.429 
#    0.000    0.714    0.000    3.857    0.000    0.000 
#    0.000    0.000    0.000    0.000    0.000    0.000 
#
# Total GULP energy -155924.782721 kJ/mol
# GULP energy per Si atom -5568.742240 kJ/mol
# Density = 1.917920 g / cm^3
# Si number density = 19.222950 Si / 1000 Ang^3
#
#
#
# Elastic Constant Matrix: (Units=GPa)
#
#
# Indices 1 2 3 4 5 6 
#
# 1 79.9304 16.0080 36.2386 0.0000 -2.2850 0.0000
# 2 16.0080 82.7035 69.5363 0.0000 -1.2539 0.0000
# 3 36.2386 69.5363 142.0033 0.0000 -2.4689 0.0000
# 4 0.0000 0.0000 0.0000 303.5580 0.0000 30.8507
# 5 -2.2850 -1.2539 -2.4689 0.0000 29.2409 0.0000
# 6 0.0000 0.0000 0.0000 30.8507 0.0000 24.3295
#
#
#
# Elastic Compliance Matrix: (Units=1/GPa)
#
#
# Indices 1 2 3 4 5 6 
#
# 1 0.014179 0.000507 -0.003853 0.000000 0.000804 0.000000
# 2 0.000507 0.020572 -0.010202 0.000000 0.000060 0.000000
# 3 -0.003853 -0.010202 0.013027 0.000000 0.000361 0.000000
# 4 0.000000 0.000000 0.000000 0.003782 0.000000 -0.004795
# 5 0.000804 0.000060 0.000361 0.000000 0.034295 0.000000
# 6 0.000000 0.000000 0.000000 -0.004795 0.000000 0.047183
#
#
# Mechanical properties :
#
#
# Convention : Reuss Voigt Hill
#
# Bulk Modulus (GPa) = 48.34911 60.91144 54.63027
# Shear Modulus (GPa) = 29.93525 83.61597 56.77561
#
# Velocity S-wave (km/s) = 3.95050 6.60246 5.44054
# Velocity P-wave (km/s) = 6.78344 9.48045 8.24299
#
# Compressibility (1/GPa) = 0.02068291
#
# Stress axis : x y z
#
# Youngs Moduli (GPa) = 70.52639 48.60991 76.76170
#
# Poissons Ratio (x) = -0.02465 0.29574
# Poissons Ratio (y) = -0.03576 0.78313
# Poissons Ratio (z) = 0.27172 0.49592
#
# Static dielectric constant tensor:
#      x y z
#    x 1.698990 0.000000 0.037430 
#    y 0.000000 1.711800 0.000000 
#    z 0.037430 0.000000 1.714400 
# 
# From -- ./inp_files/65765.got.cif
#   From: 2010.05.17/outbox.cif.g08.bks.cpg/sg12_33_cif.got.tgz:65765.got - 2010.06.03 13:09:07.
