data_PCOD9213147
_publ_section_title
;
Structure prediction by ZEFSAII (Michael W. Deem and Ramdas Pophale) SiO2 
 PCOD9213147
Probable space group: C 2/M
;
_chemical_formula_sum "Si O2"
_cell_formula_units_Z 56
_cell_length_a 13.652657
_cell_length_b 24.260154
_cell_length_c 8.610810
_cell_angle_alpha 90.000000
_cell_angle_beta 108.869326
_cell_angle_gamma 90.000000
_cell_volume 2698.762057
_symmetry_space_group_name_H-M "C 2/M"
_symmetry_group_IT_number 12
_symmetry_cell_setting 'monoclinic'
loop_
_space_group_symop_operation_xyz
x,y,z
-x,y,-z
-x,-y,-z
x,-y,z
1/2+x,1/2+y,z
1/2-x,1/2+y,-z
1/2-x,1/2-y,-z
1/2+x,1/2-y,z
loop_
_atom_site_type_symbol
_atom_site_label
_atom_site_fract_x
_atom_site_fract_y
_atom_site_fract_z
Si Si1 0.428882 0.761551 0.834654
Si Si2 0.283116 0.935990 0.589973
Si Si3 0.769787 0.174071 0.287477
Si Si4 0.719885 0.325496 0.081178
Si Si5 0.491078 0.065970 0.171402
Si Si6 0.772702 0.563607 0.214632
Si Si7 0.084372 0.732053 0.654432
O O1 0.341679 0.801553 0.721648
O O2 0.368337 0.712550 0.889454
O O3 0.510335 0.743255 0.748748
O O4 0.500000 0.790736 0.000000
O O5 0.220992 0.888320 0.648504
O O6 0.403364 0.922741 0.685046
O O7 0.267757 0.933006 0.397842
O O8 0.263851 0.000000 0.629528
O O9 0.855768 0.216642 0.393196
O O10 0.771014 0.179855 0.100027
O O11 0.700586 0.389333 0.108105
O O12 0.825773 0.304632 0.220762
O O13 0.386435 0.079899 0.207626
O O14 0.486007 0.000000 0.157233
O O15 0.500000 0.087204 0.000000
O O16 0.752342 0.500000 0.159065
O O17 0.000000 0.703210 0.500000
#
# Coordination Sequence:
#
# PCOD9213147 Si02
#       7
#     8   8   8   8   8   8   8
#     4  11  21  42  64  86 124 158 193 255 303 353
#     4  10  22  37  55  83 121 158 197 250 302 352
#     4  11  23  39  63  92 119 161 206 240 301 369
#     4  11  23  39  63  91 118 162 205 240 303 364
#     4   9  17  31  51  76 109 153 195 234 290 352
#     4  10  22  37  55  84 122 157 199 251 298 353
#     4  11  25  40  62  94 123 155 199 252 304 355
#
# _framework density 20.750256
#
# number of rings (size 3 to 8) (size 9 to 14) (size 15 to 20)
#    0.000    1.571    2.857    2.143    6.000    5.143 
#    0.000    0.000    0.000    1.714    0.000    0.000 
#    0.000    0.000    0.000    0.000    0.000    0.000 
#
# Total GULP energy -156289.832293 kJ/mol
# GULP energy per Si atom -5581.779725 kJ/mol
# Density = 2.070303 g / cm^3
# Si number density = 20.750256 Si / 1000 Ang^3
#
#
#
# Elastic Constant Matrix: (Units=GPa)
#
#
# Indices 1 2 3 4 5 6 
#
# 1 78.5892 34.3092 8.1220 0.0000 -7.0085 0.0000
# 2 34.3092 137.1105 5.6477 0.0000 -7.2573 0.0000
# 3 8.1220 5.6477 42.4323 0.0000 7.8700 0.0000
# 4 0.0000 0.0000 0.0000 25.6309 0.0000 -11.0576
# 5 -7.0085 -7.2573 7.8700 0.0000 22.8722 0.0000
# 6 0.0000 0.0000 0.0000 -11.0576 0.0000 -4.0712
#
#
#
# Elastic Compliance Matrix: (Units=1/GPa)
#
#
# Indices 1 2 3 4 5 6 
#
# 1 0.014943 -0.003359 -0.003274 0.000000 0.004639 0.000000
# 2 -0.003359 0.008266 -0.000804 0.000000 0.001870 0.000000
# 3 -0.003274 -0.000804 0.026206 0.000000 -0.010276 0.000000
# 4 0.000000 0.000000 0.000000 0.017965 0.000000 -0.048794
# 5 0.004639 0.001870 -0.010276 0.000000 0.049272 0.000000
# 6 0.000000 0.000000 0.000000 -0.048794 0.000000 -0.113101
#
#
# Mechanical properties :
#
#
# Convention : Reuss Voigt Hill
#
# Bulk Modulus (GPa) = 28.95023 39.36554 34.15789
# Shear Modulus (GPa) = 167.01388 22.88991 94.95189
#
# Velocity S-wave (km/s) = 8.98122 3.32492 6.77191
# Velocity P-wave (km/s) = 11.02415 5.80968 8.81148
#
# Compressibility (1/GPa) = 0.03454203
#
# Stress axis : x y z
#
# Youngs Moduli (GPa) = 66.92210 120.97796 38.15858
#
# Poissons Ratio (x) = 0.40633 0.12492
# Poissons Ratio (y) = 0.22477 0.03069
# Poissons Ratio (z) = 0.21908 0.09729
#
# Static dielectric constant tensor:
#      x y z
#    x 1.730840 0.000000 -0.033160 
#    y 0.000000 1.767040 0.000000 
#    z -0.033160 0.000000 1.851470 
# 
# From -- ./inp_files/65425.got.cif
#   From: 2010.05.17/outbox.cif.g08.bks.cpg/sg12_33_cif.got.tgz:65425.got - 2010.06.03 13:09:07.
