data_PCOD9213289
_publ_section_title
;
Structure prediction by ZEFSAII (Michael W. Deem and Ramdas Pophale) SiO2 
 PCOD9213289
Probable space group: C 2/M
;
_chemical_formula_sum "Si O2"
_cell_formula_units_Z 56
_cell_length_a 9.076170
_cell_length_b 18.058129
_cell_length_c 19.386235
_cell_angle_alpha 90.000000
_cell_angle_beta 65.390964
_cell_angle_gamma 90.000000
_cell_volume 2888.777921
_symmetry_space_group_name_H-M "C 2/M"
_symmetry_group_IT_number 12
_symmetry_cell_setting 'monoclinic'
loop_
_space_group_symop_operation_xyz
x,y,z
-x,y,-z
-x,-y,-z
x,-y,z
1/2+x,1/2+y,z
1/2-x,1/2+y,-z
1/2-x,1/2-y,-z
1/2+x,1/2-y,z
loop_
_atom_site_type_symbol
_atom_site_label
_atom_site_fract_x
_atom_site_fract_y
_atom_site_fract_z
Si Si1 0.393715 0.326368 0.808755
Si Si2 0.768883 0.585264 0.284041
Si Si3 0.535279 0.667375 0.412669
Si Si4 0.790651 0.200663 0.341786
Si Si5 0.104224 0.584744 0.288061
Si Si6 0.169316 0.229849 0.945078
Si Si7 0.601262 0.414746 0.877541
O O1 0.292572 0.370325 0.770694
O O2 0.555417 0.293497 0.740607
O O3 0.274564 0.265603 0.863797
O O4 0.459566 0.379533 0.857145
O O5 0.794453 0.500000 0.259827
O O6 0.622411 0.594148 0.366903
O O7 0.935357 0.611344 0.287730
O O8 0.500000 0.665557 0.500000
O O9 0.671465 0.729814 0.370160
O O10 0.375897 0.683690 0.398233
O O11 0.677727 0.135225 0.333873
O O12 0.080397 0.500000 0.316498
O O13 0.240042 0.584022 0.202095
O O14 0.140247 0.144475 0.929667
O O15 0.250000 0.250000 0.000000
O O16 0.000000 0.265348 0.000000
O O17 0.566986 0.500000 0.904327
#
# Coordination Sequence:
#
# PCOD9213289 Si02
#       7
#     8   8   8   8   8   8   8
#     4  10  23  40  67  90 122 162 211 267 304 376
#     4  10  22  39  63  91 121 160 207 258 309 367
#     4  11  23  37  59  91 126 162 200 253 311 369
#     4  10  22  37  63  87 119 163 205 255 299 370
#     4   9  20  38  62  91 117 152 205 258 304 358
#     4  12  26  42  61  95 127 165 204 259 321 379
#     4  10  22  41  65  90 123 164 208 260 317 375
#
# _framework density 19.385359999999999
#
# number of rings (size 3 to 8) (size 9 to 14) (size 15 to 20)
#    0.000    1.714    1.429    1.714   12.000    4.000 
#    0.000    0.000    0.000    4.286    0.000    0.000 
#    0.000    0.000    0.000    0.000    0.000    0.000 
#
# Total GULP energy -156153.735482 kJ/mol
# GULP energy per Si atom -5576.919124 kJ/mol
# Density = 1.934124 g / cm^3
# Si number density = 19.385360 Si / 1000 Ang^3
#
#
#
# Elastic Constant Matrix: (Units=GPa)
#
#
# Indices 1 2 3 4 5 6 
#
# 1 148.7249 54.5994 29.1945 0.0000 24.8346 0.0000
# 2 54.5994 108.6900 57.4428 0.0000 12.7084 0.0000
# 3 29.1945 57.4428 81.3761 0.0000 22.4802 0.0000
# 4 0.0000 0.0000 0.0000 10.8497 0.0000 -0.6864
# 5 24.8346 12.7084 22.4802 0.0000 27.3561 0.0000
# 6 0.0000 0.0000 0.0000 -0.6864 0.0000 25.2990
#
#
#
# Elastic Compliance Matrix: (Units=1/GPa)
#
#
# Indices 1 2 3 4 5 6 
#
# 1 0.009500 -0.005124 0.002501 0.000000 -0.008299 0.000000
# 2 -0.005124 0.017541 -0.012391 0.000000 0.006685 0.000000
# 3 0.002501 -0.012391 0.024806 0.000000 -0.016899 0.000000
# 4 0.000000 0.000000 0.000000 0.092327 0.000000 0.002505
# 5 -0.008299 0.006685 -0.016899 0.000000 0.054871 0.000000
# 6 0.000000 0.000000 0.000000 0.002505 0.000000 0.039595
#
#
# Mechanical properties :
#
#
# Convention : Reuss Voigt Hill
#
# Bulk Modulus (GPa) = 45.82729 69.02937 57.42833
# Shear Modulus (GPa) = 18.11988 25.87124 21.99556
#
# Velocity S-wave (km/s) = 3.06064 3.65715 3.37211
# Velocity P-wave (km/s) = 6.01510 7.31569 6.69704
#
# Compressibility (1/GPa) = 0.02182106
#
# Stress axis : x y z
#
# Youngs Moduli (GPa) = 105.26722 57.00866 40.31240
#
# Poissons Ratio (x) = 0.29209 -0.10084
# Poissons Ratio (y) = 0.53935 0.49950
# Poissons Ratio (z) = -0.26331 0.70638
#
# Static dielectric constant tensor:
#      x y z
#    x 1.650440 0.000000 0.051280 
#    y 0.000000 1.716950 0.000000 
#    z 0.051280 0.000000 2.727980 
# 
# From -- ./inp_files/256988.got.cif
#   From: 2010.05.17/outbox.cif.g08.bks.cpg/sg12_129_cif.got.tgz:256988.got - 2010.06.03 13:09:07.
