data_PCOD9213235
_publ_section_title
;
Structure prediction by ZEFSAII (Michael W. Deem and Ramdas Pophale) SiO2 
 PCOD9213235
Probable space group: C 2/M
;
_chemical_formula_sum "Si O2"
_cell_formula_units_Z 36
_cell_length_a 11.562573
_cell_length_b 15.936070
_cell_length_c 10.766505
_cell_angle_alpha 90.000000
_cell_angle_beta 102.785649
_cell_angle_gamma 90.000000
_cell_volume 1934.667339
_symmetry_space_group_name_H-M "C 2/M"
_symmetry_group_IT_number 12
_symmetry_cell_setting 'monoclinic'
loop_
_space_group_symop_operation_xyz
x,y,z
-x,y,-z
-x,-y,-z
x,-y,z
1/2+x,1/2+y,z
1/2-x,1/2+y,-z
1/2-x,1/2-y,-z
1/2+x,1/2-y,z
loop_
_atom_site_type_symbol
_atom_site_label
_atom_site_fract_x
_atom_site_fract_y
_atom_site_fract_z
Si Si1 0.920265 0.166171 0.359051
Si Si2 0.949237 0.643153 0.347342
Si Si3 0.746593 0.000000 0.053247
Si Si4 0.007659 0.000000 0.778778
Si Si5 0.727507 0.000000 0.761800
Si Si6 0.816975 0.408199 0.728272
O O1 0.930721 0.259687 0.308123
O O2 0.962031 0.085844 0.288821
O O3 0.780062 0.154132 0.348408
O O4 0.000000 0.164059 0.500000
O O5 0.835845 0.582618 0.309256
O O6 0.000000 0.638789 0.500000
O O7 0.051081 0.610223 0.280037
O O8 0.703269 0.000000 0.903833
O O9 0.890165 0.000000 0.091164
O O10 0.701470 0.077967 0.128003
O O11 0.868982 0.000000 0.776564
O O12 0.784447 0.500000 0.667761
#
# Coordination Sequence:
#
# PCOD9213235 Si02
#       6
#     8   8   4   4   4   8
#     4  10  22  37  60  87 120 161 189 232 300 350
#     4  11  25  36  56  96 123 149 191 245 290 349
#     4   8  20  43  63  81 111 162 200 241 284 339
#     4  10  22  39  63  89 114 150 205 241 284 350
#     4  12  23  38  65  84 120 156 195 243 303 326
#     4   9  20  40  61  76 124 151 196 242 276 354
#
# _framework density 18.607849999999999
#
# number of rings (size 3 to 8) (size 9 to 14) (size 15 to 20)
#    0.667    1.333    2.222    1.000    6.222    3.556 
#    0.000    4.444    9.778    0.000    0.000    0.000 
#    0.000    0.000    0.000    0.000    0.000    0.000 
#
# Total GULP energy -100226.169275 kJ/mol
# GULP energy per Si atom -5568.120515 kJ/mol
# Density = 1.856550 g / cm^3
# Si number density = 18.607850 Si / 1000 Ang^3
#
#
#
# Elastic Constant Matrix: (Units=GPa)
#
#
# Indices 1 2 3 4 5 6 
#
# 1 103.4045 29.5067 7.0892 0.0000 -1.0667 0.0000
# 2 29.5067 113.9630 37.3030 0.0000 1.3962 0.0000
# 3 7.0892 37.3030 46.0752 0.0000 11.4238 0.0000
# 4 0.0000 0.0000 0.0000 49.5514 0.0000 54.4340
# 5 -1.0667 1.3962 11.4238 0.0000 13.2505 0.0000
# 6 0.0000 0.0000 0.0000 54.4340 0.0000 92.4411
#
#
#
# Elastic Compliance Matrix: (Units=1/GPa)
#
#
# Indices 1 2 3 4 5 6 
#
# 1 0.010468 -0.002910 0.000585 0.000000 0.000645 0.000000
# 2 -0.002910 0.013655 -0.012964 0.000000 0.009504 0.000000
# 3 0.000585 -0.012964 0.040393 0.000000 -0.033411 0.000000
# 4 0.000000 0.000000 0.000000 0.057150 0.000000 -0.033653
# 5 0.000645 0.009504 -0.033411 0.000000 0.103324 0.000000
# 6 0.000000 0.000000 0.000000 -0.033653 0.000000 0.030634
#
#
# Mechanical properties :
#
#
# Convention : Reuss Voigt Hill
#
# Bulk Modulus (GPa) = 29.46437 45.69338 37.57887
# Shear Modulus (GPa) = 16.80597 43.68486 30.24541
#
# Velocity S-wave (km/s) = 3.00853 4.85052 4.03601
# Velocity P-wave (km/s) = 5.28556 7.48193 6.47752
#
# Compressibility (1/GPa) = 0.03393930
#
# Stress axis : x y z
#
# Youngs Moduli (GPa) = 95.53315 73.23254 24.75666
#
# Poissons Ratio (x) = 0.21308 -0.01449
# Poissons Ratio (y) = 0.27797 0.32094
# Poissons Ratio (z) = -0.05592 0.94938
#
# Static dielectric constant tensor:
#      x y z
#    x 1.663760 0.000000 -0.012260 
#    y 0.000000 1.699520 0.000000 
#    z -0.012260 0.000000 1.634830 
# 
# From -- ./inp_files/129413.got.cif
#   From: 2010.05.17/outbox.cif.g08.bks.cpg/sg12_65_cif.got.tgz:129413.got - 2010.06.03 13:09:07.
