data_PCOD9213646
_publ_section_title
;
Structure prediction by ZEFSAII (Michael W. Deem and Ramdas Pophale) SiO2 
 PCOD9213646
Probable space group: C 2/M
;
_chemical_formula_sum "Si O2"
_cell_formula_units_Z 48
_cell_length_a 16.353852
_cell_length_b 12.184547
_cell_length_c 10.980446
_cell_angle_alpha 90.000000
_cell_angle_beta 79.349780
_cell_angle_gamma 90.000000
_cell_volume 2150.319402
_symmetry_space_group_name_H-M "C 2/M"
_symmetry_group_IT_number 12
_symmetry_cell_setting 'monoclinic'
loop_
_space_group_symop_operation_xyz
x,y,z
-x,y,-z
-x,-y,-z
x,-y,z
1/2+x,1/2+y,z
1/2-x,1/2+y,-z
1/2-x,1/2-y,-z
1/2+x,1/2-y,z
loop_
_atom_site_type_symbol
_atom_site_label
_atom_site_fract_x
_atom_site_fract_y
_atom_site_fract_z
Si Si1 0.909386 0.500000 0.377461
Si Si2 0.132176 0.253666 0.602710
Si Si3 0.230328 0.624051 0.891608
Si Si4 0.485531 0.624382 0.205639
Si Si5 0.873472 0.182714 0.016754
Si Si6 0.696601 0.215676 0.325002
Si Si7 0.101389 0.500000 0.323805
O O1 0.868175 0.382492 0.357591
O O2 0.905991 0.500000 0.526292
O O3 0.005584 0.500000 0.307347
O O4 0.049669 0.197563 0.676415
O O5 0.213037 0.193759 0.637546
O O6 0.140366 0.248112 0.455029
O O7 0.214859 0.500000 0.861492
O O8 0.147718 0.693650 0.938943
O O9 0.283221 0.689945 0.776451
O O10 0.287136 0.630470 0.997046
O O11 0.504220 0.500000 0.237513
O O12 0.414486 0.624604 0.120606
O O13 0.563238 0.674109 0.112354
O O14 0.653259 0.109334 0.278887
#
# Coordination Sequence:
#
# PCOD9213646 Si02
#       7
#     4   8   8   8   8   8   4
#     4   9  20  40  62  86 136 165 212 258 315 371
#     4  10  22  38  62  96 127 167 204 259 318 383
#     4  11  23  42  64  91 125 158 201 264 313 371
#     4  11  22  41  65  89 121 161 209 258 301 372
#     4  10  23  43  60  87 119 166 210 245 307 369
#     4  10  22  39  63  94 130 163 210 254 319 380
#     4   9  20  40  62  91 122 178 215 253 298 393
#
# _framework density 22.322265000000002
#
# number of rings (size 3 to 8) (size 9 to 14) (size 15 to 20)
#    0.000    1.833    1.667    2.000    4.667    0.667 
#    9.000    0.833    0.000    2.000    0.000    0.000 
#    0.000    0.000    0.000    0.000    0.000    0.000 
#
# Total GULP energy -134152.263484 kJ/mol
# GULP energy per Si atom -5589.677645 kJ/mol
# Density = 2.227146 g / cm^3
# Si number density = 22.322265 Si / 1000 Ang^3
#
#
#
# Elastic Constant Matrix: (Units=GPa)
#
#
# Indices 1 2 3 4 5 6 
#
# 1 52.7559 25.6594 10.1778 0.0000 -8.3954 0.0000
# 2 25.6594 162.3938 50.4471 0.0000 -38.2917 0.0000
# 3 10.1778 50.4471 86.1566 0.0000 -37.0607 0.0000
# 4 0.0000 0.0000 0.0000 18.1136 0.0000 7.1936
# 5 -8.3954 -38.2917 -37.0607 0.0000 36.5969 0.0000
# 6 0.0000 0.0000 0.0000 7.1936 0.0000 8.8351
#
#
#
# Elastic Compliance Matrix: (Units=1/GPa)
#
#
# Indices 1 2 3 4 5 6 
#
# 1 0.020618 -0.002841 -0.000029 0.000000 0.001728 0.000000
# 2 -0.002841 0.008758 -0.002004 0.000000 0.006482 0.000000
# 3 -0.000029 -0.002004 0.021047 0.000000 0.019210 0.000000
# 4 0.000000 0.000000 0.000000 0.081589 0.000000 -0.066430
# 5 0.001728 0.006482 0.019210 0.000000 0.053957 0.000000
# 6 0.000000 0.000000 0.000000 -0.066430 0.000000 0.167272
#
#
# Mechanical properties :
#
#
# Convention : Reuss Voigt Hill
#
# Bulk Modulus (GPa) = 24.58551 52.65276 38.61914
# Shear Modulus (GPa) = 13.27855 27.04392 20.16123
#
# Velocity S-wave (km/s) = 2.44161 3.48447 3.00857
# Velocity P-wave (km/s) = 4.35734 6.31090 5.42282
#
# Compressibility (1/GPa) = 0.04067437
#
# Stress axis : x y z
#
# Youngs Moduli (GPa) = 48.50191 114.18331 47.51289
#
# Poissons Ratio (x) = 0.32445 0.00136
# Poissons Ratio (y) = 0.13782 0.09521
# Poissons Ratio (z) = 0.00139 0.22881
#
# Static dielectric constant tensor:
#      x y z
#    x 1.851470 0.000000 0.027260 
#    y 0.000000 1.822330 0.000000 
#    z 0.027260 0.000000 1.839270 
# 
# From -- ./inp_files/154239.got.cif
#   From: 2010.05.17/outbox.cif.g08.bks.cpg/sg12_78_cif.got.tgz:154239.got - 2010.06.03 13:09:07.
