data_PCOD9213176
_publ_section_title
;
Structure prediction by ZEFSAII (Michael W. Deem and Ramdas Pophale) SiO2 
 PCOD9213176
Probable space group: C 2/M
;
_chemical_formula_sum "Si O2"
_cell_formula_units_Z 48
_cell_length_a 9.509390
_cell_length_b 20.590049
_cell_length_c 13.804137
_cell_angle_alpha 90.000000
_cell_angle_beta 63.815753
_cell_angle_gamma 90.000000
_cell_volume 2425.468019
_symmetry_space_group_name_H-M "C 2/M"
_symmetry_group_IT_number 12
_symmetry_cell_setting 'monoclinic'
loop_
_space_group_symop_operation_xyz
x,y,z
-x,y,-z
-x,-y,-z
x,-y,z
1/2+x,1/2+y,z
1/2-x,1/2+y,-z
1/2-x,1/2-y,-z
1/2+x,1/2-y,z
loop_
_atom_site_type_symbol
_atom_site_label
_atom_site_fract_x
_atom_site_fract_y
_atom_site_fract_z
Si Si1 0.421397 0.924294 0.326211
Si Si2 0.617557 0.398475 0.540845
Si Si3 0.278055 0.571575 0.277415
Si Si4 0.641573 0.691270 0.884423
Si Si5 0.432040 0.252525 0.423854
Si Si6 0.496622 0.194380 0.806366
O O1 0.282738 0.895554 0.434041
O O2 0.588917 0.921987 0.330310
O O3 0.442111 0.879188 0.224953
O O4 0.387850 0.000000 0.316123
O O5 0.500000 0.430972 0.500000
O O6 0.657514 0.427060 0.633148
O O7 0.534519 0.329354 0.588460
O O8 0.314816 0.500000 0.223831
O O9 0.343099 0.632582 0.197495
O O10 0.597251 0.758544 0.843651
O O11 0.811271 0.695886 0.884477
O O12 0.500000 0.677447 0.000000
O O13 0.500000 0.221160 0.500000
O O14 0.250000 0.250000 0.500000
O O15 0.486885 0.221721 0.308190
#
# Coordination Sequence:
#
# PCOD9213176 Si02
#       6
#     8   8   8   8   8   8
#     4  10  22  37  57  84 118 161 194 225 279 352
#     4  11  22  34  54  87 125 155 188 226 278 349
#     4  10  22  40  60  84 118 156 194 237 287 344
#     4  11  24  41  63  87 110 148 201 252 301 337
#     4  11  21  32  54  87 118 150 189 227 281 345
#     4  11  22  39  62  84 119 151 189 248 290 345
#
# _framework density 19.789995999999999
#
# number of rings (size 3 to 8) (size 9 to 14) (size 15 to 20)
#    0.000    1.333    3.333    2.500    4.667    3.000 
#    0.000    0.000    0.000    0.500    0.000    0.000 
#    0.000    0.000    0.000    0.000    0.000    0.000 
#
# Total GULP energy -133927.511650 kJ/mol
# GULP energy per Si atom -5580.312985 kJ/mol
# Density = 1.974495 g / cm^3
# Si number density = 19.789996 Si / 1000 Ang^3
#
#
#
# Elastic Constant Matrix: (Units=GPa)
#
#
# Indices 1 2 3 4 5 6 
#
# 1 50.8887 7.3025 16.6872 0.0000 -1.8459 0.0000
# 2 7.3025 114.8755 11.4819 0.0000 -1.2023 0.0000
# 3 16.6872 11.4819 57.4763 0.0000 -20.5513 0.0000
# 4 0.0000 0.0000 0.0000 2.2957 0.0000 -3.2337
# 5 -1.8459 -1.2023 -20.5513 0.0000 27.0580 0.0000
# 6 0.0000 0.0000 0.0000 -3.2337 0.0000 16.4507
#
#
#
# Elastic Compliance Matrix: (Units=1/GPa)
#
#
# Indices 1 2 3 4 5 6 
#
# 1 0.022182 -0.000665 -0.007931 0.000000 -0.004540 0.000000
# 2 -0.000665 0.008936 -0.002013 0.000000 -0.001177 0.000000
# 3 -0.007931 -0.002013 0.027289 0.000000 0.020096 0.000000
# 4 0.000000 0.000000 0.000000 0.602399 0.000000 0.118412
# 5 -0.004540 -0.001177 0.020096 0.000000 0.051859 0.000000
# 6 0.000000 0.000000 0.000000 0.118412 0.000000 0.084063
#
#
# Mechanical properties :
#
#
# Convention : Reuss Voigt Hill
#
# Bulk Modulus (GPa) = 26.88909 32.68708 29.78808
# Shear Modulus (GPa) = 6.02161 21.67880 13.85020
#
# Velocity S-wave (km/s) = 1.74624 3.31334 2.64835
# Velocity P-wave (km/s) = 4.20506 5.58484 4.94333
#
# Compressibility (1/GPa) = 0.03718981
#
# Stress axis : x y z
#
# Youngs Moduli (GPa) = 45.08147 111.90397 36.64522
#
# Poissons Ratio (x) = 0.07441 0.29062
# Poissons Ratio (y) = 0.02998 0.07377
# Poissons Ratio (z) = 0.35752 0.22527
#
# Static dielectric constant tensor:
#      x y z
#    x 1.718700 0.000000 0.012430 
#    y 0.000000 1.810780 0.000000 
#    z 0.012430 0.000000 1.652140 
# 
# From -- ./inp_files/196934.got.cif
#   From: 2010.05.17/outbox.cif.g08.bks.cpg/sg12_99_cif.got.tgz:196934.got - 2010.06.03 13:09:07.
