data_PCOD9213417
_publ_section_title
;
Structure prediction by ZEFSAII (Michael W. Deem and Ramdas Pophale) SiO2 
 PCOD9213417
Probable space group: C 2/M
;
_chemical_formula_sum "Si O2"
_cell_formula_units_Z 56
_cell_length_a 22.882382
_cell_length_b 18.336561
_cell_length_c 21.943523
_cell_angle_alpha 90.000000
_cell_angle_beta 18.017549
_cell_angle_gamma 90.000000
_cell_volume 2847.849371
_symmetry_space_group_name_H-M "C 2/M"
_symmetry_group_IT_number 12
_symmetry_cell_setting 'monoclinic'
loop_
_space_group_symop_operation_xyz
x,y,z
-x,y,-z
-x,-y,-z
x,-y,z
1/2+x,1/2+y,z
1/2-x,1/2+y,-z
1/2-x,1/2-y,-z
1/2+x,1/2-y,z
loop_
_atom_site_type_symbol
_atom_site_label
_atom_site_fract_x
_atom_site_fract_y
_atom_site_fract_z
Si Si1 0.029399 0.303422 0.398537
Si Si2 0.462743 0.332783 0.964794
Si Si3 0.462396 0.170008 0.152975
Si Si4 0.850144 0.082981 0.599682
Si Si5 0.752870 0.414963 0.605789
Si Si6 0.092919 0.152930 0.267746
Si Si7 0.709281 0.333310 0.523098
O O1 0.000000 0.295618 0.500000
O O2 0.892487 0.363225 0.505711
O O3 0.014321 0.225503 0.380013
O O4 0.240484 0.329632 0.177113
O O5 0.541837 0.255491 0.860620
O O6 0.554858 0.397511 0.835251
O O7 0.500000 0.337755 0.000000
O O8 0.342056 0.127312 0.220872
O O9 0.350019 0.153242 0.326702
O O10 0.683019 0.149397 0.943364
O O11 0.978633 0.087045 0.411714
O O12 0.000000 0.113486 0.500000
O O13 0.804491 0.000000 0.661416
O O14 0.799872 0.500000 0.561676
O O15 0.747051 0.385207 0.542676
O O16 0.007883 0.159314 0.284420
O O17 0.750000 0.250000 0.500000
#
# Coordination Sequence:
#
# PCOD9213417 Si02
#       7
#     8   8   8   8   8   8   8
#     4  11  22  40  66  96 129 169 215 265 327 396
#     4  11  23  40  66  98 128 165 213 266 324 390
#     4  10  23  39  67  97 124 168 222 274 323 389
#     4  10  22  38  57  89 136 174 207 263 333 392
#     4  12  26  44  64  94 133 177 216 266 331 393
#     4  10  22  38  68  94 122 166 224 273 323 385
#     4  11  21  42  65  91 128 168 217 269 325 379
#
# _framework density 19.663962000000001
#
# number of rings (size 3 to 8) (size 9 to 14) (size 15 to 20)
#    0.000    1.286    4.286    1.286    4.000    5.714 
#    0.000    1.429    0.000    0.000    0.000    0.000 
#    0.000    0.000    0.000    0.000    0.000    0.000 
#
# Total GULP energy -156319.614967 kJ/mol
# GULP energy per Si atom -5582.843392 kJ/mol
# Density = 1.961921 g / cm^3
# Si number density = 19.663962 Si / 1000 Ang^3
#
#
#
# Elastic Constant Matrix: (Units=GPa)
#
#
# Indices 1 2 3 4 5 6 
#
# 1 107.1724 33.2391 25.8258 -0.0310 -4.2127 0.0090
# 2 33.2391 89.5183 31.5218 -0.0465 -7.9171 0.0027
# 3 25.8258 31.5218 98.9006 -0.0520 -12.9266 0.0171
# 4 -0.0310 -0.0465 -0.0520 7.1509 0.0170 4.9904
# 5 -4.2127 -7.9171 -12.9266 0.0170 39.6100 -0.0037
# 6 0.0090 0.0027 0.0171 4.9904 -0.0037 18.8093
#
#
#
# Elastic Compliance Matrix: (Units=1/GPa)
#
#
# Indices 1 2 3 4 5 6 
#
# 1 0.010804 -0.003405 -0.001750 0.000018 -0.000102 -0.000008
# 2 -0.003405 0.013717 -0.003313 0.000055 0.001298 -0.000012
# 3 -0.001750 -0.003313 0.012026 0.000070 0.003076 -0.000028
# 4 0.000018 0.000055 0.000070 0.171620 -0.000042 -0.045534
# 5 -0.000102 0.001298 0.003076 -0.000042 0.026499 0.000013
# 6 -0.000008 -0.000012 -0.000028 -0.045534 0.000013 0.065246
#
#
# Mechanical properties :
#
#
# Convention : Reuss Voigt Hill
#
# Bulk Modulus (GPa) = 50.98802 52.97386 51.98094
# Shear Modulus (GPa) = 15.46151 26.78102 21.12126
#
# Velocity S-wave (km/s) = 2.80712 3.69444 3.28092
# Velocity P-wave (km/s) = 6.04091 6.72284 6.39098
#
# Compressibility (1/GPa) = 0.01961245
#
# Stress axis : x y z
#
# Youngs Moduli (GPa) = 92.55572 72.90453 83.15282
#
# Poissons Ratio (x) = 0.24822 0.14548
# Poissons Ratio (y) = 0.31513 0.27548
# Poissons Ratio (z) = 0.16193 0.24153
#
# Static dielectric constant tensor:
#      x y z
#    x 1.756380 -0.000010 -0.012530 
#    y -0.000010 1.672860 0.000060 
#    z -0.012530 0.000060 1.724050 
# 
# From -- ./inp_files/322663.got.cif
#   From: 2010.05.17/outbox.cif.g08.bks.cpg/sg12_162_cif.got.tgz:322663.got - 2010.06.03 13:09:07.
