data_PCOD9213238
_publ_section_title
;
Structure prediction by ZEFSAII (Michael W. Deem and Ramdas Pophale) SiO2 
 PCOD9213238
Probable space group: C 2/M
;
_chemical_formula_sum "Si O2"
_cell_formula_units_Z 32
_cell_length_a 21.396596
_cell_length_b 7.897668
_cell_length_c 17.716675
_cell_angle_alpha 90.000000
_cell_angle_beta 34.327262
_cell_angle_gamma 90.000000
_cell_volume 1688.272498
_symmetry_space_group_name_H-M "C 2/M"
_symmetry_group_IT_number 12
_symmetry_cell_setting 'monoclinic'
loop_
_space_group_symop_operation_xyz
x,y,z
-x,y,-z
-x,-y,-z
x,-y,z
1/2+x,1/2+y,z
1/2-x,1/2+y,-z
1/2-x,1/2-y,-z
1/2+x,1/2-y,z
loop_
_atom_site_type_symbol
_atom_site_label
_atom_site_fract_x
_atom_site_fract_y
_atom_site_fract_z
Si Si1 0.022164 0.301175 0.061635
Si Si2 0.748487 0.704106 0.089374
Si Si3 0.686862 0.688349 0.637656
Si Si4 0.603760 0.000000 0.299102
Si Si5 0.352056 0.000000 0.567675
O O1 0.040932 0.500000 0.031805
O O2 0.916515 0.282569 0.222141
O O3 0.134939 0.241069 0.988499
O O4 0.000000 0.225574 0.000000
O O5 0.732376 0.500000 0.114946
O O6 0.655945 0.826957 0.215927
O O7 0.750000 0.750000 0.000000
O O8 0.643734 0.500000 0.662593
O O9 0.750000 0.750000 0.500000
O O10 0.780066 0.658022 0.609149
O O11 0.473566 0.000000 0.411153
O O12 0.629516 0.000000 0.362291
#
# Coordination Sequence:
#
# PCOD9213238 Si02
#       5
#     8   8   8   4   4
#     4  10  22  40  63  92 126 160 209 265 317 378
#     4  11  24  39  64  98 127 166 212 263 320 380
#     4  10  22  37  60  89 124 159 206 253 311 374
#     4  11  22  45  67  85 135 167 211 265 314 378
#     4   9  24  41  63  91 123 171 209 257 320 382
#
# _framework density 18.954287000000001
#
# number of rings (size 3 to 8) (size 9 to 14) (size 15 to 20)
#    0.750    1.000    1.250    2.250    5.250    0.500 
#    0.000    5.000    0.000    0.000    0.000    0.000 
#    0.000    0.000    0.000    0.000    0.000    0.000 
#
# Total GULP energy -89113.829576 kJ/mol
# GULP energy per Si atom -5569.614349 kJ/mol
# Density = 1.891115 g / cm^3
# Si number density = 18.954287 Si / 1000 Ang^3
#
#
#
# Elastic Constant Matrix: (Units=GPa)
#
#
# Indices 1 2 3 4 5 6 
#
# 1 46.5226 14.1943 6.9721 0.0001 0.2279 -0.0001
# 2 14.1943 65.4863 14.9314 0.0006 -5.4751 -0.0003
# 3 6.9721 14.9314 82.7098 0.0003 -5.4730 -0.0001
# 4 0.0001 0.0006 0.0003 35.3075 -0.0001 3.4156
# 5 0.2279 -5.4751 -5.4730 -0.0001 35.4579 0.0000
# 6 -0.0001 -0.0003 -0.0001 3.4156 0.0000 24.6185
#
#
#
# Elastic Compliance Matrix: (Units=1/GPa)
#
#
# Indices 1 2 3 4 5 6 
#
# 1 0.023151 -0.004846 -0.001148 0.000000 -0.001074 0.000000
# 2 -0.004846 0.017087 -0.002525 0.000000 0.002280 0.000000
# 3 -0.001148 -0.002525 0.012748 0.000000 0.001585 0.000000
# 4 0.000000 0.000000 0.000000 0.028708 0.000000 -0.003983
# 5 -0.001074 0.002280 0.001585 0.000000 0.028806 0.000000
# 6 0.000000 0.000000 0.000000 -0.003983 0.000000 0.041172
#
#
# Mechanical properties :
#
#
# Convention : Reuss Voigt Hill
#
# Bulk Modulus (GPa) = 27.81831 29.65716 28.73773
# Shear Modulus (GPa) = 27.67121 29.65152 28.66137
#
# Velocity S-wave (km/s) = 3.82500 3.95950 3.89283
# Velocity P-wave (km/s) = 5.84943 6.04849 5.94979
#
# Compressibility (1/GPa) = 0.03594755
#
# Stress axis : x y z
#
# Youngs Moduli (GPa) = 43.19514 58.52340 78.44369
#
# Poissons Ratio (x) = 0.28361 0.09003
# Poissons Ratio (y) = 0.20933 0.19810
# Poissons Ratio (z) = 0.04958 0.14779
#
# Static dielectric constant tensor:
#      x y z
#    x 1.672990 0.000000 0.006970 
#    y 0.000000 1.703790 0.000000 
#    z 0.006970 0.000000 1.650860 
# 
# From -- ./inp_files/287213.got.cif
#   From: 2010.05.17/outbox.cif.g08.bks.cpg/sg12_144_cif.got.tgz:287213.got - 2010.06.03 13:09:07.
