data_PCOD9213846
_publ_section_title
;
Structure prediction by ZEFSAII (Michael W. Deem and Ramdas Pophale) SiO2 
 PCOD9213846
Probable space group: C 2/M
;
_chemical_formula_sum "Si O2"
_cell_formula_units_Z 48
_cell_length_a 14.846129
_cell_length_b 18.763388
_cell_length_c 8.195407
_cell_angle_alpha 90.000000
_cell_angle_beta 100.422236
_cell_angle_gamma 90.000000
_cell_volume 2245.277224
_symmetry_space_group_name_H-M "C 2/M"
_symmetry_group_IT_number 12
_symmetry_cell_setting 'monoclinic'
loop_
_space_group_symop_operation_xyz
x,y,z
-x,y,-z
-x,-y,-z
x,-y,z
1/2+x,1/2+y,z
1/2-x,1/2+y,-z
1/2-x,1/2-y,-z
1/2+x,1/2-y,z
loop_
_atom_site_type_symbol
_atom_site_label
_atom_site_fract_x
_atom_site_fract_y
_atom_site_fract_z
Si Si1 0.807744 0.917745 0.857865
Si Si2 0.509253 0.792219 0.690373
Si Si3 0.510735 0.419309 0.203308
Si Si4 0.808370 0.695121 0.630282
Si Si5 0.878901 0.417998 0.389850
Si Si6 0.147380 0.179658 0.828067
O O1 0.705900 0.917791 0.761539
O O2 0.882046 0.904187 0.739034
O O3 0.827193 0.000000 0.923456
O O4 0.822728 0.855805 0.992963
O O5 0.500000 0.764166 0.500000
O O6 0.408189 0.779334 0.729459
O O7 0.539521 0.874408 0.671591
O O8 0.593993 0.754764 0.809333
O O9 0.492758 0.500000 0.243290
O O10 0.436061 0.370265 0.260614
O O11 0.500000 0.412247 0.000000
O O12 0.750000 0.750000 0.500000
O O13 0.840702 0.629017 0.528114
O O14 0.736774 0.678123 0.747324
O O15 0.898939 0.500000 0.437727
#
# Coordination Sequence:
#
# PCOD9213846 Si02
#       6
#     8   8   8   8   8   8
#     4   9  20  39  62  93 128 161 200 248 308 378
#     4  10  22  39  58  86 121 163 202 254 305 363
#     4   8  16  31  52  84 121 157 192 235 298 365
#     4  11  23  41  60  89 125 155 210 265 308 357
#     4  10  22  42  65  87 121 169 209 248 307 372
#     4  11  20  35  65  87 124 159 197 257 312 360
#
# _framework density 21.378205000000001
#
# number of rings (size 3 to 8) (size 9 to 14) (size 15 to 20)
#    0.000    2.167    3.333    1.500    2.333    5.000 
#    0.000    0.833    0.000    7.000    0.000    0.000 
#    0.000    0.000    0.000    0.000    0.000    0.000 
#
# Total GULP energy -133769.569008 kJ/mol
# GULP energy per Si atom -5573.732042 kJ/mol
# Density = 2.132955 g / cm^3
# Si number density = 21.378205 Si / 1000 Ang^3
#
#
#
# Elastic Constant Matrix: (Units=GPa)
#
#
# Indices 1 2 3 4 5 6 
#
# 1 189.0335 52.3813 26.8883 0.0000 -16.2017 0.0000
# 2 52.3813 117.7932 18.5961 0.0000 -7.5890 0.0000
# 3 26.8883 18.5961 24.4725 0.0000 1.1086 0.0000
# 4 0.0000 0.0000 0.0000 25.7894 0.0000 0.2118
# 5 -16.2017 -7.5890 1.1086 0.0000 34.6747 0.0000
# 6 0.0000 0.0000 0.0000 0.2118 0.0000 39.7001
#
#
#
# Elastic Compliance Matrix: (Units=1/GPa)
#
#
# Indices 1 2 3 4 5 6 
#
# 1 0.006985 -0.001905 -0.006365 0.000000 0.003050 0.000000
# 2 -0.001905 0.010361 -0.005851 0.000000 0.001565 0.000000
# 3 -0.006365 -0.005851 0.052571 0.000000 -0.005935 0.000000
# 4 0.000000 0.000000 0.000000 0.038777 0.000000 -0.000207
# 5 0.003050 0.001565 -0.005935 0.000000 0.030797 0.000000
# 6 0.000000 0.000000 0.000000 -0.000207 0.000000 0.025190
#
#
# Mechanical properties :
#
#
# Convention : Reuss Voigt Hill
#
# Bulk Modulus (GPa) = 23.99557 58.55896 41.27727
# Shear Modulus (GPa) = 24.17636 35.59508 29.88572
#
# Velocity S-wave (km/s) = 3.36652 4.08489 3.74298
# Velocity P-wave (km/s) = 5.13419 7.04981 6.16684
#
# Compressibility (1/GPa) = 0.04167435
#
# Stress axis : x y z
#
# Youngs Moduli (GPa) = 143.17136 96.51598 19.02204
#
# Poissons Ratio (x) = 0.18383 0.12108
# Poissons Ratio (y) = 0.27269 0.11130
# Poissons Ratio (z) = 0.91129 0.56474
#
# Static dielectric constant tensor:
#      x y z
#    x 1.848030 0.000000 0.049580 
#    y 0.000000 2.074810 0.000000 
#    z 0.049580 0.000000 1.801840 
# 
# From -- ./inp_files/61727.got.cif
#   From: 2010.05.17/outbox.cif.g08.bks.cpg/sg12_31_cif.got.tgz:61727.got - 2010.06.03 13:09:07.
