data_PCOD9213387
_publ_section_title
;
Structure prediction by ZEFSAII (Michael W. Deem and Ramdas Pophale) SiO2 
 PCOD9213387
Probable space group: C 2/M
;
_chemical_formula_sum "Si O2"
_cell_formula_units_Z 56
_cell_length_a 18.159719
_cell_length_b 13.850967
_cell_length_c 11.506830
_cell_angle_alpha 90.000000
_cell_angle_beta 70.533547
_cell_angle_gamma 90.000000
_cell_volume 2728.861093
_symmetry_space_group_name_H-M "C 2/M"
_symmetry_group_IT_number 12
_symmetry_cell_setting 'monoclinic'
loop_
_space_group_symop_operation_xyz
x,y,z
-x,y,-z
-x,-y,-z
x,-y,z
1/2+x,1/2+y,z
1/2-x,1/2+y,-z
1/2-x,1/2-y,-z
1/2+x,1/2-y,z
loop_
_atom_site_type_symbol
_atom_site_label
_atom_site_fract_x
_atom_site_fract_y
_atom_site_fract_z
Si Si1 0.248234 0.654949 0.425714
Si Si2 0.587182 0.814507 0.424323
Si Si3 0.333915 0.610981 0.160798
Si Si4 0.996245 0.110073 0.180033
Si Si5 0.632100 0.757572 0.151138
Si Si6 0.246744 0.387704 0.960410
Si Si7 0.899303 0.102740 0.471490
O O1 0.250000 0.750000 0.500000
O O2 0.157710 0.629774 0.452248
O O3 0.285410 0.671529 0.279116
O O4 0.312834 0.596404 0.462362
O O5 0.500000 0.847920 0.500000
O O6 0.604705 0.815949 0.278322
O O7 0.592162 0.700711 0.459849
O O8 0.323348 0.500000 0.205876
O O9 0.425511 0.629869 0.127828
O O10 0.297186 0.615894 0.053656
O O11 0.956237 0.111051 0.329349
O O12 0.061121 0.191703 0.145071
O O13 0.026149 0.000000 0.144310
O O14 0.668123 0.830749 0.036950
O O15 0.700656 0.680499 0.148577
O O16 0.237322 0.500000 0.931952
O O17 0.914223 0.000000 0.525467
#
# Coordination Sequence:
#
# PCOD9213387 Si02
#       7
#     8   8   8   8   8   8   8
#     4   9  17  30  49  72 102 142 176 207 251 323
#     4  11  20  32  51  82 111 140 173 214 272 332
#     4   9  17  33  55  77 104 138 179 225 273 313
#     4   9  17  30  52  83 111 133 168 222 274 320
#     4  11  21  35  54  82 112 142 178 223 274 324
#     4  10  22  38  57  78 105 146 189 224 263 315
#     4   9  18  31  50  77 108 141 170 214 272 321
#
# _framework density 20.521381999999999
#
# number of rings (size 3 to 8) (size 9 to 14) (size 15 to 20)
#    0.000    2.286    2.857    1.714    0.000    2.000 
#    0.000    2.143    0.000    3.857    0.000    9.000 
#    0.000    0.000    0.000    0.000    0.000    0.000 
#
# Total GULP energy -156156.382716 kJ/mol
# GULP energy per Si atom -5577.013668 kJ/mol
# Density = 2.047467 g / cm^3
# Si number density = 20.521382 Si / 1000 Ang^3
#
#
#
# Elastic Constant Matrix: (Units=GPa)
#
#
# Indices 1 2 3 4 5 6 
#
# 1 116.9409 12.7703 13.8808 0.0000 -25.4195 0.0000
# 2 12.7703 67.5399 7.6160 0.0000 -15.4960 0.0000
# 3 13.8808 7.6160 63.7524 0.0000 -20.4465 0.0000
# 4 0.0000 0.0000 0.0000 3.3793 0.0000 7.5242
# 5 -25.4195 -15.4960 -20.4465 0.0000 30.9946 0.0000
# 6 0.0000 0.0000 0.0000 7.5242 0.0000 11.5075
#
#
#
# Elastic Compliance Matrix: (Units=1/GPa)
#
#
# Indices 1 2 3 4 5 6 
#
# 1 0.010425 0.000015 0.000600 0.000000 0.008953 0.000000
# 2 0.000015 0.016762 0.000870 0.000000 0.008967 0.000000
# 3 0.000600 0.000870 0.019974 0.000000 0.014104 0.000000
# 4 0.000000 0.000000 0.000000 -0.649158 0.000000 0.424457
# 5 0.008953 0.008967 0.014104 0.000000 0.053393 0.000000
# 6 0.000000 0.000000 0.000000 0.424457 0.000000 -0.190634
#
#
# Mechanical properties :
#
#
# Convention : Reuss Voigt Hill
#
# Bulk Modulus (GPa) = 19.94743 35.19637 27.57190
# Shear Modulus (GPa) = -6.89182 23.44068 8.27443
#
# Velocity S-wave (km/s) = -1.83457 3.38340 2.01019
# Velocity P-wave (km/s) = 2.29214 5.69662 4.34197
#
# Compressibility (1/GPa) = 0.05013177
#
# Stress axis : x y z
#
# Youngs Moduli (GPa) = 95.92757 59.65734 50.06399
#
# Poissons Ratio (x) = -0.00092 -0.03003
# Poissons Ratio (y) = -0.00148 -0.04356
# Poissons Ratio (z) = -0.05753 -0.05191
#
# Static dielectric constant tensor:
#      x y z
#    x 1.776370 0.000000 -0.013240 
#    y 0.000000 1.745520 0.000000 
#    z -0.013240 0.000000 1.772200 
# 
# From -- ./inp_files/224674.got.cif
#   From: 2010.05.17/outbox.cif.g08.bks.cpg/sg12_113_cif.got.tgz:224674.got - 2010.06.03 13:09:07.
