data_PCOD9213171
_publ_section_title
;
Structure prediction by ZEFSAII (Michael W. Deem and Ramdas Pophale) SiO2 
 PCOD9213171
Probable space group: C 2/M
;
_chemical_formula_sum "Si O2"
_cell_formula_units_Z 42
_cell_length_a 14.380858
_cell_length_b 10.353764
_cell_length_c 16.201865
_cell_angle_alpha 90.000000
_cell_angle_beta 126.034061
_cell_angle_gamma 90.000000
_cell_volume 1950.823681
_symmetry_space_group_name_H-M "C 2/M"
_symmetry_group_IT_number 12
_symmetry_cell_setting 'monoclinic'
loop_
_space_group_symop_operation_xyz
x,y,z
-x,y,-z
-x,-y,-z
x,-y,z
1/2+x,1/2+y,z
1/2-x,1/2+y,-z
1/2-x,1/2-y,-z
1/2+x,1/2-y,z
loop_
_atom_site_type_symbol
_atom_site_label
_atom_site_fract_x
_atom_site_fract_y
_atom_site_fract_z
Si Si1 0.302734 0.853508 0.644878
Si Si2 0.313413 0.855568 0.132508
Si Si3 0.389139 0.848982 0.996376
Si Si4 0.087189 0.141292 0.405903
Si Si5 0.000000 0.500000 0.500000
Si Si6 0.131744 0.278520 0.659286
O O1 0.190707 0.858245 0.525985
O O2 0.388465 0.756922 0.644395
O O3 0.251972 0.788025 0.699893
O O4 0.345119 0.000000 0.676981
O O5 0.402349 0.838508 0.102953
O O6 0.365203 0.845485 0.250212
O O7 0.263608 0.000000 0.095448
O O8 0.217041 0.745228 0.076988
O O9 0.362601 0.000000 0.964395
O O10 0.500000 0.814356 0.000000
O O11 0.966535 0.169925 0.386151
O O12 0.086207 0.000000 0.365367
O O13 0.093802 0.386150 0.573530
#
# Coordination Sequence:
#
# PCOD9213171 Si02
#       6
#     8   8   8   8   2   8
#     4  10  22  37  57  80 113 158 210 261 312 362
#     4  10  22  38  62  94 122 158 202 254 310 380
#     4   9  20  42  67  91 123 154 194 255 328 383
#     4  10  22  37  57  81 114 157 210 263 312 361
#     4  12  24  36  62  88 124 186 214 264 292 362
#     4  12  23  38  60  86 128 168 218 252 310 359
#
# _framework density 21.529367000000001
#
# number of rings (size 3 to 8) (size 9 to 14) (size 15 to 20)
#    0.000    1.714    2.857    0.571    2.667    4.952 
#    0.000    1.905    0.000    0.000    0.000    0.000 
#    0.000    0.000    0.000    0.000    0.000    0.000 
#
# Total GULP energy -117016.097561 kJ/mol
# GULP energy per Si atom -5572.195122 kJ/mol
# Density = 2.148036 g / cm^3
# Si number density = 21.529367 Si / 1000 Ang^3
#
#
#
# Elastic Constant Matrix: (Units=GPa)
#
#
# Indices 1 2 3 4 5 6 
#
# 1 122.0837 48.1810 4.4142 0.0000 -18.6992 0.0000
# 2 48.1810 133.5443 12.9140 0.0000 -12.3443 0.0000
# 3 4.4142 12.9140 17.9385 0.0000 -11.4157 0.0000
# 4 0.0000 0.0000 0.0000 21.5794 0.0000 0.8417
# 5 -18.6992 -12.3443 -11.4157 0.0000 19.7850 0.0000
# 6 0.0000 0.0000 0.0000 0.8417 0.0000 23.3416
#
#
#
# Elastic Compliance Matrix: (Units=1/GPa)
#
#
# Indices 1 2 3 4 5 6 
#
# 1 0.011369 -0.003679 0.008261 0.000000 0.013216 0.000000
# 2 -0.003679 0.009328 -0.006825 0.000000 -0.001595 0.000000
# 3 0.008261 -0.006825 0.096213 0.000000 0.059063 0.000000
# 4 0.000000 0.000000 0.000000 0.046406 0.000000 -0.001673
# 5 0.013216 -0.001595 0.059063 0.000000 0.096118 0.000000
# 6 0.000000 0.000000 0.000000 -0.001673 0.000000 0.042902
#
#
# Mechanical properties :
#
#
# Convention : Reuss Voigt Hill
#
# Bulk Modulus (GPa) = 8.89484 44.95387 26.92435
# Shear Modulus (GPa) = 14.52240 26.81168 20.66704
#
# Velocity S-wave (km/s) = 2.60001 3.53279 3.10166
# Velocity P-wave (km/s) = 3.62682 6.12914 5.03588
#
# Compressibility (1/GPa) = 0.11242479
#
# Stress axis : x y z
#
# Youngs Moduli (GPa) = 87.96221 107.20418 10.39357
#
# Poissons Ratio (x) = 0.39439 -0.08586
# Poissons Ratio (y) = 0.32360 0.07094
# Poissons Ratio (z) = -0.72668 0.73166
#
# Static dielectric constant tensor:
#      x y z
#    x 1.791780 0.000000 -0.043660 
#    y 0.000000 1.746860 0.000000 
#    z -0.043660 0.000000 1.824910 
# 
# From -- ./inp_files/267778.got.cif
#   From: 2010.05.17/outbox.cif.g08.bks.cpg/sg12_134_cif.got.tgz:267778.got - 2010.06.03 13:09:07.
