data_PCOD9213619
_publ_section_title
;
Structure prediction by ZEFSAII (Michael W. Deem and Ramdas Pophale) SiO2 
 PCOD9213619
Probable space group: C 2/M
;
_chemical_formula_sum "Si O2"
_cell_formula_units_Z 24
_cell_length_a 11.668817
_cell_length_b 18.028407
_cell_length_c 6.231915
_cell_angle_alpha 90.000000
_cell_angle_beta 118.179116
_cell_angle_gamma 90.000000
_cell_volume 1155.622574
_symmetry_space_group_name_H-M "C 2/M"
_symmetry_group_IT_number 12
_symmetry_cell_setting 'monoclinic'
loop_
_space_group_symop_operation_xyz
x,y,z
-x,y,-z
-x,-y,-z
x,-y,z
1/2+x,1/2+y,z
1/2-x,1/2+y,-z
1/2-x,1/2-y,-z
1/2+x,1/2-y,z
loop_
_atom_site_type_symbol
_atom_site_label
_atom_site_fract_x
_atom_site_fract_y
_atom_site_fract_z
Si Si1 0.127062 0.673507 0.982823
Si Si2 0.268614 0.690941 0.709754
Si Si3 0.853397 0.911797 0.434455
O O1 0.142600 0.760925 0.052343
O O2 0.248106 0.627487 0.187282
O O3 0.142705 0.670088 0.740042
O O4 0.000000 0.647792 0.000000
O O5 0.250000 0.750000 0.500000
O O6 0.327083 0.619359 0.649318
O O7 0.000000 0.891413 0.500000
O O8 0.839226 0.000000 0.410725
#
# Coordination Sequence:
#
# PCOD9213619 Si02
#       3
#     8   8   8
#     4  10  22  38  62  90 116 155 205 252 295 350
#     4   9  21  37  60  88 121 154 199 248 301 350
#     4  10  23  40  59  87 125 162 197 242 302 361
#
# _framework density 20.768025000000002
#
# number of rings (size 3 to 8) (size 9 to 14) (size 15 to 20)
#    0.000    2.333    0.000    0.000   14.000    6.000 
#    0.000    5.000    0.000    0.000    0.000    0.000 
#    0.000    0.000    0.000    0.000    0.000    0.000 
#
# Total GULP energy -66880.947945 kJ/mol
# GULP energy per Si atom -5573.412329 kJ/mol
# Density = 2.072076 g / cm^3
# Si number density = 20.768025 Si / 1000 Ang^3
#
#
#
# Elastic Constant Matrix: (Units=GPa)
#
#
# Indices 1 2 3 4 5 6 
#
# 1 212.6704 57.3354 83.0391 0.0000 -27.1171 0.0000
# 2 57.3354 68.6829 33.6310 0.0000 1.2915 0.0000
# 3 83.0391 33.6310 64.1326 0.0000 -27.4686 0.0000
# 4 0.0000 0.0000 0.0000 20.1140 0.0000 -4.5665
# 5 -27.1171 1.2915 -27.4686 0.0000 48.8371 0.0000
# 6 0.0000 0.0000 0.0000 -4.5665 0.0000 28.7056
#
#
#
# Elastic Compliance Matrix: (Units=1/GPa)
#
#
# Indices 1 2 3 4 5 6 
#
# 1 0.009913 -0.002280 -0.012194 0.000000 -0.001294 0.000000
# 2 -0.002280 0.023046 -0.013090 0.000000 -0.009238 0.000000
# 3 -0.012194 -0.013090 0.046758 0.000000 0.019875 0.000000
# 4 0.000000 0.000000 0.000000 0.051579 0.000000 0.008205
# 5 -0.001294 -0.009238 0.019875 0.000000 0.031181 0.000000
# 6 0.000000 0.000000 0.000000 0.008205 0.000000 0.036142
#
#
# Mechanical properties :
#
#
# Convention : Reuss Voigt Hill
#
# Bulk Modulus (GPa) = 40.66726 77.05520 58.86123
# Shear Modulus (GPa) = 19.08802 30.96337 25.02569
#
# Velocity S-wave (km/s) = 3.03497 3.86543 3.47509
# Velocity P-wave (km/s) = 5.64850 7.55681 6.67124
#
# Compressibility (1/GPa) = 0.02458980
#
# Stress axis : x y z
#
# Youngs Moduli (GPa) = 100.87663 43.39094 21.38650
#
# Poissons Ratio (x) = 0.09893 0.26079
# Poissons Ratio (y) = 0.23000 0.27995
# Poissons Ratio (z) = 1.23010 0.56798
#
# Static dielectric constant tensor:
#      x y z
#    x 1.827800 0.000000 -0.026560 
#    y 0.000000 1.709420 0.000000 
#    z -0.026560 0.000000 1.856770 
# 
# From -- ./inp_files/5150.got.cif
#   From: 2010.05.17/outbox.cif.g08.bks.cpg/sg12_3_cif.got.tgz:5150.got - 2010.06.03 13:09:07.
