data_PCOD9213056
_publ_section_title
;
Structure prediction by ZEFSAII (Michael W. Deem and Ramdas Pophale) SiO2 
 PCOD9213056
Probable space group: C 2/M
;
_chemical_formula_sum "Si O2"
_cell_formula_units_Z 56
_cell_length_a 15.786516
_cell_length_b 32.680989
_cell_length_c 5.176446
_cell_angle_alpha 90.000000
_cell_angle_beta 103.891571
_cell_angle_gamma 90.000000
_cell_volume 2592.515625
_symmetry_space_group_name_H-M "C 2/M"
_symmetry_group_IT_number 12
_symmetry_cell_setting 'monoclinic'
loop_
_space_group_symop_operation_xyz
x,y,z
-x,y,-z
-x,-y,-z
x,-y,z
1/2+x,1/2+y,z
1/2-x,1/2+y,-z
1/2-x,1/2-y,-z
1/2+x,1/2-y,z
loop_
_atom_site_type_symbol
_atom_site_label
_atom_site_fract_x
_atom_site_fract_y
_atom_site_fract_z
Si Si1 0.674128 0.118999 0.679867
Si Si2 0.826126 0.109887 0.427368
Si Si3 0.397367 0.162426 0.868407
Si Si4 0.894089 0.195844 0.401541
Si Si5 0.757886 0.546525 0.023348
Si Si6 0.916955 0.043906 0.757015
Si Si7 0.606268 0.744430 0.097427
O O1 0.772091 0.123413 0.640891
O O2 0.651133 0.144038 0.918536
O O3 0.670098 0.071047 0.756688
O O4 0.618486 0.135889 0.399847
O O5 0.855361 0.151313 0.313769
O O6 0.908180 0.082695 0.569256
O O7 0.766630 0.077628 0.225943
O O8 0.500000 0.162541 0.000000
O O9 0.367497 0.209363 0.815660
O O10 0.865948 0.213814 0.656608
O O11 0.000000 0.192808 0.500000
O O12 0.866291 0.227598 0.160214
O O13 0.780502 0.500000 0.963822
O O14 0.669886 0.544021 0.130284
O O15 0.917290 0.000000 0.615392
O O16 0.000000 0.046216 0.000000
O O17 0.500000 0.744514 0.000000
#
# Coordination Sequence:
#
# PCOD9213056 Si02
#       7
#     8   8   8   8   8   8   8
#     4  11  23  42  64 100 126 156 210 256 315 381
#     4  11  23  37  60  87 133 168 218 251 315 363
#     4  11  22  43  74  95 119 155 205 263 317 382
#     4  10  22  36  59  88 128 172 214 254 297 355
#     4  10  22  41  64  87 128 177 210 249 311 378
#     4   9  20  35  56  88 122 164 226 276 304 344
#     4   9  20  39  60  90 121 162 208 252 312 374
#
# _framework density 21.600643000000002
#
# number of rings (size 3 to 8) (size 9 to 14) (size 15 to 20)
#    0.000    1.857    1.429    1.714    6.000    3.429 
#    0.000    6.429    0.000    2.571    0.000    0.000 
#    0.000    0.000    0.000    0.000    0.000    0.000 
#
# Total GULP energy -156361.653503 kJ/mol
# GULP energy per Si atom -5584.344768 kJ/mol
# Density = 2.155148 g / cm^3
# Si number density = 21.600643 Si / 1000 Ang^3
#
#
#
# Elastic Constant Matrix: (Units=GPa)
#
#
# Indices 1 2 3 4 5 6 
#
# 1 29.4227 33.7963 10.5836 0.0000 -4.1173 0.0000
# 2 33.7963 173.0694 72.1738 0.0000 13.6474 0.0000
# 3 10.5836 72.1738 117.5415 0.0000 -1.6392 0.0000
# 4 0.0000 0.0000 0.0000 -16.8067 0.0000 33.3918
# 5 -4.1173 13.6474 -1.6392 0.0000 28.8084 0.0000
# 6 0.0000 0.0000 0.0000 33.3918 0.0000 2.4944
#
#
#
# Elastic Compliance Matrix: (Units=1/GPa)
#
#
# Indices 1 2 3 4 5 6 
#
# 1 0.047995 -0.011601 0.002977 0.000000 0.012525 0.000000
# 2 -0.011601 0.011049 -0.005840 0.000000 -0.007224 0.000000
# 3 0.002977 -0.005840 0.011880 0.000000 0.003868 0.000000
# 4 0.000000 0.000000 0.000000 -0.002156 0.000000 0.028862
# 5 0.012525 -0.007224 0.003868 0.000000 0.040145 0.000000
# 6 0.000000 0.000000 0.000000 0.028862 0.000000 0.014527
#
#
# Mechanical properties :
#
#
# Convention : Reuss Voigt Hill
#
# Bulk Modulus (GPa) = 23.81319 61.46010 42.63664
# Shear Modulus (GPa) = 30.05401 16.46453 23.25927
#
# Velocity S-wave (km/s) = 3.73412 2.76384 3.28500
# Velocity P-wave (km/s) = 5.44425 6.22091 5.84549
#
# Compressibility (1/GPa) = 0.04199354
#
# Stress axis : x y z
#
# Youngs Moduli (GPa) = 20.83544 90.50804 84.17708
#
# Poissons Ratio (x) = 1.05001 -0.25056
# Poissons Ratio (y) = 0.24172 0.49163
# Poissons Ratio (z) = -0.06202 0.52860
#
# Static dielectric constant tensor:
#      x y z
#    x 1.792460 0.000000 0.014120 
#    y 0.000000 1.803110 0.000000 
#    z 0.014120 0.000000 1.809120 
# 
# From -- ./inp_files/17712.got.cif
#   From: 2010.05.17/outbox.cif.g08.bks.cpg/sg12_9_cif.got.tgz:17712.got - 2010.06.03 13:09:07.
