data_PCOD9213065
_publ_section_title
;
Structure prediction by ZEFSAII (Michael W. Deem and Ramdas Pophale) SiO2 
 PCOD9213065
Probable space group: C 2/M
;
_chemical_formula_sum "Si O2"
_cell_formula_units_Z 52
_cell_length_a 15.013958
_cell_length_b 8.899980
_cell_length_c 33.527343
_cell_angle_alpha 90.000000
_cell_angle_beta 142.128576
_cell_angle_gamma 90.000000
_cell_volume 2750.268127
_symmetry_space_group_name_H-M "C 2/M"
_symmetry_group_IT_number 12
_symmetry_cell_setting 'monoclinic'
loop_
_space_group_symop_operation_xyz
x,y,z
-x,y,-z
-x,-y,-z
x,-y,z
1/2+x,1/2+y,z
1/2-x,1/2+y,-z
1/2-x,1/2-y,-z
1/2+x,1/2-y,z
loop_
_atom_site_type_symbol
_atom_site_label
_atom_site_fract_x
_atom_site_fract_y
_atom_site_fract_z
Si Si1 0.426963 0.821232 0.098244
Si Si2 0.488667 0.173101 0.342853
Si Si3 0.594003 0.681253 0.994653
Si Si4 0.104445 0.000000 0.418277
Si Si5 0.169981 0.500000 0.559701
Si Si6 0.187708 0.265165 0.340660
Si Si7 0.354070 0.673415 0.764092
Si Si8 0.438815 0.500000 0.434218
O O1 0.265251 0.777076 0.056463
O O2 0.545529 0.772631 0.172267
O O3 0.426931 0.000000 0.093061
O O4 0.457162 0.746218 0.065954
O O5 0.541290 0.335925 0.380477
O O6 0.560832 0.172407 0.324293
O O7 0.314734 0.184535 0.282972
O O8 0.521912 0.000000 0.371013
O O9 0.584843 0.500000 0.989911
O O10 0.500000 0.730679 0.000000
O O11 0.270280 0.000000 0.463811
O O12 0.076495 0.000000 0.454765
O O13 0.242180 0.634625 0.608670
O O14 0.000000 0.500000 0.500000
O O15 0.134311 0.219218 0.278208
O O16 0.329419 0.366780 0.385833
O O17 0.398349 0.500000 0.783944
O O18 0.500000 0.500000 0.500000
#
# Coordination Sequence:
#
# PCOD9213065 Si02
#       8
#     8   8   8   4   4   8   8   4
#     4  10  22  36  60  94 123 164 208 255 310 367
#     4  10  22  40  64  90 122 166 209 258 323 379
#     4   9  19  40  63  87 126 166 206 253 303 365
#     4  10  22  42  68  90 124 163 203 268 317 384
#     4  10  22  44  64  94 122 162 211 259 320 396
#     4  11  22  42  63  88 126 162 208 265 319 379
#     4  11  23  40  62  89 125 167 211 261 318 378
#     4  12  24  42  64  96 122 159 208 267 324 385
#
# _framework density 18.907247999999999
#
# number of rings (size 3 to 8) (size 9 to 14) (size 15 to 20)
#    0.000    1.692    3.077    0.923    2.154    2.154 
#    2.769    6.923    0.000    0.000    0.000    0.000 
#    0.000    0.000    0.000    0.000    0.000    0.000 
#
# Total GULP energy -144773.663317 kJ/mol
# GULP energy per Si atom -5568.217820 kJ/mol
# Density = 1.886421 g / cm^3
# Si number density = 18.907248 Si / 1000 Ang^3
#
#
#
# Elastic Constant Matrix: (Units=GPa)
#
#
# Indices 1 2 3 4 5 6 
#
# 1 169.7910 34.1083 58.6770 0.0000 -21.0998 0.0000
# 2 34.1083 70.7403 11.1021 0.0000 1.5485 0.0000
# 3 58.6770 11.1021 72.6614 0.0000 -11.8167 0.0000
# 4 0.0000 0.0000 0.0000 52.4175 0.0000 -1.1101
# 5 -21.0998 1.5485 -11.8167 0.0000 17.9403 0.0000
# 6 0.0000 0.0000 0.0000 -1.1101 0.0000 24.6456
#
#
#
# Elastic Compliance Matrix: (Units=1/GPa)
#
#
# Indices 1 2 3 4 5 6 
#
# 1 0.009713 -0.003917 -0.005972 0.000000 0.007828 0.000000
# 2 -0.003917 0.016212 -0.000325 0.000000 -0.006221 0.000000
# 3 -0.005972 -0.000325 0.019596 0.000000 0.005912 0.000000
# 4 0.000000 0.000000 0.000000 0.019096 0.000000 0.000860
# 5 0.007828 -0.006221 0.005912 0.000000 0.069378 0.000000
# 6 0.000000 0.000000 0.000000 0.000860 0.000000 0.040614
#
#
# Mechanical properties :
#
#
# Convention : Reuss Voigt Hill
#
# Bulk Modulus (GPa) = 39.85337 57.88528 48.86933
# Shear Modulus (GPa) = 24.58170 32.95438 28.76804
#
# Velocity S-wave (km/s) = 3.60963 4.17939 3.90492
# Velocity P-wave (km/s) = 6.20457 7.34654 6.79957
#
# Compressibility (1/GPa) = 0.02509198
#
# Stress axis : x y z
#
# Youngs Moduli (GPa) = 102.95205 61.68161 51.02995
#
# Poissons Ratio (x) = 0.24163 0.30476
# Poissons Ratio (y) = 0.40331 0.01660
# Poissons Ratio (z) = 0.61485 0.02006
#
# Static dielectric constant tensor:
#      x y z
#    x 1.635050 0.000000 0.020470 
#    y 0.000000 1.695210 0.000000 
#    z 0.020470 0.000000 1.581440 
# 
# From -- ./inp_files/375741.got.cif
#   From: 2010.05.17/outbox.cif.g08.bks.cpg/sg12_188_cif.got.tgz:375741.got - 2010.06.03 13:09:07.
