data_PCOD9213113
_publ_section_title
;
Structure prediction by ZEFSAII (Michael W. Deem and Ramdas Pophale) SiO2 
 PCOD9213113
Probable space group: C 2/M
;
_chemical_formula_sum "Si O2"
_cell_formula_units_Z 56
_cell_length_a 19.717987
_cell_length_b 8.108645
_cell_length_c 21.489657
_cell_angle_alpha 90.000000
_cell_angle_beta 58.044865
_cell_angle_gamma 90.000000
_cell_volume 2915.232152
_symmetry_space_group_name_H-M "C 2/M"
_symmetry_group_IT_number 12
_symmetry_cell_setting 'monoclinic'
loop_
_space_group_symop_operation_xyz
x,y,z
-x,y,-z
-x,-y,-z
x,-y,z
1/2+x,1/2+y,z
1/2-x,1/2+y,-z
1/2-x,1/2-y,-z
1/2+x,1/2-y,z
loop_
_atom_site_type_symbol
_atom_site_label
_atom_site_fract_x
_atom_site_fract_y
_atom_site_fract_z
Si Si1 0.039910 0.800644 0.207613
Si Si2 0.585818 0.810672 0.448243
Si Si3 0.217453 0.310966 0.822953
Si Si4 0.247390 0.697432 0.429268
Si Si5 0.099097 0.188112 0.309840
Si Si6 0.782711 0.800141 0.917396
Si Si7 0.635863 0.195395 0.738040
O O1 0.045311 0.757756 0.278176
O O2 0.124762 0.745854 0.137038
O O3 0.958137 0.732398 0.219979
O O4 0.037772 0.000000 0.204976
O O5 0.500000 0.729170 0.500000
O O6 0.663787 0.734955 0.441903
O O7 0.597158 0.805084 0.369241
O O8 0.580726 0.000000 0.473591
O O9 0.187264 0.500000 0.844634
O O10 0.310132 0.318545 0.757948
O O11 0.225882 0.237384 0.888330
O O12 0.171477 0.234922 0.786083
O O13 0.245605 0.500000 0.428801
O O14 0.250000 0.750000 0.500000
O O15 0.317621 0.745678 0.346740
O O16 0.077090 0.000000 0.338428
O O17 0.783408 0.000000 0.911995
O O18 0.750000 0.750000 0.000000
O O19 0.649559 0.000000 0.733306
#
# Coordination Sequence:
#
# PCOD9213113 Si02
#       7
#     8   8   8   8   8   8   8
#     4   9  20  36  55  82 114 146 180 224 277 328
#     4  10  22  37  52  75 107 137 174 229 282 319
#     4   8  16  33  56  79 105 140 180 220 266 323
#     4  11  24  40  56  78 112 150 186 231 284 333
#     4   9  17  34  56  75  98 137 183 222 265 324
#     4   9  18  36  60  84 114 146 182 226 270 326
#     4  11  21  36  59  82 109 146 189 233 275 330
#
# _framework density 19.209447000000001
#
# number of rings (size 3 to 8) (size 9 to 14) (size 15 to 20)
#    0.000    2.429    1.429    2.571    2.000    2.000 
#    0.000    4.286    0.000    4.286    0.000    0.000 
#    0.000    0.000    0.000    0.000    0.000    0.000 
#
# Total GULP energy -155949.296575 kJ/mol
# GULP energy per Si atom -5569.617735 kJ/mol
# Density = 1.916573 g / cm^3
# Si number density = 19.209447 Si / 1000 Ang^3
#
#
#
# Elastic Constant Matrix: (Units=GPa)
#
#
# Indices 1 2 3 4 5 6 
#
# 1 146.8742 15.1477 71.9526 -0.0001 17.3636 0.0003
# 2 15.1477 21.7313 14.8784 -0.0003 3.2693 -0.0001
# 3 71.9526 14.8784 117.2987 0.0000 21.4957 -0.0001
# 4 -0.0001 -0.0003 0.0000 26.8752 0.0000 4.0061
# 5 17.3636 3.2693 21.4957 0.0000 27.7336 0.0000
# 6 0.0003 -0.0001 -0.0001 4.0061 0.0000 -5.7525
#
#
#
# Elastic Compliance Matrix: (Units=1/GPa)
#
#
# Indices 1 2 3 4 5 6 
#
# 1 0.009977 -0.002981 -0.005433 0.000000 -0.001684 0.000001
# 2 -0.002981 0.051315 -0.004562 0.000001 -0.000647 0.000000
# 3 -0.005433 -0.004562 0.013654 0.000000 -0.006644 0.000000
# 4 0.000000 0.000001 0.000000 0.033710 0.000000 0.023476
# 5 -0.001684 -0.000647 -0.006644 0.000000 0.042337 0.000000
# 6 0.000001 0.000000 0.000000 0.023476 0.000000 -0.157489
#
#
# Mechanical properties :
#
#
# Convention : Reuss Voigt Hill
#
# Bulk Modulus (GPa) = 20.41063 54.42905 37.41984
# Shear Modulus (GPa) = 139.71397 22.03296 80.87347
#
# Velocity S-wave (km/s) = 8.53755 3.39039 6.49556
# Velocity P-wave (km/s) = 10.38435 6.61229 8.70509
#
# Compressibility (1/GPa) = 0.04899408
#
# Stress axis : x y z
#
# Youngs Moduli (GPa) = 100.23330 19.48743 73.23790
#
# Poissons Ratio (x) = 0.05809 0.39791
# Poissons Ratio (y) = 0.29880 0.33409
# Poissons Ratio (z) = 0.54458 0.08890
#
# Static dielectric constant tensor:
#      x y z
#    x 1.701660 0.000000 0.019960 
#    y 0.000000 1.709550 0.000000 
#    z 0.019960 0.000000 1.685120 
# 
# From -- ./inp_files/313747.got.cif
#   From: 2010.05.17/outbox.cif.g08.bks.cpg/sg12_157_cif.got.tgz:313747.got - 2010.06.03 13:09:07.
