data_PCOD9213246
_publ_section_title
;
Structure prediction by ZEFSAII (Michael W. Deem and Ramdas Pophale) SiO2 
 PCOD9213246
Probable space group: C 2/M
;
_chemical_formula_sum "Si O2"
_cell_formula_units_Z 58
_cell_length_a 9.920676
_cell_length_b 30.529179
_cell_length_c 10.053003
_cell_angle_alpha 90.000000
_cell_angle_beta 108.664409
_cell_angle_gamma 90.000000
_cell_volume 2884.628074
_symmetry_space_group_name_H-M "C 2/M"
_symmetry_group_IT_number 12
_symmetry_cell_setting 'monoclinic'
loop_
_space_group_symop_operation_xyz
x,y,z
-x,y,-z
-x,-y,-z
x,-y,z
1/2+x,1/2+y,z
1/2-x,1/2+y,-z
1/2-x,1/2-y,-z
1/2+x,1/2-y,z
loop_
_atom_site_type_symbol
_atom_site_label
_atom_site_fract_x
_atom_site_fract_y
_atom_site_fract_z
Si Si1 0.500000 0.000000 0.500000
Si Si2 0.458915 0.879345 0.202239
Si Si3 0.487486 0.448759 0.155551
Si Si4 0.316425 0.667744 0.562014
Si Si5 0.089116 0.708322 0.666095
Si Si6 0.727767 0.115349 0.120402
Si Si7 0.287141 0.077143 0.386343
Si Si8 0.632186 0.693672 0.708191
O O1 0.624756 0.961958 0.522630
O O2 0.467619 0.828996 0.253684
O O3 0.610248 0.895293 0.195266
O O4 0.390943 0.905139 0.302965
O O5 0.350546 0.885330 0.045655
O O6 0.454104 0.500000 0.167825
O O7 0.360738 0.417460 0.164966
O O8 0.638037 0.437849 0.272740
O O9 0.500000 0.442175 0.000000
O O10 0.241478 0.692158 0.660350
O O11 0.250776 0.619228 0.535564
O O12 0.483429 0.668122 0.643433
O O13 0.297180 0.692550 0.416367
O O14 0.099564 0.756272 0.731409
O O15 0.000000 0.710637 0.500000
O O16 0.777719 0.165004 0.162875
#
# Coordination Sequence:
#
# PCOD9213246 Si02
#       8
#     2   8   8   8   8   8   8   8
#     4  12  28  40  70 104 128 162 222 274 322 406
#     4  10  25  42  64  92 133 176 214 269 328 388
#     4  11  22  43  71  95 123 166 218 270 321 400
#     4  10  22  37  60  94 125 173 214 263 323 381
#     4  11  22  38  63  90 128 175 225 268 319 387
#     4  11  23  43  64  94 133 171 215 269 331 387
#     4  11  23  45  65  96 131 172 215 266 335 385
#     4  11  22  36  64  93 129 167 219 270 317 384
#
# _framework density 20.106577999999999
#
# number of rings (size 3 to 8) (size 9 to 14) (size 15 to 20)
#    0.000    1.241    4.828    1.241    7.724    0.552 
#    1.241    0.690    3.034    2.483    0.000    0.000 
#    0.000    0.000    0.000    0.000    0.000    0.000 
#
# Total GULP energy -161742.223361 kJ/mol
# GULP energy per Si atom -5577.318047 kJ/mol
# Density = 2.006081 g / cm^3
# Si number density = 20.106578 Si / 1000 Ang^3
#
#
#
# Elastic Constant Matrix: (Units=GPa)
#
#
# Indices 1 2 3 4 5 6 
#
# 1 117.3327 56.3944 17.0269 0.0000 4.5547 0.0000
# 2 56.3944 135.8429 19.0523 0.0000 -1.9795 0.0000
# 3 17.0269 19.0523 27.5221 0.0000 4.9156 0.0000
# 4 0.0000 0.0000 0.0000 23.8536 0.0000 3.8728
# 5 4.5547 -1.9795 4.9156 0.0000 31.1619 0.0000
# 6 0.0000 0.0000 0.0000 3.8728 0.0000 24.3115
#
#
#
# Elastic Compliance Matrix: (Units=1/GPa)
#
#
# Indices 1 2 3 4 5 6 
#
# 1 0.011090 -0.004089 -0.003801 0.000000 -0.001281 0.000000
# 2 -0.004089 0.009725 -0.004548 0.000000 0.001933 0.000000
# 3 -0.003801 -0.004548 0.042998 0.000000 -0.006516 0.000000
# 4 0.000000 0.000000 0.000000 0.043035 0.000000 -0.006855
# 5 -0.001281 0.001933 -0.006516 0.000000 0.033428 0.000000
# 6 0.000000 0.000000 0.000000 -0.006855 0.000000 0.042225
#
#
# Mechanical properties :
#
#
# Convention : Reuss Voigt Hill
#
# Bulk Modulus (GPa) = 25.68272 51.73834 38.71053
# Shear Modulus (GPa) = 22.69058 28.41368 25.55213
#
# Velocity S-wave (km/s) = 3.36298 3.76327 3.56874
# Velocity P-wave (km/s) = 5.28020 6.68363 6.02293
#
# Compressibility (1/GPa) = 0.03893668
#
# Stress axis : x y z
#
# Youngs Moduli (GPa) = 90.17471 102.82696 23.25698
#
# Poissons Ratio (x) = 0.42049 0.08840
# Poissons Ratio (y) = 0.36875 0.10576
# Poissons Ratio (z) = 0.34276 0.46761
#
# Static dielectric constant tensor:
#      x y z
#    x 1.729860 0.000000 0.016530 
#    y 0.000000 1.683210 0.000000 
#    z 0.016530 0.000000 1.708780 
# 
# From -- ./inp_files/125301.got.cif
#   From: 2010.05.17/outbox.cif.g08.bks.cpg/sg12_63_cif.got.tgz:125301.got - 2010.06.03 13:09:07.
