data_PCOD9213158
_publ_section_title
;
Structure prediction by ZEFSAII (Michael W. Deem and Ramdas Pophale) SiO2 
 PCOD9213158
Probable space group: C 2/M
;
_chemical_formula_sum "Si O2"
_cell_formula_units_Z 44
_cell_length_a 8.137154
_cell_length_b 20.481351
_cell_length_c 16.598501
_cell_angle_alpha 90.000000
_cell_angle_beta 125.637730
_cell_angle_gamma 90.000000
_cell_volume 2248.223495
_symmetry_space_group_name_H-M "C 2/M"
_symmetry_group_IT_number 12
_symmetry_cell_setting 'monoclinic'
loop_
_space_group_symop_operation_xyz
x,y,z
-x,y,-z
-x,-y,-z
x,-y,z
1/2+x,1/2+y,z
1/2-x,1/2+y,-z
1/2-x,1/2-y,-z
1/2+x,1/2-y,z
loop_
_atom_site_type_symbol
_atom_site_label
_atom_site_fract_x
_atom_site_fract_y
_atom_site_fract_z
Si Si1 0.060927 0.570631 0.924630
Si Si2 0.689159 0.572147 0.612137
Si Si3 0.587486 0.924917 0.612597
Si Si4 0.000000 0.883466 0.000000
Si Si5 0.779752 0.825300 0.782068
Si Si6 0.869452 0.677562 0.762568
O O1 0.001374 0.500000 0.871083
O O2 0.298692 0.578785 0.971761
O O3 0.947165 0.633695 0.858408
O O4 0.000000 0.568071 0.000000
O O5 0.500000 0.578485 0.500000
O O6 0.675163 0.500000 0.646655
O O7 0.695879 0.633505 0.673371
O O8 0.893668 0.572914 0.616973
O O9 0.500000 0.904012 0.500000
O O10 0.754272 0.877922 0.702186
O O11 0.662227 0.000000 0.625783
O O12 0.072578 0.845222 0.101651
O O13 0.825332 0.752177 0.767714
O O14 0.558255 0.822705 0.756785
#
# Coordination Sequence:
#
# PCOD9213158 Si02
#       6
#     8   8   8   4   8   8
#     4  10  22  39  61  88 117 154 198 247 295 346
#     4   9  18  35  58  82 109 149 191 236 297 345
#     4   9  19  38  59  83 114 146 191 243 290 348
#     4  10  23  40  62  86 121 160 198 246 295 354
#     4  10  23  37  59  85 113 160 192 236 299 347
#     4  10  22  37  56  82 118 152 191 241 287 352
#
# _framework density 19.571007999999999
#
# number of rings (size 3 to 8) (size 9 to 14) (size 15 to 20)
#    0.000    2.364    0.000    0.818    3.818    8.727 
#    0.000    3.636    0.000    0.000    0.000    0.000 
#    0.000    0.000    0.000    0.000    0.000    0.000 
#
# Total GULP energy -122520.524066 kJ/mol
# GULP energy per Si atom -5569.114730 kJ/mol
# Density = 1.952646 g / cm^3
# Si number density = 19.571008 Si / 1000 Ang^3
#
#
#
# Elastic Constant Matrix: (Units=GPa)
#
#
# Indices 1 2 3 4 5 6 
#
# 1 23.3624 15.9911 24.9210 0.0000 -8.3115 0.0000
# 2 15.9911 164.1901 104.2977 0.0000 -7.3221 0.0000
# 3 24.9210 104.2977 144.9645 0.0000 2.3208 0.0000
# 4 0.0000 0.0000 0.0000 52.0916 0.0000 -5.0686
# 5 -8.3115 -7.3221 2.3208 0.0000 22.5133 0.0000
# 6 0.0000 0.0000 0.0000 -5.0686 0.0000 60.1441
#
#
#
# Elastic Compliance Matrix: (Units=1/GPa)
#
#
# Indices 1 2 3 4 5 6 
#
# 1 0.065110 0.004127 -0.014593 0.000000 0.026884 0.000000
# 2 0.004127 0.011950 -0.009410 0.000000 0.006380 0.000000
# 3 -0.014593 -0.009410 0.016339 0.000000 -0.010132 0.000000
# 4 0.000000 0.000000 0.000000 0.019356 0.000000 0.001631
# 5 0.026884 0.006380 -0.010132 0.000000 0.057463 0.000000
# 6 0.000000 0.000000 0.000000 0.001631 0.000000 0.016764
#
#
# Mechanical properties :
#
#
# Convention : Reuss Voigt Hill
#
# Bulk Modulus (GPa) = 18.63976 69.21518 43.92747
# Shear Modulus (GPa) = 20.44029 39.43694 29.93861
#
# Velocity S-wave (km/s) = 3.23525 4.49382 3.91544
# Velocity P-wave (km/s) = 4.84775 7.89740 6.55246
#
# Compressibility (1/GPa) = 0.05364877
#
# Stress axis : x y z
#
# Youngs Moduli (GPa) = 15.35867 83.68054 61.20311
#
# Poissons Ratio (x) = -0.34539 0.89314
# Poissons Ratio (y) = -0.06339 0.57589
# Poissons Ratio (z) = 0.22413 0.78739
#
# Static dielectric constant tensor:
#      x y z
#    x 1.713240 0.000000 -0.035040 
#    y 0.000000 1.790160 0.000000 
#    z -0.035040 0.000000 1.731590 
# 
# From -- ./inp_files/197244.got.cif
#   From: 2010.05.17/outbox.cif.g08.bks.cpg/sg12_99_cif.got.tgz:197244.got - 2010.06.03 13:09:07.
