data_PCOD9213062
_publ_section_title
;
Structure prediction by ZEFSAII (Michael W. Deem and Ramdas Pophale) SiO2 
 PCOD9213062
Probable space group: C 2/M
;
_chemical_formula_sum "Si O2"
_cell_formula_units_Z 40
_cell_length_a 14.106765
_cell_length_b 30.689836
_cell_length_c 5.408224
_cell_angle_alpha 90.000000
_cell_angle_beta 69.602962
_cell_angle_gamma 90.000000
_cell_volume 2194.599577
_symmetry_space_group_name_H-M "C 2/M"
_symmetry_group_IT_number 12
_symmetry_cell_setting 'monoclinic'
loop_
_space_group_symop_operation_xyz
x,y,z
-x,y,-z
-x,-y,-z
x,-y,z
1/2+x,1/2+y,z
1/2-x,1/2+y,-z
1/2-x,1/2-y,-z
1/2+x,1/2-y,z
loop_
_atom_site_type_symbol
_atom_site_label
_atom_site_fract_x
_atom_site_fract_y
_atom_site_fract_z
Si Si1 0.728246 0.845368 0.723978
Si Si2 0.883853 0.326193 0.682925
Si Si3 0.608837 0.723112 0.271755
Si Si4 0.000000 0.833577 0.000000
Si Si5 0.066793 0.000000 0.692655
Si Si6 0.601993 0.594552 0.564986
O O1 0.678906 0.842101 0.498189
O O2 0.799437 0.802936 0.691994
O O3 0.804096 0.886201 0.669050
O O4 0.650917 0.846519 0.024471
O O5 0.870771 0.274189 0.739997
O O6 0.000000 0.333293 0.500000
O O7 0.500000 0.715809 0.500000
O O8 0.583492 0.699091 0.038853
O O9 0.931531 0.867411 0.217167
O O10 0.124478 0.953729 0.644417
O O11 0.000000 0.000000 0.500000
O O12 0.000000 0.000000 0.000000
O O13 0.500000 0.590361 0.500000
#
# Coordination Sequence:
#
# PCOD9213062 Si02
#       6
#     8   8   8   4   4   8
#     4  12  22  40  60  84 111 160 201 249 292 352
#     4  11  27  40  56  78 117 157 214 256 291 318
#     4  11  23  34  56  85 119 157 197 243 290 352
#     4  12  18  35  58  82 132 156 192 223 290 344
#     4  10  22  36  60  90 129 156 175 226 294 376
#     4  11  22  37  60  92 125 154 188 232 298 370
#
# _framework density 18.226558000000001
#
# number of rings (size 3 to 8) (size 9 to 14) (size 15 to 20)
#    0.000    0.800    5.000    3.000    5.600    0.000 
#    0.000    0.000    0.000    0.000    0.000    4.200 
#    0.000    0.000    0.000    0.000    0.000    0.000 
#
# Total GULP energy -111536.344737 kJ/mol
# GULP energy per Si atom -5576.817237 kJ/mol
# Density = 1.818507 g / cm^3
# Si number density = 18.226558 Si / 1000 Ang^3
#
#
#
# Elastic Constant Matrix: (Units=GPa)
#
#
# Indices 1 2 3 4 5 6 
#
# 1 50.1688 35.9557 11.4567 0.0000 5.1402 0.0000
# 2 35.9557 95.2953 50.1710 0.0000 -16.1321 0.0000
# 3 11.4567 50.1710 109.4171 0.0000 -11.2586 0.0000
# 4 0.0000 0.0000 0.0000 15.7094 0.0000 5.0789
# 5 5.1402 -16.1321 -11.2586 0.0000 34.2197 0.0000
# 6 0.0000 0.0000 0.0000 5.0789 0.0000 -1.6843
#
#
#
# Elastic Compliance Matrix: (Units=1/GPa)
#
#
# Indices 1 2 3 4 5 6 
#
# 1 0.031161 -0.014888 0.002443 0.000000 -0.010896 0.000000
# 2 -0.014888 0.021679 -0.007349 0.000000 0.010039 0.000000
# 3 0.002443 -0.007349 0.012275 0.000000 0.000207 0.000000
# 4 0.000000 0.000000 0.000000 0.032233 0.000000 0.097196
# 5 -0.010896 0.010039 0.000207 0.000000 0.035660 0.000000
# 6 0.000000 0.000000 0.000000 0.097196 0.000000 -0.300635
#
#
# Mechanical properties :
#
#
# Convention : Reuss Voigt Hill
#
# Bulk Modulus (GPa) = 39.17412 50.00533 44.58973
# Shear Modulus (GPa) = -41.83049 20.13549 -10.84750
#
# Velocity S-wave (km/s) = -4.79584 3.32736 -2.44221
# Velocity P-wave (km/s) = 3.02114 6.50052 4.06998
#
# Compressibility (1/GPa) = 0.02552706
#
# Stress axis : x y z
#
# Youngs Moduli (GPa) = 32.09113 46.12667 81.46929
#
# Poissons Ratio (x) = 0.68673 -0.19900
# Poissons Ratio (y) = 0.47777 0.59871
# Poissons Ratio (z) = -0.07839 0.33898
#
# Static dielectric constant tensor:
#      x y z
#    x 1.657790 0.000000 0.020380 
#    y 0.000000 1.631250 0.000000 
#    z 0.020380 0.000000 1.753960 
# 
# From -- ./inp_files/8346.got.cif
#   From: 2010.05.17/outbox.cif.g08.bks.cpg/sg12_5_cif.got.tgz:8346.got - 2010.06.03 13:09:07.
