data_PCOD9213144
_publ_section_title
;
Structure prediction by ZEFSAII (Michael W. Deem and Ramdas Pophale) SiO2 
 PCOD9213144
Probable space group: C 2/M
;
_chemical_formula_sum "Si O2"
_cell_formula_units_Z 48
_cell_length_a 13.924916
_cell_length_b 22.315614
_cell_length_c 11.686538
_cell_angle_alpha 90.000000
_cell_angle_beta 49.132433
_cell_angle_gamma 90.000000
_cell_volume 2746.235271
_symmetry_space_group_name_H-M "C 2/M"
_symmetry_group_IT_number 12
_symmetry_cell_setting 'monoclinic'
loop_
_space_group_symop_operation_xyz
x,y,z
-x,y,-z
-x,-y,-z
x,-y,z
1/2+x,1/2+y,z
1/2-x,1/2+y,-z
1/2-x,1/2-y,-z
1/2+x,1/2-y,z
loop_
_atom_site_type_symbol
_atom_site_label
_atom_site_fract_x
_atom_site_fract_y
_atom_site_fract_z
Si Si1 0.147938 0.356813 0.870761
Si Si2 0.193739 0.431821 0.055701
Si Si3 0.604686 0.066604 0.685857
Si Si4 0.855742 0.068799 0.153300
Si Si5 0.240346 0.158068 0.583240
Si Si6 0.144486 0.781582 0.430253
O O1 0.136212 0.411054 0.788982
O O2 0.249483 0.311376 0.736045
O O3 0.199686 0.384288 0.948474
O O4 0.000000 0.334517 0.000000
O O5 0.230552 0.500000 0.990720
O O6 0.272773 0.416104 0.106264
O O7 0.046460 0.434088 0.204958
O O8 0.660975 0.113984 0.554943
O O9 0.655015 0.000000 0.626793
O O10 0.834177 0.117306 0.268593
O O11 0.822920 0.000000 0.214502
O O12 0.000000 0.068846 0.000000
O O13 0.157891 0.186282 0.543908
O O14 0.313642 0.212898 0.585160
O O15 0.000000 0.787074 0.500000
#
# Coordination Sequence:
#
# PCOD9213144 Si02
#       6
#     8   8   8   8   8   8
#     4   9  18  35  58  83 116 141 181 229 273 326
#     4   9  18  32  55  85 111 141 178 221 277 335
#     4   9  17  32  59  87 108 137 177 227 282 326
#     4  10  22  37  55  81 113 147 179 222 279 334
#     4  10  22  39  57  78 113 142 185 229 272 322
#     4  10  23  39  59  81 107 150 191 228 272 315
#
# _framework density 17.478473999999999
#
# number of rings (size 3 to 8) (size 9 to 14) (size 15 to 20)
#    0.000    2.500    0.000    1.000    4.667    2.667 
#    0.000    3.333    0.000    3.000    0.000    0.000 
#    0.000    0.000    0.000    0.000    0.000    0.000 
#
# Total GULP energy -133767.862921 kJ/mol
# GULP energy per Si atom -5573.660955 kJ/mol
# Density = 1.743869 g / cm^3
# Si number density = 17.478474 Si / 1000 Ang^3
#
#
#
# Elastic Constant Matrix: (Units=GPa)
#
#
# Indices 1 2 3 4 5 6 
#
# 1 86.2600 58.6697 50.2675 0.0000 -1.4440 0.0000
# 2 58.6697 119.2391 63.1909 0.0000 3.8969 0.0000
# 3 50.2675 63.1909 89.7788 0.0000 8.1588 0.0000
# 4 0.0000 0.0000 0.0000 -7.8863 0.0000 -1.0312
# 5 -1.4440 3.8969 8.1588 0.0000 16.2905 0.0000
# 6 0.0000 0.0000 0.0000 -1.0312 0.0000 4.2637
#
#
#
# Elastic Compliance Matrix: (Units=1/GPa)
#
#
# Indices 1 2 3 4 5 6 
#
# 1 0.020428 -0.006186 -0.007734 0.000000 0.007164 0.000000
# 2 -0.006186 0.015289 -0.007245 0.000000 -0.000577 0.000000
# 3 -0.007734 -0.007245 0.021449 0.000000 -0.009695 0.000000
# 4 0.000000 0.000000 0.000000 -0.122915 0.000000 -0.029728
# 5 0.007164 -0.000577 -0.009695 0.000000 0.067014 0.000000
# 6 0.000000 0.000000 0.000000 -0.029728 0.000000 0.227350
#
#
# Mechanical properties :
#
#
# Convention : Reuss Voigt Hill
#
# Bulk Modulus (GPa) = 67.40942 71.05933 69.23438
# Shear Modulus (GPa) = 18.12321 10.74357 14.43339
#
# Velocity S-wave (km/s) = 3.22357 2.48195 2.87676
# Velocity P-wave (km/s) = 7.24610 6.99693 7.12261
#
# Compressibility (1/GPa) = 0.01483472
#
# Stress axis : x y z
#
# Youngs Moduli (GPa) = 48.95360 65.40817 46.62205
#
# Poissons Ratio (x) = 0.40464 0.36058
# Poissons Ratio (y) = 0.30285 0.33776
# Poissons Ratio (z) = 0.37862 0.47386
#
# Static dielectric constant tensor:
#      x y z
#    x 1.586210 0.000000 0.011950 
#    y 0.000000 1.595910 0.000000 
#    z 0.011950 0.000000 1.582080 
# 
# From -- ./inp_files/135197.got.cif
#   From: 2010.05.17/outbox.cif.g08.bks.cpg/sg12_68_cif.got.tgz:135197.got - 2010.06.03 13:09:07.
