data_PCOD9213163
_publ_section_title
;
Structure prediction by ZEFSAII (Michael W. Deem and Ramdas Pophale) SiO2 
 PCOD9213163
Probable space group: C 2/M
;
_chemical_formula_sum "Si O2"
_cell_formula_units_Z 40
_cell_length_a 31.692904
_cell_length_b 10.386661
_cell_length_c 6.699221
_cell_angle_alpha 90.000000
_cell_angle_beta 56.387450
_cell_angle_gamma 90.000000
_cell_volume 1836.551103
_symmetry_space_group_name_H-M "C 2/M"
_symmetry_group_IT_number 12
_symmetry_cell_setting 'monoclinic'
loop_
_space_group_symop_operation_xyz
x,y,z
-x,y,-z
-x,-y,-z
x,-y,z
1/2+x,1/2+y,z
1/2-x,1/2+y,-z
1/2-x,1/2-y,-z
1/2+x,1/2-y,z
loop_
_atom_site_type_symbol
_atom_site_label
_atom_site_fract_x
_atom_site_fract_y
_atom_site_fract_z
Si Si1 0.279265 0.196330 0.233306
Si Si2 0.084119 0.843243 0.743697
Si Si3 0.891268 0.640513 0.995779
Si Si4 0.183124 0.138351 0.232766
Si Si5 0.455567 0.853300 0.453372
O O1 0.250000 0.250000 0.500000
O O2 0.330806 0.133543 0.176187
O O3 0.234676 0.129748 0.225128
O O4 0.302134 0.291747 0.007994
O O5 0.087141 0.762867 0.941470
O O6 0.138904 0.816036 0.496327
O O7 0.045980 0.762717 0.700650
O O8 0.076416 0.000000 0.779695
O O9 0.912244 0.500000 0.007346
O O10 0.905872 0.652688 0.724851
O O11 0.163985 0.000000 0.216930
O O12 0.500000 0.839557 0.500000
O O13 0.458161 0.000000 0.362809
#
# Coordination Sequence:
#
# PCOD9213163 Si02
#       5
#     8   8   8   8   8
#     4  11  21  38  57  88 123 164 208 246 299 364
#     4  11  23  41  64  92 126 163 203 251 307 370
#     4  11  23  40  64  94 125 163 209 255 304 364
#     4  10  22  37  56  85 124 163 204 250 299 359
#     4  10  23  45  69  91 120 160 207 260 313 365
#
# _framework density 21.779955000000001
#
# number of rings (size 3 to 8) (size 9 to 14) (size 15 to 20)
#    0.000    1.400    4.000    1.200    0.000    4.400 
#    0.000    4.000    0.000    0.000    0.000    0.000 
#    0.000    0.000    0.000    0.000    0.000    0.000 
#
# Total GULP energy -111374.697963 kJ/mol
# GULP energy per Si atom -5568.734898 kJ/mol
# Density = 2.173038 g / cm^3
# Si number density = 21.779955 Si / 1000 Ang^3
#
#
#
# Elastic Constant Matrix: (Units=GPa)
#
#
# Indices 1 2 3 4 5 6 
#
# 1 73.7054 30.4105 -0.0653 0.0000 4.8767 0.0000
# 2 30.4105 148.4343 53.2435 0.0000 36.1464 0.0000
# 3 -0.0653 53.2435 66.2270 0.0000 6.1857 0.0000
# 4 0.0000 0.0000 0.0000 215.8218 0.0000 145.9655
# 5 4.8767 36.1464 6.1857 0.0000 40.6635 0.0000
# 6 0.0000 0.0000 0.0000 145.9655 0.0000 127.6979
#
#
#
# Elastic Compliance Matrix: (Units=1/GPa)
#
#
# Indices 1 2 3 4 5 6 
#
# 1 0.015534 -0.005090 0.003914 0.000000 0.002066 0.000000
# 2 -0.005090 0.013955 -0.010268 0.000000 -0.010232 0.000000
# 3 0.003914 -0.010268 0.022875 0.000000 0.005178 0.000000
# 4 0.000000 0.000000 0.000000 0.020418 0.000000 -0.023339
# 5 0.002066 -0.010232 0.005178 0.000000 0.032652 0.000000
# 6 0.000000 0.000000 0.000000 -0.023339 0.000000 0.034509
#
#
# Mechanical properties :
#
#
# Convention : Reuss Voigt Hill
#
# Bulk Modulus (GPa) = 33.92531 50.61601 42.27066
# Shear Modulus (GPa) = 28.95927 90.48851 59.72389
#
# Velocity S-wave (km/s) = 3.65036 6.45267 5.24223
# Velocity P-wave (km/s) = 5.77729 8.87728 7.48943
#
# Compressibility (1/GPa) = 0.02947652
#
# Stress axis : x y z
#
# Youngs Moduli (GPa) = 64.37365 71.66051 43.71594
#
# Poissons Ratio (x) = 0.36473 -0.17112
# Poissons Ratio (y) = 0.32764 0.44889
# Poissons Ratio (z) = -0.25197 0.73583
#
# Static dielectric constant tensor:
#      x y z
#    x 1.847090 0.000000 -0.021010 
#    y 0.000000 1.849630 0.000000 
#    z -0.021010 0.000000 1.812430 
# 
# From -- ./inp_files/27399.got.cif
#   From: 2010.05.17/outbox.cif.g08.bks.cpg/sg12_14_cif.got.tgz:27399.got - 2010.06.03 13:09:07.
