data_PCOD9213067
_publ_section_title
;
Structure prediction by ZEFSAII (Michael W. Deem and Ramdas Pophale) SiO2 
 PCOD9213067
Probable space group: C 2/M
;
_chemical_formula_sum "Si O2"
_cell_formula_units_Z 52
_cell_length_a 24.788065
_cell_length_b 8.942795
_cell_length_c 17.275324
_cell_angle_alpha 90.000000
_cell_angle_beta 146.152360
_cell_angle_gamma 90.000000
_cell_volume 2132.979431
_symmetry_space_group_name_H-M "C 2/M"
_symmetry_group_IT_number 12
_symmetry_cell_setting 'monoclinic'
loop_
_space_group_symop_operation_xyz
x,y,z
-x,y,-z
-x,-y,-z
x,-y,z
1/2+x,1/2+y,z
1/2-x,1/2+y,-z
1/2-x,1/2-y,-z
1/2+x,1/2-y,z
loop_
_atom_site_type_symbol
_atom_site_label
_atom_site_fract_x
_atom_site_fract_y
_atom_site_fract_z
Si Si1 0.379260 0.670923 0.406070
Si Si2 0.109723 0.669963 0.304199
Si Si3 0.576446 0.500000 0.822141
Si Si4 0.269233 0.172350 0.398369
Si Si5 0.858549 0.000000 0.935987
Si Si6 0.209910 0.500000 0.888864
Si Si7 0.071911 0.330073 0.012172
Si Si8 0.933035 0.246215 0.304016
O O1 0.409234 0.500000 0.457890
O O2 0.290473 0.716437 0.353301
O O3 0.374083 0.680573 0.307489
O O4 0.463998 0.784526 0.534846
O O5 0.141265 0.500000 0.320834
O O6 0.170928 0.783977 0.325063
O O7 0.146510 0.689473 0.435869
O O8 0.997598 0.677228 0.146814
O O9 0.566985 0.500000 0.901931
O O10 0.538297 0.640320 0.731614
O O11 0.693003 0.500000 0.946197
O O12 0.266437 0.000000 0.369146
O O13 0.876160 0.165803 0.921430
O O14 0.753394 0.000000 0.852954
O O15 0.139806 0.363359 0.817668
O O16 0.119249 0.500000 0.066212
O O17 0.000000 0.334293 0.000000
#
# Coordination Sequence:
#
# PCOD9213067 Si02
#       8
#     8   8   4   8   4   4   8   8
#     4  11  23  39  65  91 125 171 212 265 325 390
#     4   9  20  40  60  89 130 161 204 256 315 391
#     4  10  22  46  65  92 123 172 219 265 330 387
#     4  10  22  36  60  96 122 162 205 257 323 382
#     4  10  25  42  64 103 120 171 224 270 323 390
#     4  10  26  40  65  93 127 165 217 277 327 387
#     4  10  22  43  68  95 131 172 213 265 327 389
#     4  11  22  44  63  90 128 164 215 268 327 389
#
# _framework density 24.379045000000001
#
# number of rings (size 3 to 8) (size 9 to 14) (size 15 to 20)
#    0.462    1.385    1.538    1.615    5.385    2.462 
#    2.769    1.538    0.000    0.000    0.000    0.000 
#    0.000    0.000    0.000    0.000    0.000    0.000 
#
# Total GULP energy -145038.334470 kJ/mol
# GULP energy per Si atom -5578.397480 kJ/mol
# Density = 2.432356 g / cm^3
# Si number density = 24.379045 Si / 1000 Ang^3
#
#
#
# Elastic Constant Matrix: (Units=GPa)
#
#
# Indices 1 2 3 4 5 6 
#
# 1 56.2232 31.6972 -17.8514 0.0000 -12.8508 0.0000
# 2 31.6972 119.9913 12.8555 0.0000 7.0142 0.0000
# 3 -17.8514 12.8555 75.9525 0.0000 -3.9338 0.0000
# 4 0.0000 0.0000 0.0000 22.5722 0.0000 6.4797
# 5 -12.8508 7.0142 -3.9338 0.0000 26.6786 0.0000
# 6 0.0000 0.0000 0.0000 6.4797 0.0000 13.5334
#
#
#
# Elastic Compliance Matrix: (Units=1/GPa)
#
#
# Indices 1 2 3 4 5 6 
#
# 1 0.031355 -0.010502 0.010150 0.000000 0.019361 0.000000
# 2 -0.010502 0.012169 -0.004994 0.000000 -0.008994 0.000000
# 3 0.010150 -0.004994 0.016847 0.000000 0.008686 0.000000
# 4 0.000000 0.000000 0.000000 0.051362 0.000000 -0.024591
# 5 0.019361 -0.008994 0.008686 0.000000 0.050455 0.000000
# 6 0.000000 0.000000 0.000000 -0.024591 0.000000 0.085665
#
#
# Mechanical properties :
#
#
# Convention : Reuss Voigt Hill
#
# Bulk Modulus (GPa) = 20.12939 33.95219 27.04079
# Shear Modulus (GPa) = 18.17494 27.58788 22.88141
#
# Velocity S-wave (km/s) = 2.73337 3.36761 3.06693
# Velocity P-wave (km/s) = 4.27043 5.39241 4.86388
#
# Compressibility (1/GPa) = 0.04967860
#
# Stress axis : x y z
#
# Youngs Moduli (GPa) = 31.89286 82.17614 59.35844
#
# Poissons Ratio (x) = 0.86301 -0.60248
# Poissons Ratio (y) = 0.33494 0.29643
# Poissons Ratio (z) = -0.32371 0.41038
#
# Static dielectric constant tensor:
#      x y z
#    x 1.906680 0.000000 -0.004510 
#    y 0.000000 2.088180 0.000000 
#    z -0.004510 0.000000 1.968210 
# 
# From -- ./inp_files/292318.got.cif
#   From: 2010.05.17/outbox.cif.g08.bks.cpg/sg12_147_cif.got.tgz:292318.got - 2010.06.03 13:09:07.
