data_PCOD9213187
_publ_section_title
;
Structure prediction by ZEFSAII (Michael W. Deem and Ramdas Pophale) SiO2 
 PCOD9213187
Probable space group: C 2/M
;
_chemical_formula_sum "Si O2"
_cell_formula_units_Z 48
_cell_length_a 15.840149
_cell_length_b 15.355327
_cell_length_c 14.412541
_cell_angle_alpha 90.000000
_cell_angle_beta 34.922785
_cell_angle_gamma 90.000000
_cell_volume 2006.841729
_symmetry_space_group_name_H-M "C 2/M"
_symmetry_group_IT_number 12
_symmetry_cell_setting 'monoclinic'
loop_
_space_group_symop_operation_xyz
x,y,z
-x,y,-z
-x,-y,-z
x,-y,z
1/2+x,1/2+y,z
1/2-x,1/2+y,-z
1/2-x,1/2-y,-z
1/2+x,1/2-y,z
loop_
_atom_site_type_symbol
_atom_site_label
_atom_site_fract_x
_atom_site_fract_y
_atom_site_fract_z
Si Si1 0.148639 0.852810 0.831666
Si Si2 0.162871 0.188818 0.505545
Si Si3 0.090912 0.368334 0.506157
Si Si4 0.353516 0.395258 0.808111
Si Si5 0.677386 0.101353 0.147376
Si Si6 0.150938 0.651837 0.819813
O O1 0.241656 0.895870 0.665097
O O2 0.251532 0.848858 0.829964
O O3 0.113562 0.753761 0.835137
O O4 0.000000 0.896675 0.000000
O O5 0.250000 0.250000 0.500000
O O6 0.097878 0.263819 0.496510
O O7 0.272492 0.127554 0.347135
O O8 0.018700 0.140366 0.672986
O O9 0.000000 0.402603 0.500000
O O10 0.998464 0.391585 0.680181
O O11 0.357096 0.500000 0.801214
O O12 0.276282 0.361948 0.784098
O O13 0.247053 0.367764 0.988971
O O14 0.716418 0.000000 0.123117
O O15 0.000000 0.612757 0.000000
#
# Coordination Sequence:
#
# PCOD9213187 Si02
#       6
#     8   8   8   8   8   8
#     4   9  19  35  60  90 126 159 210 272 323 380
#     4  11  24  40  67  98 122 164 219 269 323 386
#     4   9  19  37  59  87 121 159 210 268 317 384
#     4  11  25  43  65  93 134 177 215 265 329 394
#     4  10  22  37  57  88 124 170 212 254 324 391
#     4  10  23  42  66  99 124 166 219 270 328 387
#
# _framework density 23.918178999999999
#
# number of rings (size 3 to 8) (size 9 to 14) (size 15 to 20)
#    0.000    2.000    0.000    3.500    9.333    6.333 
#    0.000    0.833    0.000    0.000    0.000    0.000 
#    0.000    0.000    0.000    0.000    0.000    0.000 
#
# Total GULP energy -133874.930042 kJ/mol
# GULP energy per Si atom -5578.122085 kJ/mol
# Density = 2.386374 g / cm^3
# Si number density = 23.918179 Si / 1000 Ang^3
#
#
#
# Elastic Constant Matrix: (Units=GPa)
#
#
# Indices 1 2 3 4 5 6 
#
# 1 95.9008 -5.7886 56.1903 -0.0001 -2.7948 0.0001
# 2 -5.7886 56.9978 15.6314 0.0000 -5.3998 0.0000
# 3 56.1903 15.6314 284.6751 -0.0002 -3.7668 0.0002
# 4 -0.0001 0.0000 -0.0002 -9.6974 0.0002 -15.2789
# 5 -2.7948 -5.3998 -3.7668 0.0002 34.3287 -0.0001
# 6 0.0001 0.0000 0.0002 -15.2789 -0.0001 -25.4247
#
#
#
# Elastic Compliance Matrix: (Units=1/GPa)
#
#
# Indices 1 2 3 4 5 6 
#
# 1 0.012025 0.001995 -0.002469 -0.000002 0.001022 0.000001
# 2 0.001995 0.018397 -0.001366 0.000000 0.002906 0.000000
# 3 -0.002469 -0.001366 0.004076 -0.000001 0.000031 0.000001
# 4 -0.000002 0.000000 -0.000001 -1.939407 0.000013 1.165482
# 5 0.001022 0.002906 0.000031 0.000013 0.029674 -0.000008
# 6 0.000001 0.000000 0.000001 1.165482 -0.000008 -0.739726
#
#
# Mechanical properties :
#
#
# Convention : Reuss Voigt Hill
#
# Bulk Modulus (GPa) = 32.44896 63.29332 47.87114
# Shear Modulus (GPa) = -1.92233 24.61068 11.34418
#
# Velocity S-wave (km/s) = -0.89747 3.21121 2.18018
# Velocity P-wave (km/s) = 3.53867 6.34579 5.13766
#
# Compressibility (1/GPa) = 0.03081763
#
# Stress axis : x y z
#
# Youngs Moduli (GPa) = 83.16297 54.35663 245.36197
#
# Poissons Ratio (x) = -0.10845 0.60592
# Poissons Ratio (y) = -0.16593 0.33505
# Poissons Ratio (z) = 0.20537 0.07423
#
# Static dielectric constant tensor:
#      x y z
#    x 1.943540 0.000000 -0.010880 
#    y 0.000000 1.896830 0.000000 
#    z -0.010880 0.000000 2.059740 
# 
# From -- ./inp_files/226740.got.cif
#   From: 2010.05.17/outbox.cif.g08.bks.cpg/sg12_114_cif.got.tgz:226740.got - 2010.06.03 13:09:07.
