data_PCOD9213582
_publ_section_title
;
Structure prediction by ZEFSAII (Michael W. Deem and Ramdas Pophale) SiO2 
 PCOD9213582
Probable space group: C 2/M
;
_chemical_formula_sum "Si O2"
_cell_formula_units_Z 48
_cell_length_a 11.267000
_cell_length_b 25.206556
_cell_length_c 15.676769
_cell_angle_alpha 90.000000
_cell_angle_beta 32.468622
_cell_angle_gamma 90.000000
_cell_volume 2390.128923
_symmetry_space_group_name_H-M "C 2/M"
_symmetry_group_IT_number 12
_symmetry_cell_setting 'monoclinic'
loop_
_space_group_symop_operation_xyz
x,y,z
-x,y,-z
-x,-y,-z
x,-y,z
1/2+x,1/2+y,z
1/2-x,1/2+y,-z
1/2-x,1/2-y,-z
1/2+x,1/2-y,z
loop_
_atom_site_type_symbol
_atom_site_label
_atom_site_fract_x
_atom_site_fract_y
_atom_site_fract_z
Si Si1 0.360681 0.193107 0.416703
Si Si2 0.661545 0.271879 0.823750
Si Si3 0.051452 0.936610 0.069397
Si Si4 0.740631 0.337425 0.312586
Si Si5 0.267628 0.644560 0.348003
Si Si6 0.980616 0.439208 0.115066
O O1 0.250000 0.250000 0.500000
O O2 0.607132 0.200509 0.298709
O O3 0.389304 0.175681 0.303548
O O4 0.217767 0.151445 0.558737
O O5 0.705422 0.209522 0.785600
O O6 0.611674 0.302925 0.765590
O O7 0.500000 0.281468 0.000000
O O8 0.882241 0.904177 0.231483
O O9 0.016443 0.000000 0.096122
O O10 0.295180 0.927032 0.965035
O O11 0.000000 0.922163 0.000000
O O12 0.500000 0.330524 0.500000
O O13 0.797144 0.395701 0.248070
O O14 0.000000 0.641693 0.500000
O O15 0.921070 0.500000 0.172471
O O16 0.000000 0.436647 0.000000
#
# Coordination Sequence:
#
# PCOD9213582 Si02
#       6
#     8   8   8   8   8   8
#     4  11  22  41  58  88 132 167 206 264 318 386
#     4  11  23  38  59  92 127 165 211 261 326 386
#     4  10  23  44  68  95 127 166 218 277 327 378
#     4  12  24  40  65  92 126 174 219 263 322 391
#     4  10  22  38  61  89 127 167 202 259 326 381
#     4  10  25  47  67  93 130 171 221 275 325 381
#
# _framework density 20.082598999999998
#
# number of rings (size 3 to 8) (size 9 to 14) (size 15 to 20)
#    0.000    1.333    3.333    1.500    9.333    2.667 
#    0.000    0.833    0.000    0.000    0.000    0.000 
#    0.000    0.000    0.000    0.000    0.000    0.000 
#
# Total GULP energy -133661.044361 kJ/mol
# GULP energy per Si atom -5569.210182 kJ/mol
# Density = 2.003689 g / cm^3
# Si number density = 20.082599 Si / 1000 Ang^3
#
#
#
# Elastic Constant Matrix: (Units=GPa)
#
#
# Indices 1 2 3 4 5 6 
#
# 1 59.0286 4.8046 5.4772 0.0052 10.0624 -0.0048
# 2 4.8046 82.0208 40.3209 -0.0032 0.4384 -0.0006
# 3 5.4772 40.3209 92.2755 0.0117 4.8554 -0.0147
# 4 0.0052 -0.0032 0.0117 43.2207 -0.0070 3.9115
# 5 10.0624 0.4384 4.8554 -0.0070 13.1852 0.0052
# 6 -0.0048 -0.0006 -0.0147 3.9115 0.0052 21.6505
#
#
#
# Elastic Compliance Matrix: (Units=1/GPa)
#
#
# Indices 1 2 3 4 5 6 
#
# 1 0.019568 -0.001123 0.000115 -0.000006 -0.014939 0.000009
# 2 -0.001123 0.015645 -0.006921 0.000004 0.002886 -0.000006
# 3 0.000115 -0.006921 0.014121 -0.000006 -0.005058 0.000012
# 4 -0.000006 0.000004 -0.000006 0.023522 0.000021 -0.004250
# 5 -0.014939 0.002886 -0.005058 0.000021 0.089010 -0.000032
# 6 0.000009 -0.000006 0.000012 -0.004250 -0.000032 0.046956
#
#
# Mechanical properties :
#
#
# Convention : Reuss Voigt Hill
#
# Bulk Modulus (GPa) = 29.87258 37.17004 33.52131
# Shear Modulus (GPa) = 21.20091 27.79273 24.49682
#
# Velocity S-wave (km/s) = 3.25266 3.72414 3.49636
# Velocity P-wave (km/s) = 5.38642 6.08614 5.74694
#
# Compressibility (1/GPa) = 0.03347552
#
# Stress axis : x y z
#
# Youngs Moduli (GPa) = 51.10321 63.91849 70.81749
#
# Poissons Ratio (x) = 0.07179 -0.00816
# Poissons Ratio (y) = 0.05739 0.49016
# Poissons Ratio (z) = -0.00589 0.44241
#
# Static dielectric constant tensor:
#      x y z
#    x 2.216490 0.000010 0.038040 
#    y 0.000010 1.729830 0.000000 
#    z 0.038040 0.000000 1.666370 
# 
# From -- ./inp_files/99821.got.cif
#   From: 2010.05.17/outbox.cif.g08.bks.cpg/sg12_50_cif.got.tgz:99821.got - 2010.06.03 13:09:07.
