data_PCOD9213391
_publ_section_title
;
Structure prediction by ZEFSAII (Michael W. Deem and Ramdas Pophale) SiO2 
 PCOD9213391
Probable space group: C 2/M
;
_chemical_formula_sum "Si O2"
_cell_formula_units_Z 64
_cell_length_a 8.456715
_cell_length_b 13.993522
_cell_length_c 28.405442
_cell_angle_alpha 90.000000
_cell_angle_beta 63.015324
_cell_angle_gamma 90.000000
_cell_volume 2995.506932
_symmetry_space_group_name_H-M "C 2/M"
_symmetry_group_IT_number 12
_symmetry_cell_setting 'monoclinic'
loop_
_space_group_symop_operation_xyz
x,y,z
-x,y,-z
-x,-y,-z
x,-y,z
1/2+x,1/2+y,z
1/2-x,1/2+y,-z
1/2-x,1/2-y,-z
1/2+x,1/2-y,z
loop_
_atom_site_type_symbol
_atom_site_label
_atom_site_fract_x
_atom_site_fract_y
_atom_site_fract_z
Si Si1 0.784143 0.114177 0.635233
Si Si2 0.122734 0.791649 0.816997
Si Si3 0.946909 0.218761 0.460187
Si Si4 0.147552 0.888606 0.713971
Si Si5 0.575734 0.187336 0.036281
Si Si6 0.965138 0.613370 0.605656
Si Si7 0.261030 0.888261 0.253861
Si Si8 0.780653 0.701587 0.889432
O O1 0.641666 0.133491 0.612992
O O2 0.698074 0.141144 0.697606
O O3 0.972297 0.160926 0.594925
O O4 0.809975 0.000000 0.634994
O O5 0.150278 0.844357 0.764845
O O6 0.165548 0.681484 0.796578
O O7 0.244089 0.835489 0.841742
O O8 0.919964 0.787933 0.861831
O O9 0.750000 0.250000 0.500000
O O10 0.037852 0.322057 0.439973
O O11 0.000000 0.162546 0.500000
O O12 0.298764 0.852986 0.659054
O O13 0.951650 0.878574 0.719864
O O14 0.185851 0.000000 0.714418
O O15 0.410179 0.256788 0.070000
O O16 0.635235 0.142178 0.078484
O O17 0.500000 0.133385 0.000000
O O18 0.750000 0.250000 0.000000
O O19 0.956463 0.500000 0.597926
O O20 0.308172 0.000000 0.240191
#
# Coordination Sequence:
#
# PCOD9213391 Si02
#       8
#     8   8   8   8   8   8   8   8
#     4  10  23  42  61  80 108 146 186 223 267 337
#     4  11  19  33  52  80 118 148 175 238 280 332
#     4  12  25  40  61  87 110 138 178 229 286 335
#     4  10  22  38  57  80 111 152 188 221 272 336
#     4   8  14  28  47  72 113 152 191 244 276 319
#     4  10  23  42  60  81 109 143 186 226 268 333
#     4  10  22  38  57  80 110 153 190 217 271 342
#     4   9  18  27  47  80 113 147 190 231 290 325
#
# _framework density 21.365331000000001
#
# number of rings (size 3 to 8) (size 9 to 14) (size 15 to 20)
#    0.000    2.000    2.500    0.750    3.500    3.000 
#    0.000    0.000    0.000    0.000    0.000    0.000 
#    0.000  252.000    0.000    0.000    0.000    0.000 
#
# Total GULP energy -178142.654511 kJ/mol
# GULP energy per Si atom -5566.957953 kJ/mol
# Density = 2.131670 g / cm^3
# Si number density = 21.365331 Si / 1000 Ang^3
#
#
#
# Elastic Constant Matrix: (Units=GPa)
#
#
# Indices 1 2 3 4 5 6 
#
# 1 54.9530 15.5687 31.2545 0.0000 5.7777 0.0000
# 2 15.5687 35.6936 18.9741 0.0000 -3.3169 0.0000
# 3 31.2545 18.9741 108.8865 0.0000 1.9372 0.0000
# 4 0.0000 0.0000 0.0000 -3.5709 0.0000 1.0421
# 5 5.7777 -3.3169 1.9372 0.0000 53.7676 0.0000
# 6 0.0000 0.0000 0.0000 1.0421 0.0000 14.7317
#
#
#
# Elastic Compliance Matrix: (Units=1/GPa)
#
#
# Indices 1 2 3 4 5 6 
#
# 1 0.023776 -0.007751 -0.005424 0.000000 -0.002838 0.000000
# 2 -0.007751 0.033642 -0.003692 0.000000 0.003041 0.000000
# 3 -0.005424 -0.003692 0.011385 0.000000 -0.000055 0.000000
# 4 0.000000 0.000000 0.000000 -0.274374 0.000000 0.019409
# 5 -0.002838 0.003041 -0.000055 0.000000 0.019093 0.000000
# 6 0.000000 0.000000 0.000000 0.019409 0.000000 0.066508
#
#
# Mechanical properties :
#
#
# Convention : Reuss Voigt Hill
#
# Bulk Modulus (GPa) = 28.51387 36.79196 32.65292
# Shear Modulus (GPa) = -67.07188 21.90140 -22.58524
#
# Velocity S-wave (km/s) = -5.60901 3.20518 -3.25483
# Velocity P-wave (km/s) = 5.34539 5.56375 1.09136
#
# Compressibility (1/GPa) = 0.03507065
#
# Stress axis : x y z
#
# Youngs Moduli (GPa) = 42.05855 29.72466 87.83589
#
# Poissons Ratio (x) = 0.23041 0.47638
# Poissons Ratio (y) = 0.32601 0.32425
# Poissons Ratio (z) = 0.22811 0.10973
#
# Static dielectric constant tensor:
#      x y z
#    x 1.865710 0.000000 0.040300 
#    y 0.000000 2.109310 0.000000 
#    z 0.040300 0.000000 1.810940 
# 
# From -- ./inp_files/332948.got.cif
#   From: 2010.05.17/outbox.cif.g08.bks.cpg/sg12_167_cif.got.tgz:332948.got - 2010.06.03 13:09:07.
