data_PCOD9213322
_publ_section_title
;
Structure prediction by ZEFSAII (Michael W. Deem and Ramdas Pophale) SiO2 
 PCOD9213322
Probable space group: C 2/M
;
_chemical_formula_sum "Si O2"
_cell_formula_units_Z 56
_cell_length_a 19.503975
_cell_length_b 8.900393
_cell_length_c 25.558737
_cell_angle_alpha 90.000000
_cell_angle_beta 138.341892
_cell_angle_gamma 90.000000
_cell_volume 2949.083744
_symmetry_space_group_name_H-M "C 2/M"
_symmetry_group_IT_number 12
_symmetry_cell_setting 'monoclinic'
loop_
_space_group_symop_operation_xyz
x,y,z
-x,y,-z
-x,-y,-z
x,-y,z
1/2+x,1/2+y,z
1/2-x,1/2+y,-z
1/2-x,1/2-y,-z
1/2+x,1/2-y,z
loop_
_atom_site_type_symbol
_atom_site_label
_atom_site_fract_x
_atom_site_fract_y
_atom_site_fract_z
Si Si1 0.197212 0.681515 0.419266
Si Si2 0.619572 0.319285 0.078527
Si Si3 0.507920 0.822870 0.831250
Si Si4 0.264423 0.178770 0.672868
Si Si5 0.956075 0.680434 0.265792
Si Si6 0.786087 0.180557 0.244495
Si Si7 0.167334 0.177964 0.991176
O O1 0.205164 0.500000 0.424950
O O2 0.250000 0.750000 0.500000
O O3 0.247773 0.737018 0.393235
O O4 0.074989 0.716518 0.347552
O O5 0.625818 0.500000 0.089506
O O6 0.678255 0.237690 0.158643
O O7 0.500000 0.281681 0.000000
O O8 0.676908 0.277772 0.057050
O O9 0.385806 0.804299 0.755165
O O10 0.557051 0.780114 0.803036
O O11 0.557149 0.728241 0.905549
O O12 0.528467 0.000000 0.851773
O O13 0.204886 0.235761 0.690095
O O14 0.244044 0.000000 0.658299
O O15 0.943314 0.500000 0.261997
O O16 0.876391 0.758293 0.259005
O O17 0.786350 0.000000 0.244641
O O18 0.176534 0.000000 0.994322
O O19 0.250000 0.250000 0.000000
#
# Coordination Sequence:
#
# PCOD9213322 Si02
#       7
#     8   8   8   8   8   8   8
#     4   9  18  36  60  82 106 135 168 206 248 300
#     4  10  22  38  52  69 100 141 177 213 263 312
#     4   9  17  33  54  70  91 129 173 211 250 300
#     4   8  17  34  54  76 102 132 164 202 252 301
#     4   9  19  35  54  76 105 140 169 203 258 310
#     4  11  21  33  53  79 104 133 173 217 256 300
#     4  11  22  33  47  69  97 129 167 213 261 303
#
# _framework density 18.988949000000002
#
# number of rings (size 3 to 8) (size 9 to 14) (size 15 to 20)
#    0.000    2.429    0.000    4.286    0.000    6.000 
#    0.000    5.000    0.000    4.286    0.000    0.000 
#    0.000    0.000    0.000    0.000    0.000    0.000 
#
# Total GULP energy -156231.691384 kJ/mol
# GULP energy per Si atom -5579.703264 kJ/mol
# Density = 1.894573 g / cm^3
# Si number density = 18.988949 Si / 1000 Ang^3
#
#
#
# Elastic Constant Matrix: (Units=GPa)
#
#
# Indices 1 2 3 4 5 6 
#
# 1 103.5899 25.0562 21.8624 0.0000 -26.8103 0.0000
# 2 25.0562 16.0018 20.1014 0.0000 -8.7833 0.0000
# 3 21.8624 20.1014 82.7002 0.0000 -27.6950 0.0000
# 4 0.0000 0.0000 0.0000 31.9018 0.0000 2.2659
# 5 -26.8103 -8.7833 -27.6950 0.0000 31.1267 0.0000
# 6 0.0000 0.0000 0.0000 2.2659 0.0000 19.8065
#
#
#
# Elastic Compliance Matrix: (Units=1/GPa)
#
#
# Indices 1 2 3 4 5 6 
#
# 1 0.019586 -0.032119 0.007469 0.000000 0.014453 0.000000
# 2 -0.032119 0.144217 -0.031621 0.000000 -0.015105 0.000000
# 3 0.007469 -0.031621 0.024172 0.000000 0.019017 0.000000
# 4 0.000000 0.000000 0.000000 0.031603 0.000000 -0.003615
# 5 0.014453 -0.015105 0.019017 0.000000 0.057234 0.000000
# 6 0.000000 0.000000 0.000000 -0.003615 0.000000 0.050902
#
#
# Mechanical properties :
#
#
# Convention : Reuss Voigt Hill
#
# Bulk Modulus (GPa) = 13.25671 37.37020 25.31346
# Shear Modulus (GPa) = 10.74343 25.58512 18.16428
#
# Velocity S-wave (km/s) = 2.38118 3.67463 3.09620
# Velocity P-wave (km/s) = 3.81529 6.14220 5.11288
#
# Compressibility (1/GPa) = 0.07543348
#
# Stress axis : x y z
#
# Youngs Moduli (GPa) = 51.05559 6.93400 41.37018
#
# Poissons Ratio (x) = 0.22271 -0.30899
# Poissons Ratio (y) = 1.63984 1.30818
# Poissons Ratio (z) = -0.38133 0.21926
#
# Static dielectric constant tensor:
#      x y z
#    x 1.710300 0.000000 -0.007580 
#    y 0.000000 1.632550 0.000000 
#    z -0.007580 0.000000 1.664080 
# 
# From -- ./inp_files/342526.got.cif
#   From: 2010.05.17/outbox.cif.g08.bks.cpg/sg12_172_cif.got.tgz:342526.got - 2010.06.03 13:09:07.
