data_PCOD9213372
_publ_section_title
;
Structure prediction by ZEFSAII (Michael W. Deem and Ramdas Pophale) SiO2 
 PCOD9213372
Probable space group: C 2/M
;
_chemical_formula_sum "Si O2"
_cell_formula_units_Z 48
_cell_length_a 20.898711
_cell_length_b 22.515580
_cell_length_c 16.114788
_cell_angle_alpha 90.000000
_cell_angle_beta 161.042414
_cell_angle_gamma 90.000000
_cell_volume 2463.396652
_symmetry_space_group_name_H-M "C 2/M"
_symmetry_group_IT_number 12
_symmetry_cell_setting 'monoclinic'
loop_
_space_group_symop_operation_xyz
x,y,z
-x,y,-z
-x,-y,-z
x,-y,z
1/2+x,1/2+y,z
1/2-x,1/2+y,-z
1/2-x,1/2-y,-z
1/2+x,1/2-y,z
loop_
_atom_site_type_symbol
_atom_site_label
_atom_site_fract_x
_atom_site_fract_y
_atom_site_fract_z
Si Si1 0.883469 0.930020 0.185272
Si Si2 0.037250 0.359262 0.847685
Si Si3 0.324051 0.930407 0.720533
Si Si4 0.870684 0.252978 0.920150
Si Si5 0.592233 0.679653 0.889524
Si Si6 0.474504 0.224752 0.621461
O O1 0.886669 0.889099 0.106542
O O2 0.107112 0.921337 0.492771
O O3 0.853429 0.000000 0.134807
O O4 0.710330 0.903252 0.029584
O O5 0.945708 0.325929 0.655848
O O6 0.870939 0.391687 0.697284
O O7 0.136722 0.309067 0.027703
O O8 0.334555 0.000000 0.710685
O O9 0.500000 0.918318 0.000000
O O10 0.671852 0.229748 0.634423
O O11 0.972142 0.200792 0.098939
O O12 0.000000 0.270427 0.000000
O O13 0.471328 0.713376 0.668974
O O14 0.808127 0.709748 0.145198
#
# Coordination Sequence:
#
# PCOD9213372 Si02
#       6
#     8   8   8   8   8   8
#     4  10  22  40  63  83 112 158 196 237 290 336
#     4  10  22  39  60  87 118 154 192 239 285 349
#     4  10  22  38  56  85 119 154 196 238 283 340
#     4  11  23  35  58  90 116 154 185 237 296 348
#     4   9  20  37  58  81 115 149 192 241 280 348
#     4   9  20  38  56  84 114 151 190 233 297 338
#
# _framework density 19.485291
#
# number of rings (size 3 to 8) (size 9 to 14) (size 15 to 20)
#    0.000    2.167    0.000    2.500    7.000    2.000 
#    6.000    2.500    0.000    9.500    0.000    0.000 
#    0.000    0.000    0.000    0.000    0.000    0.000 
#
# Total GULP energy -133929.543067 kJ/mol
# GULP energy per Si atom -5580.397628 kJ/mol
# Density = 1.944094 g / cm^3
# Si number density = 19.485291 Si / 1000 Ang^3
#
#
#
# Elastic Constant Matrix: (Units=GPa)
#
#
# Indices 1 2 3 4 5 6 
#
# 1 69.7642 44.5325 22.4188 -0.0001 -3.5676 0.0000
# 2 44.5325 114.8305 28.2425 0.0000 -0.0383 0.0000
# 3 22.4188 28.2425 74.7208 -0.0001 -1.8698 0.0000
# 4 -0.0001 0.0000 -0.0001 16.8692 0.0000 6.9455
# 5 -3.5676 -0.0383 -1.8698 0.0000 32.2111 0.0000
# 6 0.0000 0.0000 0.0000 6.9455 0.0000 32.3454
#
#
#
# Elastic Compliance Matrix: (Units=1/GPa)
#
#
# Indices 1 2 3 4 5 6 
#
# 1 0.019909 -0.006905 -0.003313 0.000000 0.002005 0.000000
# 2 -0.006905 0.011997 -0.002485 0.000000 -0.000895 0.000000
# 3 -0.003313 -0.002485 0.015330 0.000000 0.000520 0.000000
# 4 0.000000 0.000000 0.000000 0.065029 0.000000 -0.013964
# 5 0.002005 -0.000895 0.000520 0.000000 0.031296 0.000000
# 6 0.000000 0.000000 0.000000 -0.013964 0.000000 0.033915
#
#
# Mechanical properties :
#
#
# Convention : Reuss Voigt Hill
#
# Bulk Modulus (GPa) = 45.81178 49.96700 47.88939
# Shear Modulus (GPa) = 23.79140 27.22657 25.50898
#
# Velocity S-wave (km/s) = 3.49806 3.74209 3.62213
# Velocity P-wave (km/s) = 6.31484 6.66109 6.49027
#
# Compressibility (1/GPa) = 0.02182845
#
# Stress axis : x y z
#
# Youngs Moduli (GPa) = 50.22816 83.35119 65.23327
#
# Poissons Ratio (x) = 0.57558 0.21613
# Poissons Ratio (y) = 0.34685 0.16212
# Poissons Ratio (z) = 0.16642 0.20715
#
# Static dielectric constant tensor:
#      x y z
#    x 1.732380 0.000000 0.030110 
#    y 0.000000 1.683590 0.000000 
#    z 0.030110 0.000000 1.719390 
# 
# From -- ./inp_files/235559.got.cif
#   From: 2010.05.17/outbox.cif.g08.bks.cpg/sg12_118_cif.got.tgz:235559.got - 2010.06.03 13:09:07.
