data_PCOD9213083
_publ_section_title
;
Structure prediction by ZEFSAII (Michael W. Deem and Ramdas Pophale) SiO2 
 PCOD9213083
Probable space group: C 2/M
;
_chemical_formula_sum "Si O2"
_cell_formula_units_Z 48
_cell_length_a 12.700904
_cell_length_b 19.660296
_cell_length_c 14.388083
_cell_angle_alpha 90.000000
_cell_angle_beta 39.954991
_cell_angle_gamma 90.000000
_cell_volume 2307.215767
_symmetry_space_group_name_H-M "C 2/M"
_symmetry_group_IT_number 12
_symmetry_cell_setting 'monoclinic'
loop_
_space_group_symop_operation_xyz
x,y,z
-x,y,-z
-x,-y,-z
x,-y,z
1/2+x,1/2+y,z
1/2-x,1/2+y,-z
1/2-x,1/2-y,-z
1/2+x,1/2-y,z
loop_
_atom_site_type_symbol
_atom_site_label
_atom_site_fract_x
_atom_site_fract_y
_atom_site_fract_z
Si Si1 0.309695 0.192107 0.531083
Si Si2 0.200462 0.710330 0.253819
Si Si3 0.819032 0.133938 0.786397
Si Si4 0.067686 0.422362 0.827326
Si Si5 0.338781 0.578212 0.484254
Si Si6 0.235585 0.330710 0.031249
O O1 0.250000 0.250000 0.500000
O O2 0.505938 0.196845 0.393893
O O3 0.238011 0.201669 0.682899
O O4 0.252615 0.119736 0.533286
O O5 0.223750 0.789122 0.212431
O O6 0.263334 0.666023 0.123473
O O7 0.662662 0.090487 0.860253
O O8 0.984064 0.111900 0.624122
O O9 0.849064 0.133233 0.877119
O O10 0.003248 0.500000 0.864959
O O11 0.220716 0.417357 0.652409
O O12 0.938857 0.365201 0.879538
O O13 0.365238 0.500000 0.443194
O O14 0.250000 0.250000 0.000000
#
# Coordination Sequence:
#
# PCOD9213083 Si02
#       6
#     8   8   8   8   8   8
#     4  11  20  38  65  90 121 161 214 267 312 371
#     4  10  22  36  62  93 119 163 215 264 312 370
#     4  11  22  37  63  95 130 163 209 265 321 385
#     4  11  23  40  63  93 132 171 211 265 326 381
#     4  11  23  39  62  93 128 165 212 266 318 380
#     4  10  23  42  59  90 129 169 211 255 317 383
#
# _framework density 20.804296000000001
#
# number of rings (size 3 to 8) (size 9 to 14) (size 15 to 20)
#    0.000    1.333    3.333    2.500    2.333    3.333 
#    0.000    3.333    0.000    1.000    0.000    0.000 
#    0.000    0.000    0.000    0.000    0.000    0.000 
#
# Total GULP energy -133943.759962 kJ/mol
# GULP energy per Si atom -5580.989998 kJ/mol
# Density = 2.075694 g / cm^3
# Si number density = 20.804296 Si / 1000 Ang^3
#
#
#
# Elastic Constant Matrix: (Units=GPa)
#
#
# Indices 1 2 3 4 5 6 
#
# 1 94.6026 35.5734 26.5810 0.0003 35.8920 -0.0003
# 2 35.5734 84.7329 24.6505 0.0008 6.0354 -0.0006
# 3 26.5810 24.6505 70.6408 0.0003 20.7444 -0.0006
# 4 0.0003 0.0008 0.0003 24.4298 -0.0005 10.8540
# 5 35.8920 6.0354 20.7444 -0.0005 53.4290 0.0004
# 6 -0.0003 -0.0006 -0.0006 10.8540 0.0004 5.1664
#
#
#
# Elastic Compliance Matrix: (Units=1/GPa)
#
#
# Indices 1 2 3 4 5 6 
#
# 1 0.017138 -0.006083 -0.001295 -0.000009 -0.010323 0.000020
# 2 -0.006083 0.015300 -0.004224 -0.000009 0.003998 0.000019
# 3 -0.001295 -0.004224 0.017745 -0.000015 -0.005543 0.000033
# 4 -0.000009 -0.000009 -0.000015 0.614793 0.000027 -1.291617
# 5 -0.010323 0.003998 -0.005543 0.000027 0.027352 -0.000060
# 6 0.000020 0.000019 0.000033 -1.291617 -0.000060 2.907113
#
#
# Mechanical properties :
#
#
# Convention : Reuss Voigt Hill
#
# Bulk Modulus (GPa) = 37.06540 47.06512 42.06526
# Shear Modulus (GPa) = 1.37679 27.48312 14.42996
#
# Velocity S-wave (km/s) = 0.81438 3.63854 2.63649
# Velocity P-wave (km/s) = 4.32888 6.35011 5.43429
#
# Compressibility (1/GPa) = 0.02697934
#
# Stress axis : x y z
#
# Youngs Moduli (GPa) = 58.34851 65.36032 56.35395
#
# Poissons Ratio (x) = 0.39761 0.07295
# Poissons Ratio (y) = 0.35495 0.23804
# Poissons Ratio (z) = 0.07554 0.27609
#
# Static dielectric constant tensor:
#      x y z
#    x 1.759130 0.000000 0.099600 
#    y 0.000000 1.711850 0.000000 
#    z 0.099600 0.000000 1.717800 
# 
# From -- ./inp_files/207912.got.cif
#   From: 2010.05.17/outbox.cif.g08.bks.cpg/sg12_104_cif.got.tgz:207912.got - 2010.06.03 13:09:07.
