data_PCOD9213700
_publ_section_title
;
Structure prediction by ZEFSAII (Michael W. Deem and Ramdas Pophale) SiO2 
 PCOD9213700
Probable space group: C 2/M
;
_chemical_formula_sum "Si O2"
_cell_formula_units_Z 28
_cell_length_a 13.872806
_cell_length_b 16.509881
_cell_length_c 5.053104
_cell_angle_alpha 90.000000
_cell_angle_beta 100.666242
_cell_angle_gamma 90.000000
_cell_volume 1137.357981
_symmetry_space_group_name_H-M "C 2/M"
_symmetry_group_IT_number 12
_symmetry_cell_setting 'monoclinic'
loop_
_space_group_symop_operation_xyz
x,y,z
-x,y,-z
-x,-y,-z
x,-y,z
1/2+x,1/2+y,z
1/2-x,1/2+y,-z
1/2-x,1/2-y,-z
1/2+x,1/2-y,z
loop_
_atom_site_type_symbol
_atom_site_label
_atom_site_fract_x
_atom_site_fract_y
_atom_site_fract_z
Si Si1 0.615941 0.663623 0.505131
Si Si2 0.613116 0.153592 0.470039
Si Si3 0.428447 0.500000 0.718242
Si Si4 0.727379 0.905518 0.042335
O O1 0.500000 0.666051 0.500000
O O2 0.636031 0.752773 0.407512
O O3 0.630459 0.583711 0.333347
O O4 0.680610 0.645248 0.796628
O O5 0.500000 0.145252 0.500000
O O6 0.646122 0.101876 0.235612
O O7 0.677648 0.129546 0.755720
O O8 0.500000 0.500000 0.500000
O O9 0.500000 0.500000 0.000000
O O10 0.754833 0.000000 0.030903
#
# Coordination Sequence:
#
# PCOD9213700 Si02
#       4
#     8   8   4   8
#     4  10  23  45  69 102 138 175 221 280 343 409
#     4  11  26  45  70  97 134 181 231 281 332 393
#     4  10  22  38  64  98 133 170 209 264 336 404
#     4  12  25  44  70 100 135 179 227 279 338 401
#
# _framework density 24.618459000000001
#
# number of rings (size 3 to 8) (size 9 to 14) (size 15 to 20)
#    0.000    1.143    1.429    3.429    0.000   14.857 
#    0.000    0.000    0.000    0.000    0.000    0.000 
#    0.000    0.000    0.000    0.000    0.000    0.000 
#
# Total GULP energy -78465.453373 kJ/mol
# GULP energy per Si atom -5604.675241 kJ/mol
# Density = 2.456243 g / cm^3
# Si number density = 24.618459 Si / 1000 Ang^3
#
#
#
# Elastic Constant Matrix: (Units=GPa)
#
#
# Indices 1 2 3 4 5 6 
#
# 1 148.3014 16.2320 31.1909 0.0000 23.4871 0.0000
# 2 16.2320 130.8716 30.5675 0.0000 0.0839 0.0000
# 3 31.1909 30.5675 143.0470 0.0000 3.4789 0.0000
# 4 0.0000 0.0000 0.0000 38.6552 0.0000 6.3786
# 5 23.4871 0.0839 3.4789 0.0000 47.6935 0.0000
# 6 0.0000 0.0000 0.0000 6.3786 0.0000 -3.3191
#
#
#
# Elastic Compliance Matrix: (Units=1/GPa)
#
#
# Indices 1 2 3 4 5 6 
#
# 1 0.007700 -0.000612 -0.001459 0.000000 -0.003685 0.000000
# 2 -0.000612 0.008092 -0.001605 0.000000 0.000404 0.000000
# 3 -0.001459 -0.001605 0.007648 0.000000 0.000163 0.000000
# 4 0.000000 0.000000 0.000000 0.019641 0.000000 0.037746
# 5 -0.003685 0.000404 0.000163 0.000000 0.022769 0.000000
# 6 0.000000 0.000000 0.000000 0.037746 0.000000 -0.228748
#
#
# Mechanical properties :
#
#
# Convention : Reuss Voigt Hill
#
# Bulk Modulus (GPa) = 62.15959 64.24455 63.20207
# Shear Modulus (GPa) = -33.29275 39.55455 3.13090
#
# Velocity S-wave (km/s) = -3.68142 4.01272 1.12895
# Velocity P-wave (km/s) = 2.68952 6.90087 5.23715
#
# Compressibility (1/GPa) = 0.01608762
#
# Stress axis : x y z
#
# Youngs Moduli (GPa) = 129.86428 123.58313 130.75546
#
# Poissons Ratio (x) = 0.07564 0.19073
# Poissons Ratio (y) = 0.07948 0.20993
# Poissons Ratio (z) = 0.18943 0.19841
#
# Static dielectric constant tensor:
#      x y z
#    x 1.975250 0.000000 -0.028260 
#    y 0.000000 1.950870 0.000000 
#    z -0.028260 0.000000 1.868810 
# 
# From -- ./inp_files/10304.got.cif
#   From: 2010.05.17/outbox.cif.g08.bks.cpg/sg12_6_cif.got.tgz:10304.got - 2010.06.03 13:09:07.
