data_PCOD9213218
_publ_section_title
;
Structure prediction by ZEFSAII (Michael W. Deem and Ramdas Pophale) SiO2 
 PCOD9213218
Probable space group: C 2/M
;
_chemical_formula_sum "Si O2"
_cell_formula_units_Z 36
_cell_length_a 10.737436
_cell_length_b 13.543968
_cell_length_c 26.652532
_cell_angle_alpha 90.000000
_cell_angle_beta 29.611462
_cell_angle_gamma 90.000000
_cell_volume 1915.198183
_symmetry_space_group_name_H-M "C 2/M"
_symmetry_group_IT_number 12
_symmetry_cell_setting 'monoclinic'
loop_
_space_group_symop_operation_xyz
x,y,z
-x,y,-z
-x,-y,-z
x,-y,z
1/2+x,1/2+y,z
1/2-x,1/2+y,-z
1/2-x,1/2-y,-z
1/2+x,1/2-y,z
loop_
_atom_site_type_symbol
_atom_site_label
_atom_site_fract_x
_atom_site_fract_y
_atom_site_fract_z
Si Si1 0.753097 0.000000 0.619816
Si Si2 0.655755 0.164918 0.230923
Si Si3 0.089066 0.500000 0.893864
Si Si4 0.515641 0.779966 0.176333
Si Si5 0.678680 0.000000 0.759687
Si Si6 0.000000 0.672307 0.000000
Si Si7 0.013546 0.000000 0.055845
O O1 0.573607 0.905780 0.672856
O O2 0.000000 0.000000 0.500000
O O3 0.815957 0.000000 0.657833
O O4 0.551440 0.234884 0.223292
O O5 0.788164 0.223756 0.229188
O O6 0.865447 0.093946 0.131196
O O7 0.283456 0.500000 0.779507
O O8 0.108323 0.402563 0.920672
O O9 0.799494 0.500000 0.975399
O O10 0.773254 0.741364 0.061188
O O11 0.473660 0.897111 0.187016
O O12 0.000000 0.000000 0.000000
#
# Coordination Sequence:
#
# PCOD9213218 Si02
#       7
#     4   8   4   8   4   4   4
#     4   9  20  43  68  88 108 148 198 250 312 369
#     4  10  22  37  59  86 119 151 195 247 297 349
#     4  11  21  36  48  84 118 156 194 245 287 338
#     4  11  22  38  53  85 119 164 202 237 288 344
#     4  10  23  37  53  80 121 152 198 254 283 340
#     4  11  24  33  56  80 124 171 202 229 284 360
#     4  11  20  35  54  79 115 156 195 235 287 348
#
# _framework density 18.797011000000001
#
# number of rings (size 3 to 8) (size 9 to 14) (size 15 to 20)
#    0.000    1.556    2.222    4.667    4.667    2.222 
#    0.000    5.556    0.000    0.000    0.000   14.778 
#    0.000    0.000    0.000    0.000    0.000    0.000 
#
# Total GULP energy -100417.634473 kJ/mol
# GULP energy per Si atom -5578.757471 kJ/mol
# Density = 1.875423 g / cm^3
# Si number density = 18.797011 Si / 1000 Ang^3
#
#
#
# Elastic Constant Matrix: (Units=GPa)
#
#
# Indices 1 2 3 4 5 6 
#
# 1 112.3196 51.9233 37.9810 0.0116 6.2716 -0.0002
# 2 51.9233 110.2131 61.6856 0.0033 6.8752 0.0002
# 3 37.9810 61.6856 104.8878 -0.0029 10.0613 0.0102
# 4 0.0116 0.0033 -0.0029 11.1131 0.0029 -0.0579
# 5 6.2716 6.8752 10.0613 0.0029 21.5678 0.0059
# 6 -0.0002 0.0002 0.0102 -0.0579 0.0059 6.9889
#
#
#
# Elastic Compliance Matrix: (Units=1/GPa)
#
#
# Indices 1 2 3 4 5 6 
#
# 1 0.011563 -0.004611 -0.001355 -0.000011 -0.001261 0.000003
# 2 -0.004611 0.015372 -0.007359 -0.000002 -0.000127 0.000010
# 3 -0.001355 -0.007359 0.014749 0.000008 -0.004141 -0.000018
# 4 -0.000011 -0.000002 0.000008 0.089988 -0.000013 0.000746
# 5 -0.001261 -0.000127 -0.004141 -0.000013 0.048704 -0.000035
# 6 0.000003 0.000010 -0.000018 0.000746 -0.000035 0.143090
#
#
# Mechanical properties :
#
#
# Convention : Reuss Voigt Hill
#
# Bulk Modulus (GPa) = 66.50474 70.06670 68.28572
# Shear Modulus (GPa) = 14.07950 19.65602 16.86776
#
# Velocity S-wave (km/s) = 2.73981 3.23724 2.99885
# Velocity P-wave (km/s) = 6.74285 7.16445 6.95684
#
# Compressibility (1/GPa) = 0.01503652
#
# Stress axis : x y z
#
# Youngs Moduli (GPa) = 86.48212 65.05293 67.79913
#
# Poissons Ratio (x) = 0.29995 0.09184
# Poissons Ratio (y) = 0.39875 0.49892
# Poissons Ratio (z) = 0.11714 0.47871
#
# Static dielectric constant tensor:
#      x y z
#    x 1.734910 0.000000 0.031540 
#    y 0.000000 1.699410 0.000010 
#    z 0.031540 0.000010 1.635790 
# 
# From -- ./inp_files/373701.got.cif
#   From: 2010.05.17/outbox.cif.g08.bks.cpg/sg12_187_cif.got.tgz:373701.got - 2010.06.03 13:09:07.
