data_PCOD9213568
_publ_section_title
;
Structure prediction by ZEFSAII (Michael W. Deem and Ramdas Pophale) SiO2 
 PCOD9213568
Probable space group: C 2/M
;
_chemical_formula_sum "Si O2"
_cell_formula_units_Z 40
_cell_length_a 5.146652
_cell_length_b 27.499195
_cell_length_c 12.917423
_cell_angle_alpha 90.000000
_cell_angle_beta 99.167425
_cell_angle_gamma 90.000000
_cell_volume 1804.835781
_symmetry_space_group_name_H-M "C 2/M"
_symmetry_group_IT_number 12
_symmetry_cell_setting 'monoclinic'
loop_
_space_group_symop_operation_xyz
x,y,z
-x,y,-z
-x,-y,-z
x,-y,z
1/2+x,1/2+y,z
1/2-x,1/2+y,-z
1/2-x,1/2-y,-z
1/2+x,1/2-y,z
loop_
_atom_site_type_symbol
_atom_site_label
_atom_site_fract_x
_atom_site_fract_y
_atom_site_fract_z
Si Si1 0.617862 0.782093 0.614976
Si Si2 0.848936 0.946708 0.382710
Si Si3 0.125547 0.945732 0.179149
Si Si4 0.714023 0.630720 0.933215
Si Si5 0.044353 0.633295 0.254657
O O1 0.500000 0.803251 0.500000
O O2 0.411863 0.738102 0.622105
O O3 0.597614 0.821635 0.702949
O O4 0.671725 0.899962 0.351877
O O5 0.000000 0.943207 0.500000
O O6 0.036766 0.946884 0.293807
O O7 0.709837 0.000000 0.372629
O O8 0.349860 0.905055 0.186616
O O9 0.883618 0.924355 0.097486
O O10 0.203337 0.000000 0.153379
O O11 0.745766 0.650775 0.818167
O O12 0.500000 0.651789 0.000000
O O13 0.000000 0.635182 0.000000
#
# Coordination Sequence:
#
# PCOD9213568 Si02
#       5
#     8   8   8   8   8
#     4  10  25  44  68 100 131 164 212 266 323 393
#     4   9  20  35  55  91 136 176 216 259 311 387
#     4  10  22  38  60  95 132 175 224 264 314 385
#     4  11  23  43  63  94 128 175 221 271 322 376
#     4  11  23  39  68  91 131 172 218 267 330 379
#
# _framework density 22.162683000000001
#
# number of rings (size 3 to 8) (size 9 to 14) (size 15 to 20)
#    0.000    1.800    2.000    0.600    8.400    2.400 
#    0.000    3.000    0.000    3.600    0.000    0.000 
#    0.000    0.000    0.000    0.000    0.000    0.000 
#
# Total GULP energy -111633.944560 kJ/mol
# GULP energy per Si atom -5581.697228 kJ/mol
# Density = 2.211224 g / cm^3
# Si number density = 22.162683 Si / 1000 Ang^3
#
#
#
# Elastic Constant Matrix: (Units=GPa)
#
#
# Indices 1 2 3 4 5 6 
#
# 1 78.1950 7.8987 20.1479 0.0000 -1.9755 0.0000
# 2 7.8987 25.5425 11.7218 0.0000 -12.4980 0.0000
# 3 20.1479 11.7218 54.1993 0.0000 -10.8630 0.0000
# 4 0.0000 0.0000 0.0000 2.2786 0.0000 -4.9783
# 5 -1.9755 -12.4980 -10.8630 0.0000 32.9424 0.0000
# 6 0.0000 0.0000 0.0000 -4.9783 0.0000 15.0258
#
#
#
# Elastic Compliance Matrix: (Units=1/GPa)
#
#
# Indices 1 2 3 4 5 6 
#
# 1 0.014355 -0.003083 -0.005066 0.000000 -0.001979 0.000000
# 2 -0.003083 0.051528 -0.006550 0.000000 0.017204 0.000000
# 3 -0.005066 -0.006550 0.022691 0.000000 0.004694 0.000000
# 4 0.000000 0.000000 0.000000 1.589292 0.000000 0.526558
# 5 -0.001979 0.017204 0.004694 0.000000 0.038312 0.000000
# 6 0.000000 0.000000 0.000000 0.526558 0.000000 0.241009
#
#
# Mechanical properties :
#
#
# Convention : Reuss Voigt Hill
#
# Bulk Modulus (GPa) = 16.89869 26.38596 21.64232
# Shear Modulus (GPa) = 2.49214 17.92728 10.20971
#
# Velocity S-wave (km/s) = 1.06156 2.84719 2.14865
# Velocity P-wave (km/s) = 3.02390 4.76866 3.99275
#
# Compressibility (1/GPa) = 0.05917617
#
# Stress axis : x y z
#
# Youngs Moduli (GPa) = 69.66044 19.40710 44.07010
#
# Poissons Ratio (x) = 0.05983 0.22328
# Poissons Ratio (y) = 0.21474 0.28865
# Poissons Ratio (z) = 0.35293 0.12711
#
# Static dielectric constant tensor:
#      x y z
#    x 1.898920 0.000000 0.000240 
#    y 0.000000 1.796920 0.000000 
#    z 0.000240 0.000000 1.858080 
# 
# From -- ./inp_files/115543.got.cif
#   From: 2010.05.17/outbox.cif.g08.bks.cpg/sg12_58_cif.got.tgz:115543.got - 2010.06.03 13:09:07.
