data_PCOD9213704
_publ_section_title
;
Structure prediction by ZEFSAII (Michael W. Deem and Ramdas Pophale) SiO2 
 PCOD9213704
Probable space group: C 2/M
;
_chemical_formula_sum "Si O2"
_cell_formula_units_Z 36
_cell_length_a 14.181408
_cell_length_b 22.495699
_cell_length_c 5.242102
_cell_angle_alpha 90.000000
_cell_angle_beta 70.506448
_cell_angle_gamma 90.000000
_cell_volume 1576.478918
_symmetry_space_group_name_H-M "C 2/M"
_symmetry_group_IT_number 12
_symmetry_cell_setting 'monoclinic'
loop_
_space_group_symop_operation_xyz
x,y,z
-x,y,-z
-x,-y,-z
x,-y,z
1/2+x,1/2+y,z
1/2-x,1/2+y,-z
1/2-x,1/2-y,-z
1/2+x,1/2-y,z
loop_
_atom_site_type_symbol
_atom_site_label
_atom_site_fract_x
_atom_site_fract_y
_atom_site_fract_z
Si Si1 0.300006 0.931471 0.621468
Si Si2 0.388941 0.619841 0.983693
Si Si3 0.114401 0.372701 0.956209
Si Si4 0.000000 0.820578 0.500000
Si Si5 0.852309 0.757922 0.255207
O O1 0.186673 0.926984 0.832207
O O2 0.318057 0.902453 0.328008
O O3 0.331079 0.000000 0.582678
O O4 0.359885 0.896034 0.786379
O O5 0.341342 0.683510 0.097192
O O6 0.500000 0.612992 0.000000
O O7 0.413733 0.633387 0.667902
O O8 0.127348 0.301953 0.916695
O O9 0.000000 0.388051 0.000000
O O10 0.946428 0.776896 0.347801
O O11 0.750000 0.750000 0.500000
#
# Coordination Sequence:
#
# PCOD9213704 Si02
#       5
#     8   8   8   4   8
#     4  12  28  48  70  98 136 186 237 281 332 397
#     4  10  23  42  68 102 140 175 223 282 345 410
#     4  12  27  45  73 102 136 181 227 284 344 404
#     4  10  22  38  65 102 137 172 220 272 352 420
#     4  11  22  39  68 103 136 174 216 278 349 413
#
# _framework density 22.835701
#
# number of rings (size 3 to 8) (size 9 to 14) (size 15 to 20)
#    0.000    0.889    2.222    4.667    9.333    4.889 
#    0.000    0.556    0.000    0.000    0.000    0.000 
#    0.000    0.000    0.000    0.000    0.000    0.000 
#
# Total GULP energy -100592.447367 kJ/mol
# GULP energy per Si atom -5588.469298 kJ/mol
# Density = 2.278373 g / cm^3
# Si number density = 22.835701 Si / 1000 Ang^3
#
#
#
# Elastic Constant Matrix: (Units=GPa)
#
#
# Indices 1 2 3 4 5 6 
#
# 1 65.1747 -11.6017 -14.9883 0.0000 -17.4951 0.0000
# 2 -11.6017 81.5466 0.2195 0.0000 9.6986 0.0000
# 3 -14.9883 0.2195 69.2162 0.0000 -12.0063 0.0000
# 4 0.0000 0.0000 0.0000 10.3619 0.0000 1.3883
# 5 -17.4951 9.6986 -12.0063 0.0000 41.4089 0.0000
# 6 0.0000 0.0000 0.0000 1.3883 0.0000 15.9247
#
#
#
# Elastic Compliance Matrix: (Units=1/GPa)
#
#
# Indices 1 2 3 4 5 6 
#
# 1 0.019564 0.001626 0.005896 0.000000 0.009594 0.000000
# 2 0.001626 0.012772 -0.000093 0.000000 -0.002331 0.000000
# 3 0.005896 -0.000093 0.017016 0.000000 0.007446 0.000000
# 4 0.000000 0.000000 0.000000 0.097648 0.000000 -0.008513
# 5 0.009594 -0.002331 0.007446 0.000000 0.030908 0.000000
# 6 0.000000 0.000000 0.000000 -0.008513 0.000000 0.063538
#
#
# Mechanical properties :
#
#
# Convention : Reuss Voigt Hill
#
# Bulk Modulus (GPa) = 15.57373 18.13293 16.85333
# Shear Modulus (GPa) = 20.16209 29.69297 24.92753
#
# Velocity S-wave (km/s) = 2.97462 3.60986 3.30753
# Velocity P-wave (km/s) = 4.31654 5.03315 4.68856
#
# Compressibility (1/GPa) = 0.06421071
#
# Stress axis : x y z
#
# Youngs Moduli (GPa) = 51.11400 78.29736 58.76803
#
# Poissons Ratio (x) = -0.12735 -0.34647
# Poissons Ratio (y) = -0.08313 0.00544
# Poissons Ratio (z) = -0.30134 0.00725
#
# Static dielectric constant tensor:
#      x y z
#    x 1.893850 0.000000 -0.027410 
#    y 0.000000 1.777090 0.000000 
#    z -0.027410 0.000000 2.166220 
# 
# From -- ./inp_files/11238.got.cif
#   From: 2010.05.17/outbox.cif.g08.bks.cpg/sg12_6_cif.got.tgz:11238.got - 2010.06.03 13:09:07.
