data_PCOD9213478
_publ_section_title
;
Structure prediction by ZEFSAII (Michael W. Deem and Ramdas Pophale) SiO2 
 PCOD9213478
Probable space group: C 2/M
;
_chemical_formula_sum "Si O2"
_cell_formula_units_Z 48
_cell_length_a 9.492080
_cell_length_b 30.150781
_cell_length_c 13.352277
_cell_angle_alpha 90.000000
_cell_angle_beta 147.932563
_cell_angle_gamma 90.000000
_cell_volume 2028.812725
_symmetry_space_group_name_H-M "C 2/M"
_symmetry_group_IT_number 12
_symmetry_cell_setting 'monoclinic'
loop_
_space_group_symop_operation_xyz
x,y,z
-x,y,-z
-x,-y,-z
x,-y,z
1/2+x,1/2+y,z
1/2-x,1/2+y,-z
1/2-x,1/2-y,-z
1/2+x,1/2-y,z
loop_
_atom_site_type_symbol
_atom_site_label
_atom_site_fract_x
_atom_site_fract_y
_atom_site_fract_z
Si Si1 0.719879 0.385990 0.385398
Si Si2 0.589465 0.705765 0.272721
Si Si3 0.591866 0.788721 0.731368
Si Si4 0.721393 0.864291 0.357176
Si Si5 0.531771 0.450787 0.914515
Si Si6 0.605007 0.951618 0.176029
O O1 0.517237 0.345275 0.247475
O O2 0.768272 0.390309 0.531200
O O3 0.602944 0.427856 0.259935
O O4 0.000000 0.375049 0.500000
O O5 0.400518 0.743857 0.199868
O O6 0.843833 0.711233 0.502001
O O7 0.667687 0.708469 0.202859
O O8 0.511372 0.828523 0.760004
O O9 0.716217 0.903529 0.272385
O O10 0.000000 0.839266 0.500000
O O11 0.413610 0.500000 0.852987
O O12 0.500000 0.425439 0.000000
O O13 0.842051 0.454051 0.084313
O O14 0.747961 0.000000 0.272918
O O15 0.500000 0.949939 0.000000
#
# Coordination Sequence:
#
# PCOD9213478 Si02
#       6
#     8   8   8   8   8   8
#     4  11  20  35  55  86 117 139 184 237 280 312
#     4   9  17  31  50  78 114 148 174 222 274 324
#     4   9  18  30  50  79 114 144 179 220 273 330
#     4  11  22  33  57  89 111 141 186 238 279 316
#     4  10  22  38  59  81 108 153 189 218 276 345
#     4  10  22  42  59  77 111 152 190 224 276 344
#
# _framework density 23.659158000000001
#
# number of rings (size 3 to 8) (size 9 to 14) (size 15 to 20)
#    0.000    2.000    3.333    2.000    7.000    1.333 
#    0.000    0.000    0.000    2.000    0.000    0.000 
#    0.000    0.000    0.000    0.000    0.000    0.000 
#
# Total GULP energy -133837.979731 kJ/mol
# GULP energy per Si atom -5576.582489 kJ/mol
# Density = 2.360531 g / cm^3
# Si number density = 23.659158 Si / 1000 Ang^3
#
#
#
# Elastic Constant Matrix: (Units=GPa)
#
#
# Indices 1 2 3 4 5 6 
#
# 1 86.7575 17.5985 1.5736 0.0000 -3.6256 0.0000
# 2 17.5985 129.2480 13.5504 0.0000 -10.0037 0.0000
# 3 1.5736 13.5504 25.9343 0.0000 -7.6391 0.0000
# 4 0.0000 0.0000 0.0000 176.7194 0.0000 -105.8309
# 5 -3.6256 -10.0037 -7.6391 0.0000 24.8302 0.0000
# 6 0.0000 0.0000 0.0000 -105.8309 0.0000 100.8216
#
#
#
# Elastic Compliance Matrix: (Units=1/GPa)
#
#
# Indices 1 2 3 4 5 6 
#
# 1 0.011889 -0.001571 0.000467 0.000000 0.001247 0.000000
# 2 -0.001571 0.008502 -0.003745 0.000000 0.002044 0.000000
# 3 0.000467 -0.003745 0.044055 0.000000 0.012113 0.000000
# 4 0.000000 0.000000 0.000000 0.015237 0.000000 0.015994
# 5 0.001247 0.002044 0.012113 0.000000 0.045006 0.000000
# 6 0.000000 0.000000 0.000000 0.015994 0.000000 0.026707
#
#
# Mechanical properties :
#
#
# Convention : Reuss Voigt Hill
#
# Bulk Modulus (GPa) = 18.26573 34.15387 26.20980
# Shear Modulus (GPa) = 27.87955 74.42206 51.15081
#
# Velocity S-wave (km/s) = 3.43648 5.61464 4.65476
# Velocity P-wave (km/s) = 4.84593 7.51661 6.32386
#
# Compressibility (1/GPa) = 0.05474732
#
# Stress axis : x y z
#
# Youngs Moduli (GPa) = 84.11333 117.62236 22.69875
#
# Poissons Ratio (x) = 0.18481 -0.01059
# Poissons Ratio (y) = 0.13216 0.08500
# Poissons Ratio (z) = -0.03926 0.44047
#
# Static dielectric constant tensor:
#      x y z
#    x 1.916040 0.000000 0.038350 
#    y 0.000000 1.980230 0.000000 
#    z 0.038350 0.000000 1.993720 
# 
# From -- ./inp_files/201046.got.cif
#   From: 2010.05.17/outbox.cif.g08.bks.cpg/sg12_101_cif.got.tgz:201046.got - 2010.06.03 13:09:07.
