data_PCOD9213966
_publ_section_title
;
Structure prediction by ZEFSAII (Michael W. Deem and Ramdas Pophale) SiO2 
 PCOD9213966
Probable space group: C 2/M
;
_chemical_formula_sum "Si O2"
_cell_formula_units_Z 52
_cell_length_a 11.368887
_cell_length_b 20.819292
_cell_length_c 12.307167
_cell_angle_alpha 90.000000
_cell_angle_beta 120.379410
_cell_angle_gamma 90.000000
_cell_volume 2513.040654
_symmetry_space_group_name_H-M "C 2/M"
_symmetry_group_IT_number 12
_symmetry_cell_setting 'monoclinic'
loop_
_space_group_symop_operation_xyz
x,y,z
-x,y,-z
-x,-y,-z
x,-y,z
1/2+x,1/2+y,z
1/2-x,1/2+y,-z
1/2-x,1/2-y,-z
1/2+x,1/2-y,z
loop_
_atom_site_type_symbol
_atom_site_label
_atom_site_fract_x
_atom_site_fract_y
_atom_site_fract_z
Si Si1 0.168469 0.500000 0.971211
Si Si2 0.702855 0.888626 0.399241
Si Si3 0.745045 0.000000 0.247076
Si Si4 0.165331 0.737517 0.853004
Si Si5 0.163853 0.253400 0.276978
Si Si6 0.684480 0.398508 0.320792
Si Si7 0.036221 0.000000 0.820391
Si Si8 0.107357 0.595969 0.759140
O O1 0.110514 0.557912 0.873550
O O2 0.151825 0.500000 0.093627
O O3 0.334532 0.500000 0.038501
O O4 0.726099 0.935849 0.308372
O O5 0.712055 0.812438 0.376326
O O6 0.793727 0.911535 0.541988
O O7 0.544951 0.898357 0.354911
O O8 0.894735 0.000000 0.265793
O O9 0.251557 0.769364 0.794329
O O10 0.168051 0.663695 0.821625
O O11 0.002997 0.748446 0.799128
O O12 0.250000 0.750000 0.000000
O O13 0.194801 0.179241 0.320411
O O14 0.550386 0.434614 0.214336
O O15 0.800777 0.426929 0.297176
#
# Coordination Sequence:
#
# PCOD9213966 Si02
#       8
#     4   8   4   8   8   8   4   8
#     4  10  24  44  60  94 128 168 218 262 336 392
#     4  11  23  43  66  96 131 170 221 269 327 395
#     4  10  26  42  62  96 132 172 218 262 330 386
#     4  10  22  39  60  95 128 173 219 270 326 393
#     4  10  24  40  66  98 132 177 221 270 342 382
#     4  11  23  43  66  96 131 170 221 269 327 395
#     4  10  26  42  62  96 132 172 218 262 330 386
#     4  10  23  40  66  91 122 166 216 274 322 380
#
# _framework density 20.692066000000001
#
# number of rings (size 3 to 8) (size 9 to 14) (size 15 to 20)
#    0.462    1.231    0.000    2.769    6.462    3.692 
#    0.000    3.846    0.000    0.000    0.000    0.000 
#    0.000    0.000    0.000    0.000    0.000    0.000 
#
# Total GULP energy -144750.549537 kJ/mol
# GULP energy per Si atom -5567.328828 kJ/mol
# Density = 2.064497 g / cm^3
# Si number density = 20.692066 Si / 1000 Ang^3
#
#
#
# Elastic Constant Matrix: (Units=GPa)
#
#
# Indices 1 2 3 4 5 6 
#
# 1 70.5656 3.1886 -13.5203 0.0000 -26.4382 0.0000
# 2 3.1886 84.1140 -1.1893 0.0000 -5.4748 0.0000
# 3 -13.5203 -1.1893 57.5393 0.0000 -12.6427 0.0000
# 4 0.0000 0.0000 0.0000 30.1311 0.0000 -0.0290
# 5 -26.4382 -5.4748 -12.6427 0.0000 23.9502 0.0000
# 6 0.0000 0.0000 0.0000 -0.0290 0.0000 25.7468
#
#
#
# Elastic Compliance Matrix: (Units=1/GPa)
#
#
# Indices 1 2 3 4 5 6 
#
# 1 0.038126 0.002337 0.020782 0.000000 0.053591 0.000000
# 2 0.002337 0.012259 0.002245 0.000000 0.006567 0.000000
# 3 0.020782 0.002245 0.031066 0.000000 0.039853 0.000000
# 4 0.000000 0.000000 0.000000 0.033188 0.000000 0.000037
# 5 0.053591 0.006567 0.039853 0.000000 0.123450 0.000000
# 6 0.000000 0.000000 0.000000 0.000037 0.000000 0.038840
#
#
# Mechanical properties :
#
#
# Convention : Reuss Voigt Hill
#
# Bulk Modulus (GPa) = 7.56549 21.01964 14.29257
# Shear Modulus (GPa) = 18.50070 30.88162 24.69116
#
# Velocity S-wave (km/s) = 2.99339 3.86740 3.45812
# Velocity P-wave (km/s) = 3.95112 5.48842 4.78195
#
# Compressibility (1/GPa) = 0.13217917
#
# Stress axis : x y z
#
# Youngs Moduli (GPa) = 26.22892 81.57114 32.18982
#
# Poissons Ratio (x) = -0.19061 -0.66897
# Poissons Ratio (y) = -0.06129 -0.07228
# Poissons Ratio (z) = -0.54509 -0.18316
#
# Static dielectric constant tensor:
#      x y z
#    x 1.813750 0.000000 -0.028550 
#    y 0.000000 1.617010 0.000000 
#    z -0.028550 0.000000 1.727400 
# 
# From -- ./inp_files/134061.got.cif
#   From: 2010.05.17/outbox.cif.g08.bks.cpg/sg12_68_cif.got.tgz:134061.got - 2010.06.03 13:09:07.
