data_PCOD9213182
_publ_section_title
;
Structure prediction by ZEFSAII (Michael W. Deem and Ramdas Pophale) SiO2 
 PCOD9213182
Probable space group: C 2/M
;
_chemical_formula_sum "Si O2"
_cell_formula_units_Z 56
_cell_length_a 25.534064
_cell_length_b 10.826907
_cell_length_c 15.709368
_cell_angle_alpha 90.000000
_cell_angle_beta 139.814935
_cell_angle_gamma 90.000000
_cell_volume 2802.314308
_symmetry_space_group_name_H-M "C 2/M"
_symmetry_group_IT_number 12
_symmetry_cell_setting 'monoclinic'
loop_
_space_group_symop_operation_xyz
x,y,z
-x,y,-z
-x,-y,-z
x,-y,z
1/2+x,1/2+y,z
1/2-x,1/2+y,-z
1/2-x,1/2-y,-z
1/2+x,1/2-y,z
loop_
_atom_site_type_symbol
_atom_site_label
_atom_site_fract_x
_atom_site_fract_y
_atom_site_fract_z
Si Si1 0.452016 0.640047 0.072658
Si Si2 0.924873 0.854372 0.528716
Si Si3 0.578767 0.864157 0.211538
Si Si4 0.314109 0.279863 0.785730
Si Si5 0.900500 0.148852 0.198124
Si Si6 0.309522 0.801202 0.502201
Si Si7 0.803213 0.853112 0.229900
O O1 0.486749 0.500000 0.123139
O O2 0.516417 0.749540 0.138082
O O3 0.405907 0.669279 0.104228
O O4 0.387209 0.643316 0.916363
O O5 0.860945 0.801760 0.516565
O O6 0.886049 0.835880 0.387913
O O7 0.014109 0.802785 0.657671
O O8 0.930183 0.000000 0.548296
O O9 0.644490 0.826417 0.221209
O O10 0.624346 0.871055 0.359161
O O11 0.543265 0.000000 0.149652
O O12 0.250599 0.351452 0.645767
O O13 0.264661 0.219186 0.802043
O O14 0.825567 0.192104 0.162972
O O15 0.899217 0.000000 0.207927
O O16 0.250000 0.750000 0.500000
O O17 0.784086 0.000000 0.206604
#
# Coordination Sequence:
#
# PCOD9213182 Si02
#       7
#     8   8   8   8   8   8   8
#     4  11  24  41  61  87 120 159 199 239 291 357
#     4   9  15  28  52  82 115 149 191 242 288 338
#     4  11  23  40  62  87 118 156 200 248 295 346
#     4  10  22  37  57  87 120 156 194 240 296 355
#     4   9  17  31  54  83 115 152 197 241 284 344
#     4   9  19  34  53  83 116 152 191 236 292 346
#     4   9  17  30  53  86 119 151 191 243 297 342
#
# _framework density 19.983483
#
# number of rings (size 3 to 8) (size 9 to 14) (size 15 to 20)
#    0.000    2.286    1.429    1.286    0.000    9.143 
#    0.000    4.286    0.000    0.857    0.000    2.000 
#    0.000    0.000    0.000    0.000    0.000    0.000 
#
# Total GULP energy -155961.011463 kJ/mol
# GULP energy per Si atom -5570.036124 kJ/mol
# Density = 1.993800 g / cm^3
# Si number density = 19.983483 Si / 1000 Ang^3
#
#
#
# Elastic Constant Matrix: (Units=GPa)
#
#
# Indices 1 2 3 4 5 6 
#
# 1 130.9173 35.1925 25.1388 0.0000 -11.1721 0.0000
# 2 35.1925 66.8736 46.3668 0.0000 -4.2604 0.0000
# 3 25.1388 46.3668 93.4730 0.0000 9.1770 0.0000
# 4 0.0000 0.0000 0.0000 15.1885 0.0000 -3.1549
# 5 -11.1721 -4.2604 9.1770 0.0000 13.3526 0.0000
# 6 0.0000 0.0000 0.0000 -3.1549 0.0000 7.4397
#
#
#
# Elastic Compliance Matrix: (Units=1/GPa)
#
#
# Indices 1 2 3 4 5 6 
#
# 1 0.009553 -0.003317 -0.001721 0.000000 0.008117 0.000000
# 2 -0.003317 0.027722 -0.014429 0.000000 0.015986 0.000000
# 3 -0.001721 -0.014429 0.020280 0.000000 -0.019981 0.000000
# 4 0.000000 0.000000 0.000000 0.072199 0.000000 0.030617
# 5 0.008117 0.015986 -0.019981 0.000000 0.100517 0.000000
# 6 0.000000 0.000000 0.000000 0.030617 0.000000 0.147397
#
#
# Mechanical properties :
#
#
# Convention : Reuss Voigt Hill
#
# Bulk Modulus (GPa) = 53.70001 56.07334 54.88667
# Shear Modulus (GPa) = 11.82570 19.50056 15.66313
#
# Velocity S-wave (km/s) = 2.43528 3.12722 2.80269
# Velocity P-wave (km/s) = 5.90237 6.41562 6.16434
#
# Compressibility (1/GPa) = 0.01862197
#
# Stress axis : x y z
#
# Youngs Moduli (GPa) = 104.67632 36.07276 49.30965
#
# Poissons Ratio (x) = 0.11966 0.08485
# Poissons Ratio (y) = 0.34724 0.71147
# Poissons Ratio (z) = 0.18012 0.52048
#
# Static dielectric constant tensor:
#      x y z
#    x 1.710250 0.000000 -0.003470 
#    y 0.000000 1.776900 0.000000 
#    z -0.003470 0.000000 1.768450 
# 
# From -- ./inp_files/245683.got.cif
#   From: 2010.05.17/outbox.cif.g08.bks.cpg/sg12_123_cif.got.tgz:245683.got - 2010.06.03 13:09:07.
