data_PCOD9213181
_publ_section_title
;
Structure prediction by ZEFSAII (Michael W. Deem and Ramdas Pophale) SiO2 
 PCOD9213181
Probable space group: C 2/M
;
_chemical_formula_sum "Si O2"
_cell_formula_units_Z 44
_cell_length_a 20.766054
_cell_length_b 7.333318
_cell_length_c 15.312836
_cell_angle_alpha 90.000000
_cell_angle_beta 50.066006
_cell_angle_gamma 90.000000
_cell_volume 1788.065484
_symmetry_space_group_name_H-M "C 2/M"
_symmetry_group_IT_number 12
_symmetry_cell_setting 'monoclinic'
loop_
_space_group_symop_operation_xyz
x,y,z
-x,y,-z
-x,-y,-z
x,-y,z
1/2+x,1/2+y,z
1/2-x,1/2+y,-z
1/2-x,1/2-y,-z
1/2+x,1/2-y,z
loop_
_atom_site_type_symbol
_atom_site_label
_atom_site_fract_x
_atom_site_fract_y
_atom_site_fract_z
Si Si1 0.819095 0.789078 0.320838
Si Si2 0.527582 0.000000 0.118147
Si Si3 0.613218 0.290118 0.914389
Si Si4 0.276134 0.284672 0.876491
Si Si5 0.466563 0.278842 0.724860
Si Si6 0.141447 0.781439 0.518959
O O1 0.871568 0.708242 0.195773
O O2 0.836642 0.712783 0.401722
O O3 0.718840 0.781481 0.392691
O O4 0.843654 0.000000 0.303072
O O5 0.517377 0.160695 0.203073
O O6 0.558841 0.159513 0.021292
O O7 0.585265 0.500000 0.935340
O O8 0.705725 0.298338 0.876979
O O9 0.270755 0.500000 0.867053
O O10 0.372311 0.230102 0.777517
O O11 0.250000 0.250000 0.000000
O O12 0.467513 0.500000 0.741169
O O13 0.543555 0.238944 0.591781
O O14 0.148377 0.000000 0.511949
#
# Coordination Sequence:
#
# PCOD9213181 Si02
#       6
#     8   4   8   8   8   8
#     4   9  20  38  61  85 111 148 192 238 285 337
#     4  12  22  36  59  86 118 154 191 234 286 346
#     4  11  22  36  56  86 119 151 191 235 281 339
#     4  11  19  33  55  80 113 152 191 229 280 341
#     4  10  22  37  57  87 117 149 191 238 283 337
#     4   9  19  39  63  83 110 149 191 238 288 337
#
# _framework density 24.607596999999998
#
# number of rings (size 3 to 8) (size 9 to 14) (size 15 to 20)
#    0.000    1.818    2.727    1.091    3.818    0.000 
#    0.000    2.727    0.000    9.818    0.000    0.000 
#    0.000    0.000    0.000    0.000    0.000    0.000 
#
# Total GULP energy -122513.488900 kJ/mol
# GULP energy per Si atom -5568.794950 kJ/mol
# Density = 2.455159 g / cm^3
# Si number density = 24.607597 Si / 1000 Ang^3
#
#
#
# Elastic Constant Matrix: (Units=GPa)
#
#
# Indices 1 2 3 4 5 6 
#
# 1 84.7411 -14.3357 32.4798 -0.0044 -37.2384 0.0189
# 2 -14.3357 127.1343 11.8885 -0.0127 1.8532 0.0584
# 3 32.4798 11.8885 124.6956 -0.0025 -32.8979 0.0134
# 4 -0.0044 -0.0127 -0.0025 7.2103 0.0022 94.5382
# 5 -37.2384 1.8532 -32.8979 0.0022 46.3490 -0.0121
# 6 0.0189 0.0584 0.0134 94.5382 -0.0121 -468.5737
#
#
#
# Elastic Compliance Matrix: (Units=1/GPa)
#
#
# Indices 1 2 3 4 5 6 
#
# 1 0.018876 0.002053 -0.001394 0.000001 0.014094 0.000001
# 2 0.002053 0.008202 -0.001191 0.000000 0.000476 0.000001
# 3 -0.001394 -0.001191 0.010106 0.000000 0.006100 0.000000
# 4 0.000001 0.000000 0.000000 0.038046 0.000001 0.007676
# 5 0.014094 0.000476 0.006100 0.000001 0.037210 0.000000
# 6 0.000001 0.000001 0.000000 0.007676 0.000000 -0.000585
#
#
# Mechanical properties :
#
#
# Convention : Reuss Voigt Hill
#
# Bulk Modulus (GPa) = 27.68600 44.07069 35.87834
# Shear Modulus (GPa) = 40.01386 -62.56699 -11.27656
#
# Velocity S-wave (km/s) = 4.03684 -5.04788 -2.14301
# Velocity P-wave (km/s) = 5.74487 4.00331 2.91350
#
# Compressibility (1/GPa) = 0.03611934
#
# Stress axis : x y z
#
# Youngs Moduli (GPa) = 52.97821 121.92634 98.95446
#
# Poissons Ratio (x) = -0.25036 0.13795
# Poissons Ratio (y) = -0.10878 0.11787
# Poissons Ratio (z) = 0.07386 0.14523
#
# Static dielectric constant tensor:
#      x y z
#    x 2.019090 0.000000 -0.075020 
#    y 0.000000 1.993420 0.000000 
#    z -0.075020 0.000000 1.960700 
# 
# From -- ./inp_files/288097.got.cif
#   From: 2010.05.17/outbox.cif.g08.bks.cpg/sg12_145_cif.got.tgz:288097.got - 2010.06.03 13:09:07.
