data_PCOD9213940
_publ_section_title
;
Structure prediction by ZEFSAII (Michael W. Deem and Ramdas Pophale) SiO2 
 PCOD9213940
Probable space group: C 2/M
;
_chemical_formula_sum "Si O2"
_cell_formula_units_Z 64
_cell_length_a 29.136712
_cell_length_b 14.548508
_cell_length_c 9.471040
_cell_angle_alpha 90.000000
_cell_angle_beta 126.559649
_cell_angle_gamma 90.000000
_cell_volume 3224.782792
_symmetry_space_group_name_H-M "C 2/M"
_symmetry_group_IT_number 12
_symmetry_cell_setting 'monoclinic'
loop_
_space_group_symop_operation_xyz
x,y,z
-x,y,-z
-x,-y,-z
x,-y,z
1/2+x,1/2+y,z
1/2-x,1/2+y,-z
1/2-x,1/2-y,-z
1/2+x,1/2-y,z
loop_
_atom_site_type_symbol
_atom_site_label
_atom_site_fract_x
_atom_site_fract_y
_atom_site_fract_z
Si Si1 0.559091 0.400730 0.027572
Si Si2 0.650452 0.892840 0.988533
Si Si3 0.770886 0.892484 0.816716
Si Si4 0.653707 0.256795 0.233874
Si Si5 0.069101 0.701006 0.615723
Si Si6 0.559225 0.598476 0.693223
Si Si7 0.215940 0.893054 0.835211
Si Si8 0.337483 0.779385 0.425015
O O1 0.587509 0.500000 0.109162
O O2 0.596865 0.316671 0.143056
O O3 0.500000 0.399080 0.000000
O O4 0.549424 0.396661 0.842304
O O5 0.643891 0.828888 0.113155
O O6 0.715739 0.877867 0.056506
O O7 0.644083 0.000000 0.010231
O O8 0.604394 0.864180 0.785778
O O9 0.802520 0.825803 0.764880
O O10 0.705791 0.858496 0.704904
O O11 0.775072 0.000000 0.787074
O O12 0.796625 0.881067 0.021117
O O13 0.669482 0.227595 0.419973
O O14 0.083872 0.804503 0.693563
O O15 0.099104 0.697213 0.516842
O O16 0.000000 0.688342 0.500000
O O17 0.500000 0.594692 0.500000
O O18 0.588897 0.500000 0.718456
O O19 0.184165 0.817095 0.682808
O O20 0.205130 0.000000 0.775065
#
# Coordination Sequence:
#
# PCOD9213940 Si02
#       8
#     8   8   8   8   8   8   8   8
#     4  10  22  39  60  88 129 173 211 256 322 396
#     4  11  23  44  69  94 128 172 221 272 325 384
#     4  11  23  42  65  92 128 167 213 267 326 387
#     4  12  25  40  62  96 134 174 212 263 329 398
#     4  11  24  42  68  98 128 172 223 275 329 387
#     4   9  19  36  60  89 119 159 211 265 317 372
#     4  10  22  41  68  95 125 170 221 272 323 381
#     4  12  25  41  64  97 134 167 217 272 327 391
#
# _framework density 19.846298000000001
#
# number of rings (size 3 to 8) (size 9 to 14) (size 15 to 20)
#    0.000    1.250    3.750    1.875    3.500    2.250 
#    0.000    0.000    0.000    2.625    0.000    0.000 
#    0.000    0.000    0.000    0.000    0.000    0.000 
#
# Total GULP energy -178718.485954 kJ/mol
# GULP energy per Si atom -5584.952686 kJ/mol
# Density = 1.980113 g / cm^3
# Si number density = 19.846298 Si / 1000 Ang^3
#
#
#
# Elastic Constant Matrix: (Units=GPa)
#
#
# Indices 1 2 3 4 5 6 
#
# 1 79.0266 33.5914 11.1685 0.0000 10.4602 0.0000
# 2 33.5914 104.5712 33.9321 0.0000 -0.6065 0.0000
# 3 11.1685 33.9321 71.0880 0.0000 -1.6410 0.0000
# 4 0.0000 0.0000 0.0000 60.8559 0.0000 11.5640
# 5 10.4602 -0.6065 -1.6410 0.0000 36.2406 0.0000
# 6 0.0000 0.0000 0.0000 11.5640 0.0000 23.9367
#
#
#
# Elastic Compliance Matrix: (Units=1/GPa)
#
#
# Indices 1 2 3 4 5 6 
#
# 1 0.015362 -0.004903 -0.000177 0.000000 -0.004524 0.000000
# 2 -0.004903 0.012881 -0.005346 0.000000 0.001389 0.000000
# 3 -0.000177 -0.005346 0.016663 0.000000 0.000716 0.000000
# 4 0.000000 0.000000 0.000000 0.018093 0.000000 -0.008741
# 5 -0.004524 0.001389 0.000716 0.000000 0.028955 0.000000
# 6 0.000000 0.000000 0.000000 -0.008741 0.000000 0.046000
#
#
# Mechanical properties :
#
#
# Convention : Reuss Voigt Hill
#
# Bulk Modulus (GPa) = 41.57550 45.78552 43.68051
# Shear Modulus (GPa) = 29.97152 35.93954 32.95553
#
# Velocity S-wave (km/s) = 3.89032 4.26008 4.07939
# Velocity P-wave (km/s) = 6.41667 6.87879 6.65175
#
# Compressibility (1/GPa) = 0.02405262
#
# Stress axis : x y z
#
# Youngs Moduli (GPa) = 65.09495 77.63533 60.01247
#
# Poissons Ratio (x) = 0.38068 0.01065
# Poissons Ratio (y) = 0.31919 0.32082
# Poissons Ratio (z) = 0.01155 0.41503
#
# Static dielectric constant tensor:
#      x y z
#    x 1.747930 0.000000 0.026530 
#    y 0.000000 1.701010 0.000000 
#    z 0.026530 0.000000 1.658970 
# 
# From -- ./inp_files/112000.got.cif
#   From: 2010.05.17/outbox.cif.g08.bks.cpg/sg12_56_cif.got.tgz:112000.got - 2010.06.03 13:09:07.
