data_PCOD9213985
_publ_section_title
;
Structure prediction by ZEFSAII (Michael W. Deem and Ramdas Pophale) SiO2 
 PCOD9213985
Probable space group: C 2/M
;
_chemical_formula_sum "Si O2"
_cell_formula_units_Z 40
_cell_length_a 13.764938
_cell_length_b 25.991018
_cell_length_c 9.741118
_cell_angle_alpha 90.000000
_cell_angle_beta 34.593416
_cell_angle_gamma 90.000000
_cell_volume 1978.622068
_symmetry_space_group_name_H-M "C 2/M"
_symmetry_group_IT_number 12
_symmetry_cell_setting 'monoclinic'
loop_
_space_group_symop_operation_xyz
x,y,z
-x,y,-z
-x,-y,-z
x,-y,z
1/2+x,1/2+y,z
1/2-x,1/2+y,-z
1/2-x,1/2-y,-z
1/2+x,1/2-y,z
loop_
_atom_site_type_symbol
_atom_site_label
_atom_site_fract_x
_atom_site_fract_y
_atom_site_fract_z
Si Si1 0.392469 0.726531 0.939324
Si Si2 0.909278 0.131364 0.750458
Si Si3 0.982453 0.339639 0.866011
Si Si4 0.357226 0.441861 0.047339
Si Si5 0.670981 0.155157 0.376624
O O1 0.494130 0.777541 0.856656
O O2 0.310237 0.697143 0.166065
O O3 0.250000 0.750000 0.000000
O O4 0.480469 0.680980 0.750562
O O5 0.705886 0.142639 0.966469
O O6 0.000000 0.126998 0.500000
O O7 0.929807 0.081461 0.821528
O O8 0.000000 0.359670 0.000000
O O9 0.124832 0.353828 0.588283
O O10 0.293616 0.500000 0.104802
O O11 0.221417 0.399371 0.252971
O O12 0.500000 0.441589 0.000000
O O13 0.500000 0.174329 0.500000
#
# Coordination Sequence:
#
# PCOD9213985 Si02
#       5
#     8   8   8   8   8
#     4   9  19  33  55  83 120 160 196 234 287 342
#     4  10  22  39  61  87 124 160 194 250 303 356
#     4  11  24  37  57  91 124 164 205 242 292 349
#     4  10  23  43  67  91 114 152 201 252 312 365
#     4  11  20  40  63  86 120 158 205 250 291 354
#
# _framework density 20.216089
#
# number of rings (size 3 to 8) (size 9 to 14) (size 15 to 20)
#    0.000    1.800    6.000    0.000    8.400    4.800 
#    0.000    0.000    0.000    1.200    0.000    0.000 
#    0.000    0.000    0.000    0.000    0.000    0.000 
#
# Total GULP energy -111599.904640 kJ/mol
# GULP energy per Si atom -5579.995232 kJ/mol
# Density = 2.017008 g / cm^3
# Si number density = 20.216089 Si / 1000 Ang^3
#
#
#
# Elastic Constant Matrix: (Units=GPa)
#
#
# Indices 1 2 3 4 5 6 
#
# 1 53.7976 5.7927 23.2970 0.0000 17.6179 0.0000
# 2 5.7927 109.0658 45.6961 0.0000 5.4988 0.0000
# 3 23.2970 45.6961 163.9695 0.0000 42.9255 0.0000
# 4 0.0000 0.0000 0.0000 6.4924 0.0000 -4.9575
# 5 17.6179 5.4988 42.9255 0.0000 37.0435 0.0000
# 6 0.0000 0.0000 0.0000 -4.9575 0.0000 11.3388
#
#
#
# Elastic Compliance Matrix: (Units=1/GPa)
#
#
# Indices 1 2 3 4 5 6 
#
# 1 0.022077 -0.000509 -0.000382 0.000000 -0.009982 0.000000
# 2 -0.000509 0.010570 -0.003626 0.000000 0.002875 0.000000
# 3 -0.000382 -0.003626 0.010012 0.000000 -0.010882 0.000000
# 4 0.000000 0.000000 0.000000 0.231219 0.000000 0.101092
# 5 -0.009982 0.002875 -0.010882 0.000000 0.043926 0.000000
# 6 0.000000 0.000000 0.000000 0.101092 0.000000 0.132392
#
#
# Mechanical properties :
#
#
# Convention : Reuss Voigt Hill
#
# Bulk Modulus (GPa) = 29.73916 52.93383 41.33649
# Shear Modulus (GPa) = 10.62836 27.77808 19.20322
#
# Velocity S-wave (km/s) = 2.29538 3.71085 3.08538
# Velocity P-wave (km/s) = 4.66558 6.67843 5.76060
#
# Compressibility (1/GPa) = 0.03362570
#
# Stress axis : x y z
#
# Youngs Moduli (GPa) = 45.29540 94.60649 99.87691
#
# Poissons Ratio (x) = 0.04819 0.03811
# Poissons Ratio (y) = 0.02307 0.36215
# Poissons Ratio (z) = 0.01728 0.34304
#
# Static dielectric constant tensor:
#      x y z
#    x 1.825420 0.000000 0.000390 
#    y 0.000000 1.689370 0.000000 
#    z 0.000390 0.000000 1.751190 
# 
# From -- ./inp_files/65079.got.cif
#   From: 2010.05.17/outbox.cif.g08.bks.cpg/sg12_33_cif.got.tgz:65079.got - 2010.06.03 13:09:07.
