data_PCOD9213907
_publ_section_title
;
Structure prediction by ZEFSAII (Michael W. Deem and Ramdas Pophale) SiO2 
 PCOD9213907
Probable space group: C 2/M
;
_chemical_formula_sum "Si O2"
_cell_formula_units_Z 56
_cell_length_a 9.429320
_cell_length_b 27.894729
_cell_length_c 18.879147
_cell_angle_alpha 90.000000
_cell_angle_beta 139.368600
_cell_angle_gamma 90.000000
_cell_volume 3233.648144
_symmetry_space_group_name_H-M "C 2/M"
_symmetry_group_IT_number 12
_symmetry_cell_setting 'monoclinic'
loop_
_space_group_symop_operation_xyz
x,y,z
-x,y,-z
-x,-y,-z
x,-y,z
1/2+x,1/2+y,z
1/2-x,1/2+y,-z
1/2-x,1/2-y,-z
1/2+x,1/2-y,z
loop_
_atom_site_type_symbol
_atom_site_label
_atom_site_fract_x
_atom_site_fract_y
_atom_site_fract_z
Si Si1 0.780025 0.053933 0.529653
Si Si2 0.263716 0.052749 0.317837
Si Si3 0.828538 0.798388 0.995760
Si Si4 0.463773 0.182701 0.747698
Si Si5 0.674178 0.651230 0.224783
Si Si6 0.740408 0.716796 0.387691
Si Si7 0.004774 0.155119 0.419928
O O1 0.525806 0.057237 0.412393
O O2 0.787975 0.056039 0.618183
O O3 0.897385 0.101725 0.547300
O O4 0.857220 0.000000 0.537750
O O5 0.155681 0.095603 0.235188
O O6 0.200572 0.000000 0.268733
O O7 0.621832 0.817732 0.875185
O O8 0.750000 0.750000 0.000000
O O9 0.000000 0.786277 0.000000
O O10 0.962724 0.829917 0.102711
O O11 0.609620 0.160453 0.740315
O O12 0.380631 0.234695 0.685863
O O13 0.250298 0.155261 0.692924
O O14 0.707995 0.679526 0.310958
O O15 0.631014 0.692335 0.416133
O O16 0.000000 0.722598 0.500000
O O17 0.000000 0.170569 0.500000
#
# Coordination Sequence:
#
# PCOD9213907 Si02
#       7
#     8   8   8   8   8   8   8
#     4   9  18  34  57  84 115 150 188 233 283 343
#     4   9  17  33  59  86 110 147 196 233 277 341
#     4  10  22  39  60  82 110 148 197 241 281 335
#     4  11  24  38  54  82 117 148 192 237 285 336
#     4  11  21  38  60  82 114 151 192 241 278 335
#     4  12  23  36  56  81 115 158 191 227 279 343
#     4  12  24  36  54  85 121 152 187 233 289 343
#
# _framework density 17.317902
#
# number of rings (size 3 to 8) (size 9 to 14) (size 15 to 20)
#    0.000    1.429    2.857    4.714    2.000    2.000 
#    0.000    0.714    0.000    4.714    0.000    2.000 
#    0.000    0.000    0.000    0.000    0.000    0.000 
#
# Total GULP energy -156167.797366 kJ/mol
# GULP energy per Si atom -5577.421335 kJ/mol
# Density = 1.727849 g / cm^3
# Si number density = 17.317902 Si / 1000 Ang^3
#
#
#
# Elastic Constant Matrix: (Units=GPa)
#
#
# Indices 1 2 3 4 5 6 
#
# 1 62.6069 34.4445 53.3589 0.0001 -5.7002 0.0000
# 2 34.4445 132.7641 53.3603 0.0000 -11.6915 0.0000
# 3 53.3589 53.3603 105.9338 0.0008 2.0757 0.0004
# 4 0.0001 0.0000 0.0008 -20.6653 0.0001 -27.3943
# 5 -5.7002 -11.6915 2.0757 0.0001 23.3195 0.0001
# 6 0.0000 0.0000 0.0004 -27.3943 0.0001 10.2004
#
#
#
# Elastic Compliance Matrix: (Units=1/GPa)
#
#
# Indices 1 2 3 4 5 6 
#
# 1 0.029741 -0.001165 -0.014550 0.000000 0.007981 0.000000
# 2 -0.001165 0.010155 -0.004631 0.000000 0.005219 0.000000
# 3 -0.014550 -0.004631 0.019250 0.000000 -0.007592 0.000000
# 4 0.000000 0.000000 0.000000 -0.010612 0.000000 -0.028499
# 5 0.007981 0.005219 -0.007592 0.000000 0.048126 0.000000
# 6 0.000000 0.000000 0.000000 -0.028499 0.000000 0.021499
#
#
# Mechanical properties :
#
#
# Convention : Reuss Voigt Hill
#
# Bulk Modulus (GPa) = 54.18755 64.84804 59.51779
# Shear Modulus (GPa) = 30.30258 13.24698 21.77478
#
# Velocity S-wave (km/s) = 4.18758 2.76874 3.54977
# Velocity P-wave (km/s) = 7.39858 6.91000 7.15846
#
# Compressibility (1/GPa) = 0.01845442
#
# Stress axis : x y z
#
# Youngs Moduli (GPa) = 33.62329 98.47185 51.94816
#
# Poissons Ratio (x) = 0.11476 0.75585
# Poissons Ratio (y) = 0.03918 0.24055
# Poissons Ratio (z) = 0.48922 0.45598
#
# Static dielectric constant tensor:
#      x y z
#    x 1.601690 0.000000 0.024710 
#    y 0.000000 1.604410 0.000000 
#    z 0.024710 0.000000 1.723670 
# 
# From -- ./inp_files/125335.got.cif
#   From: 2010.05.17/outbox.cif.g08.bks.cpg/sg12_63_cif.got.tgz:125335.got - 2010.06.03 13:09:07.
