data_PCOD9213635
_publ_section_title
;
Structure prediction by ZEFSAII (Michael W. Deem and Ramdas Pophale) SiO2 
 PCOD9213635
Probable space group: C 2/M
;
_chemical_formula_sum "Si O2"
_cell_formula_units_Z 40
_cell_length_a 14.681556
_cell_length_b 18.492214
_cell_length_c 16.534958
_cell_angle_alpha 90.000000
_cell_angle_beta 159.041394
_cell_angle_gamma 90.000000
_cell_volume 1605.739147
_symmetry_space_group_name_H-M "C 2/M"
_symmetry_group_IT_number 12
_symmetry_cell_setting 'monoclinic'
loop_
_space_group_symop_operation_xyz
x,y,z
-x,y,-z
-x,-y,-z
x,-y,z
1/2+x,1/2+y,z
1/2-x,1/2+y,-z
1/2-x,1/2-y,-z
1/2+x,1/2-y,z
loop_
_atom_site_type_symbol
_atom_site_label
_atom_site_fract_x
_atom_site_fract_y
_atom_site_fract_z
Si Si1 0.691767 0.000000 0.235465
Si Si2 0.979449 0.079837 0.113007
Si Si3 0.028514 0.859456 0.326993
Si Si4 0.438518 0.804207 0.269656
Si Si5 0.000000 0.356190 0.500000
Si Si6 0.247157 0.647370 0.248084
O O1 0.642786 0.915957 0.220438
O O2 0.000000 0.000000 0.500000
O O3 0.500000 0.000000 0.000000
O O4 0.007416 0.089506 0.232636
O O5 0.250587 0.094074 0.296735
O O6 0.880483 0.000000 0.011378
O O7 0.803013 0.145989 0.941969
O O8 0.909610 0.778473 0.217881
O O9 0.885302 0.889889 0.285522
O O10 0.324988 0.839125 0.582081
O O11 0.504476 0.811445 0.419795
O O12 0.500000 0.681014 0.500000
O O13 0.000000 0.685556 0.000000
#
# Coordination Sequence:
#
# PCOD9213635 Si02
#       6
#     4   8   8   8   4   8
#     4   8  16  34  52  80 122 159 206 269 324 382
#     4  11  24  43  69 102 138 181 229 290 357 427
#     4  10  24  42  65  95 138 175 230 287 356 421
#     4  10  23  44  66  96 135 177 225 290 352 425
#     4  10  23  42  70 102 135 174 232 290 353 424
#     4  10  22  38  62  94 129 178 230 284 340 420
#
# _framework density 24.910646
#
# number of rings (size 3 to 8) (size 9 to 14) (size 15 to 20)
#    0.000    2.000    0.000    1.500    5.600    6.400 
#    0.000    0.000    0.000    0.000    0.000    0.000 
#    0.000    0.000    0.000    0.000    0.000    0.000 
#
# Total GULP energy -111415.317828 kJ/mol
# GULP energy per Si atom -5570.765891 kJ/mol
# Density = 2.485395 g / cm^3
# Si number density = 24.910646 Si / 1000 Ang^3
#
#
#
# Elastic Constant Matrix: (Units=GPa)
#
#
# Indices 1 2 3 4 5 6 
#
# 1 92.2049 7.5617 5.5961 -0.0059 20.5056 -0.0037
# 2 7.5617 112.8046 34.7696 -0.2365 -4.0189 -0.0595
# 3 5.5961 34.7696 165.3527 -0.4860 2.3341 -0.1375
# 4 -0.0059 -0.2365 -0.4860 -5.4548 -0.0952 -7.8007
# 5 20.5056 -4.0189 2.3341 -0.0952 35.7831 0.0054
# 6 -0.0037 -0.0595 -0.1375 -7.8007 0.0054 15.5338
#
#
#
# Elastic Compliance Matrix: (Units=1/GPa)
#
#
# Indices 1 2 3 4 5 6 
#
# 1 0.012566 -0.001073 -0.000096 0.000098 -0.007315 0.000050
# 2 -0.001073 0.009622 -0.002013 -0.000171 0.001827 -0.000068
# 3 -0.000096 -0.002013 0.006482 -0.000321 -0.000595 -0.000111
# 4 0.000098 -0.000171 -0.000321 -0.106672 -0.000330 -0.053572
# 5 -0.007315 0.001827 -0.000595 -0.000330 0.032381 -0.000177
# 6 0.000050 -0.000068 -0.000111 -0.053572 -0.000177 0.037472
#
#
# Mechanical properties :
#
#
# Convention : Reuss Voigt Hill
#
# Bulk Modulus (GPa) = 44.83340 51.80189 48.31764
# Shear Modulus (GPa) = 884.82119 30.66808 457.74463
#
# Velocity S-wave (km/s) = 18.86714 3.51254 13.57032
# Velocity P-wave (km/s) = 22.19600 6.10662 16.27810
#
# Compressibility (1/GPa) = 0.02230480
#
# Stress axis : x y z
#
# Youngs Moduli (GPa) = 79.57949 103.92782 154.28203
#
# Poissons Ratio (x) = 0.11153 0.01482
# Poissons Ratio (y) = 0.08540 0.31062
# Poissons Ratio (z) = 0.00764 0.20924
#
# Static dielectric constant tensor:
#      x y z
#    x 2.040190 0.000010 -0.043970 
#    y 0.000010 1.968930 -0.000010 
#    z -0.043970 -0.000010 2.016800 
# 
# From -- ./inp_files/272479.got.cif
#   From: 2010.05.17/outbox.cif.g08.bks.cpg/sg12_137_cif.got.tgz:272479.got - 2010.06.03 13:09:07.
