data_PCOD9213943
_publ_section_title
;
Structure prediction by ZEFSAII (Michael W. Deem and Ramdas Pophale) SiO2 
 PCOD9213943
Probable space group: C 2/M
;
_chemical_formula_sum "Si O2"
_cell_formula_units_Z 64
_cell_length_a 10.112154
_cell_length_b 14.116043
_cell_length_c 25.944574
_cell_angle_alpha 90.000000
_cell_angle_beta 77.766122
_cell_angle_gamma 90.000000
_cell_volume 3619.320054
_symmetry_space_group_name_H-M "C 2/M"
_symmetry_group_IT_number 12
_symmetry_cell_setting 'monoclinic'
loop_
_space_group_symop_operation_xyz
x,y,z
-x,y,-z
-x,-y,-z
x,-y,z
1/2+x,1/2+y,z
1/2-x,1/2+y,-z
1/2-x,1/2-y,-z
1/2+x,1/2-y,z
loop_
_atom_site_type_symbol
_atom_site_label
_atom_site_fract_x
_atom_site_fract_y
_atom_site_fract_z
Si Si1 0.896080 0.727010 0.464272
Si Si2 0.264193 0.745466 0.216718
Si Si3 0.521035 0.610531 0.384430
Si Si4 0.654920 0.110974 0.633452
Si Si5 0.790103 0.388978 0.873534
Si Si6 0.354805 0.745284 0.037758
Si Si7 0.973221 0.774489 0.289179
Si Si8 0.105394 0.387852 0.874552
O O1 0.750000 0.750000 0.500000
O O2 0.880317 0.649981 0.420372
O O3 0.000000 0.696253 0.500000
O O4 0.956645 0.821666 0.432787
O O5 0.230498 0.663661 0.178692
O O6 0.127058 0.770983 0.257557
O O7 0.375958 0.712607 0.248463
O O8 0.320104 0.833632 0.178373
O O9 0.493146 0.500000 0.395575
O O10 0.683814 0.624215 0.371280
O O11 0.463497 0.646344 0.334403
O O12 0.572833 0.176100 0.680195
O O13 0.624329 0.000000 0.641447
O O14 0.767397 0.500000 0.870732
O O15 0.688045 0.341351 0.922222
O O16 0.944306 0.373509 0.879861
O O17 0.353336 0.836759 0.075564
O O18 0.500000 0.734895 0.000000
O O19 0.250000 0.750000 0.000000
O O20 0.133170 0.500000 0.872520
#
# Coordination Sequence:
#
# PCOD9213943 Si02
#       8
#     8   8   8   8   8   8   8   8
#     4  11  22  39  61  88 120 155 192 243 298 345
#     4  11  22  39  61  88 120 155 192 243 296 344
#     4  10  22  39  61  89 118 154 200 242 286 350
#     4  10  22  39  61  89 118 153 199 242 287 352
#     4  10  22  39  60  89 120 152 197 245 289 345
#     4  11  22  39  61  88 120 155 192 241 295 344
#     4  11  22  39  61  88 120 155 192 241 297 345
#     4  10  22  39  62  89 116 155 202 239 284 355
#
# _framework density 17.682879
#
# number of rings (size 3 to 8) (size 9 to 14) (size 15 to 20)
#    0.000    1.500    5.000    0.000    0.000    4.000 
#    0.000    2.500    0.000    0.000    0.000    0.000 
#    0.000    0.000    0.000    0.000    0.000    0.000 
#
# Total GULP energy -178697.294973 kJ/mol
# GULP energy per Si atom -5584.290468 kJ/mol
# Density = 1.764263 g / cm^3
# Si number density = 17.682879 Si / 1000 Ang^3
#
#
#
# Elastic Constant Matrix: (Units=GPa)
#
#
# Indices 1 2 3 4 5 6 
#
# 1 94.1414 36.8209 34.6022 0.0000 9.3127 0.0000
# 2 36.8209 115.4237 40.5297 0.0000 5.0585 0.0000
# 3 34.6022 40.5297 93.1663 0.0000 10.8743 0.0000
# 4 0.0000 0.0000 0.0000 6.1960 0.0000 -0.7572
# 5 9.3127 5.0585 10.8743 0.0000 50.0797 0.0000
# 6 0.0000 0.0000 0.0000 -0.7572 0.0000 26.9033
#
#
#
# Elastic Compliance Matrix: (Units=1/GPa)
#
#
# Indices 1 2 3 4 5 6 
#
# 1 0.013177 -0.002928 -0.003456 0.000000 -0.001404 0.000000
# 2 -0.002928 0.010877 -0.003672 0.000000 0.000243 0.000000
# 3 -0.003456 -0.003672 0.013847 0.000000 -0.001993 0.000000
# 4 0.000000 0.000000 0.000000 0.161952 0.000000 0.004558
# 5 -0.001404 0.000243 -0.001993 0.000000 0.020637 0.000000
# 6 0.000000 0.000000 0.000000 0.004558 0.000000 0.037298
#
#
# Mechanical properties :
#
#
# Convention : Reuss Voigt Hill
#
# Bulk Modulus (GPa) = 56.22059 58.51522 57.36791
# Shear Modulus (GPa) = 17.61608 29.35438 23.48523
#
# Velocity S-wave (km/s) = 3.15972 4.07879 3.64831
# Velocity P-wave (km/s) = 6.72121 7.43944 7.08943
#
# Compressibility (1/GPa) = 0.01778708
#
# Stress axis : x y z
#
# Youngs Moduli (GPa) = 75.89038 91.93886 72.21596
#
# Poissons Ratio (x) = 0.26923 0.24959
# Poissons Ratio (y) = 0.22224 0.26521
# Poissons Ratio (z) = 0.26229 0.33764
#
# Static dielectric constant tensor:
#      x y z
#    x 1.582390 0.000000 0.006630 
#    y 0.000000 1.570830 0.000000 
#    z 0.006630 0.000000 1.597100 
# 
# From -- ./inp_files/356158.got.cif
#   From: 2010.05.17/outbox.cif.g08.bks.cpg/sg12_179_cif.got.tgz:356158.got - 2010.06.03 13:09:07.
