data_PCOD9213428
_publ_section_title
;
Structure prediction by ZEFSAII (Michael W. Deem and Ramdas Pophale) SiO2 
 PCOD9213428
Probable space group: C 2/M
;
_chemical_formula_sum "Si O2"
_cell_formula_units_Z 56
_cell_length_a 14.940522
_cell_length_b 9.972970
_cell_length_c 19.900461
_cell_angle_alpha 90.000000
_cell_angle_beta 92.432877
_cell_angle_gamma 90.000000
_cell_volume 2962.523387
_symmetry_space_group_name_H-M "C 2/M"
_symmetry_group_IT_number 12
_symmetry_cell_setting 'monoclinic'
loop_
_space_group_symop_operation_xyz
x,y,z
-x,y,-z
-x,-y,-z
x,-y,z
1/2+x,1/2+y,z
1/2-x,1/2+y,-z
1/2-x,1/2-y,-z
1/2+x,1/2-y,z
loop_
_atom_site_type_symbol
_atom_site_label
_atom_site_fract_x
_atom_site_fract_y
_atom_site_fract_z
Si Si1 0.132002 0.651115 0.036606
Si Si2 0.077808 0.660600 0.182408
Si Si3 0.658230 0.353190 0.930190
Si Si4 0.379044 0.841319 0.669374
Si Si5 0.281221 0.659382 0.439482
Si Si6 0.549372 0.657767 0.639290
Si Si7 0.586874 0.653649 0.788898
O O1 0.097657 0.500000 0.027797
O O2 0.108001 0.705791 0.109566
O O3 0.239867 0.642087 0.042238
O O4 0.107812 0.742455 0.972412
O O5 0.067638 0.500000 0.178265
O O6 0.136066 0.687156 0.251561
O O7 0.986818 0.737234 0.195438
O O8 0.617481 0.500000 0.940737
O O9 0.659512 0.331453 0.849918
O O10 0.290802 0.819756 0.622474
O O11 0.461595 0.749835 0.645508
O O12 0.403099 0.000000 0.664950
O O13 0.280361 0.500000 0.455584
O O14 0.250000 0.750000 0.500000
O O15 0.381455 0.693629 0.417361
O O16 0.524359 0.500000 0.631315
O O17 0.606007 0.669269 0.710886
O O18 0.552143 0.500000 0.793891
#
# Coordination Sequence:
#
# PCOD9213428 Si02
#       7
#     8   8   8   8   8   8   8
#     4   9  18  31  47  68  95 129 167 208 252 299
#     4   9  18  32  51  73  97 128 168 210 253 301
#     4   9  18  31  47  68  95 129 167 208 252 299
#     4   9  19  36  57  81 109 141 178 220 264 312
#     4  10  22  38  58  84 111 142 178 214 259 318
#     4   9  19  36  57  81 109 141 178 220 264 312
#     4   9  18  32  51  73  97 128 168 210 253 301
#
# _framework density 18.902805000000001
#
# number of rings (size 3 to 8) (size 9 to 14) (size 15 to 20)
#    0.000    2.857    0.000    0.000    2.000    3.429 
#    0.000    5.714    0.000    0.000    0.000    0.000 
#    0.000    0.000    0.000    0.000    0.000    0.000 
#
# Total GULP energy -155881.616668 kJ/mol
# GULP energy per Si atom -5567.200595 kJ/mol
# Density = 1.885978 g / cm^3
# Si number density = 18.902805 Si / 1000 Ang^3
#
#
#
# Elastic Constant Matrix: (Units=GPa)
#
#
# Indices 1 2 3 4 5 6 
#
# 1 34.0036 11.9905 8.9773 0.0000 -7.3814 0.0000
# 2 11.9905 18.3714 21.8304 0.0000 -9.5579 0.0000
# 3 8.9773 21.8304 48.5997 0.0000 -19.9337 0.0000
# 4 0.0000 0.0000 0.0000 32.5739 0.0000 -1.5285
# 5 -7.3814 -9.5579 -19.9337 0.0000 33.2668 0.0000
# 6 0.0000 0.0000 0.0000 -1.5285 0.0000 15.7893
#
#
#
# Elastic Compliance Matrix: (Units=1/GPa)
#
#
# Indices 1 2 3 4 5 6 
#
# 1 0.040719 -0.037471 0.011403 0.000000 0.005101 0.000000
# 2 -0.037471 0.151429 -0.061869 0.000000 -0.001879 0.000000
# 3 0.011403 -0.061869 0.053044 0.000000 0.016539 0.000000
# 4 0.000000 0.000000 0.000000 0.030840 0.000000 0.002985
# 5 0.005101 -0.001879 0.016539 0.000000 0.040562 0.000000
# 6 0.000000 0.000000 0.000000 0.002985 0.000000 0.063623
#
#
# Mechanical properties :
#
#
# Convention : Reuss Voigt Hill
#
# Bulk Modulus (GPa) = 14.42660 20.73011 17.57835
# Shear Modulus (GPa) = 8.63261 20.20445 14.41853
#
# Velocity S-wave (km/s) = 2.13933 3.27289 2.76483
# Velocity P-wave (km/s) = 3.70822 5.02722 4.41723
#
# Compressibility (1/GPa) = 0.06931639
#
# Stress axis : x y z
#
# Youngs Moduli (GPa) = 24.55853 6.60374 18.85211
#
# Poissons Ratio (x) = 0.24745 -0.21496
# Poissons Ratio (y) = 0.92024 1.16637
# Poissons Ratio (z) = -0.28003 0.40857
#
# Static dielectric constant tensor:
#      x y z
#    x 1.648920 0.000000 0.023710 
#    y 0.000000 1.658630 0.000000 
#    z 0.023710 0.000000 1.697030 
# 
# From -- ./inp_files/309047.got.cif
#   From: 2010.05.17/outbox.cif.g08.bks.cpg/sg12_155_cif.got.tgz:309047.got - 2010.06.03 13:09:07.
