data_PCOD9213489
_publ_section_title
;
Structure prediction by ZEFSAII (Michael W. Deem and Ramdas Pophale) SiO2 
 PCOD9213489
Probable space group: C 2/M
;
_chemical_formula_sum "Si O2"
_cell_formula_units_Z 36
_cell_length_a 6.922161
_cell_length_b 13.212734
_cell_length_c 13.398781
_cell_angle_alpha 90.000000
_cell_angle_beta 80.594938
_cell_angle_gamma 90.000000
_cell_volume 1208.988527
_symmetry_space_group_name_H-M "C 2/M"
_symmetry_group_IT_number 12
_symmetry_cell_setting 'monoclinic'
loop_
_space_group_symop_operation_xyz
x,y,z
-x,y,-z
-x,-y,-z
x,-y,z
1/2+x,1/2+y,z
1/2-x,1/2+y,-z
1/2-x,1/2-y,-z
1/2+x,1/2-y,z
loop_
_atom_site_type_symbol
_atom_site_label
_atom_site_fract_x
_atom_site_fract_y
_atom_site_fract_z
Si Si1 0.101752 0.615935 0.360988
Si Si2 0.100161 0.118972 0.178449
Si Si3 0.143715 0.839036 0.401616
Si Si4 0.560553 0.881911 0.147420
Si Si5 0.750000 0.750000 0.000000
O O1 0.161595 0.500000 0.379946
O O2 0.862741 0.615797 0.383762
O O3 0.160008 0.647797 0.242991
O O4 0.162836 0.717091 0.413261
O O5 0.049569 0.137672 0.299836
O O6 0.332852 0.140440 0.162127
O O7 0.062214 0.204913 0.095509
O O8 0.058251 0.000000 0.158837
O O9 0.000000 0.877784 0.500000
O O10 0.558694 0.000000 0.159238
O O11 0.690089 0.858832 0.041246
#
# Coordination Sequence:
#
# PCOD9213489 Si02
#       5
#     8   8   8   8   4
#     4  10  22  42  66  95 131 170 215 265 323 386
#     4  10  22  38  59  87 118 160 209 256 315 382
#     4  11  22  42  69  97 130 169 214 268 323 384
#     4   9  19  36  58  82 114 158 202 252 316 376
#     4  12  18  32  60  84 116 150 206 264 312 374
#
# _framework density 29.776955000000001
#
# number of rings (size 3 to 8) (size 9 to 14) (size 15 to 20)
#    0.000    1.778    2.222    4.000    0.000    4.000 
#    0.000    2.222    0.000   10.667    0.000    0.000 
#    0.000    0.000    0.000    0.000    0.000    0.000 
#
# Total GULP energy -100390.000478 kJ/mol
# GULP energy per Si atom -5577.222249 kJ/mol
# Density = 2.970918 g / cm^3
# Si number density = 29.776955 Si / 1000 Ang^3
#
#
#
# Elastic Constant Matrix: (Units=GPa)
#
#
# Indices 1 2 3 4 5 6 
#
# 1 80.9064 13.6629 18.4698 0.0000 9.5475 0.0000
# 2 13.6629 145.8031 23.4700 0.0000 14.0133 0.0000
# 3 18.4698 23.4700 236.4725 0.0000 -6.1347 0.0000
# 4 0.0000 0.0000 0.0000 46.4964 0.0000 -7.4368
# 5 9.5475 14.0133 -6.1347 0.0000 31.1532 0.0000
# 6 0.0000 0.0000 0.0000 -7.4368 0.0000 57.9017
#
#
#
# Elastic Compliance Matrix: (Units=1/GPa)
#
#
# Indices 1 2 3 4 5 6 
#
# 1 0.013184 -0.000685 -0.001064 0.000000 -0.003942 0.000000
# 2 -0.000685 0.007358 -0.000761 0.000000 -0.003249 0.000000
# 3 -0.001064 -0.000761 0.004427 0.000000 0.001540 0.000000
# 4 0.000000 0.000000 0.000000 0.021958 0.000000 0.002820
# 5 -0.003942 -0.003249 0.001540 0.000000 0.035072 0.000000
# 6 0.000000 0.000000 0.000000 0.002820 0.000000 0.017633
#
#
# Mechanical properties :
#
#
# Convention : Reuss Voigt Hill
#
# Bulk Modulus (GPa) = 50.13002 63.82085 56.97543
# Shear Modulus (GPa) = 44.92281 54.28221 49.60251
#
# Velocity S-wave (km/s) = 3.88834 4.27425 4.08585
# Velocity P-wave (km/s) = 6.08528 6.77041 6.43696
#
# Compressibility (1/GPa) = 0.01994813
#
# Stress axis : x y z
#
# Youngs Moduli (GPa) = 75.85117 135.91409 225.86561
#
# Poissons Ratio (x) = 0.09314 0.24031
# Poissons Ratio (y) = 0.05198 0.17189
# Poissons Ratio (z) = 0.08070 0.10343
#
# Static dielectric constant tensor:
#      x y z
#    x 2.214660 0.000000 0.216390 
#    y 0.000000 1.973720 0.000000 
#    z 0.216390 0.000000 2.921950 
# 
# From -- ./inp_files/261468.got.cif
#   From: 2010.05.17/outbox.cif.g08.bks.cpg/sg12_131_cif.got.tgz:261468.got - 2010.06.03 13:09:07.
