data_PCOD9213702
_publ_section_title
;
Structure prediction by ZEFSAII (Michael W. Deem and Ramdas Pophale) SiO2 
 PCOD9213702
Probable space group: C 2/M
;
_chemical_formula_sum "Si O2"
_cell_formula_units_Z 48
_cell_length_a 14.923754
_cell_length_b 16.817433
_cell_length_c 13.467944
_cell_angle_alpha 90.000000
_cell_angle_beta 41.700219
_cell_angle_gamma 90.000000
_cell_volume 2248.604165
_symmetry_space_group_name_H-M "C 2/M"
_symmetry_group_IT_number 12
_symmetry_cell_setting 'monoclinic'
loop_
_space_group_symop_operation_xyz
x,y,z
-x,y,-z
-x,-y,-z
x,-y,z
1/2+x,1/2+y,z
1/2-x,1/2+y,-z
1/2-x,1/2-y,-z
1/2+x,1/2-y,z
loop_
_atom_site_type_symbol
_atom_site_label
_atom_site_fract_x
_atom_site_fract_y
_atom_site_fract_z
Si Si1 0.599317 0.086953 0.010568
Si Si2 0.476001 0.586714 0.402593
Si Si3 0.244446 0.592461 0.444638
Si Si4 0.310458 0.720829 0.796100
Si Si5 0.003821 0.328035 0.737641
Si Si6 0.107838 0.205928 0.818968
O O1 0.516455 0.093189 0.180036
O O2 0.662169 0.000000 0.946262
O O3 0.500000 0.098884 0.000000
O O4 0.701539 0.159833 0.929907
O O5 0.500000 0.580526 0.500000
O O6 0.520272 0.500000 0.323939
O O7 0.327591 0.597251 0.480055
O O8 0.558892 0.665282 0.311019
O O9 0.210028 0.500000 0.455699
O O10 0.116612 0.650356 0.563653
O O11 0.342146 0.626157 0.277337
O O12 0.363466 0.798825 0.807219
O O13 0.239033 0.750100 0.755247
O O14 0.049613 0.261886 0.780072
O O15 0.000000 0.196527 0.000000
#
# Coordination Sequence:
#
# PCOD9213702 Si02
#       6
#     8   8   8   8   8   8
#     4  11  23  41  66  99 139 174 213 280 349 402
#     4  10  22  38  64  99 133 168 218 284 350 405
#     4  11  26  47  68  97 139 182 224 281 343 399
#     4  12  23  39  68  97 131 176 227 273 327 403
#     4  12  23  43  69 100 133 173 230 281 336 398
#     4  12  25  45  68 101 138 179 230 276 335 404
#
# _framework density 21.346575000000001
#
# number of rings (size 3 to 8) (size 9 to 14) (size 15 to 20)
#    0.000    0.667    5.000    3.000    2.333    0.333 
#    0.000    2.500    0.000    0.000    0.000    0.000 
#    0.000    0.000    0.000    0.000    0.000    0.000 
#
# Total GULP energy -133824.072640 kJ/mol
# GULP energy per Si atom -5576.003027 kJ/mol
# Density = 2.129799 g / cm^3
# Si number density = 21.346575 Si / 1000 Ang^3
#
#
#
# Elastic Constant Matrix: (Units=GPa)
#
#
# Indices 1 2 3 4 5 6 
#
# 1 78.3697 25.7228 17.2623 0.0001 -11.8914 0.0000
# 2 25.7228 94.5880 44.9984 0.0000 1.7429 0.0000
# 3 17.2623 44.9984 70.7415 0.0001 3.1048 0.0000
# 4 0.0001 0.0000 0.0001 -47.0113 -0.0001 -30.2892
# 5 -11.8914 1.7429 3.1048 -0.0001 25.7062 0.0000
# 6 0.0000 0.0000 0.0000 -30.2892 0.0000 21.9072
#
#
#
# Elastic Compliance Matrix: (Units=1/GPa)
#
#
# Indices 1 2 3 4 5 6 
#
# 1 0.015466 -0.003430 -0.001927 0.000000 0.007620 0.000000
# 2 -0.003430 0.015921 -0.009222 0.000000 -0.001552 0.000000
# 3 -0.001927 -0.009222 0.020593 0.000000 -0.002753 0.000000
# 4 0.000000 0.000000 0.000000 -0.011250 0.000000 -0.015554
# 5 0.007620 -0.001552 -0.002753 0.000000 0.042864 0.000000
# 6 0.000000 0.000000 0.000000 -0.015554 0.000000 0.024141
#
#
# Mechanical properties :
#
#
# Convention : Reuss Voigt Hill
#
# Bulk Modulus (GPa) = 43.81571 46.62955 45.22263
# Shear Modulus (GPa) = 34.60198 10.50146 22.55172
#
# Velocity S-wave (km/s) = 4.03048 2.22040 3.25384
# Velocity P-wave (km/s) = 6.49848 5.33526 5.94539
#
# Compressibility (1/GPa) = 0.02282286
#
# Stress axis : x y z
#
# Youngs Moduli (GPa) = 64.65638 62.81144 48.55995
#
# Poissons Ratio (x) = 0.21543 0.09357
# Poissons Ratio (y) = 0.22175 0.44782
# Poissons Ratio (z) = 0.12458 0.57925
#
# Static dielectric constant tensor:
#      x y z
#    x 1.830710 0.000000 0.048200 
#    y 0.000000 1.817350 0.000000 
#    z 0.048200 0.000000 1.879910 
# 
# From -- ./inp_files/143185.got.cif
#   From: 2010.05.17/outbox.cif.g08.bks.cpg/sg12_72_cif.got.tgz:143185.got - 2010.06.03 13:09:07.
