data_PCOD9213037
_publ_section_title
;
Structure prediction by ZEFSAII (Michael W. Deem and Ramdas Pophale) SiO2 
 PCOD9213037
Probable space group: C 2/M
;
_chemical_formula_sum "Si O2"
_cell_formula_units_Z 56
_cell_length_a 29.288027
_cell_length_b 19.848950
_cell_length_c 8.329152
_cell_angle_alpha 90.000000
_cell_angle_beta 146.735356
_cell_angle_gamma 90.000000
_cell_volume 2655.893036
_symmetry_space_group_name_H-M "C 2/M"
_symmetry_group_IT_number 12
_symmetry_cell_setting 'monoclinic'
loop_
_space_group_symop_operation_xyz
x,y,z
-x,y,-z
-x,-y,-z
x,-y,z
1/2+x,1/2+y,z
1/2-x,1/2+y,-z
1/2-x,1/2-y,-z
1/2+x,1/2-y,z
loop_
_atom_site_type_symbol
_atom_site_label
_atom_site_fract_x
_atom_site_fract_y
_atom_site_fract_z
Si Si1 0.821284 0.315978 0.103951
Si Si2 0.350180 0.921747 0.937691
Si Si3 0.026768 0.220512 0.392177
Si Si4 0.818598 0.075519 0.758942
Si Si5 0.991952 0.073156 0.671776
Si Si6 0.750482 0.189374 0.773067
Si Si7 0.071947 0.324481 0.085300
O O1 0.897513 0.272471 0.396995
O O2 0.757967 0.326440 0.063064
O O3 0.850251 0.383976 0.107179
O O4 0.782874 0.265695 0.857742
O O5 0.255919 0.916586 0.588012
O O6 0.412045 0.880844 0.002885
O O7 0.371619 0.000000 0.009726
O O8 0.000000 0.219302 0.500000
O O9 0.048879 0.144529 0.406294
O O10 0.954536 0.254300 0.074941
O O11 0.807992 0.135182 0.855305
O O12 0.806988 0.000000 0.796299
O O13 0.913850 0.077350 0.982182
O O14 0.000000 0.071787 0.500000
O O15 0.955637 0.000000 0.612073
O O16 0.659732 0.183288 0.430808
O O17 0.000000 0.343172 0.000000
#
# Coordination Sequence:
#
# PCOD9213037 Si02
#       7
#     8   8   8   8   8   8   8
#     4  11  22  38  56  87 118 147 202 236 283 346
#     4  10  23  40  60  84 116 154 195 242 296 346
#     4  11  20  35  59  87 118 146 191 244 280 341
#     4   9  19  36  57  86 115 147 192 234 284 351
#     4   9  18  32  56  88 118 147 184 230 288 344
#     4  10  22  36  58  84 115 156 188 239 286 339
#     4  11  22  38  60  85 116 150 197 242 294 340
#
# _framework density 21.085187999999999
#
# number of rings (size 3 to 8) (size 9 to 14) (size 15 to 20)
#    0.000    1.857    2.857    1.714    2.000    2.000 
#    0.000    1.429    0.000    1.286    0.000    0.000 
#    0.000    0.000    0.000    0.000    0.000    0.000 
#
# Total GULP energy -156358.454589 kJ/mol
# GULP energy per Si atom -5584.230521 kJ/mol
# Density = 2.103720 g / cm^3
# Si number density = 21.085188 Si / 1000 Ang^3
#
#
#
# Elastic Constant Matrix: (Units=GPa)
#
#
# Indices 1 2 3 4 5 6 
#
# 1 30.2467 23.7239 -0.8933 0.0000 -5.0429 0.0000
# 2 23.7239 154.1006 19.0663 0.0000 -17.9095 0.0000
# 3 -0.8933 19.0663 48.9629 0.0000 8.1896 0.0000
# 4 0.0000 0.0000 0.0000 27.6230 0.0000 7.2267
# 5 -5.0429 -17.9095 8.1896 0.0000 10.4878 0.0000
# 6 0.0000 0.0000 0.0000 7.2267 0.0000 0.0651
#
#
#
# Elastic Compliance Matrix: (Units=1/GPa)
#
#
# Indices 1 2 3 4 5 6 
#
# 1 0.038546 -0.005022 0.001142 0.000000 0.009067 0.000000
# 2 -0.005022 0.010873 -0.008083 0.000000 0.022466 0.000000
# 3 0.001142 -0.008083 0.029687 0.000000 -0.036436 0.000000
# 4 0.000000 0.000000 0.000000 -0.001291 0.000000 0.143311
# 5 0.009067 0.022466 -0.036436 0.000000 0.166524 0.000000
# 6 0.000000 0.000000 0.000000 0.143311 0.000000 -0.547787
#
#
# Mechanical properties :
#
#
# Convention : Reuss Voigt Hill
#
# Bulk Modulus (GPa) = 18.12260 35.23377 26.67818
# Shear Modulus (GPa) = -19.14763 20.39606 0.62422
#
# Velocity S-wave (km/s) = -3.01675 3.11355 0.54469
# Velocity P-wave (km/s) = 1.87638 5.44720 3.61602
#
# Compressibility (1/GPa) = 0.05517972
#
# Stress axis : x y z
#
# Youngs Moduli (GPa) = 25.94332 91.96715 33.68533
#
# Poissons Ratio (x) = 0.46183 -0.03848
# Poissons Ratio (y) = 0.13028 0.27229
# Poissons Ratio (z) = -0.02963 0.74341
#
# Static dielectric constant tensor:
#      x y z
#    x 1.744580 0.000000 -0.004370 
#    y 0.000000 1.758650 0.000000 
#    z -0.004370 0.000000 1.808340 
# 
# From -- ./inp_files/87812.got.cif
#   From: 2010.05.17/outbox.cif.g08.bks.cpg/sg12_44_cif.got.tgz:87812.got - 2010.06.03 13:09:07.
