data_PCOD9213827
_publ_section_title
;
Structure prediction by ZEFSAII (Michael W. Deem and Ramdas Pophale) SiO2 
 PCOD9213827
Probable space group: C 2/M
;
_chemical_formula_sum "Si O2"
_cell_formula_units_Z 64
_cell_length_a 8.618573
_cell_length_b 14.848663
_cell_length_c 29.565701
_cell_angle_alpha 90.000000
_cell_angle_beta 51.977272
_cell_angle_gamma 90.000000
_cell_volume 2980.632199
_symmetry_space_group_name_H-M "C 2/M"
_symmetry_group_IT_number 12
_symmetry_cell_setting 'monoclinic'
loop_
_space_group_symop_operation_xyz
x,y,z
-x,y,-z
-x,-y,-z
x,-y,z
1/2+x,1/2+y,z
1/2-x,1/2+y,-z
1/2-x,1/2-y,-z
1/2+x,1/2-y,z
loop_
_atom_site_type_symbol
_atom_site_label
_atom_site_fract_x
_atom_site_fract_y
_atom_site_fract_z
Si Si1 0.933129 0.393147 0.197314
Si Si2 0.639107 0.343854 0.017777
Si Si3 0.065863 0.209273 0.304276
Si Si4 0.136787 0.706746 0.380924
Si Si5 0.817511 0.393811 0.757694
Si Si6 0.430729 0.608575 0.872964
Si Si7 0.712630 0.308233 0.461018
Si Si8 0.525684 0.102154 0.910066
O O1 0.889540 0.500000 0.204174
O O2 0.737973 0.340315 0.246849
O O3 0.007047 0.361504 0.134687
O O4 0.091543 0.383107 0.208505
O O5 0.524819 0.358981 0.084561
O O6 0.500000 0.353210 0.000000
O O7 0.750000 0.250000 0.000000
O O8 0.831898 0.403737 0.974919
O O9 0.103252 0.210870 0.351569
O O10 0.078949 0.316323 0.290156
O O11 0.852594 0.168917 0.330025
O O12 0.174608 0.743827 0.424648
O O13 0.932668 0.650329 0.415378
O O14 0.839404 0.500000 0.740467
O O15 0.587620 0.369922 0.805954
O O16 0.435080 0.500000 0.876007
O O17 0.214091 0.645936 0.899955
O O18 0.500000 0.359257 0.500000
O O19 0.750000 0.250000 0.500000
O O20 0.591631 0.000000 0.891004
#
# Coordination Sequence:
#
# PCOD9213827 Si02
#       8
#     8   8   8   8   8   8   8   8
#     4  10  22  39  58  81 114 159 202 238 296 362
#     4  12  25  40  59  83 109 139 181 240 295 360
#     4  11  20  35  54  83 120 157 187 258 286 345
#     4   9  18  29  50  84 120 155 203 235 300 336
#     4  10  22  39  58  81 114 159 203 237 295 364
#     4  10  22  40  61  83 108 141 184 236 292 361
#     4   8  14  28  50  80 124 161 193 249 284 332
#     4  10  22  40  61  83 108 141 184 236 293 360
#
# _framework density 21.471955000000001
#
# number of rings (size 3 to 8) (size 9 to 14) (size 15 to 20)
#    0.000    2.000    1.250    2.250    3.500    3.000 
#    0.000    0.000    0.000    0.000    0.000    0.000 
#    0.000  252.000    0.000    0.000    0.000    0.000 
#
# Total GULP energy -178203.132881 kJ/mol
# GULP energy per Si atom -5568.847903 kJ/mol
# Density = 2.142308 g / cm^3
# Si number density = 21.471955 Si / 1000 Ang^3
#
#
#
# Elastic Constant Matrix: (Units=GPa)
#
#
# Indices 1 2 3 4 5 6 
#
# 1 100.7113 14.5823 19.6921 0.0000 -14.3843 0.0000
# 2 14.5823 37.1368 15.4131 0.0000 -0.5876 0.0000
# 3 19.6921 15.4131 77.0304 -0.0001 -6.7601 0.0000
# 4 0.0000 0.0000 -0.0001 -1.1537 0.0000 -1.0420
# 5 -14.3843 -0.5876 -6.7601 0.0000 51.6861 0.0000
# 6 0.0000 0.0000 0.0000 -1.0420 0.0000 14.1986
#
#
#
# Elastic Compliance Matrix: (Units=1/GPa)
#
#
# Indices 1 2 3 4 5 6 
#
# 1 0.011224 -0.003571 -0.001906 0.000001 0.002834 0.000000
# 2 -0.003571 0.030512 -0.005310 0.000001 -0.001342 0.000000
# 3 -0.001906 -0.005310 0.014648 -0.000002 0.001325 0.000000
# 4 0.000001 0.000001 -0.000002 -0.812923 0.000000 -0.059660
# 5 0.002834 -0.001342 0.001325 0.000000 0.020294 0.000000
# 6 0.000000 0.000000 0.000000 -0.059660 0.000000 0.066051
#
#
# Mechanical properties :
#
#
# Convention : Reuss Voigt Hill
#
# Bulk Modulus (GPa) = 28.72777 34.91706 31.82241
# Shear Modulus (GPa) = -7.84910 23.95895 8.05493
#
# Velocity S-wave (km/s) = -1.91401 3.34402 1.93895
# Velocity P-wave (km/s) = 2.91953 5.58632 4.45705
#
# Compressibility (1/GPa) = 0.03480953
#
# Stress axis : x y z
#
# Youngs Moduli (GPa) = 89.09569 32.77353 68.26911
#
# Poissons Ratio (x) = 0.11704 0.13012
# Poissons Ratio (y) = 0.31819 0.36251
# Poissons Ratio (z) = 0.16982 0.17403
#
# Static dielectric constant tensor:
#      x y z
#    x 1.848270 0.000000 -0.032660 
#    y 0.000000 1.724710 0.000000 
#    z -0.032660 0.000000 1.890210 
# 
# From -- ./inp_files/356184.got.cif
#   From: 2010.05.17/outbox.cif.g08.bks.cpg/sg12_179_cif.got.tgz:356184.got - 2010.06.03 13:09:07.
