data_PCOD9213874
_publ_section_title
;
Structure prediction by ZEFSAII (Michael W. Deem and Ramdas Pophale) SiO2 
 PCOD9213874
Probable space group: C 2/M
;
_chemical_formula_sum "Si O2"
_cell_formula_units_Z 56
_cell_length_a 23.060434
_cell_length_b 21.054265
_cell_length_c 5.143552
_cell_angle_alpha 90.000000
_cell_angle_beta 75.835083
_cell_angle_gamma 90.000000
_cell_volume 2421.370409
_symmetry_space_group_name_H-M "C 2/M"
_symmetry_group_IT_number 12
_symmetry_cell_setting 'monoclinic'
loop_
_space_group_symop_operation_xyz
x,y,z
-x,y,-z
-x,-y,-z
x,-y,z
1/2+x,1/2+y,z
1/2-x,1/2+y,-z
1/2-x,1/2-y,-z
1/2+x,1/2-y,z
loop_
_atom_site_type_symbol
_atom_site_label
_atom_site_fract_x
_atom_site_fract_y
_atom_site_fract_z
Si Si1 0.312402 0.266054 0.292121
Si Si2 0.095017 0.429770 0.931191
Si Si3 0.667545 0.345295 0.233587
Si Si4 0.652054 0.147549 0.499526
Si Si5 0.555255 0.806579 0.241492
Si Si6 0.961197 0.163503 0.805194
Si Si7 0.273603 0.072369 0.941631
O O1 0.250000 0.250000 0.500000
O O2 0.340867 0.315336 0.469956
O O3 0.341221 0.195777 0.268647
O O4 0.310284 0.294082 0.007266
O O5 0.070621 0.500000 0.993747
O O6 0.109624 0.411491 0.618204
O O7 0.056537 0.371859 0.081392
O O8 0.162348 0.428453 0.980577
O O9 0.603051 0.366441 0.192912
O O10 0.719411 0.398272 0.165935
O O11 0.616171 0.190107 0.337564
O O12 0.712181 0.118192 0.318147
O O13 0.500000 0.808206 0.500000
O O14 0.552562 0.737860 0.109603
O O15 0.000000 0.163170 0.500000
O O16 0.000000 0.136572 0.000000
O O17 0.260448 0.000000 0.878504
#
# Coordination Sequence:
#
# PCOD9213874 Si02
#       7
#     8   8   8   8   8   8   8
#     4  12  23  36  62  97 132 162 202 264 321 381
#     4  10  22  39  59  84 121 168 215 258 308 363
#     4  12  24  41  64  98 126 167 213 252 325 385
#     4  11  21  38  59  87 125 163 205 257 317 368
#     4  10  23  37  58  83 118 165 210 261 311 368
#     4  11  24  42  65  92 127 162 206 266 325 379
#     4  10  23  41  61  89 126 166 206 254 309 382
#
# _framework density 23.127397999999999
#
# number of rings (size 3 to 8) (size 9 to 14) (size 15 to 20)
#    0.000    1.143    2.857    3.429    8.000    0.857 
#    0.000    0.714    0.000    0.857    0.000    0.000 
#    0.000    0.000    0.000    0.000    0.000    0.000 
#
# Total GULP energy -156496.932617 kJ/mol
# GULP energy per Si atom -5589.176165 kJ/mol
# Density = 2.307476 g / cm^3
# Si number density = 23.127398 Si / 1000 Ang^3
#
#
#
# Elastic Constant Matrix: (Units=GPa)
#
#
# Indices 1 2 3 4 5 6 
#
# 1 97.7199 14.9443 8.8389 0.0000 -3.5585 0.0000
# 2 14.9443 71.0646 15.3456 0.0000 -8.9040 0.0000
# 3 8.8389 15.3456 72.5101 0.0000 -4.7054 0.0000
# 4 0.0000 0.0000 0.0000 19.0495 0.0000 -0.6776
# 5 -3.5585 -8.9040 -4.7054 0.0000 36.7819 0.0000
# 6 0.0000 0.0000 0.0000 -0.6776 0.0000 17.4154
#
#
#
# Elastic Compliance Matrix: (Units=1/GPa)
#
#
# Indices 1 2 3 4 5 6 
#
# 1 0.010631 -0.001999 -0.000845 0.000000 0.000437 0.000000
# 2 -0.001999 0.015504 -0.002830 0.000000 0.003198 0.000000
# 3 -0.000845 -0.002830 0.014564 0.000000 0.001096 0.000000
# 4 0.000000 0.000000 0.000000 0.052568 0.000000 0.002045
# 5 0.000437 0.003198 0.001096 0.000000 0.028144 0.000000
# 6 0.000000 0.000000 0.000000 0.002045 0.000000 0.057500
#
#
# Mechanical properties :
#
#
# Convention : Reuss Voigt Hill
#
# Bulk Modulus (GPa) = 34.06825 35.50580 34.78702
# Shear Modulus (GPa) = 24.99483 28.12707 26.56095
#
# Velocity S-wave (km/s) = 3.29104 3.49116 3.39257
# Velocity P-wave (km/s) = 5.40406 5.62464 5.51545
#
# Compressibility (1/GPa) = 0.02935284
#
# Stress axis : x y z
#
# Youngs Moduli (GPa) = 94.06209 64.50051 68.66146
#
# Poissons Ratio (x) = 0.12891 0.05799
# Poissons Ratio (y) = 0.18799 0.19431
# Poissons Ratio (z) = 0.07945 0.18254
#
# Static dielectric constant tensor:
#      x y z
#    x 1.966910 0.000000 0.009430 
#    y 0.000000 1.855800 0.000000 
#    z 0.009430 0.000000 1.930160 
# 
# From -- ./inp_files/25367.got.cif
#   From: 2010.05.17/outbox.cif.g08.bks.cpg/sg12_13_cif.got.tgz:25367.got - 2010.06.03 13:09:07.
