data_PCOD9213629
_publ_section_title
;
Structure prediction by ZEFSAII (Michael W. Deem and Ramdas Pophale) SiO2 
 PCOD9213629
Probable space group: C 2/M
;
_chemical_formula_sum "Si O2"
_cell_formula_units_Z 26
_cell_length_a 8.251871
_cell_length_b 14.875300
_cell_length_c 10.567269
_cell_angle_alpha 90.000000
_cell_angle_beta 65.535040
_cell_angle_gamma 90.000000
_cell_volume 1180.659802
_symmetry_space_group_name_H-M "C 2/M"
_symmetry_group_IT_number 12
_symmetry_cell_setting 'monoclinic'
loop_
_space_group_symop_operation_xyz
x,y,z
-x,y,-z
-x,-y,-z
x,-y,z
1/2+x,1/2+y,z
1/2-x,1/2+y,-z
1/2-x,1/2-y,-z
1/2+x,1/2-y,z
loop_
_atom_site_type_symbol
_atom_site_label
_atom_site_fract_x
_atom_site_fract_y
_atom_site_fract_z
Si Si1 0.698266 0.000000 0.282617
Si Si2 0.000000 0.500000 0.000000
Si Si3 0.093983 0.172363 0.836423
Si Si4 0.735920 0.362913 0.237332
Si Si5 0.728860 0.000000 0.565051
O O1 0.770982 0.089022 0.191938
O O2 0.766987 0.000000 0.404630
O O3 0.486284 0.000000 0.353413
O O4 0.877918 0.421751 0.111497
O O5 0.191920 0.262802 0.763871
O O6 0.943033 0.144162 0.786297
O O7 0.000000 0.189935 0.000000
O O8 0.705672 0.413766 0.379085
#
# Coordination Sequence:
#
# PCOD9213629 Si02
#       5
#     4   2   8   8   4
#     4  11  25  44  68  94 133 170 226 262 326 384
#     4  10  22  38  62  92 130 166 202 266 314 386
#     4  12  25  41  66 102 130 174 211 273 323 392
#     4  11  24  41  67  95 134 170 215 267 326 379
#     4  10  25  46  66  95 128 180 214 274 318 384
#
# _framework density 22.021585999999999
#
# number of rings (size 3 to 8) (size 9 to 14) (size 15 to 20)
#    0.000    0.923    1.538    5.077    8.615    3.692 
#    0.000    0.000    0.000    0.000    0.000    0.000 
#    0.000    0.000    0.000    0.000    0.000    0.000 
#
# Total GULP energy -72576.532554 kJ/mol
# GULP energy per Si atom -5582.810196 kJ/mol
# Density = 2.197146 g / cm^3
# Si number density = 22.021586 Si / 1000 Ang^3
#
#
#
# Elastic Constant Matrix: (Units=GPa)
#
#
# Indices 1 2 3 4 5 6 
#
# 1 78.4115 6.9051 11.6429 0.0000 12.6572 0.0000
# 2 6.9051 167.6278 11.6507 0.0000 -10.2384 0.0000
# 3 11.6429 11.6507 42.9629 0.0000 1.9205 0.0000
# 4 0.0000 0.0000 0.0000 20.7850 0.0000 -18.8601
# 5 12.6572 -10.2384 1.9205 0.0000 34.6883 0.0000
# 6 0.0000 0.0000 0.0000 -18.8601 0.0000 36.1309
#
#
#
# Elastic Compliance Matrix: (Units=1/GPa)
#
#
# Indices 1 2 3 4 5 6 
#
# 1 0.014155 -0.000661 -0.003426 0.000000 -0.005170 0.000000
# 2 -0.000661 0.006237 -0.001609 0.000000 0.002171 0.000000
# 3 -0.003426 -0.001609 0.024667 0.000000 -0.000591 0.000000
# 4 0.000000 0.000000 0.000000 0.091407 0.000000 0.047714
# 5 -0.005170 0.002171 -0.000591 0.000000 0.031388 0.000000
# 6 0.000000 0.000000 0.000000 0.047714 0.000000 0.052583
#
#
# Mechanical properties :
#
#
# Convention : Reuss Voigt Hill
#
# Bulk Modulus (GPa) = 29.70227 38.82219 34.26223
# Shear Modulus (GPa) = 20.57177 35.57439 28.07308
#
# Velocity S-wave (km/s) = 3.05973 4.02360 3.57431
# Velocity P-wave (km/s) = 5.09898 6.26524 5.71196
#
# Compressibility (1/GPa) = 0.03366746
#
# Stress axis : x y z
#
# Youngs Moduli (GPa) = 70.64824 160.32603 40.53984
#
# Poissons Ratio (x) = 0.10594 0.13887
# Poissons Ratio (y) = 0.04668 0.06525
# Poissons Ratio (z) = 0.24201 0.25803
#
# Static dielectric constant tensor:
#      x y z
#    x 1.823580 0.000000 0.019400 
#    y 0.000000 1.765520 0.000000 
#    z 0.019400 0.000000 1.775610 
# 
# From -- ./inp_files/117270.got.cif
#   From: 2010.05.17/outbox.cif.g08.bks.cpg/sg12_59_cif.got.tgz:117270.got - 2010.06.03 13:09:07.
