data_PCOD9213777
_publ_section_title
;
Structure prediction by ZEFSAII (Michael W. Deem and Ramdas Pophale) SiO2 
 PCOD9213777
Probable space group: C 2/M
;
_chemical_formula_sum "Si O2"
_cell_formula_units_Z 64
_cell_length_a 19.503531
_cell_length_b 7.626786
_cell_length_c 29.480839
_cell_angle_alpha 90.000000
_cell_angle_beta 136.834231
_cell_angle_gamma 90.000000
_cell_volume 3000.001792
_symmetry_space_group_name_H-M "C 2/M"
_symmetry_group_IT_number 12
_symmetry_cell_setting 'monoclinic'
loop_
_space_group_symop_operation_xyz
x,y,z
-x,y,-z
-x,-y,-z
x,-y,z
1/2+x,1/2+y,z
1/2-x,1/2+y,-z
1/2-x,1/2-y,-z
1/2+x,1/2-y,z
loop_
_atom_site_type_symbol
_atom_site_label
_atom_site_fract_x
_atom_site_fract_y
_atom_site_fract_z
Si Si1 0.181146 0.711020 0.343081
Si Si2 0.476561 0.208122 0.277658
Si Si3 0.317716 0.291462 0.124479
Si Si4 0.154242 0.789877 0.698743
Si Si5 0.128541 0.710152 0.212346
Si Si6 0.090405 0.202319 0.924048
Si Si7 0.395951 0.199560 0.967482
Si Si8 0.897451 0.215055 0.427498
O O1 0.186713 0.500000 0.351327
O O2 0.147455 0.742471 0.274814
O O3 0.295072 0.774199 0.402876
O O4 0.089923 0.779208 0.329397
O O5 0.409035 0.268970 0.202969
O O6 0.419508 0.248870 0.296240
O O7 0.483194 0.000000 0.276192
O O8 0.302647 0.500000 0.111633
O O9 0.347572 0.224067 0.088939
O O10 0.213560 0.220031 0.094768
O O11 0.268567 0.728151 0.761591
O O12 0.114048 0.728899 0.630476
O O13 0.162545 0.000000 0.699215
O O14 0.117615 0.500000 0.200938
O O15 0.026126 0.792736 0.146331
O O16 0.119564 0.000000 0.945824
O O17 0.101184 0.300838 0.976534
O O18 0.395319 0.000000 0.948495
O O19 0.500000 0.281470 0.000000
O O20 0.000000 0.273891 0.500000
O O21 0.898248 0.000000 0.428185
#
# Coordination Sequence:
#
# PCOD9213777 Si02
#       8
#     8   8   8   8   8   8   8   8
#     4   8  15  29  49  76 104 135 177 215 252 304
#     4  11  21  33  53  79 110 143 174 217 269 318
#     4  10  22  39  56  77 105 139 179 219 264 318
#     4   9  19  33  52  78 109 140 175 220 264 308
#     4   9  17  33  54  73  99 139 179 212 253 315
#     4  11  22  35  55  81 107 132 169 224 273 313
#     4  10  23  41  58  75 100 139 181 217 263 324
#     4   8  14  29  55  81 104 138 185 225 253 297
#
# _framework density 21.333320000000001
#
# number of rings (size 3 to 8) (size 9 to 14) (size 15 to 20)
#    0.000    2.500    1.250    2.625    1.750    1.750 
#    0.000    0.625    0.000    0.375    0.000    0.000 
#    0.000    0.000    0.000    0.000    0.000    0.000 
#
# Total GULP energy -178591.569049 kJ/mol
# GULP energy per Si atom -5580.986533 kJ/mol
# Density = 2.128476 g / cm^3
# Si number density = 21.333320 Si / 1000 Ang^3
#
#
#
# Elastic Constant Matrix: (Units=GPa)
#
#
# Indices 1 2 3 4 5 6 
#
# 1 195.6626 1.7238 93.3784 0.0000 75.7481 0.0001
# 2 1.7238 45.1631 4.9104 0.0000 3.5323 0.0004
# 3 93.3784 4.9104 158.9405 0.0001 89.7530 -0.0001
# 4 0.0000 0.0000 0.0001 7.4286 0.0001 8.8406
# 5 75.7481 3.5323 89.7530 0.0001 75.7634 -0.0002
# 6 0.0001 0.0004 -0.0001 8.8406 -0.0002 -3.1256
#
#
#
# Elastic Compliance Matrix: (Units=1/GPa)
#
#
# Indices 1 2 3 4 5 6 
#
# 1 0.008361 0.000345 -0.000584 0.000000 -0.007684 0.000000
# 2 0.000345 0.022242 -0.000331 -0.000001 -0.000990 0.000001
# 3 -0.000584 -0.000331 0.019051 0.000000 -0.021970 0.000000
# 4 0.000000 -0.000001 0.000000 0.030832 0.000001 0.087206
# 5 -0.007684 -0.000990 -0.021970 0.000001 0.046954 -0.000001
# 6 0.000000 0.000001 0.000000 0.087206 -0.000001 -0.073278
#
#
# Mechanical properties :
#
#
# Convention : Reuss Voigt Hill
#
# Bulk Modulus (GPa) = 20.61181 66.64349 43.62765
# Shear Modulus (GPa) = 69.95690 35.99686 52.97688
#
# Velocity S-wave (km/s) = 5.73267 4.11220 4.98867
# Velocity P-wave (km/s) = 7.31442 7.33852 7.32648
#
# Compressibility (1/GPa) = 0.04851589
#
# Stress axis : x y z
#
# Youngs Moduli (GPa) = 119.60071 44.95954 52.49066
#
# Poissons Ratio (x) = -0.01553 0.03064
# Poissons Ratio (y) = -0.04130 0.01736
# Poissons Ratio (z) = 0.06982 0.01487
#
# Static dielectric constant tensor:
#      x y z
#    x 1.461830 0.000000 0.155540 
#    y 0.000000 1.843070 0.000000 
#    z 0.155540 0.000000 1.720260 
# 
# From -- ./inp_files/365153.got.cif
#   From: 2010.05.17/outbox.cif.g08.bks.cpg/sg12_183_cif.got.tgz:365153.got - 2010.06.03 13:09:07.
