data_PCOD9213522
_publ_section_title
;
Structure prediction by ZEFSAII (Michael W. Deem and Ramdas Pophale) SiO2 
 PCOD9213522
Probable space group: C 2/M
;
_chemical_formula_sum "Si O2"
_cell_formula_units_Z 40
_cell_length_a 19.711419
_cell_length_b 7.463687
_cell_length_c 25.811009
_cell_angle_alpha 90.000000
_cell_angle_beta 26.015103
_cell_angle_gamma 90.000000
_cell_volume 1665.531649
_symmetry_space_group_name_H-M "C 2/M"
_symmetry_group_IT_number 12
_symmetry_cell_setting 'monoclinic'
loop_
_space_group_symop_operation_xyz
x,y,z
-x,y,-z
-x,-y,-z
x,-y,z
1/2+x,1/2+y,z
1/2-x,1/2+y,-z
1/2-x,1/2-y,-z
1/2+x,1/2-y,z
loop_
_atom_site_type_symbol
_atom_site_label
_atom_site_fract_x
_atom_site_fract_y
_atom_site_fract_z
Si Si1 0.431633 0.287013 0.383311
Si Si2 0.166791 0.295260 0.132581
Si Si3 0.995649 0.297252 0.946008
Si Si4 0.075575 0.719752 0.781738
Si Si5 0.404605 0.718580 0.515605
O O1 0.455997 0.500000 0.363947
O O2 0.250000 0.250000 0.500000
O O3 0.538264 0.205208 0.266053
O O4 0.468492 0.223522 0.416277
O O5 0.213046 0.500000 0.091018
O O6 0.078135 0.222025 0.143040
O O7 0.318438 0.197113 0.048518
O O8 0.057938 0.500000 0.909812
O O9 0.082553 0.218967 0.836430
O O10 0.000000 0.212204 0.000000
O O11 0.071272 0.500000 0.785356
O O12 0.226988 0.773216 0.646085
O O13 0.500000 0.777035 0.500000
O O14 0.406407 0.500000 0.513730
#
# Coordination Sequence:
#
# PCOD9213522 Si02
#       5
#     8   8   8   8   8
#     4  11  21  36  60  88 116 147 189 233 281 336
#     4  11  22  38  59  82 116 154 189 231 283 341
#     4  10  22  38  60  87 112 143 192 244 285 332
#     4   9  18  35  56  82 114 148 189 233 279 334
#     4   9  18  32  56  85 114 147 183 229 282 333
#
# _framework density 24.016355000000001
#
# number of rings (size 3 to 8) (size 9 to 14) (size 15 to 20)
#    0.000    2.000    2.000    1.800    2.800    0.400 
#    0.000    1.000    0.000    2.400    0.000    0.000 
#    0.000    0.000    0.000    0.000    0.000    0.000 
#
# Total GULP energy -111841.787248 kJ/mol
# GULP energy per Si atom -5592.089362 kJ/mol
# Density = 2.396169 g / cm^3
# Si number density = 24.016355 Si / 1000 Ang^3
#
#
#
# Elastic Constant Matrix: (Units=GPa)
#
#
# Indices 1 2 3 4 5 6 
#
# 1 142.1157 4.2547 1.8439 0.0001 32.0561 -0.0005
# 2 4.2547 85.9361 -3.0899 -0.0012 4.9470 0.0007
# 3 1.8439 -3.0899 60.7670 0.0031 24.5726 -0.0008
# 4 0.0001 -0.0012 0.0031 17.6884 -0.0003 -7.1104
# 5 32.0561 4.9470 24.5726 -0.0003 50.6169 0.0000
# 6 -0.0005 0.0007 -0.0008 -7.1104 0.0000 -4.5740
#
#
#
# Elastic Compliance Matrix: (Units=1/GPa)
#
#
# Indices 1 2 3 4 5 6 
#
# 1 0.008478 0.000042 0.002386 -0.000001 -0.006531 0.000000
# 2 0.000042 0.011788 0.001337 0.000001 -0.001828 0.000000
# 3 0.002386 0.001337 0.021296 -0.000003 -0.011980 0.000001
# 4 -0.000001 0.000001 -0.000003 0.034793 0.000002 -0.054086
# 5 -0.006531 -0.001828 -0.011980 0.000002 0.029887 -0.000001
# 6 0.000000 0.000000 0.000001 -0.054086 -0.000001 -0.134549
#
#
# Mechanical properties :
#
#
# Convention : Reuss Voigt Hill
#
# Bulk Modulus (GPa) = 20.36979 32.75957 26.56468
# Shear Modulus (GPa) = -256.75452 31.80027 -112.47713
#
# Velocity S-wave (km/s) = -10.35086 3.64278 -6.85093
# Velocity P-wave (km/s) = 11.59110 5.60029 7.17602
#
# Compressibility (1/GPa) = 0.04909232
#
# Stress axis : x y z
#
# Youngs Moduli (GPa) = 117.95894 84.83362 46.95619
#
# Poissons Ratio (x) = -0.00357 -0.11204
# Poissons Ratio (y) = -0.00496 -0.06279
# Poissons Ratio (z) = -0.28145 -0.11344
#
# Static dielectric constant tensor:
#      x y z
#    x 1.907090 0.000000 0.023430 
#    y 0.000000 1.995400 0.000000 
#    z 0.023430 0.000000 1.887410 
# 
# From -- ./inp_files/151673.got.cif
#   From: 2010.05.17/outbox.cif.g08.bks.cpg/sg12_76_cif.got.tgz:151673.got - 2010.06.03 13:09:07.
