data_PCOD9213693
_publ_section_title
;
Structure prediction by ZEFSAII (Michael W. Deem and Ramdas Pophale) SiO2 
 PCOD9213693
Probable space group: C 2/M
;
_chemical_formula_sum "Si O2"
_cell_formula_units_Z 42
_cell_length_a 13.212484
_cell_length_b 20.024307
_cell_length_c 9.031948
_cell_angle_alpha 90.000000
_cell_angle_beta 66.520886
_cell_angle_gamma 90.000000
_cell_volume 2191.744807
_symmetry_space_group_name_H-M "C 2/M"
_symmetry_group_IT_number 12
_symmetry_cell_setting 'monoclinic'
loop_
_space_group_symop_operation_xyz
x,y,z
-x,y,-z
-x,-y,-z
x,-y,z
1/2+x,1/2+y,z
1/2-x,1/2+y,-z
1/2-x,1/2-y,-z
1/2+x,1/2-y,z
loop_
_atom_site_type_symbol
_atom_site_label
_atom_site_fract_x
_atom_site_fract_y
_atom_site_fract_z
Si Si1 0.376364 0.074981 0.515565
Si Si2 0.745484 0.679792 0.418804
Si Si3 0.805624 0.186657 0.888063
Si Si4 0.028931 0.124232 0.698329
Si Si5 0.500000 0.500000 0.500000
Si Si6 0.183463 0.076884 0.869535
O O1 0.500000 0.082998 0.500000
O O2 0.340382 0.131099 0.422432
O O3 0.291187 0.079442 0.701484
O O4 0.363177 0.000000 0.459654
O O5 0.750000 0.750000 0.500000
O O6 0.749414 0.683628 0.240682
O O7 0.629240 0.649083 0.538048
O O8 0.937351 0.181413 0.777408
O O9 0.750000 0.250000 0.000000
O O10 0.793829 0.123143 0.003120
O O11 0.985238 0.058944 0.637744
O O12 0.084944 0.103603 0.821770
O O13 0.162445 0.000000 0.922072
#
# Coordination Sequence:
#
# PCOD9213693 Si02
#       6
#     8   8   8   8   2   8
#     4   9  20  41  65  87 117 161 212 263 313 376
#     4  11  24  41  63  89 119 168 216 259 309 384
#     4  12  25  40  57  92 135 169 201 257 333 392
#     4  11  23  41  67  97 127 164 215 264 321 378
#     4  12  20  40  74 100 122 162 224 276 314 372
#     4  10  22  38  64  95 127 159 208 269 330 380
#
# _framework density 19.162815999999999
#
# number of rings (size 3 to 8) (size 9 to 14) (size 15 to 20)
#    0.000    1.333    2.857    2.857    2.667    4.571 
#    0.000    2.857    0.000    3.429    0.000    0.000 
#    0.000    0.000    0.000    0.000    0.000    0.000 
#
# Total GULP energy -116952.281941 kJ/mol
# GULP energy per Si atom -5569.156283 kJ/mol
# Density = 1.911920 g / cm^3
# Si number density = 19.162816 Si / 1000 Ang^3
#
#
#
# Elastic Constant Matrix: (Units=GPa)
#
#
# Indices 1 2 3 4 5 6 
#
# 1 80.9247 66.0557 43.5409 0.0000 17.2906 0.0000
# 2 66.0557 136.8678 63.8018 0.0000 37.2680 0.0000
# 3 43.5409 63.8018 108.9935 0.0000 40.0268 0.0000
# 4 0.0000 0.0000 0.0000 39.5071 0.0000 8.4170
# 5 17.2906 37.2680 40.0268 0.0000 40.8714 0.0000
# 6 0.0000 0.0000 0.0000 8.4170 0.0000 24.8519
#
#
#
# Elastic Compliance Matrix: (Units=1/GPa)
#
#
# Indices 1 2 3 4 5 6 
#
# 1 0.021637 -0.009359 -0.004588 0.000000 0.003873 0.000000
# 2 -0.009359 0.014893 -0.002259 0.000000 -0.007409 0.000000
# 3 -0.004588 -0.002259 0.016960 0.000000 -0.012610 0.000000
# 4 0.000000 0.000000 0.000000 0.027280 0.000000 -0.009239
# 5 0.003873 -0.007409 -0.012610 0.000000 0.041934 0.000000
# 6 0.000000 0.000000 0.000000 -0.009239 0.000000 0.043368
#
#
# Mechanical properties :
#
#
# Convention : Reuss Voigt Hill
#
# Bulk Modulus (GPa) = 47.43539 74.84254 61.13897
# Shear Modulus (GPa) = 24.32984 31.27192 27.80088
#
# Velocity S-wave (km/s) = 3.56706 4.04407 3.81303
# Velocity P-wave (km/s) = 6.46319 7.80685 7.16658
#
# Compressibility (1/GPa) = 0.02108131
#
# Stress axis : x y z
#
# Youngs Moduli (GPa) = 46.21706 67.14429 58.96080
#
# Poissons Ratio (x) = 0.62837 0.27049
# Poissons Ratio (y) = 0.43252 0.13317
# Poissons Ratio (z) = 0.21202 0.15165
#
# Static dielectric constant tensor:
#      x y z
#    x 1.685500 0.000000 -0.007650 
#    y 0.000000 1.676450 0.000000 
#    z -0.007650 0.000000 1.687680 
# 
# From -- ./inp_files/61612.got.cif
#   From: 2010.05.17/outbox.cif.g08.bks.cpg/sg12_31_cif.got.tgz:61612.got - 2010.06.03 13:09:07.
