data_PCOD9213451
_publ_section_title
;
Structure prediction by ZEFSAII (Michael W. Deem and Ramdas Pophale) SiO2 
 PCOD9213451
Probable space group: C 2/M
;
_chemical_formula_sum "Si O2"
_cell_formula_units_Z 44
_cell_length_a 24.411543
_cell_length_b 11.331345
_cell_length_c 7.498244
_cell_angle_alpha 90.000000
_cell_angle_beta 57.602553
_cell_angle_gamma 90.000000
_cell_volume 1751.296565
_symmetry_space_group_name_H-M "C 2/M"
_symmetry_group_IT_number 12
_symmetry_cell_setting 'monoclinic'
loop_
_space_group_symop_operation_xyz
x,y,z
-x,y,-z
-x,-y,-z
x,-y,z
1/2+x,1/2+y,z
1/2-x,1/2+y,-z
1/2-x,1/2-y,-z
1/2+x,1/2-y,z
loop_
_atom_site_type_symbol
_atom_site_label
_atom_site_fract_x
_atom_site_fract_y
_atom_site_fract_z
Si Si1 0.491545 0.262355 0.302370
Si Si2 0.808338 0.000000 0.960696
Si Si3 0.650597 0.000000 0.573243
Si Si4 0.813494 0.500000 0.073089
Si Si5 0.003709 0.500000 0.713786
Si Si6 0.197969 0.256572 0.848608
Si Si7 0.660648 0.253965 0.505824
Si Si8 0.454012 0.500000 0.750525
O O1 0.500000 0.256459 0.500000
O O2 0.517196 0.133409 0.192921
O O3 0.413968 0.282495 0.408057
O O4 0.530961 0.378247 0.171138
O O5 0.802552 0.127933 0.065553
O O6 0.753947 0.000000 0.909195
O O7 0.883864 0.000000 0.784078
O O8 0.671022 0.882999 0.440333
O O9 0.678116 0.000000 0.725671
O O10 0.573879 0.000000 0.685526
O O11 0.838197 0.365703 0.988351
O O12 0.000000 0.500000 0.500000
O O13 0.272353 0.303612 0.690025
O O14 0.167947 0.238245 0.705694
O O15 0.500000 0.500000 0.500000
#
# Coordination Sequence:
#
# PCOD9213451 Si02
#       8
#     8   4   4   4   4   8   8   4
#     4   9  18  33  57  87 123 159 207 259 310 376
#     4  12  25  43  61  93 132 167 225 262 320 383
#     4   8  15  32  55  90 129 157 202 260 321 384
#     4  10  22  38  58  86 128 171 201 258 329 379
#     4   8  14  29  56  89 117 147 206 268 310 364
#     4  10  22  38  63  92 125 165 207 271 325 386
#     4   9  18  35  63  95 124 159 211 262 330 383
#     4  10  24  40  58  86 126 174 215 261 309 379
#
# _framework density 25.124243
#
# number of rings (size 3 to 8) (size 9 to 14) (size 15 to 20)
#    0.000    2.545    0.000    1.091    5.091    2.909 
#    0.000    2.727    0.000    0.000    0.000    7.636 
#    0.000    0.000    0.000    0.000    0.000    0.000 
#
# Total GULP energy -122489.622699 kJ/mol
# GULP energy per Si atom -5567.710123 kJ/mol
# Density = 2.506706 g / cm^3
# Si number density = 25.124243 Si / 1000 Ang^3
#
#
#
# Elastic Constant Matrix: (Units=GPa)
#
#
# Indices 1 2 3 4 5 6 
#
# 1 182.6983 5.0545 48.3085 0.0000 -12.7770 0.0000
# 2 5.0545 215.9410 27.9328 0.0000 14.4080 0.0000
# 3 48.3085 27.9328 41.3114 0.0000 0.2624 0.0000
# 4 0.0000 0.0000 0.0000 103.7377 0.0000 5.1084
# 5 -12.7770 14.4080 0.2624 0.0000 32.8025 0.0000
# 6 0.0000 0.0000 0.0000 5.1084 0.0000 25.0067
#
#
#
# Elastic Compliance Matrix: (Units=1/GPa)
#
#
# Indices 1 2 3 4 5 6 
#
# 1 0.008441 0.000970 -0.010545 0.000000 0.002946 0.000000
# 2 0.000970 0.005350 -0.004740 0.000000 -0.001934 0.000000
# 3 -0.010545 -0.004740 0.039757 0.000000 -0.002344 0.000000
# 4 0.000000 0.000000 0.000000 0.009738 0.000000 -0.001989
# 5 0.002946 -0.001934 -0.002344 0.000000 0.032501 0.000000
# 6 0.000000 0.000000 0.000000 -0.001989 0.000000 0.040396
#
#
# Mechanical properties :
#
#
# Convention : Reuss Voigt Hill
#
# Bulk Modulus (GPa) = 40.13016 66.94912 53.53964
# Shear Modulus (GPa) = 28.88172 56.21970 42.55071
#
# Velocity S-wave (km/s) = 3.39419 4.73553 4.11982
# Velocity P-wave (km/s) = 5.60072 7.52366 6.63225
#
# Compressibility (1/GPa) = 0.02491891
#
# Stress axis : x y z
#
# Youngs Moduli (GPa) = 118.46837 186.90415 25.15255
#
# Poissons Ratio (x) = -0.18128 0.26524
# Poissons Ratio (y) = -0.11490 0.11921
# Poissons Ratio (z) = 1.24929 0.88584
#
# Static dielectric constant tensor:
#      x y z
#    x 2.006360 0.000000 -0.058560 
#    y 0.000000 0.481910 0.000000 
#    z -0.058560 0.000000 1.925410 
# 
# From -- ./inp_files/94280.got.cif
#   From: 2010.05.17/outbox.cif.g08.bks.cpg/sg12_48_cif.got.tgz:94280.got - 2010.06.03 13:09:07.
