data_PCOD9213324
_publ_section_title
;
Structure prediction by ZEFSAII (Michael W. Deem and Ramdas Pophale) SiO2 
 PCOD9213324
Probable space group: C 2/M
;
_chemical_formula_sum "Si O2"
_cell_formula_units_Z 64
_cell_length_a 17.565033
_cell_length_b 28.310873
_cell_length_c 14.683689
_cell_angle_alpha 90.000000
_cell_angle_beta 32.241716
_cell_angle_gamma 90.000000
_cell_volume 3895.520640
_symmetry_space_group_name_H-M "C 2/M"
_symmetry_group_IT_number 12
_symmetry_cell_setting 'monoclinic'
loop_
_space_group_symop_operation_xyz
x,y,z
-x,y,-z
-x,-y,-z
x,-y,z
1/2+x,1/2+y,z
1/2-x,1/2+y,-z
1/2-x,1/2-y,-z
1/2+x,1/2-y,z
loop_
_atom_site_type_symbol
_atom_site_label
_atom_site_fract_x
_atom_site_fract_y
_atom_site_fract_z
Si Si1 0.609364 0.647381 0.465791
Si Si2 0.054335 0.554246 0.099770
Si Si3 0.931626 0.210595 0.984989
Si Si4 0.903501 0.185335 0.807322
Si Si5 0.099331 0.719841 0.310123
Si Si6 0.272613 0.054094 0.261791
Si Si7 0.584547 0.810857 0.827388
Si Si8 0.591005 0.148839 0.155575
O O1 0.500000 0.664575 0.500000
O O2 0.518095 0.650363 0.649048
O O3 0.659631 0.594759 0.393186
O O4 0.749186 0.679978 0.327270
O O5 0.064319 0.500000 0.120932
O O6 0.085437 0.592555 0.146224
O O7 0.900016 0.560290 0.206866
O O8 0.162172 0.560418 0.905318
O O9 0.931758 0.188842 0.885460
O O10 0.030131 0.257252 0.878616
O O11 0.765672 0.222142 0.170864
O O12 0.000000 0.182477 0.000000
O O13 0.922195 0.235560 0.736607
O O14 0.740210 0.168419 0.962736
O O15 0.078183 0.673187 0.267590
O O16 0.000000 0.720280 0.500000
O O17 0.221562 0.000000 0.320764
O O18 0.533450 0.833275 0.785073
O O19 0.500000 0.832537 0.000000
#
# Coordination Sequence:
#
# PCOD9213324 Si02
#       8
#     8   8   8   8   8   8   8   8
#     4  12  24  31  48  79 108 144 180 219 251 309
#     4   9  17  31  56  80 100 136 178 214 259 317
#     4  10  22  38  53  72 104 144 177 215 262 307
#     4  11  22  37  51  78 109 140 179 214 258 309
#     4  11  23  37  54  79 109 137 175 223 260 305
#     4   9  18  33  50  76 111 139 171 214 261 312
#     4  11  20  32  51  74 101 139 179 212 256 302
#     4  11  19  38  57  74 107 140 174 216 262 311
#
# _framework density 16.429126
#
# number of rings (size 3 to 8) (size 9 to 14) (size 15 to 20)
#    0.000    1.500    3.750    4.125    5.250    1.750 
#    0.000    0.625    0.000    0.375    0.000    0.000 
#    0.000    3.000    0.000    0.000    0.000    0.000 
#
# Total GULP energy -178496.365872 kJ/mol
# GULP energy per Si atom -5578.011433 kJ/mol
# Density = 1.639173 g / cm^3
# Si number density = 16.429126 Si / 1000 Ang^3
#
#
#
# Elastic Constant Matrix: (Units=GPa)
#
#
# Indices 1 2 3 4 5 6 
#
# 1 103.1390 38.0997 48.1192 0.0032 -8.0136 -0.0016
# 2 38.0997 83.9007 22.1093 0.0028 -2.1626 -0.0009
# 3 48.1192 22.1093 101.5657 0.0085 -6.2342 -0.0061
# 4 0.0032 0.0028 0.0085 23.0053 -0.0030 -0.0718
# 5 -8.0136 -2.1626 -6.2342 -0.0030 24.2491 0.0012
# 6 -0.0016 -0.0009 -0.0061 -0.0718 0.0012 27.5307
#
#
#
# Elastic Compliance Matrix: (Units=1/GPa)
#
#
# Indices 1 2 3 4 5 6 
#
# 1 0.014340 -0.004980 -0.005534 0.000001 0.002872 -0.000001
# 2 -0.004980 0.014378 -0.000806 -0.000001 -0.000570 0.000000
# 3 -0.005534 -0.000806 0.012727 -0.000004 0.001371 0.000002
# 4 0.000001 -0.000001 -0.000004 0.043469 0.000005 0.000113
# 5 0.002872 -0.000570 0.001371 0.000005 0.042490 -0.000001
# 6 -0.000001 0.000000 0.000002 0.000113 -0.000001 0.036323
#
#
# Mechanical properties :
#
#
# Convention : Reuss Voigt Hill
#
# Bulk Modulus (GPa) = 53.17149 56.14019 54.65584
# Shear Modulus (GPa) = 25.95609 26.97550 26.46580
#
# Velocity S-wave (km/s) = 3.97909 4.05647 4.01797
# Velocity P-wave (km/s) = 7.31746 7.49568 7.40711
#
# Compressibility (1/GPa) = 0.01880707
#
# Stress axis : x y z
#
# Youngs Moduli (GPa) = 69.73511 69.55217 78.57255
#
# Poissons Ratio (x) = 0.34634 0.43479
# Poissons Ratio (y) = 0.34725 0.06330
# Poissons Ratio (z) = 0.38589 0.05603
#
# Static dielectric constant tensor:
#      x y z
#    x 1.583800 0.000000 0.009140 
#    y 0.000000 1.583640 0.000000 
#    z 0.009140 0.000000 1.581270 
# 
# From -- ./inp_files/228499.got.cif
#   From: 2010.05.17/outbox.cif.g08.bks.cpg/sg12_115_cif.got.tgz:228499.got - 2010.06.03 13:09:07.
