data_PCOD9213393
_publ_section_title
;
Structure prediction by ZEFSAII (Michael W. Deem and Ramdas Pophale) SiO2 
 PCOD9213393
Probable space group: C 2/M
;
_chemical_formula_sum "Si O2"
_cell_formula_units_Z 48
_cell_length_a 17.138875
_cell_length_b 12.888167
_cell_length_c 19.208892
_cell_angle_alpha 90.000000
_cell_angle_beta 30.920907
_cell_angle_gamma 90.000000
_cell_volume 2180.297691
_symmetry_space_group_name_H-M "C 2/M"
_symmetry_group_IT_number 12
_symmetry_cell_setting 'monoclinic'
loop_
_space_group_symop_operation_xyz
x,y,z
-x,y,-z
-x,-y,-z
x,-y,z
1/2+x,1/2+y,z
1/2-x,1/2+y,-z
1/2-x,1/2-y,-z
1/2+x,1/2-y,z
loop_
_atom_site_type_symbol
_atom_site_label
_atom_site_fract_x
_atom_site_fract_y
_atom_site_fract_z
Si Si1 0.535709 0.120406 0.890172
Si Si2 0.273418 0.309878 0.277901
Si Si3 0.106617 0.177474 0.047366
Si Si4 0.938383 0.888536 0.760682
Si Si5 0.387427 0.833363 0.738499
Si Si6 0.719769 0.148625 0.478599
O O1 0.689814 0.186306 0.758553
O O2 0.414476 0.196812 0.945129
O O3 0.538303 0.000000 0.866687
O O4 0.500000 0.125008 0.000000
O O5 0.443338 0.358311 0.141917
O O6 0.167493 0.349511 0.297975
O O7 0.214430 0.331869 0.399971
O O8 0.110188 0.144917 0.124430
O O9 0.250349 0.138573 0.894886
O O10 0.907779 0.791274 0.734338
O O11 0.119578 0.903014 0.629035
O O12 0.868896 0.000000 0.793423
O O13 0.549990 0.884667 0.629126
O O14 0.750000 0.250000 0.500000
#
# Coordination Sequence:
#
# PCOD9213393 Si02
#       6
#     8   8   8   8   8   8
#     4   9  16  29  54  86 118 147 178 222 286 345
#     4   9  17  33  55  85 114 147 180 230 288 346
#     4   9  18  35  56  84 116 153 187 229 283 342
#     4  10  22  38  57  80 116 160 195 231 281 340
#     4  11  18  33  59  86 110 148 191 236 290 336
#     4   9  20  36  57  75 110 156 194 228 280 335
#
# _framework density 22.015343000000001
#
# number of rings (size 3 to 8) (size 9 to 14) (size 15 to 20)
#    1.000    1.500    1.667    1.500    0.000    1.333 
#    0.000    4.167    0.000   25.500    0.000    0.000 
#    0.000    0.000    0.000    0.000    0.000    0.000 
#
# Total GULP energy -133669.675392 kJ/mol
# GULP energy per Si atom -5569.569808 kJ/mol
# Density = 2.196523 g / cm^3
# Si number density = 22.015343 Si / 1000 Ang^3
#
#
#
# Elastic Constant Matrix: (Units=GPa)
#
#
# Indices 1 2 3 4 5 6 
#
# 1 66.7135 -11.9080 19.6951 0.0002 -19.1893 0.0000
# 2 -11.9080 71.5023 7.5730 0.0003 8.9313 -0.0001
# 3 19.6951 7.5730 123.8209 0.0004 -17.2770 -0.0001
# 4 0.0002 0.0003 0.0004 46.3415 -0.0001 30.8674
# 5 -19.1893 8.9313 -17.2770 -0.0001 32.2480 0.0000
# 6 0.0000 -0.0001 -0.0001 30.8674 0.0000 22.8906
#
#
#
# Elastic Compliance Matrix: (Units=1/GPa)
#
#
# Indices 1 2 3 4 5 6 
#
# 1 0.018634 0.002094 -0.001757 0.000000 0.009567 0.000001
# 2 0.002094 0.015007 -0.001791 -0.000001 -0.003870 0.000002
# 3 -0.001757 -0.001791 0.009066 -0.000001 0.004308 0.000001
# 4 0.000000 -0.000001 -0.000001 0.211980 0.000000 -0.285850
# 5 0.009567 -0.003870 0.004308 0.000000 0.040082 -0.000001
# 6 0.000001 0.000002 0.000001 -0.285850 -0.000001 0.429149
#
#
# Mechanical properties :
#
#
# Convention : Reuss Voigt Hill
#
# Bulk Modulus (GPa) = 25.12554 32.52854 28.82704
# Shear Modulus (GPa) = 6.75592 36.74113 21.74852
#
# Velocity S-wave (km/s) = 1.75368 4.08963 3.14647
# Velocity P-wave (km/s) = 3.94183 6.09160 5.13058
#
# Compressibility (1/GPa) = 0.03980013
#
# Stress axis : x y z
#
# Youngs Moduli (GPa) = 53.66593 66.63375 110.29886
#
# Poissons Ratio (x) = -0.13956 0.19381
# Poissons Ratio (y) = -0.11240 0.19754
# Poissons Ratio (z) = 0.09430 0.11934
#
# Static dielectric constant tensor:
#      x y z
#    x 1.748460 0.000000 -0.035790 
#    y 0.000000 1.855280 0.000000 
#    z -0.035790 0.000000 1.817400 
# 
# From -- ./inp_files/316249.got.cif
#   From: 2010.05.17/outbox.cif.g08.bks.cpg/sg12_159_cif.got.tgz:316249.got - 2010.06.03 13:09:07.
