data_PCOD9213632
_publ_section_title
;
Structure prediction by ZEFSAII (Michael W. Deem and Ramdas Pophale) SiO2 
 PCOD9213632
Probable space group: C 2/M
;
_chemical_formula_sum "Si O2"
_cell_formula_units_Z 36
_cell_length_a 14.798423
_cell_length_b 16.021927
_cell_length_c 23.722706
_cell_angle_alpha 90.000000
_cell_angle_beta 159.918569
_cell_angle_gamma 90.000000
_cell_volume 1931.248680
_symmetry_space_group_name_H-M "C 2/M"
_symmetry_group_IT_number 12
_symmetry_cell_setting 'monoclinic'
loop_
_space_group_symop_operation_xyz
x,y,z
-x,y,-z
-x,-y,-z
x,-y,z
1/2+x,1/2+y,z
1/2-x,1/2+y,-z
1/2-x,1/2-y,-z
1/2+x,1/2-y,z
loop_
_atom_site_type_symbol
_atom_site_label
_atom_site_fract_x
_atom_site_fract_y
_atom_site_fract_z
Si Si1 0.431488 0.253380 0.160267
Si Si2 0.000000 0.201280 0.500000
Si Si3 0.688552 0.593646 0.829130
Si Si4 0.693424 0.906214 0.836565
Si Si5 0.802296 0.844078 0.506881
O O1 0.742571 0.252443 0.331268
O O2 0.372020 0.334367 0.162068
O O3 0.364474 0.169097 0.155062
O O4 0.250000 0.250000 0.000000
O O5 0.914230 0.155614 0.508017
O O6 0.626336 0.500000 0.812600
O O7 0.513727 0.613442 0.671586
O O8 0.000000 0.597412 0.000000
O O9 0.481224 0.889573 0.662528
O O10 0.645875 0.000000 0.831018
O O11 0.000000 0.901025 0.000000
O O12 0.750000 0.750000 0.500000
#
# Coordination Sequence:
#
# PCOD9213632 Si02
#       5
#     8   4   8   8   8
#     4  11  23  38  61  88 127 161 205 255 306 363
#     4  10  22  38  62  94 116 162 210 242 314 366
#     4  11  23  40  63  91 124 166 207 254 311 367
#     4  10  22  39  62  90 119 159 205 250 306 363
#     4  11  21  40  66  89 125 163 204 252 310 365
#
# _framework density 18.640789000000002
#
# number of rings (size 3 to 8) (size 9 to 14) (size 15 to 20)
#    0.000    1.333    4.444    2.667    3.111    0.889 
#    0.000   16.667    0.000    0.000    0.000    0.000 
#    0.000    0.000    0.000    0.000    0.000    0.000 
#
# Total GULP energy -100357.813273 kJ/mol
# GULP energy per Si atom -5575.434071 kJ/mol
# Density = 1.859836 g / cm^3
# Si number density = 18.640789 Si / 1000 Ang^3
#
#
#
# Elastic Constant Matrix: (Units=GPa)
#
#
# Indices 1 2 3 4 5 6 
#
# 1 71.8032 43.3274 53.0155 -0.0104 -12.6878 -0.0045
# 2 43.3274 153.9024 60.3285 -0.0267 0.0975 0.0135
# 3 53.0155 60.3285 199.4026 -0.0929 -14.6693 0.0023
# 4 -0.0104 -0.0267 -0.0929 13.0077 0.0164 5.7132
# 5 -12.6878 0.0975 -14.6693 0.0164 38.9481 -0.0091
# 6 -0.0045 0.0135 0.0023 5.7132 -0.0091 -76.5227
#
#
#
# Elastic Compliance Matrix: (Units=1/GPa)
#
#
# Indices 1 2 3 4 5 6 
#
# 1 0.020111 -0.004219 -0.003690 -0.000024 0.005172 -0.000004
# 2 -0.004219 0.008286 -0.001530 0.000004 -0.001971 0.000002
# 3 -0.003690 -0.001530 0.006553 0.000038 0.001270 0.000003
# 4 -0.000024 0.000004 0.000038 0.074437 -0.000023 0.005557
# 5 0.005172 -0.001971 0.001270 -0.000023 0.027843 -0.000006
# 6 -0.000004 0.000002 0.000003 0.005557 -0.000006 -0.012653
#
#
# Mechanical properties :
#
#
# Convention : Reuss Voigt Hill
#
# Bulk Modulus (GPa) = 62.22128 82.05010 72.13569
# Shear Modulus (GPa) = 33.59935 12.98241 23.29088
#
# Velocity S-wave (km/s) = 4.25015 2.64190 3.53860
# Velocity P-wave (km/s) = 7.58529 7.30877 7.44831
#
# Compressibility (1/GPa) = 0.01607167
#
# Stress axis : x y z
#
# Youngs Moduli (GPa) = 49.72398 120.67927 152.61237
#
# Poissons Ratio (x) = 0.50909 0.56317
# Poissons Ratio (y) = 0.20976 0.23357
# Poissons Ratio (z) = 0.18349 0.18470
#
# Static dielectric constant tensor:
#      x y z
#    x 1.561460 0.000000 -0.052930 
#    y 0.000000 1.653390 0.000000 
#    z -0.052930 0.000000 1.628850 
# 
# From -- ./inp_files/340037.got.cif
#   From: 2010.05.17/outbox.cif.g08.bks.cpg/sg12_171_cif.got.tgz:340037.got - 2010.06.03 13:09:07.
