data_PCOD9213752
_publ_section_title
;
Structure prediction by ZEFSAII (Michael W. Deem and Ramdas Pophale) SiO2 
 PCOD9213752
Probable space group: C 2/M
;
_chemical_formula_sum "Si O2"
_cell_formula_units_Z 44
_cell_length_a 24.978664
_cell_length_b 10.443706
_cell_length_c 12.045574
_cell_angle_alpha 90.000000
_cell_angle_beta 37.331538
_cell_angle_gamma 90.000000
_cell_volume 1905.589182
_symmetry_space_group_name_H-M "C 2/M"
_symmetry_group_IT_number 12
_symmetry_cell_setting 'monoclinic'
loop_
_space_group_symop_operation_xyz
x,y,z
-x,y,-z
-x,-y,-z
x,-y,z
1/2+x,1/2+y,z
1/2-x,1/2+y,-z
1/2-x,1/2-y,-z
1/2+x,1/2-y,z
loop_
_atom_site_type_symbol
_atom_site_label
_atom_site_fract_x
_atom_site_fract_y
_atom_site_fract_z
Si Si1 0.652430 0.231182 0.613527
Si Si2 0.314965 0.270171 0.676194
Si Si3 0.046575 0.000000 0.546052
Si Si4 0.000000 0.309521 0.000000
Si Si5 0.385929 0.846735 0.996758
Si Si6 0.908907 0.652311 0.709781
Si Si7 0.453665 0.500000 0.201206
O O1 0.750000 0.250000 0.500000
O O2 0.660372 0.188994 0.473087
O O3 0.585791 0.140521 0.790924
O O4 0.606752 0.371762 0.698490
O O5 0.387421 0.380415 0.562343
O O6 0.218079 0.326567 0.817657
O O7 0.326861 0.196822 0.771503
O O8 0.002425 0.000000 0.744645
O O9 0.000000 0.000000 0.500000
O O10 0.942454 0.262845 0.989369
O O11 0.406387 0.000000 0.977429
O O12 0.408654 0.801744 0.835772
O O13 0.905747 0.500000 0.721383
O O14 0.000000 0.688218 0.500000
O O15 0.500000 0.500000 0.000000
#
# Coordination Sequence:
#
# PCOD9213752 Si02
#       7
#     8   8   4   4   8   8   4
#     4  11  23  42  65  96 132 172 222 274 336 400
#     4  11  21  41  65  94 130 167 216 277 330 394
#     4  10  22  38  68  98 129 171 223 273 342 400
#     4  12  23  39  66  94 130 176 221 267 338 402
#     4  11  23  41  63  92 128 170 218 271 329 402
#     4  10  22  41  64  91 129 169 213 268 329 397
#     4  10  22  44  68  92 140 181 221 282 342 402
#
# _framework density 23.089973000000001
#
# number of rings (size 3 to 8) (size 9 to 14) (size 15 to 20)
#    0.000    1.273    3.636    2.455    0.000    1.455 
#    3.273    0.000    2.000    0.000    0.000    0.000 
#    0.000    0.000    0.000    0.000    0.000    0.000 
#
# Total GULP energy -122579.303337 kJ/mol
# GULP energy per Si atom -5571.786515 kJ/mol
# Density = 2.303742 g / cm^3
# Si number density = 23.089973 Si / 1000 Ang^3
#
#
#
# Elastic Constant Matrix: (Units=GPa)
#
#
# Indices 1 2 3 4 5 6 
#
# 1 221.4478 24.9135 86.2411 0.0000 18.2092 0.0000
# 2 24.9135 55.8413 14.3046 0.0000 0.7906 0.0000
# 3 86.2411 14.3046 132.1269 0.0000 23.9818 0.0000
# 4 0.0000 0.0000 0.0000 0.7156 0.0000 -11.8917
# 5 18.2092 0.7906 23.9818 0.0000 57.3372 0.0000
# 6 0.0000 0.0000 0.0000 -11.8917 0.0000 4.4707
#
#
#
# Elastic Compliance Matrix: (Units=1/GPa)
#
#
# Indices 1 2 3 4 5 6 
#
# 1 0.006230 -0.001799 -0.003806 0.000000 -0.000362 0.000000
# 2 -0.001799 0.018959 -0.001011 0.000000 0.000733 0.000000
# 3 -0.003806 -0.001011 0.010757 0.000000 -0.003277 0.000000
# 4 0.000000 0.000000 0.000000 -0.032347 0.000000 -0.086039
# 5 -0.000362 0.000733 -0.003277 0.000000 0.018916 0.000000
# 6 0.000000 0.000000 0.000000 -0.086039 0.000000 -0.005177
#
#
# Mechanical properties :
#
#
# Convention : Reuss Voigt Hill
#
# Bulk Modulus (GPa) = 44.02723 73.37047 58.69885
# Shear Modulus (GPa) = 131.08616 31.43516 81.26066
#
# Velocity S-wave (km/s) = 7.54289 3.69375 5.93881
# Velocity P-wave (km/s) = 9.74522 7.07365 8.51486
#
# Compressibility (1/GPa) = 0.02271321
#
# Stress axis : x y z
#
# Youngs Moduli (GPa) = 160.50951 52.74435 92.96367
#
# Poissons Ratio (x) = 0.09491 0.35382
# Poissons Ratio (y) = 0.28883 0.09400
# Poissons Ratio (z) = 0.61090 0.05333
#
# Static dielectric constant tensor:
#      x y z
#    x 1.881700 0.000000 0.080770 
#    y 0.000000 1.997710 0.000000 
#    z 0.080770 0.000000 1.903610 
# 
# From -- ./inp_files/175137.got.cif
#   From: 2010.05.17/outbox.cif.g08.bks.cpg/sg12_88_cif.got.tgz:175137.got - 2010.06.03 13:09:07.
