data_PCOD9213787
_publ_section_title
;
Structure prediction by ZEFSAII (Michael W. Deem and Ramdas Pophale) SiO2 
 PCOD9213787
Probable space group: C 2/M
;
_chemical_formula_sum "Si O2"
_cell_formula_units_Z 48
_cell_length_a 13.772983
_cell_length_b 7.360600
_cell_length_c 17.619195
_cell_angle_alpha 90.000000
_cell_angle_beta 90.323531
_cell_angle_gamma 90.000000
_cell_volume 1786.160032
_symmetry_space_group_name_H-M "C 2/M"
_symmetry_group_IT_number 12
_symmetry_cell_setting 'monoclinic'
loop_
_space_group_symop_operation_xyz
x,y,z
-x,y,-z
-x,-y,-z
x,-y,z
1/2+x,1/2+y,z
1/2-x,1/2+y,-z
1/2-x,1/2-y,-z
1/2+x,1/2-y,z
loop_
_atom_site_type_symbol
_atom_site_label
_atom_site_fract_x
_atom_site_fract_y
_atom_site_fract_z
Si Si1 0.702224 0.285673 0.672996
Si Si2 0.047820 0.222184 0.195959
Si Si3 0.136179 0.783394 0.518102
Si Si4 0.733219 0.781899 0.842063
Si Si5 0.420254 0.204559 0.054477
Si Si6 0.923540 0.207184 0.639671
O O1 0.714797 0.500000 0.659681
O O2 0.629306 0.221736 0.605866
O O3 0.681450 0.264142 0.761681
O O4 0.807741 0.198561 0.659170
O O5 0.155736 0.274330 0.168418
O O6 0.034780 0.286342 0.282453
O O7 0.974812 0.300978 0.135225
O O8 0.041548 0.000000 0.195567
O O9 0.250000 0.750000 0.500000
O O10 0.077019 0.711309 0.444964
O O11 0.120154 0.000000 0.515230
O O12 0.680861 0.711006 0.917801
O O13 0.732685 0.000000 0.848191
O O14 0.402855 0.000000 0.024747
O O15 0.500000 0.293569 0.000000
O O16 0.960446 0.000000 0.635313
#
# Coordination Sequence:
#
# PCOD9213787 Si02
#       6
#     8   8   8   8   8   8
#     4   9  15  23  41  71 100 128 170 214 243 279
#     4   9  18  33  54  78 103 133 168 204 246 300
#     4   8  13  21  36  62  96 131 167 205 241 282
#     4   9  19  36  54  73 103 139 167 199 254 311
#     4  10  22  39  57  77 101 130 165 206 255 310
#     4   8  14  26  43  65  99 139 169 198 247 299
#
# _framework density 26.873291999999999
#
# number of rings (size 3 to 8) (size 9 to 14) (size 15 to 20)
#    0.000    3.167    0.000    1.500    0.000    5.000 
#    0.000    0.000    0.000    1.000    0.000    7.000 
#    0.000    0.000    0.000    0.000    0.000    0.000 
#
# Total GULP energy -134079.349496 kJ/mol
# GULP energy per Si atom -5586.639562 kJ/mol
# Density = 2.681213 g / cm^3
# Si number density = 26.873292 Si / 1000 Ang^3
#
#
#
# Elastic Constant Matrix: (Units=GPa)
#
#
# Indices 1 2 3 4 5 6 
#
# 1 76.2627 3.3451 24.5125 0.0000 -21.0382 0.0000
# 2 3.3451 113.4709 1.5120 0.0000 -7.6054 0.0000
# 3 24.5125 1.5120 107.0152 0.0000 -34.7620 0.0000
# 4 0.0000 0.0000 0.0000 4.3588 0.0000 12.7710
# 5 -21.0382 -7.6054 -34.7620 0.0000 69.5459 0.0000
# 6 0.0000 0.0000 0.0000 12.7710 0.0000 -2.7145
#
#
#
# Elastic Compliance Matrix: (Units=1/GPa)
#
#
# Indices 1 2 3 4 5 6 
#
# 1 0.014772 -0.000184 -0.002311 0.000000 0.003293 0.000000
# 2 -0.000184 0.008885 0.000256 0.000000 0.001044 0.000000
# 3 -0.002311 0.000256 0.011523 0.000000 0.005089 0.000000
# 4 0.000000 0.000000 0.000000 0.015518 0.000000 0.073006
# 5 0.003293 0.001044 0.005089 0.000000 0.018033 0.000000
# 6 0.000000 0.000000 0.000000 0.073006 0.000000 -0.024917
#
#
# Mechanical properties :
#
#
# Convention : Reuss Voigt Hill
#
# Bulk Modulus (GPa) = 32.57234 39.49869 36.03552
# Shear Modulus (GPa) = 85.43178 32.06330 58.74754
#
# Velocity S-wave (km/s) = 5.64443 3.45792 4.68064
# Velocity P-wave (km/s) = 7.39097 5.53832 6.53068
#
# Compressibility (1/GPa) = 0.03070089
#
# Stress axis : x y z
#
# Youngs Moduli (GPa) = 67.69547 112.55174 86.78142
#
# Poissons Ratio (x) = 0.02070 0.20058
# Poissons Ratio (y) = 0.01245 -0.02219
# Poissons Ratio (z) = 0.15646 -0.02877
#
# Static dielectric constant tensor:
#      x y z
#    x 2.179030 0.000000 -0.047020 
#    y 0.000000 2.202380 0.000000 
#    z -0.047020 0.000000 2.104420 
# 
# From -- ./inp_files/273665.got.cif
#   From: 2010.05.17/outbox.cif.g08.bks.cpg/sg12_137_cif.got.tgz:273665.got - 2010.06.03 13:09:07.
