data_PCOD9213244
_publ_section_title
;
Structure prediction by ZEFSAII (Michael W. Deem and Ramdas Pophale) SiO2 
 PCOD9213244
Probable space group: C 2/M
;
_chemical_formula_sum "Si O2"
_cell_formula_units_Z 40
_cell_length_a 12.207922
_cell_length_b 27.919720
_cell_length_c 7.590187
_cell_angle_alpha 90.000000
_cell_angle_beta 132.792435
_cell_angle_gamma 90.000000
_cell_volume 1898.429913
_symmetry_space_group_name_H-M "C 2/M"
_symmetry_group_IT_number 12
_symmetry_cell_setting 'monoclinic'
loop_
_space_group_symop_operation_xyz
x,y,z
-x,y,-z
-x,-y,-z
x,-y,z
1/2+x,1/2+y,z
1/2-x,1/2+y,-z
1/2-x,1/2-y,-z
1/2+x,1/2-y,z
loop_
_atom_site_type_symbol
_atom_site_label
_atom_site_fract_x
_atom_site_fract_y
_atom_site_fract_z
Si Si1 0.828659 0.696816 0.274928
Si Si2 0.880505 0.054662 0.654980
Si Si3 0.826845 0.601506 0.849296
Si Si4 0.328534 0.210468 0.855657
Si Si5 0.690203 0.599627 0.078697
O O1 0.778000 0.745780 0.314027
O O2 0.720977 0.652126 0.192663
O O3 0.000000 0.684583 0.500000
O O4 0.818088 0.705490 0.054795
O O5 0.779574 0.067698 0.379465
O O6 0.790214 0.063254 0.738019
O O7 0.933045 0.000000 0.703403
O O8 0.023412 0.089501 0.825920
O O9 0.793995 0.656703 0.753508
O O10 0.794639 0.595563 0.021715
O O11 0.000000 0.592769 0.000000
O O12 0.500000 0.221943 0.000000
#
# Coordination Sequence:
#
# PCOD9213244 Si02
#       5
#     8   8   8   8   8
#     4  10  22  37  60  93 127 166 208 253 312 373
#     4  11  25  44  68  93 122 169 221 270 323 380
#     4  10  23  42  66  96 132 167 210 264 324 377
#     4   9  21  38  57  91 128 165 209 248 304 381
#     4  10  23  41  65  93 128 165 213 264 316 383
#
# _framework density 21.070042000000001
#
# number of rings (size 3 to 8) (size 9 to 14) (size 15 to 20)
#    0.000    2.000    0.000    1.800   11.200    8.400 
#    0.000    1.000    0.000    0.000    0.000    0.000 
#    0.000    0.000    0.000    0.000    0.000    0.000 
#
# Total GULP energy -111665.100704 kJ/mol
# GULP energy per Si atom -5583.255035 kJ/mol
# Density = 2.102209 g / cm^3
# Si number density = 21.070042 Si / 1000 Ang^3
#
#
#
# Elastic Constant Matrix: (Units=GPa)
#
#
# Indices 1 2 3 4 5 6 
#
# 1 72.3352 5.9930 -11.0117 0.0000 9.4267 0.0000
# 2 5.9930 80.3326 32.9179 0.0000 29.6835 0.0000
# 3 -11.0117 32.9179 42.5165 0.0000 6.0991 0.0000
# 4 0.0000 0.0000 0.0000 31.2631 0.0000 2.6348
# 5 9.4267 29.6835 6.0991 0.0000 27.6733 0.0000
# 6 0.0000 0.0000 0.0000 2.6348 0.0000 26.6233
#
#
#
# Elastic Compliance Matrix: (Units=1/GPa)
#
#
# Indices 1 2 3 4 5 6 
#
# 1 0.015531 -0.002097 0.006281 0.000000 -0.004425 0.000000
# 2 -0.002097 0.031933 -0.021124 0.000000 -0.028882 0.000000
# 3 0.006281 -0.021124 0.039817 0.000000 0.011743 0.000000
# 4 0.000000 0.000000 0.000000 0.032256 0.000000 -0.003192
# 5 -0.004425 -0.028882 0.011743 0.000000 0.066036 0.000000
# 6 0.000000 0.000000 0.000000 -0.003192 0.000000 0.037877
#
#
# Mechanical properties :
#
#
# Convention : Reuss Voigt Hill
#
# Bulk Modulus (GPa) = 18.72595 27.88697 23.30646
# Shear Modulus (GPa) = 18.17327 28.26426 23.21877
#
# Velocity S-wave (km/s) = 2.94005 3.66655 3.32321
# Velocity P-wave (km/s) = 4.52017 5.58470 5.08039
#
# Compressibility (1/GPa) = 0.05340183
#
# Stress axis : x y z
#
# Youngs Moduli (GPa) = 64.38652 31.31584 25.11474
#
# Poissons Ratio (x) = 0.06568 -0.15775
# Poissons Ratio (y) = 0.13504 0.53051
# Poissons Ratio (z) = -0.40443 0.66150
#
# Static dielectric constant tensor:
#      x y z
#    x 1.788760 0.000000 -0.008750 
#    y 0.000000 1.805300 0.000000 
#    z -0.008750 0.000000 1.716260 
# 
# From -- ./inp_files/53964.got.cif
#   From: 2010.05.17/outbox.cif.g08.bks.cpg/sg12_27_cif.got.tgz:53964.got - 2010.06.03 13:09:07.
