data_PCOD9213882
_publ_section_title
;
Structure prediction by ZEFSAII (Michael W. Deem and Ramdas Pophale) SiO2 
 PCOD9213882
Probable space group: C 2/M
;
_chemical_formula_sum "Si O2"
_cell_formula_units_Z 56
_cell_length_a 27.767998
_cell_length_b 25.788648
_cell_length_c 12.832589
_cell_angle_alpha 90.000000
_cell_angle_beta 163.263313
_cell_angle_gamma 90.000000
_cell_volume 2646.307761
_symmetry_space_group_name_H-M "C 2/M"
_symmetry_group_IT_number 12
_symmetry_cell_setting 'monoclinic'
loop_
_space_group_symop_operation_xyz
x,y,z
-x,y,-z
-x,-y,-z
x,-y,z
1/2+x,1/2+y,z
1/2-x,1/2+y,-z
1/2-x,1/2-y,-z
1/2+x,1/2-y,z
loop_
_atom_site_type_symbol
_atom_site_label
_atom_site_fract_x
_atom_site_fract_y
_atom_site_fract_z
Si Si1 0.761619 0.060880 0.718358
Si Si2 0.306922 0.941367 0.645748
Si Si3 0.816946 0.733060 0.749716
Si Si4 0.419327 0.619852 0.226001
Si Si5 0.056834 0.209557 0.379973
Si Si6 0.558240 0.864884 0.926606
Si Si7 0.424063 0.184024 0.456332
O O1 0.809102 0.069308 0.695220
O O2 0.604775 0.098901 0.408471
O O3 0.717057 0.000000 0.633591
O O4 0.883873 0.076924 0.064482
O O5 0.277883 0.000000 0.622156
O O6 0.500000 0.939794 0.000000
O O7 0.302721 0.900013 0.729244
O O8 0.750000 0.750000 0.500000
O O9 0.680964 0.705252 0.540276
O O10 0.883825 0.779587 0.959676
O O11 0.958672 0.688125 0.040634
O O12 0.500000 0.600355 0.500000
O O13 0.538448 0.661641 0.417403
O O14 0.248042 0.651507 0.898151
O O15 0.099591 0.259997 0.538219
O O16 0.558241 0.845778 0.807636
O O17 0.500000 0.190558 0.500000
#
# Coordination Sequence:
#
# PCOD9213882 Si02
#       7
#     8   8   8   8   8   8   8
#     4   9  19  38  62  90 119 154 207 262 310 371
#     4   8  14  28  56  86 111 145 192 247 300 358
#     4  11  24  38  58  91 133 168 198 246 307 375
#     4  11  24  37  62  92 121 162 211 259 314 363
#     4  11  23  40  58  86 125 170 208 247 301 365
#     4   9  19  32  58  87 119 152 198 246 303 358
#     4  10  22  39  59  85 124 166 210 255 292 363
#
# _framework density 21.161560999999999
#
# number of rings (size 3 to 8) (size 9 to 14) (size 15 to 20)
#    0.000    2.143    1.429    2.143    6.000    6.000 
#    0.000    0.000    0.000   12.429    0.000    2.000 
#    0.000    0.000    0.000    0.000    0.000    0.000 
#
# Total GULP energy -156175.337442 kJ/mol
# GULP energy per Si atom -5577.690623 kJ/mol
# Density = 2.111340 g / cm^3
# Si number density = 21.161561 Si / 1000 Ang^3
#
#
#
# Elastic Constant Matrix: (Units=GPa)
#
#
# Indices 1 2 3 4 5 6 
#
# 1 117.7056 44.2008 42.0175 0.0000 -31.6634 0.0000
# 2 44.2008 86.4792 21.1663 0.0000 -27.1680 0.0000
# 3 42.0175 21.1663 79.0933 0.0000 -37.4454 0.0000
# 4 0.0000 0.0000 0.0000 18.7626 0.0000 -10.9485
# 5 -31.6634 -27.1680 -37.4454 0.0000 52.5144 0.0000
# 6 0.0000 0.0000 0.0000 -10.9485 0.0000 25.5283
#
#
#
# Elastic Compliance Matrix: (Units=1/GPa)
#
#
# Indices 1 2 3 4 5 6 
#
# 1 0.012314 -0.004621 -0.004411 0.000000 0.001889 0.000000
# 2 -0.004621 0.015553 0.001182 0.000000 0.006103 0.000000
# 3 -0.004411 0.001182 0.020683 0.000000 0.012700 0.000000
# 4 0.000000 0.000000 0.000000 0.071088 0.000000 0.030488
# 5 0.001889 0.006103 0.012700 0.000000 0.032394 0.000000
# 6 0.000000 0.000000 0.000000 0.030488 0.000000 0.052248
#
#
# Mechanical properties :
#
#
# Convention : Reuss Voigt Hill
#
# Bulk Modulus (GPa) = 30.44096 55.33859 42.88977
# Shear Modulus (GPa) = 21.65171 31.08728 26.36950
#
# Velocity S-wave (km/s) = 3.20216 3.83697 3.53385
# Velocity P-wave (km/s) = 5.29981 6.77031 6.07968
#
# Compressibility (1/GPa) = 0.03285048
#
# Stress axis : x y z
#
# Youngs Moduli (GPa) = 81.21149 64.29537 48.34978
#
# Poissons Ratio (x) = 0.29709 0.21325
# Poissons Ratio (y) = 0.37525 -0.05714
# Poissons Ratio (z) = 0.35819 -0.07599
#
# Static dielectric constant tensor:
#      x y z
#    x 1.771150 0.000000 0.044540 
#    y 0.000000 1.782320 0.000000 
#    z 0.044540 0.000000 1.905100 
# 
# From -- ./inp_files/185160.got.cif
#   From: 2010.05.17/outbox.cif.g08.bks.cpg/sg12_93_cif.got.tgz:185160.got - 2010.06.03 13:09:07.
