data_PCOD9213206
_publ_section_title
;
Structure prediction by ZEFSAII (Michael W. Deem and Ramdas Pophale) SiO2 
 PCOD9213206
Probable space group: C 2/M
;
_chemical_formula_sum "Si O2"
_cell_formula_units_Z 64
_cell_length_a 21.963693
_cell_length_b 18.907092
_cell_length_c 19.287165
_cell_angle_alpha 90.000000
_cell_angle_beta 157.803490
_cell_angle_gamma 90.000000
_cell_volume 3025.815940
_symmetry_space_group_name_H-M "C 2/M"
_symmetry_group_IT_number 12
_symmetry_cell_setting 'monoclinic'
loop_
_space_group_symop_operation_xyz
x,y,z
-x,y,-z
-x,-y,-z
x,-y,z
1/2+x,1/2+y,z
1/2-x,1/2+y,-z
1/2-x,1/2-y,-z
1/2+x,1/2-y,z
loop_
_atom_site_type_symbol
_atom_site_label
_atom_site_fract_x
_atom_site_fract_y
_atom_site_fract_z
Si Si1 0.170016 0.415223 0.147056
Si Si2 0.117748 0.803503 0.008532
Si Si3 0.666917 0.805560 0.634698
Si Si4 0.611096 0.579069 0.185998
Si Si5 0.328489 0.824771 0.108001
Si Si6 0.825497 0.083739 0.166284
Si Si7 0.154364 0.159661 0.547783
Si Si8 0.117345 0.299318 0.323775
O O1 0.179323 0.500000 0.164153
O O2 0.205399 0.399550 0.104020
O O3 0.301442 0.379764 0.334665
O O4 0.000000 0.391746 0.000000
O O5 0.997543 0.870252 0.881316
O O6 0.010997 0.742829 0.859983
O O7 0.187492 0.785508 0.157927
O O8 0.276513 0.824113 0.132445
O O9 0.500000 0.811746 0.500000
O O10 0.728513 0.877893 0.665011
O O11 0.651517 0.742483 0.563328
O O12 0.640681 0.500000 0.243379
O O13 0.500000 0.573593 0.000000
O O14 0.511155 0.828222 0.275180
O O15 0.250000 0.750000 0.000000
O O16 0.246326 0.889213 0.981056
O O17 0.984562 0.129724 0.345315
O O18 0.858113 0.000000 0.201773
O O19 0.285975 0.149120 0.625892
O O20 0.250000 0.250000 0.500000
#
# Coordination Sequence:
#
# PCOD9213206 Si02
#       8
#     8   8   8   8   8   8   8   8
#     4  10  22  37  58  88 126 168 215 267 325 383
#     4  10  22  41  62  94 129 166 219 273 318 394
#     4  11  24  35  63 100 131 165 221 270 335 393
#     4   9  19  39  62  89 128 169 210 269 338 394
#     4  10  23  40  67  91 125 170 217 268 326 377
#     4  11  24  44  63  95 135 178 221 267 327 392
#     4  12  23  36  64  91 132 171 221 266 326 391
#     4  11  24  40  63  93 129 165 215 273 327 381
#
# _framework density 21.151319000000001
#
# number of rings (size 3 to 8) (size 9 to 14) (size 15 to 20)
#    0.000    1.500    1.250    3.750   10.500    1.750 
#    0.000    0.625    0.000    2.250    0.000    0.000 
#    0.000    0.000    0.000    0.000    0.000    0.000 
#
# Total GULP energy -178794.023778 kJ/mol
# GULP energy per Si atom -5587.313243 kJ/mol
# Density = 2.110318 g / cm^3
# Si number density = 21.151319 Si / 1000 Ang^3
#
#
#
# Elastic Constant Matrix: (Units=GPa)
#
#
# Indices 1 2 3 4 5 6 
#
# 1 86.0138 27.7892 11.5856 0.0020 25.3767 -0.0014
# 2 27.7892 59.6020 42.1577 0.0131 9.5928 0.0069
# 3 11.5856 42.1577 81.8496 0.0056 11.8234 0.0029
# 4 0.0020 0.0131 0.0056 23.7891 0.0046 -1.0865
# 5 25.3767 9.5928 11.8234 0.0046 45.0027 0.0020
# 6 -0.0014 0.0069 0.0029 -1.0865 0.0020 23.0290
#
#
#
# Elastic Compliance Matrix: (Units=1/GPa)
#
#
# Indices 1 2 3 4 5 6 
#
# 1 0.016431 -0.008697 0.003351 0.000004 -0.008292 0.000004
# 2 -0.008697 0.031196 -0.015160 -0.000014 0.002237 -0.000009
# 3 0.003351 -0.015160 0.020121 0.000004 -0.003945 0.000003
# 4 0.000004 -0.000014 0.000004 0.042127 -0.000005 0.001988
# 5 -0.008292 0.002237 -0.003945 -0.000005 0.027456 -0.000003
# 6 0.000004 -0.000009 0.000003 0.001988 -0.000003 0.043517
#
#
# Mechanical properties :
#
#
# Convention : Reuss Voigt Hill
#
# Bulk Modulus (GPa) = 37.40107 43.39227 40.39667
# Shear Modulus (GPa) = 21.66655 28.09302 24.87978
#
# Velocity S-wave (km/s) = 3.20403 3.64839 3.43341
# Velocity P-wave (km/s) = 5.60435 6.18929 5.90407
#
# Compressibility (1/GPa) = 0.02673720
#
# Stress axis : x y z
#
# Youngs Moduli (GPa) = 60.86171 32.05583 49.69865
#
# Poissons Ratio (x) = 0.27878 -0.16656
# Poissons Ratio (y) = 0.52930 0.75342
# Poissons Ratio (z) = -0.20397 0.48596
#
# Static dielectric constant tensor:
#      x y z
#    x 1.796180 0.000000 -0.008800 
#    y 0.000000 1.750700 0.000000 
#    z -0.008800 0.000000 1.819760 
# 
# From -- ./inp_files/326125.got.cif
#   From: 2010.05.17/outbox.cif.g08.bks.cpg/sg12_164_cif.got.tgz:326125.got - 2010.06.03 13:09:07.
