data_PCOD9213447
_publ_section_title
;
Structure prediction by ZEFSAII (Michael W. Deem and Ramdas Pophale) SiO2 
 PCOD9213447
Probable space group: C 2/M
;
_chemical_formula_sum "Si O2"
_cell_formula_units_Z 36
_cell_length_a 9.031678
_cell_length_b 11.910783
_cell_length_c 15.247158
_cell_angle_alpha 90.000000
_cell_angle_beta 98.280129
_cell_angle_gamma 90.000000
_cell_volume 1623.105399
_symmetry_space_group_name_H-M "C 2/M"
_symmetry_group_IT_number 12
_symmetry_cell_setting 'monoclinic'
loop_
_space_group_symop_operation_xyz
x,y,z
-x,y,-z
-x,-y,-z
x,-y,z
1/2+x,1/2+y,z
1/2-x,1/2+y,-z
1/2-x,1/2-y,-z
1/2+x,1/2-y,z
loop_
_atom_site_type_symbol
_atom_site_label
_atom_site_fract_x
_atom_site_fract_y
_atom_site_fract_z
Si Si1 0.178574 0.369248 0.028583
Si Si2 0.035912 0.723176 0.312431
Si Si3 0.298606 0.372807 0.235720
Si Si4 0.000000 0.818546 0.500000
Si Si5 0.063699 0.500000 0.649219
Si Si6 0.744150 0.000000 0.488958
O O1 0.221410 0.500000 0.001008
O O2 0.222823 0.369223 0.134797
O O3 0.250000 0.250000 0.000000
O O4 0.000000 0.361618 0.000000
O O5 0.963562 0.822844 0.251446
O O6 0.021188 0.748380 0.413930
O O7 0.941950 0.609353 0.291217
O O8 0.201384 0.699905 0.294379
O O9 0.301614 0.500000 0.267750
O O10 0.852388 0.895046 0.480833
O O11 0.190996 0.500000 0.586078
O O12 0.905215 0.500000 0.582091
#
# Coordination Sequence:
#
# PCOD9213447 Si02
#       6
#     8   8   8   4   4   4
#     4  10  22  44  74 104 136 175 216 269 339 412
#     4  12  24  42  64  94 132 176 225 273 327 378
#     4  11  25  45  67  98 136 170 214 274 329 390
#     4  11  24  37  62  90 124 179 225 274 320 384
#     4  11  22  38  60  86 120 169 217 277 327 380
#     4  10  22  38  58  86 120 159 232 283 324 372
#
# _framework density 22.179704999999998
#
# number of rings (size 3 to 8) (size 9 to 14) (size 15 to 20)
#    0.000    1.111    1.111    5.333    3.111    3.111 
#    4.000    0.000    0.000    0.000    0.000    0.000 
#    0.000    0.000    0.000    0.000    0.000    0.000 
#
# Total GULP energy -100621.110860 kJ/mol
# GULP energy per Si atom -5590.061714 kJ/mol
# Density = 2.212922 g / cm^3
# Si number density = 22.179705 Si / 1000 Ang^3
#
#
#
# Elastic Constant Matrix: (Units=GPa)
#
#
# Indices 1 2 3 4 5 6 
#
# 1 88.5618 59.3489 1.8850 0.0000 8.6167 0.0000
# 2 59.3489 139.0266 26.7169 0.0000 7.1809 0.0000
# 3 1.8850 26.7169 52.7893 0.0000 17.5595 0.0000
# 4 0.0000 0.0000 0.0000 36.5621 0.0000 -7.0763
# 5 8.6167 7.1809 17.5595 0.0000 26.2679 0.0000
# 6 0.0000 0.0000 0.0000 -7.0763 0.0000 93.2546
#
#
#
# Elastic Compliance Matrix: (Units=1/GPa)
#
#
# Indices 1 2 3 4 5 6 
#
# 1 0.017378 -0.008187 0.006012 0.000000 -0.007481 0.000000
# 2 -0.008187 0.011834 -0.007091 0.000000 0.004191 0.000000
# 3 0.006012 -0.007091 0.028713 0.000000 -0.019228 0.000000
# 4 0.000000 0.000000 0.000000 0.027758 0.000000 0.002106
# 5 -0.007481 0.004191 -0.019228 0.000000 0.052231 0.000000
# 6 0.000000 0.000000 0.000000 0.002106 0.000000 0.010883
#
#
# Mechanical properties :
#
#
# Convention : Reuss Voigt Hill
#
# Bulk Modulus (GPa) = 25.38585 50.69767 38.04176
# Shear Modulus (GPa) = 27.70660 44.04537 35.87598
#
# Velocity S-wave (km/s) = 3.53822 4.46111 4.02620
# Velocity P-wave (km/s) = 5.30682 7.03155 6.22917
#
# Compressibility (1/GPa) = 0.03939202
#
# Stress axis : x y z
#
# Youngs Moduli (GPa) = 57.54335 84.50084 34.82722
#
# Poissons Ratio (x) = 0.69184 -0.20937
# Poissons Ratio (y) = 0.47113 0.24696
# Poissons Ratio (z) = -0.34593 0.59919
#
# Static dielectric constant tensor:
#      x y z
#    x 1.809190 0.000000 0.017240 
#    y 0.000000 1.924770 0.000000 
#    z 0.017240 0.000000 1.836810 
# 
# From -- ./inp_files/254817.got.cif
#   From: 2010.05.17/outbox.cif.g08.bks.cpg/sg12_128_cif.got.tgz:254817.got - 2010.06.03 13:09:07.
