data_PCOD9213133
_publ_section_title
;
Structure prediction by ZEFSAII (Michael W. Deem and Ramdas Pophale) SiO2 
 PCOD9213133
Probable space group: C 2/M
;
_chemical_formula_sum "Si O2"
_cell_formula_units_Z 64
_cell_length_a 17.522753
_cell_length_b 20.682946
_cell_length_c 23.550496
_cell_angle_alpha 90.000000
_cell_angle_beta 158.113360
_cell_angle_gamma 90.000000
_cell_volume 3181.686663
_symmetry_space_group_name_H-M "C 2/M"
_symmetry_group_IT_number 12
_symmetry_cell_setting 'monoclinic'
loop_
_space_group_symop_operation_xyz
x,y,z
-x,y,-z
-x,-y,-z
x,-y,z
1/2+x,1/2+y,z
1/2-x,1/2+y,-z
1/2-x,1/2-y,-z
1/2+x,1/2-y,z
loop_
_atom_site_type_symbol
_atom_site_label
_atom_site_fract_x
_atom_site_fract_y
_atom_site_fract_z
Si Si1 0.044156 0.252452 0.290690
Si Si2 0.327465 0.423749 0.426315
Si Si3 0.073633 0.344952 0.882423
Si Si4 0.013363 0.287633 0.400224
Si Si5 0.125094 0.298665 0.141271
Si Si6 0.595351 0.928541 0.503053
Si Si7 0.942214 0.105112 0.198934
Si Si8 0.650083 0.571557 0.740190
O O1 0.904038 0.292175 0.151161
O O2 0.282491 0.248770 0.435935
O O3 0.028660 0.280708 0.342821
O O4 0.981064 0.178043 0.247481
O O5 0.500000 0.402440 0.500000
O O6 0.294780 0.500000 0.395201
O O7 0.119322 0.387037 0.271205
O O8 0.428957 0.415438 0.558453
O O9 0.010247 0.309072 0.896735
O O10 0.269324 0.388561 0.031810
O O11 0.813240 0.249497 0.282171
O O12 0.018094 0.363173 0.419322
O O13 0.208804 0.369971 0.182463
O O14 0.000000 0.274982 0.000000
O O15 0.500000 0.926921 0.500000
O O16 0.842325 0.922216 0.673727
O O17 0.545765 0.000000 0.443945
O O18 0.865377 0.070683 0.202818
O O19 0.716807 0.500000 0.765877
#
# Coordination Sequence:
#
# PCOD9213133 Si02
#       8
#     8   8   8   8   8   8   8   8
#     4  10  22  39  62  92 131 166 221 271 316 384
#     4  10  22  37  54  85 130 173 216 255 299 372
#     4  12  24  36  65  96 135 169 217 267 329 381
#     4  10  22  40  66  92 131 171 223 272 328 380
#     4  12  23  39  59  99 136 176 216 263 324 398
#     4  10  24  46  71  95 121 165 227 282 332 395
#     4  11  23  43  63  96 126 168 212 271 332 391
#     4  11  22  39  61  88 133 184 219 255 307 388
#
# _framework density 20.115117999999999
#
# number of rings (size 3 to 8) (size 9 to 14) (size 15 to 20)
#    0.000    1.250    3.750    1.500    7.000    1.250 
#    0.000    0.000    0.000    0.375    0.000    0.000 
#    0.000    0.000    0.000    0.000    0.000    0.000 
#
# Total GULP energy -178857.517887 kJ/mol
# GULP energy per Si atom -5589.297434 kJ/mol
# Density = 2.006934 g / cm^3
# Si number density = 20.115118 Si / 1000 Ang^3
#
#
#
# Elastic Constant Matrix: (Units=GPa)
#
#
# Indices 1 2 3 4 5 6 
#
# 1 53.2718 20.0857 6.3116 -0.0055 -3.1937 -0.0150
# 2 20.0857 111.4069 39.0876 0.0150 4.8376 0.0850
# 3 6.3116 39.0876 76.4629 0.0135 -5.8176 0.1352
# 4 -0.0055 0.0150 0.0135 13.4467 0.0177 -14.8031
# 5 -3.1937 4.8376 -5.8176 0.0177 30.8035 0.0189
# 6 -0.0150 0.0850 0.1352 -14.8031 0.0189 10.8236
#
#
#
# Elastic Compliance Matrix: (Units=1/GPa)
#
#
# Indices 1 2 3 4 5 6 
#
# 1 0.020383 -0.004002 0.000581 -0.000120 0.002852 -0.000117
# 2 -0.004002 0.011970 -0.006050 0.000048 -0.003437 0.000047
# 3 0.000581 -0.006050 0.016435 0.000387 0.004114 0.000365
# 4 -0.000120 0.000048 0.000387 -0.147064 0.000261 -0.201142
# 5 0.002852 -0.003437 0.004114 0.000261 0.034076 0.000277
# 6 -0.000117 0.000047 0.000365 -0.201142 0.000277 -0.182711
#
#
# Mechanical properties :
#
#
# Convention : Reuss Voigt Hill
#
# Bulk Modulus (GPa) = 33.50716 41.34572 37.42644
# Shear Modulus (GPa) = -22.93375 22.72520 -0.10427
#
# Velocity S-wave (km/s) = -3.38024 3.36483 -0.22793
# Velocity P-wave (km/s) = 1.20797 5.97455 4.31013
#
# Compressibility (1/GPa) = 0.02984437
#
# Stress axis : x y z
#
# Youngs Moduli (GPa) = 49.06091 83.54498 60.84431
#
# Poissons Ratio (x) = 0.33437 -0.03533
# Poissons Ratio (y) = 0.19636 0.36811
# Poissons Ratio (z) = -0.02849 0.50545
#
# Static dielectric constant tensor:
#      x y z
#    x 1.702260 0.000010 -0.000280 
#    y 0.000010 1.739450 -0.000040 
#    z -0.000280 -0.000040 1.741980 
# 
# From -- ./inp_files/344905.got.cif
#   From: 2010.05.17/outbox.cif.g08.bks.cpg/sg12_173_cif.got.tgz:344905.got - 2010.06.03 13:09:07.
