data_PCOD9213318
_publ_section_title
;
Structure prediction by ZEFSAII (Michael W. Deem and Ramdas Pophale) SiO2 
 PCOD9213318
Probable space group: C 2/M
;
_chemical_formula_sum "Si O2"
_cell_formula_units_Z 58
_cell_length_a 19.739017
_cell_length_b 7.572646
_cell_length_c 19.451897
_cell_angle_alpha 90.000000
_cell_angle_beta 68.539086
_cell_angle_gamma 90.000000
_cell_volume 2706.011423
_symmetry_space_group_name_H-M "C 2/M"
_symmetry_group_IT_number 12
_symmetry_cell_setting 'monoclinic'
loop_
_space_group_symop_operation_xyz
x,y,z
-x,y,-z
-x,-y,-z
x,-y,z
1/2+x,1/2+y,z
1/2-x,1/2+y,-z
1/2-x,1/2-y,-z
1/2+x,1/2-y,z
loop_
_atom_site_type_symbol
_atom_site_label
_atom_site_fract_x
_atom_site_fract_y
_atom_site_fract_z
Si Si1 0.207095 0.293622 0.743827
Si Si2 0.676224 0.696130 0.491473
Si Si3 0.926393 0.714601 0.109426
Si Si4 0.479998 0.786112 0.796615
Si Si5 0.500000 0.500000 0.000000
Si Si6 0.382260 0.786711 0.348339
Si Si7 0.633771 0.795417 0.263176
Si Si8 0.932976 0.784695 0.572864
O O1 0.191118 0.500000 0.742551
O O2 0.147993 0.235716 0.822526
O O3 0.184480 0.224736 0.676450
O O4 0.289544 0.276743 0.738197
O O5 0.690438 0.500000 0.461336
O O6 0.750000 0.750000 0.500000
O O7 0.620109 0.702753 0.575831
O O8 0.638420 0.785457 0.441119
O O9 0.927180 0.500000 0.097043
O O10 0.992416 0.763722 0.138098
O O11 0.940281 0.841869 0.040979
O O12 0.546158 0.740218 0.720987
O O13 0.405315 0.719558 0.790382
O O14 0.476845 0.000000 0.798213
O O15 0.379669 0.000000 0.359778
O O16 0.575071 0.778217 0.346572
O O17 0.647956 0.000000 0.244946
O O18 0.000000 0.729791 0.500000
O O19 0.933784 0.000000 0.574351
#
# Coordination Sequence:
#
# PCOD9213318 Si02
#       8
#     8   8   8   8   2   8   8   8
#     4   9  19  36  56  81 113 152 187 229 289 343
#     4  11  22  33  46  67  96 136 178 230 289 343
#     4   9  20  40  63  91 127 157 186 234 279 329
#     4   8  17  36  56  80 111 146 181 224 285 328
#     4  12  22  36  68 106 120 148 198 222 272 350
#     4   9  17  33  54  70  97 136 184 233 283 337
#     4  11  21  32  55  84 109 145 190 246 290 336
#     4  10  22  38  50  67 103 147 194 237 292 355
#
# _framework density 21.433758999999998
#
# number of rings (size 3 to 8) (size 9 to 14) (size 15 to 20)
#    0.000    2.345    0.000    4.345    0.966    5.241 
#    6.207    0.000    0.000    0.828    0.000    0.000 
#    0.000    0.000    0.000    0.000    0.000    0.000 
#
# Total GULP energy -161449.847510 kJ/mol
# GULP energy per Si atom -5567.236121 kJ/mol
# Density = 2.138497 g / cm^3
# Si number density = 21.433759 Si / 1000 Ang^3
#
#
#
# Elastic Constant Matrix: (Units=GPa)
#
#
# Indices 1 2 3 4 5 6 
#
# 1 96.5091 -3.3976 2.9364 -0.0001 7.7046 -0.0001
# 2 -3.3976 54.3141 1.1256 -0.0003 -1.1048 -0.0007
# 3 2.9364 1.1256 43.7028 0.0000 -11.0961 0.0000
# 4 -0.0001 -0.0003 0.0000 8.9842 0.0000 -5.2489
# 5 7.7046 -1.1048 -11.0961 0.0000 16.9503 -0.0001
# 6 -0.0001 -0.0007 0.0000 -5.2489 -0.0001 8.1287
#
#
#
# Elastic Compliance Matrix: (Units=1/GPa)
#
#
# Indices 1 2 3 4 5 6 
#
# 1 0.010978 0.000604 -0.002411 0.000000 -0.006528 0.000000
# 2 0.000604 0.018471 -0.000336 0.000002 0.000709 0.000003
# 3 -0.002411 -0.000336 0.027975 0.000000 0.019387 0.000000
# 4 0.000000 0.000002 0.000000 0.178735 0.000000 0.115413
# 5 -0.006528 0.000709 0.019387 0.000000 0.074701 0.000001
# 6 0.000000 0.000003 0.000000 0.115413 0.000001 0.197545
#
#
# Mechanical properties :
#
#
# Convention : Reuss Voigt Hill
#
# Bulk Modulus (GPa) = 18.81938 21.76166 20.29052
# Shear Modulus (GPa) = 9.42682 19.73675 14.58178
#
# Velocity S-wave (km/s) = 2.09944 3.03780 2.61112
# Velocity P-wave (km/s) = 3.83095 4.74124 4.31019
#
# Compressibility (1/GPa) = 0.05313672
#
# Stress axis : x y z
#
# Youngs Moduli (GPa) = 91.09534 54.14010 35.74656
#
# Poissons Ratio (x) = -0.03269 0.08617
# Poissons Ratio (y) = -0.05501 0.01202
# Poissons Ratio (z) = 0.21960 0.01820
#
# Static dielectric constant tensor:
#      x y z
#    x 1.866640 0.000000 0.009690 
#    y 0.000000 1.621170 0.000000 
#    z 0.009690 0.000000 1.806530 
# 
# From -- ./inp_files/313840.got.cif
#   From: 2010.05.17/outbox.cif.g08.bks.cpg/sg12_157_cif.got.tgz:313840.got - 2010.06.03 13:09:07.
