data_PCOD9213945
_publ_section_title
;
Structure prediction by ZEFSAII (Michael W. Deem and Ramdas Pophale) SiO2 
 PCOD9213945
Probable space group: C 2/M
;
_chemical_formula_sum "Si O2"
_cell_formula_units_Z 36
_cell_length_a 4.907453
_cell_length_b 12.460782
_cell_length_c 26.374765
_cell_angle_alpha 90.000000
_cell_angle_beta 102.946811
_cell_angle_gamma 90.000000
_cell_volume 1571.834655
_symmetry_space_group_name_H-M "C 2/M"
_symmetry_group_IT_number 12
_symmetry_cell_setting 'monoclinic'
loop_
_space_group_symop_operation_xyz
x,y,z
-x,y,-z
-x,-y,-z
x,-y,z
1/2+x,1/2+y,z
1/2-x,1/2+y,-z
1/2-x,1/2-y,-z
1/2+x,1/2-y,z
loop_
_atom_site_type_symbol
_atom_site_label
_atom_site_fract_x
_atom_site_fract_y
_atom_site_fract_z
Si Si1 0.130173 0.679302 0.557644
Si Si2 0.639564 0.500000 0.706931
Si Si3 0.481394 0.678091 0.941127
Si Si4 0.615445 0.000000 0.869902
Si Si5 0.056760 0.500000 0.637903
Si Si6 0.233796 0.324724 0.206223
O O1 0.447309 0.714086 0.561076
O O2 0.093833 0.601520 0.603067
O O3 0.000000 0.634157 0.500000
O O4 0.305501 0.500000 0.689306
O O5 0.739467 0.394630 0.741330
O O6 0.769069 0.500000 0.656425
O O7 0.786294 0.715818 0.936529
O O8 0.332457 0.592815 0.900016
O O9 0.500000 0.637552 0.000000
O O10 0.403671 0.093848 0.838962
O O11 0.535197 0.278500 0.204275
#
# Coordination Sequence:
#
# PCOD9213945 Si02
#       6
#     8   4   8   4   4   8
#     4  10  22  39  60  89 124 160 196 238 291 349
#     4  11  26  40  62  90 116 154 202 245 304 354
#     4  10  22  39  60  90 126 160 196 242 295 351
#     4  11  23  40  65  92 117 158 205 245 294 356
#     4  12  23  40  64  92 118 156 201 246 292 352
#     4  11  25  44  63  86 120 156 197 251 303 356
#
# _framework density 22.903172000000001
#
# number of rings (size 3 to 8) (size 9 to 14) (size 15 to 20)
#    0.000    1.333    0.000    4.667    0.000   10.667 
#    0.000    7.778    0.000    0.000    0.000    0.000 
#    0.000    0.000    0.000    0.000    0.000    0.000 
#
# Total GULP energy -100282.865539 kJ/mol
# GULP energy per Si atom -5571.270308 kJ/mol
# Density = 2.285104 g / cm^3
# Si number density = 22.903172 Si / 1000 Ang^3
#
#
#
# Elastic Constant Matrix: (Units=GPa)
#
#
# Indices 1 2 3 4 5 6 
#
# 1 67.7694 -6.5776 5.3254 0.0000 -2.3554 0.0000
# 2 -6.5776 73.4276 36.2931 0.0000 0.6902 0.0000
# 3 5.3254 36.2931 74.4895 0.0000 10.3527 0.0000
# 4 0.0000 0.0000 0.0000 69.6680 0.0000 11.5027
# 5 -2.3554 0.6902 10.3527 0.0000 37.4045 0.0000
# 6 0.0000 0.0000 0.0000 11.5027 0.0000 60.9637
#
#
#
# Elastic Compliance Matrix: (Units=1/GPa)
#
#
# Indices 1 2 3 4 5 6 
#
# 1 0.015274 0.002641 -0.002606 0.000000 0.001634 0.000000
# 2 0.002641 0.018567 -0.009579 0.000000 0.002475 0.000000
# 3 -0.002606 -0.009579 0.019007 0.000000 -0.005248 0.000000
# 4 0.000000 0.000000 0.000000 0.014815 0.000000 -0.002795
# 5 0.001634 0.002475 -0.005248 0.000000 0.028245 0.000000
# 6 0.000000 0.000000 0.000000 -0.002795 0.000000 0.016931
#
#
# Mechanical properties :
#
#
# Convention : Reuss Voigt Hill
#
# Bulk Modulus (GPa) = 29.62064 31.75204 30.68634
# Shear Modulus (GPa) = 34.92115 45.65029 40.28572
#
# Velocity S-wave (km/s) = 3.90901 4.46935 4.19854
# Velocity P-wave (km/s) = 5.77364 6.36610 6.07709
#
# Compressibility (1/GPa) = 0.03376025
#
# Stress axis : x y z
#
# Youngs Moduli (GPa) = 65.47162 53.85979 52.61083
#
# Poissons Ratio (x) = -0.14223 0.13709
# Poissons Ratio (y) = -0.17290 0.50396
# Poissons Ratio (z) = 0.17060 0.51592
#
# Static dielectric constant tensor:
#      x y z
#    x 1.788680 0.000000 -0.027230 
#    y 0.000000 1.779910 0.000000 
#    z -0.027230 0.000000 1.867700 
# 
# From -- ./inp_files/354715.got.cif
#   From: 2010.05.17/outbox.cif.g08.bks.cpg/sg12_178_cif.got.tgz:354715.got - 2010.06.03 13:09:07.
