data_PCOD9213402
_publ_section_title
;
Structure prediction by ZEFSAII (Michael W. Deem and Ramdas Pophale) SiO2 
 PCOD9213402
Probable space group: C 2/M
;
_chemical_formula_sum "Si O2"
_cell_formula_units_Z 64
_cell_length_a 20.298139
_cell_length_b 14.417956
_cell_length_c 17.931534
_cell_angle_alpha 90.000000
_cell_angle_beta 139.962462
_cell_angle_gamma 90.000000
_cell_volume 3375.854550
_symmetry_space_group_name_H-M "C 2/M"
_symmetry_group_IT_number 12
_symmetry_cell_setting 'monoclinic'
loop_
_space_group_symop_operation_xyz
x,y,z
-x,y,-z
-x,-y,-z
x,-y,z
1/2+x,1/2+y,z
1/2-x,1/2+y,-z
1/2-x,1/2-y,-z
1/2+x,1/2-y,z
loop_
_atom_site_type_symbol
_atom_site_label
_atom_site_fract_x
_atom_site_fract_y
_atom_site_fract_z
Si Si1 0.090737 0.170038 0.530038
Si Si2 0.528488 0.111441 0.229936
Si Si3 0.090900 0.607298 0.018876
Si Si4 0.101835 0.889156 0.133768
Si Si5 0.458340 0.247461 0.285823
Si Si6 0.735098 0.747710 0.782533
Si Si7 0.421382 0.612717 0.710790
Si Si8 0.754533 0.894506 0.453107
O O1 0.164833 0.222071 0.651089
O O2 0.163234 0.107487 0.542042
O O3 0.000000 0.123802 0.500000
O O4 0.032185 0.236606 0.420976
O O5 0.482817 0.152286 0.265604
O O6 0.646676 0.145369 0.331814
O O7 0.527217 0.000000 0.224564
O O8 0.459784 0.144152 0.101229
O O9 0.122765 0.500000 0.036304
O O10 0.184399 0.667064 0.129311
O O11 0.000000 0.608645 0.000000
O O12 0.197864 0.836679 0.181176
O O13 0.086176 0.867872 0.207945
O O14 0.114588 0.000000 0.138572
O O15 0.000000 0.861940 0.000000
O O16 0.343162 0.246206 0.216182
O O17 0.489776 0.329971 0.255121
O O18 0.433484 0.500000 0.711378
O O19 0.315889 0.643528 0.577654
O O20 0.730260 0.000000 0.452770
#
# Coordination Sequence:
#
# PCOD9213402 Si02
#       8
#     8   8   8   8   8   8   8   8
#     4   9  20  36  53  86 119 148 187 237 287 350
#     4  10  22  38  57  85 117 151 195 241 288 343
#     4  10  22  39  59  87 118 149 191 240 290 351
#     4  10  23  41  60  85 114 152 202 249 287 340
#     4  10  23  38  59  86 120 154 192 242 297 342
#     4  11  23  38  61  86 117 158 197 231 297 354
#     4   9  20  38  60  87 116 150 196 244 292 348
#     4   9  18  33  57  85 112 149 191 235 293 346
#
# _framework density 18.958162000000002
#
# number of rings (size 3 to 8) (size 9 to 14) (size 15 to 20)
#    0.000    2.250    0.000    1.125    7.000    4.250 
#    0.000    2.500    0.000    2.250    0.000    0.000 
#    0.000    0.000    0.000    0.000    0.000    0.000 
#
# Total GULP energy -178453.683645 kJ/mol
# GULP energy per Si atom -5576.677614 kJ/mol
# Density = 1.891501 g / cm^3
# Si number density = 18.958162 Si / 1000 Ang^3
#
#
#
# Elastic Constant Matrix: (Units=GPa)
#
#
# Indices 1 2 3 4 5 6 
#
# 1 97.5121 23.5307 58.3140 0.0000 7.5793 0.0000
# 2 23.5307 47.0464 35.6618 0.0000 4.7313 0.0000
# 3 58.3140 35.6618 91.7835 0.0000 5.7070 0.0000
# 4 0.0000 0.0000 0.0000 10.0886 0.0000 -15.4211
# 5 7.5793 4.7313 5.7070 0.0000 31.2348 0.0000
# 6 0.0000 0.0000 0.0000 -15.4211 0.0000 31.9405
#
#
#
# Elastic Compliance Matrix: (Units=1/GPa)
#
#
# Indices 1 2 3 4 5 6 
#
# 1 0.016681 -0.000279 -0.010359 0.000000 -0.002113 0.000000
# 2 -0.000279 0.030321 -0.011453 0.000000 -0.002433 0.000000
# 3 -0.010359 -0.011453 0.021911 0.000000 0.000245 0.000000
# 4 0.000000 0.000000 0.000000 0.378335 0.000000 0.182663
# 5 -0.002113 -0.002433 0.000245 0.000000 0.032852 0.000000
# 6 0.000000 0.000000 0.000000 0.182663 0.000000 0.119499
#
#
# Mechanical properties :
#
#
# Convention : Reuss Voigt Hill
#
# Bulk Modulus (GPa) = 40.43142 52.37276 46.40209
# Shear Modulus (GPa) = 7.66843 22.57514 15.12179
#
# Velocity S-wave (km/s) = 2.01338 3.45452 2.82732
# Velocity P-wave (km/s) = 5.17474 6.60281 5.93190
#
# Compressibility (1/GPa) = 0.02473324
#
# Stress axis : x y z
#
# Youngs Moduli (GPa) = 59.94739 32.98053 45.63904
#
# Poissons Ratio (x) = 0.00920 0.47276
# Poissons Ratio (y) = 0.01672 0.52268
# Poissons Ratio (z) = 0.62097 0.37771
#
# Static dielectric constant tensor:
#      x y z
#    x 1.651190 0.000000 -0.008920 
#    y 0.000000 1.686080 0.000000 
#    z -0.008920 0.000000 1.662070 
# 
# From -- ./inp_files/278214.got.cif
#   From: 2010.05.17/outbox.cif.g08.bks.cpg/sg12_140_cif.got.tgz:278214.got - 2010.06.03 13:09:07.
