data_PCOD9213484
_publ_section_title
;
Structure prediction by ZEFSAII (Michael W. Deem and Ramdas Pophale) SiO2 
 PCOD9213484
Probable space group: C 2/M
;
_chemical_formula_sum "Si O2"
_cell_formula_units_Z 48
_cell_length_a 23.883351
_cell_length_b 12.026436
_cell_length_c 20.384114
_cell_angle_alpha 90.000000
_cell_angle_beta 158.006264
_cell_angle_gamma 90.000000
_cell_volume 2192.713679
_symmetry_space_group_name_H-M "C 2/M"
_symmetry_group_IT_number 12
_symmetry_cell_setting 'monoclinic'
loop_
_space_group_symop_operation_xyz
x,y,z
-x,y,-z
-x,-y,-z
x,-y,z
1/2+x,1/2+y,z
1/2-x,1/2+y,-z
1/2-x,1/2-y,-z
1/2+x,1/2-y,z
loop_
_atom_site_type_symbol
_atom_site_label
_atom_site_fract_x
_atom_site_fract_y
_atom_site_fract_z
Si Si1 0.094614 0.000000 0.504059
Si Si2 0.068009 0.291611 0.003013
Si Si3 0.042214 0.756389 0.400762
Si Si4 0.678212 0.305145 0.358077
Si Si5 0.091376 0.881243 0.859138
Si Si6 0.737761 0.500000 0.799173
Si Si7 0.303864 0.870844 0.214527
O O1 0.203684 0.000000 0.684647
O O2 0.112635 0.120578 0.489684
O O3 0.923152 0.000000 0.342369
O O4 0.932024 0.267959 0.806354
O O5 0.166591 0.391525 0.081829
O O6 0.183118 0.187300 0.130904
O O7 0.000000 0.316577 0.000000
O O8 0.935218 0.784038 0.222149
O O9 0.949007 0.705869 0.359814
O O10 0.175246 0.671871 0.526205
O O11 0.750000 0.250000 0.500000
O O12 0.559869 0.387640 0.261897
O O13 0.114531 0.000000 0.849636
O O14 0.220403 0.868492 0.052920
O O15 0.334842 0.000000 0.264243
#
# Coordination Sequence:
#
# PCOD9213484 Si02
#       7
#     4   8   8   8   8   4   8
#     4  11  22  36  64  94 126 160 202 257 326 371
#     4  11  22  41  64  91 124 163 210 256 318 379
#     4  11  19  37  59  88 121 161 203 254 316 369
#     4   9  21  37  58  88 127 164 203 252 304 376
#     4   9  18  35  58  84 121 159 206 253 312 372
#     4  11  23  40  62  96 126 160 200 259 319 386
#     4  10  22  38  59  86 119 163 212 259 303 370
#
# _framework density 21.890682000000002
#
# number of rings (size 3 to 8) (size 9 to 14) (size 15 to 20)
#    0.000    1.833    2.500    1.750    0.000    1.667 
#    1.500    0.000    0.000    7.000    0.000    0.000 
#    0.000    0.000    0.000    0.000    0.000    0.000 
#
# Total GULP energy -133792.210752 kJ/mol
# GULP energy per Si atom -5574.675448 kJ/mol
# Density = 2.184086 g / cm^3
# Si number density = 21.890682 Si / 1000 Ang^3
#
#
#
# Elastic Constant Matrix: (Units=GPa)
#
#
# Indices 1 2 3 4 5 6 
#
# 1 37.9755 0.3884 9.7423 0.0001 13.1872 0.0001
# 2 0.3884 75.4251 5.0366 0.0003 15.5177 0.0002
# 3 9.7423 5.0366 59.9208 0.0002 8.2387 0.0002
# 4 0.0001 0.0003 0.0002 -7.1382 0.0001 6.6492
# 5 13.1872 15.5177 8.2387 0.0001 40.0981 0.0001
# 6 0.0001 0.0002 0.0002 6.6492 0.0001 19.5285
#
#
#
# Elastic Compliance Matrix: (Units=1/GPa)
#
#
# Indices 1 2 3 4 5 6 
#
# 1 0.030828 0.002195 -0.003793 0.000000 -0.010209 0.000000
# 2 0.002195 0.014574 -0.000728 0.000000 -0.006212 0.000000
# 3 -0.003793 -0.000728 0.017655 0.000000 -0.002098 0.000000
# 4 0.000000 0.000000 0.000000 -0.106358 0.000000 0.036213
# 5 -0.010209 -0.006212 -0.002098 0.000000 0.031131 0.000000
# 6 0.000000 0.000000 0.000000 0.036213 0.000000 0.038877
#
#
# Mechanical properties :
#
#
# Convention : Reuss Voigt Hill
#
# Bulk Modulus (GPa) = 17.12180 22.62846 19.87513
# Shear Modulus (GPa) = 98.37175 21.04128 59.70651
#
# Velocity S-wave (km/s) = 6.71083 3.10368 5.22820
# Velocity P-wave (km/s) = 8.23927 4.81698 6.74866
#
# Compressibility (1/GPa) = 0.05840508
#
# Stress axis : x y z
#
# Youngs Moduli (GPa) = 32.43760 68.61751 56.64092
#
# Poissons Ratio (x) = -0.15060 0.21485
# Poissons Ratio (y) = -0.07120 0.04122
# Poissons Ratio (z) = 0.12304 0.04993
#
# Static dielectric constant tensor:
#      x y z
#    x 1.855420 0.000000 0.043490 
#    y 0.000000 1.789810 0.000000 
#    z 0.043490 0.000000 1.848350 
# 
# From -- ./inp_files/351950.got.cif
#   From: 2010.05.17/outbox.cif.g08.bks.cpg/sg12_176_cif.got.tgz:351950.got - 2010.06.03 13:09:07.
