data_PCOD9213668
_publ_section_title
;
Structure prediction by ZEFSAII (Michael W. Deem and Ramdas Pophale) SiO2 
 PCOD9213668
Probable space group: C 2/M
;
_chemical_formula_sum "Si O2"
_cell_formula_units_Z 64
_cell_length_a 9.499109
_cell_length_b 27.582428
_cell_length_c 17.100040
_cell_angle_alpha 90.000000
_cell_angle_beta 136.476771
_cell_angle_gamma 90.000000
_cell_volume 3085.390663
_symmetry_space_group_name_H-M "C 2/M"
_symmetry_group_IT_number 12
_symmetry_cell_setting 'monoclinic'
loop_
_space_group_symop_operation_xyz
x,y,z
-x,y,-z
-x,-y,-z
x,-y,z
1/2+x,1/2+y,z
1/2-x,1/2+y,-z
1/2-x,1/2-y,-z
1/2+x,1/2-y,z
loop_
_atom_site_type_symbol
_atom_site_label
_atom_site_fract_x
_atom_site_fract_y
_atom_site_fract_z
Si Si1 0.788571 0.557092 0.869028
Si Si2 0.926159 0.555629 0.744676
Si Si3 0.624853 0.270349 0.743311
Si Si4 0.067750 0.125882 0.314542
Si Si5 0.266696 0.632688 0.885724
Si Si6 0.607404 0.825562 0.664693
Si Si7 0.688711 0.379826 0.528721
Si Si8 0.075104 0.279295 0.886617
O O1 0.741868 0.500000 0.868906
O O2 0.842065 0.560230 0.798694
O O3 0.593503 0.593299 0.800018
O O4 0.000000 0.569743 0.000000
O O5 0.955455 0.500000 0.737933
O O6 0.773533 0.579881 0.621812
O O7 0.138913 0.584092 0.825635
O O8 0.535488 0.323707 0.699819
O O9 0.591863 0.232746 0.658675
O O10 0.539159 0.245637 0.787520
O O11 0.866977 0.276962 0.849899
O O12 0.272573 0.144704 0.353384
O O13 0.122219 0.099729 0.417782
O O14 0.244628 0.662329 0.796283
O O15 0.152804 0.666472 0.902951
O O16 0.500000 0.625238 0.000000
O O17 0.380408 0.845048 0.588758
O O18 0.500000 0.356425 0.500000
O O19 0.250000 0.250000 0.000000
#
# Coordination Sequence:
#
# PCOD9213668 Si02
#       8
#     8   8   8   8   8   8   8   8
#     4  10  23  42  68 103 137 172 220 274 334 406
#     4  10  22  43  68  99 132 170 224 281 335 402
#     4  11  23  38  60  92 133 175 228 266 333 400
#     4  12  24  42  70  96 134 183 222 279 340 393
#     4  10  22  38  63  94 136 176 219 273 329 402
#     4  10  24  44  60  96 139 172 224 277 333 401
#     4  11  24  43  70  97 123 174 227 281 334 398
#     4  11  21  37  58  92 132 181 223 273 317 394
#
# _framework density 20.742916000000001
#
# number of rings (size 3 to 8) (size 9 to 14) (size 15 to 20)
#    0.000    1.375    2.500    3.000    5.250    2.500 
#    0.000    2.500    0.000    3.750    0.000    0.000 
#    0.000    0.000    0.000    0.000    0.000    0.000 
#
# Total GULP energy -178712.021105 kJ/mol
# GULP energy per Si atom -5584.750660 kJ/mol
# Density = 2.069570 g / cm^3
# Si number density = 20.742916 Si / 1000 Ang^3
#
#
#
# Elastic Constant Matrix: (Units=GPa)
#
#
# Indices 1 2 3 4 5 6 
#
# 1 83.6507 36.1325 31.9730 0.0000 17.7715 0.0000
# 2 36.1325 113.6727 46.0325 0.0000 14.6175 0.0000
# 3 31.9730 46.0325 110.2319 0.0000 9.7738 0.0000
# 4 0.0000 0.0000 0.0000 -13.6802 0.0000 -9.1388
# 5 17.7715 14.6175 9.7738 0.0000 31.6253 0.0000
# 6 0.0000 0.0000 0.0000 -9.1388 0.0000 18.5329
#
#
#
# Elastic Compliance Matrix: (Units=1/GPa)
#
#
# Indices 1 2 3 4 5 6 
#
# 1 0.015701 -0.003053 -0.002696 0.000000 -0.006579 0.000000
# 2 -0.003053 0.011602 -0.003738 0.000000 -0.002491 0.000000
# 3 -0.002696 -0.003738 0.011441 0.000000 -0.000293 0.000000
# 4 0.000000 0.000000 0.000000 -0.054985 0.000000 -0.027114
# 5 -0.006579 -0.002491 -0.000293 0.000000 0.036559 0.000000
# 6 0.000000 0.000000 0.000000 -0.027114 0.000000 0.040588
#
#
# Mechanical properties :
#
#
# Convention : Reuss Voigt Hill
#
# Bulk Modulus (GPa) = 50.58387 59.53682 55.06035
# Shear Modulus (GPa) = 57.82282 20.19006 39.00644
#
# Velocity S-wave (km/s) = 5.28549 3.12324 4.34114
# Velocity P-wave (km/s) = 7.85415 6.46303 7.19230
#
# Compressibility (1/GPa) = 0.01976915
#
# Stress axis : x y z
#
# Youngs Moduli (GPa) = 63.68862 86.19203 87.40583
#
# Poissons Ratio (x) = 0.26316 0.23564
# Poissons Ratio (y) = 0.19445 0.32676
# Poissons Ratio (z) = 0.17170 0.32223
#
# Static dielectric constant tensor:
#      x y z
#    x 1.756910 0.000000 -0.022120 
#    y 0.000000 1.797910 0.000000 
#    z -0.022120 0.000000 1.757810 
# 
# From -- ./inp_files/260391.got.cif
#   From: 2010.05.17/outbox.cif.g08.bks.cpg/sg12_131_cif.got.tgz:260391.got - 2010.06.03 13:09:07.
