data_PCOD9213692
_publ_section_title
;
Structure prediction by ZEFSAII (Michael W. Deem and Ramdas Pophale) SiO2 
 PCOD9213692
Probable space group: C 2/M
;
_chemical_formula_sum "Si O2"
_cell_formula_units_Z 64
_cell_length_a 15.038644
_cell_length_b 18.210920
_cell_length_c 15.970388
_cell_angle_alpha 90.000000
_cell_angle_beta 44.591562
_cell_angle_gamma 90.000000
_cell_volume 3070.597934
_symmetry_space_group_name_H-M "C 2/M"
_symmetry_group_IT_number 12
_symmetry_cell_setting 'monoclinic'
loop_
_space_group_symop_operation_xyz
x,y,z
-x,y,-z
-x,-y,-z
x,-y,z
1/2+x,1/2+y,z
1/2-x,1/2+y,-z
1/2-x,1/2-y,-z
1/2+x,1/2-y,z
loop_
_atom_site_type_symbol
_atom_site_label
_atom_site_fract_x
_atom_site_fract_y
_atom_site_fract_z
Si Si1 0.974147 0.306286 0.780416
Si Si2 0.994860 0.916717 0.124049
Si Si3 0.407239 0.197413 0.485347
Si Si4 0.812749 0.186289 0.813065
Si Si5 0.403778 0.259704 0.137790
Si Si6 0.304144 0.580085 0.397958
Si Si7 0.945743 0.865527 0.451742
Si Si8 0.218411 0.413908 0.015370
O O1 0.869640 0.242254 0.842524
O O2 0.036172 0.312389 0.646711
O O3 0.063534 0.278539 0.795693
O O4 0.897516 0.378581 0.856905
O O5 0.924834 0.847670 0.129207
O O6 0.932655 0.917291 0.257917
O O7 0.145215 0.903428 0.029879
O O8 0.971797 0.000000 0.107193
O O9 0.500000 0.176751 0.500000
O O10 0.283964 0.146847 0.570845
O O11 0.386421 0.284778 0.508737
O O12 0.732849 0.234453 0.801619
O O13 0.731400 0.127348 0.918011
O O14 0.930586 0.150015 0.687295
O O15 0.500000 0.234465 0.000000
O O16 0.244366 0.500000 0.423829
O O17 0.344882 0.589716 0.466445
O O18 0.000000 0.898917 0.500000
O O19 0.201974 0.500000 0.014833
#
# Coordination Sequence:
#
# PCOD9213692 Si02
#       8
#     8   8   8   8   8   8   8   8
#     4  11  23  43  64  96 130 167 220 270 310 384
#     4  10  22  39  62  94 127 167 209 261 321 380
#     4  10  24  43  68  95 123 169 217 266 319 375
#     4  11  22  40  64  95 130 170 213 264 326 373
#     4  12  23  37  68  96 129 169 211 260 325 382
#     4  11  23  41  64  90 131 170 208 265 326 379
#     4  10  22  38  64  95 124 165 221 271 314 376
#     4  11  21  41  67  92 129 171 211 262 324 381
#
# _framework density 20.842846000000002
#
# number of rings (size 3 to 8) (size 9 to 14) (size 15 to 20)
#    0.000    1.250    3.750    2.250    7.000    1.250 
#    0.000    1.875    0.000    0.000    0.000    0.000 
#    0.000    0.000    0.000    0.000    0.000    0.000 
#
# Total GULP energy -178795.208038 kJ/mol
# GULP energy per Si atom -5587.350251 kJ/mol
# Density = 2.079541 g / cm^3
# Si number density = 20.842846 Si / 1000 Ang^3
#
#
#
# Elastic Constant Matrix: (Units=GPa)
#
#
# Indices 1 2 3 4 5 6 
#
# 1 77.2448 14.1841 13.9522 0.0000 18.1037 0.0000
# 2 14.1841 65.1988 7.4536 0.0001 -0.5049 -0.0001
# 3 13.9522 7.4536 42.4156 0.0000 10.2129 -0.0001
# 4 0.0000 0.0001 0.0000 18.9162 0.0000 -3.6373
# 5 18.1037 -0.5049 10.2129 0.0000 29.6633 0.0000
# 6 0.0000 -0.0001 -0.0001 -3.6373 0.0000 -5.3699
#
#
#
# Elastic Compliance Matrix: (Units=1/GPa)
#
#
# Indices 1 2 3 4 5 6 
#
# 1 0.016124 -0.003285 -0.002555 0.000000 -0.009017 0.000000
# 2 -0.003285 0.016369 -0.002558 0.000000 0.003164 0.000000
# 3 -0.002555 -0.002558 0.026716 0.000000 -0.007682 0.000000
# 4 0.000000 0.000000 0.000000 0.046773 0.000000 -0.031681
# 5 -0.009017 0.003164 -0.007682 0.000000 0.041913 0.000000
# 6 0.000000 0.000000 0.000000 -0.031681 0.000000 -0.164763
#
#
# Mechanical properties :
#
#
# Convention : Reuss Voigt Hill
#
# Bulk Modulus (GPa) = 23.57822 28.44876 26.01349
# Shear Modulus (GPa) = 355.43008 18.59321 187.01164
#
# Velocity S-wave (km/s) = 13.07283 2.98999 9.48258
# Velocity P-wave (km/s) = 15.46616 5.05953 11.50654
#
# Compressibility (1/GPa) = 0.04241203
#
# Stress axis : x y z
#
# Youngs Moduli (GPa) = 62.01967 61.08970 37.43073
#
# Poissons Ratio (x) = 0.20071 0.09565
# Poissons Ratio (y) = 0.20376 0.09574
# Poissons Ratio (z) = 0.15849 0.15625
#
# Static dielectric constant tensor:
#      x y z
#    x 1.746980 0.000000 0.022920 
#    y 0.000000 1.734910 0.000000 
#    z 0.022920 0.000000 1.790000 
# 
# From -- ./inp_files/216776.got.cif
#   From: 2010.05.17/outbox.cif.g08.bks.cpg/sg12_109_cif.got.tgz:216776.got - 2010.06.03 13:09:07.
