data_PCOD9213488
_publ_section_title
;
Structure prediction by ZEFSAII (Michael W. Deem and Ramdas Pophale) SiO2 
 PCOD9213488
Probable space group: C 2/M
;
_chemical_formula_sum "Si O2"
_cell_formula_units_Z 48
_cell_length_a 20.806368
_cell_length_b 13.855143
_cell_length_c 12.433160
_cell_angle_alpha 90.000000
_cell_angle_beta 45.358593
_cell_angle_gamma 90.000000
_cell_volume 2550.204218
_symmetry_space_group_name_H-M "C 2/M"
_symmetry_group_IT_number 12
_symmetry_cell_setting 'monoclinic'
loop_
_space_group_symop_operation_xyz
x,y,z
-x,y,-z
-x,-y,-z
x,-y,z
1/2+x,1/2+y,z
1/2-x,1/2+y,-z
1/2-x,1/2-y,-z
1/2+x,1/2-y,z
loop_
_atom_site_type_symbol
_atom_site_label
_atom_site_fract_x
_atom_site_fract_y
_atom_site_fract_z
Si Si1 0.923731 0.885285 0.950447
Si Si2 0.689384 0.386269 0.349553
Si Si3 0.771483 0.194575 0.287855
Si Si4 0.105147 0.610202 0.345522
Si Si5 0.156300 0.788611 0.160404
Si Si6 0.119054 0.114981 0.660570
O O1 0.888823 0.855494 0.874547
O O2 0.027528 0.851043 0.826609
O O3 0.924102 0.000000 0.965596
O O4 0.852469 0.841850 0.117009
O O5 0.710573 0.500000 0.323820
O O6 0.767639 0.310184 0.285723
O O7 0.660512 0.350286 0.265576
O O8 0.620147 0.368584 0.530615
O O9 0.677709 0.150747 0.348845
O O10 0.795682 0.159577 0.378400
O O11 0.133216 0.500000 0.285979
O O12 0.108748 0.688062 0.246083
O O13 0.000000 0.607417 0.500000
O O14 0.250000 0.750000 0.000000
O O15 0.123889 0.000000 0.669354
#
# Coordination Sequence:
#
# PCOD9213488 Si02
#       6
#     8   8   8   8   8   8
#     4  11  22  37  61  91 118 151 198 247 295 345
#     4  10  22  39  58  87 119 155 196 238 298 351
#     4  11  21  39  62  88 117 158 196 242 289 350
#     4  10  22  38  59  87 117 151 196 242 289 350
#     4  11  22  38  59  85 116 160 192 241 296 345
#     4  10  22  38  62  90 118 152 193 246 297 347
#
# _framework density 18.822022
#
# number of rings (size 3 to 8) (size 9 to 14) (size 15 to 20)
#    0.000    1.500    3.333    3.000    4.667    2.000 
#    0.000    2.500    0.000    2.000    0.000    0.000 
#    0.000    0.000    0.000    0.000    0.000    0.000 
#
# Total GULP energy -133713.411127 kJ/mol
# GULP energy per Si atom -5571.392130 kJ/mol
# Density = 1.877918 g / cm^3
# Si number density = 18.822022 Si / 1000 Ang^3
#
#
#
# Elastic Constant Matrix: (Units=GPa)
#
#
# Indices 1 2 3 4 5 6 
#
# 1 75.3616 1.7107 41.7768 0.0000 3.4472 0.0000
# 2 1.7107 106.7354 49.8674 0.0000 -1.6256 0.0000
# 3 41.7768 49.8674 94.0374 0.0000 2.6487 0.0000
# 4 0.0000 0.0000 0.0000 33.2494 0.0000 -0.5064
# 5 3.4472 -1.6256 2.6487 0.0000 27.1302 0.0000
# 6 0.0000 0.0000 0.0000 -0.5064 0.0000 -1.7369
#
#
#
# Elastic Compliance Matrix: (Units=1/GPa)
#
#
# Indices 1 2 3 4 5 6 
#
# 1 0.019412 0.004902 -0.011193 0.000000 -0.001080 0.000000
# 2 0.004902 0.013745 -0.009499 0.000000 0.001128 0.000000
# 3 -0.011193 -0.009499 0.020677 0.000000 -0.001166 0.000000
# 4 0.000000 0.000000 0.000000 0.029943 0.000000 -0.008730
# 5 -0.001080 0.001128 -0.001166 0.000000 0.037178 0.000000
# 6 0.000000 0.000000 0.000000 -0.008730 0.000000 -0.573210
#
#
# Mechanical properties :
#
#
# Convention : Reuss Voigt Hill
#
# Bulk Modulus (GPa) = 44.93417 51.42714 48.18065
# Shear Modulus (GPa) = -12.09902 23.91384 5.90741
#
# Velocity S-wave (km/s) = -2.53812 3.56831 1.77352
# Velocity P-wave (km/s) = 3.91607 6.66028 5.46328
#
# Compressibility (1/GPa) = 0.02225478
#
# Stress axis : x y z
#
# Youngs Moduli (GPa) = 51.51328 72.75174 48.36383
#
# Poissons Ratio (x) = -0.35663 0.54135
# Poissons Ratio (y) = -0.25252 0.45939
# Poissons Ratio (z) = 0.57660 0.69104
#
# Static dielectric constant tensor:
#      x y z
#    x 1.698860 0.000000 -0.014680 
#    y 0.000000 1.646740 0.000000 
#    z -0.014680 0.000000 1.742090 
# 
# From -- ./inp_files/167560.got.cif
#   From: 2010.05.17/outbox.cif.g08.bks.cpg/sg12_84_cif.got.tgz:167560.got - 2010.06.03 13:09:07.
