data_PCOD9213115
_publ_section_title
;
Structure prediction by ZEFSAII (Michael W. Deem and Ramdas Pophale) SiO2 
 PCOD9213115
Probable space group: C 2/M
;
_chemical_formula_sum "Si O2"
_cell_formula_units_Z 36
_cell_length_a 9.793157
_cell_length_b 25.779765
_cell_length_c 7.325974
_cell_angle_alpha 90.000000
_cell_angle_beta 126.933558
_cell_angle_gamma 90.000000
_cell_volume 1478.409380
_symmetry_space_group_name_H-M "C 2/M"
_symmetry_group_IT_number 12
_symmetry_cell_setting 'monoclinic'
loop_
_space_group_symop_operation_xyz
x,y,z
-x,y,-z
-x,-y,-z
x,-y,z
1/2+x,1/2+y,z
1/2-x,1/2+y,-z
1/2-x,1/2-y,-z
1/2+x,1/2-y,z
loop_
_atom_site_type_symbol
_atom_site_label
_atom_site_fract_x
_atom_site_fract_y
_atom_site_fract_z
Si Si1 0.296011 0.556834 0.288293
Si Si2 0.434947 0.299957 0.143676
Si Si3 0.716289 0.140820 0.488883
Si Si4 0.000000 0.273740 0.500000
Si Si5 0.306157 0.403667 0.911635
O O1 0.500000 0.562162 0.500000
O O2 0.243253 0.500000 0.314005
O O3 0.201567 0.605787 0.300459
O O4 0.269343 0.560114 0.050454
O O5 0.594840 0.333791 0.348814
O O6 0.389766 0.261856 0.272451
O O7 0.300676 0.344317 0.983304
O O8 0.500000 0.277564 0.000000
O O9 0.600143 0.189590 0.441056
O O10 0.699892 0.099931 0.642579
O O11 0.500000 0.414001 0.000000
#
# Coordination Sequence:
#
# PCOD9213115 Si02
#       5
#     8   8   8   4   8
#     4  11  20  34  61  85 104 134 177 229 280 319
#     4   9  19  34  53  81 109 141 180 224 260 311
#     4  10  22  37  52  82 115 140 180 224 262 318
#     4  12  22  34  57  76 109 160 182 206 262 320
#     4   9  18  35  55  81 117 134 169 232 273 310
#
# _framework density 24.350496
#
# number of rings (size 3 to 8) (size 9 to 14) (size 15 to 20)
#    0.000    2.444    4.444    2.000    0.000    6.667 
#    0.000    0.556    0.000    1.333    0.000    0.000 
#    0.000    0.000    0.000    0.000    0.000    0.000 
#
# Total GULP energy -100510.007017 kJ/mol
# GULP energy per Si atom -5583.889279 kJ/mol
# Density = 2.429507 g / cm^3
# Si number density = 24.350496 Si / 1000 Ang^3
#
#
#
# Elastic Constant Matrix: (Units=GPa)
#
#
# Indices 1 2 3 4 5 6 
#
# 1 48.9177 46.5229 27.0020 0.0000 -21.7557 0.0000
# 2 46.5229 91.1488 11.4635 0.0000 -32.3824 0.0000
# 3 27.0020 11.4635 54.5281 0.0000 -37.9384 0.0000
# 4 0.0000 0.0000 0.0000 3.6728 0.0000 -26.6467
# 5 -21.7557 -32.3824 -37.9384 0.0000 40.6993 0.0000
# 6 0.0000 0.0000 0.0000 -26.6467 0.0000 20.7227
#
#
#
# Elastic Compliance Matrix: (Units=1/GPa)
#
#
# Indices 1 2 3 4 5 6 
#
# 1 0.129119 -0.098103 -0.141137 0.000000 -0.140599 0.000000
# 2 -0.098103 0.095772 0.127981 0.000000 0.143059 0.000000
# 3 -0.141137 0.127981 0.226726 0.000000 0.237729 0.000000
# 4 0.000000 0.000000 0.000000 -0.032689 0.000000 -0.042034
# 5 -0.140599 0.143059 0.237729 0.000000 0.284841 0.000000
# 6 0.000000 0.000000 0.000000 -0.042034 0.000000 -0.005794
#
#
# Mechanical properties :
#
#
# Convention : Reuss Voigt Hill
#
# Bulk Modulus (GPa) = 4.36495 40.50792 22.43643
# Shear Modulus (GPa) = 5.01574 20.32605 12.67089
#
# Velocity S-wave (km/s) = 1.43676 2.89230 2.28360
# Velocity P-wave (km/s) = 2.13280 5.27497 4.02332
#
# Compressibility (1/GPa) = 0.22909778
#
# Stress axis : x y z
#
# Youngs Moduli (GPa) = 7.74480 10.44143 4.41061
#
# Poissons Ratio (x) = 1.02434 0.62250
# Poissons Ratio (y) = 0.75979 -0.56447
# Poissons Ratio (z) = 1.09308 -1.33630
#
# Static dielectric constant tensor:
#      x y z
#    x 2.027510 0.000000 0.024860 
#    y 0.000000 1.934790 0.000000 
#    z 0.024860 0.000000 1.997160 
# 
# From -- ./inp_files/49000.got.cif
#   From: 2010.05.17/outbox.cif.g08.bks.cpg/sg12_25_cif.got.tgz:49000.got - 2010.06.03 13:09:07.
