data_PCOD9213735
_publ_section_title
;
Structure prediction by ZEFSAII (Michael W. Deem and Ramdas Pophale) SiO2 
 PCOD9213735
Probable space group: C 2/M
;
_chemical_formula_sum "Si O2"
_cell_formula_units_Z 48
_cell_length_a 9.271292
_cell_length_b 19.360271
_cell_length_c 15.123311
_cell_angle_alpha 90.000000
_cell_angle_beta 111.862078
_cell_angle_gamma 90.000000
_cell_volume 2519.331715
_symmetry_space_group_name_H-M "C 2/M"
_symmetry_group_IT_number 12
_symmetry_cell_setting 'monoclinic'
loop_
_space_group_symop_operation_xyz
x,y,z
-x,y,-z
-x,-y,-z
x,-y,z
1/2+x,1/2+y,z
1/2-x,1/2+y,-z
1/2-x,1/2-y,-z
1/2+x,1/2-y,z
loop_
_atom_site_type_symbol
_atom_site_label
_atom_site_fract_x
_atom_site_fract_y
_atom_site_fract_z
Si Si1 0.322823 0.712971 0.604293
Si Si2 0.669320 0.271212 0.738761
Si Si3 0.601483 0.118919 0.783247
Si Si4 0.807554 0.000000 0.068122
Si Si5 0.128009 0.577134 0.603802
Si Si6 0.117322 0.628053 0.101903
Si Si7 0.157077 0.000000 0.135226
O O1 0.250000 0.750000 0.500000
O O2 0.508414 0.706622 0.654854
O O3 0.280344 0.757751 0.680889
O O4 0.245569 0.638240 0.604746
O O5 0.642402 0.199311 0.784592
O O6 0.754025 0.321989 0.826029
O O7 0.537272 0.097838 0.672753
O O8 0.491034 0.104639 0.840689
O O9 0.752843 0.070283 0.820767
O O10 0.709778 0.934445 0.077859
O O11 0.986943 0.000000 0.139503
O O12 0.832059 0.000000 0.968686
O O13 0.197270 0.500000 0.628675
O O14 0.000000 0.574837 0.500000
O O15 0.000000 0.657792 0.000000
#
# Coordination Sequence:
#
# PCOD9213735 Si02
#       7
#     8   8   8   4   8   8   4
#     4  11  22  44  68  94 132 172 218 277 330 403
#     4  11  25  41  66  99 129 174 226 266 341 391
#     4  11  22  43  66  91 134 172 219 275 325 402
#     4  11  26  41  68  94 126 179 225 276 330 396
#     4  10  22  38  66  99 129 169 219 269 336 398
#     4  12  25  44  64  96 137 178 224 274 332 392
#     4  11  23  44  68  95 122 173 230 270 331 392
#
# _framework density 19.052672000000001
#
# number of rings (size 3 to 8) (size 9 to 14) (size 15 to 20)
#    0.000    1.000    4.167    3.250    4.667    0.667 
#    3.000    0.000    0.000    1.000    0.000    0.000 
#    0.000    0.000    0.000    0.000    0.000    0.000 
#
# Total GULP energy -133846.104556 kJ/mol
# GULP energy per Si atom -5576.921023 kJ/mol
# Density = 1.900931 g / cm^3
# Si number density = 19.052672 Si / 1000 Ang^3
#
#
#
# Elastic Constant Matrix: (Units=GPa)
#
#
# Indices 1 2 3 4 5 6 
#
# 1 76.2719 12.7427 38.9991 0.0000 4.1617 0.0000
# 2 12.7427 104.6508 48.1982 0.0000 11.6583 0.0000
# 3 38.9991 48.1982 122.5378 0.0000 3.2244 0.0000
# 4 0.0000 0.0000 0.0000 22.3628 0.0000 17.7709
# 5 4.1617 11.6583 3.2244 0.0000 39.8058 0.0000
# 6 0.0000 0.0000 0.0000 17.7709 0.0000 0.6813
#
#
#
# Elastic Compliance Matrix: (Units=1/GPa)
#
#
# Indices 1 2 3 4 5 6 
#
# 1 0.015755 0.000649 -0.005232 0.000000 -0.001413 0.000000
# 2 0.000649 0.012079 -0.004873 0.000000 -0.003211 0.000000
# 3 -0.005232 -0.004873 0.011716 0.000000 0.001025 0.000000
# 4 0.000000 0.000000 0.000000 -0.002267 0.000000 0.059124
# 5 -0.001413 -0.003211 0.001025 0.000000 0.026127 0.000000
# 6 0.000000 0.000000 0.000000 0.059124 0.000000 -0.074402
#
#
# Mechanical properties :
#
#
# Convention : Reuss Voigt Hill
#
# Bulk Modulus (GPa) = 48.45757 55.92674 52.19216
# Shear Modulus (GPa) = 337.84926 26.13801 181.99363
#
# Velocity S-wave (km/s) = 13.33075 3.70791 9.78410
# Velocity P-wave (km/s) = 16.19981 6.91006 12.45357
#
# Compressibility (1/GPa) = 0.02063661
#
# Stress axis : x y z
#
# Youngs Moduli (GPa) = 63.47171 82.79153 85.35579
#
# Poissons Ratio (x) = -0.05372 0.44660
# Poissons Ratio (y) = -0.04118 0.41593
# Poissons Ratio (z) = 0.33210 0.40344
#
# Static dielectric constant tensor:
#      x y z
#    x 1.695770 0.000000 0.033070 
#    y 0.000000 1.669630 0.000000 
#    z 0.033070 0.000000 1.705010 
# 
# From -- ./inp_files/197205.got.cif
#   From: 2010.05.17/outbox.cif.g08.bks.cpg/sg12_99_cif.got.tgz:197205.got - 2010.06.03 13:09:07.
