data_PCOD9213314
_publ_section_title
;
Structure prediction by ZEFSAII (Michael W. Deem and Ramdas Pophale) SiO2 
 PCOD9213314
Probable space group: C 2/M
;
_chemical_formula_sum "Si O2"
_cell_formula_units_Z 44
_cell_length_a 9.378351
_cell_length_b 24.226345
_cell_length_c 12.844200
_cell_angle_alpha 90.000000
_cell_angle_beta 35.717881
_cell_angle_gamma 90.000000
_cell_volume 1703.654514
_symmetry_space_group_name_H-M "C 2/M"
_symmetry_group_IT_number 12
_symmetry_cell_setting 'monoclinic'
loop_
_space_group_symop_operation_xyz
x,y,z
-x,y,-z
-x,-y,-z
x,-y,z
1/2+x,1/2+y,z
1/2-x,1/2+y,-z
1/2-x,1/2-y,-z
1/2+x,1/2-y,z
loop_
_atom_site_type_symbol
_atom_site_label
_atom_site_fract_x
_atom_site_fract_y
_atom_site_fract_z
Si Si1 0.428701 0.000000 0.162991
Si Si2 0.069073 0.879460 0.663299
Si Si3 0.363953 0.174731 0.191438
Si Si4 0.952724 0.597940 0.755956
Si Si5 0.602797 0.000000 0.322538
Si Si6 0.489955 0.287499 0.885157
Si Si7 0.443756 0.500000 0.354567
O O1 0.517802 0.945047 0.165730
O O2 0.139587 0.000000 0.327846
O O3 0.500000 0.000000 0.000000
O O4 0.877507 0.861228 0.686955
O O5 0.044546 0.835716 0.770754
O O6 0.332539 0.884625 0.452414
O O7 0.017948 0.942661 0.728098
O O8 0.543988 0.152467 0.174793
O O9 0.305297 0.238893 0.244640
O O10 0.500000 0.171450 0.000000
O O11 0.786372 0.558000 0.780656
O O12 0.500000 0.000000 0.500000
O O13 0.326663 0.000000 0.436466
O O14 0.500000 0.306714 0.000000
O O15 0.250000 0.250000 0.000000
#
# Coordination Sequence:
#
# PCOD9213314 Si02
#       7
#     4   8   8   8   4   8   4
#     4  11  21  36  70 108 135 174 229 292 354 410
#     4  11  22  41  67 101 136 172 224 296 351 429
#     4  11  21  38  66  97 128 171 237 284 350 408
#     4  10  22  37  66  96 134 172 225 297 349 403
#     4   9  21  42  56  85 140 189 220 267 357 433
#     4  11  23  45  69  93 133 186 234 291 348 425
#     4  10  22  37  69  97 133 168 222 280 356 403
#
# _framework density 25.826834999999999
#
# number of rings (size 3 to 8) (size 9 to 14) (size 15 to 20)
#    0.000    1.455    5.455    1.636    2.545    2.182 
#    6.545    0.455    0.000    0.000    0.000    0.000 
#    0.000    0.000    0.000    0.000    0.000    0.000 
#
# Total GULP energy -122621.419848 kJ/mol
# GULP energy per Si atom -5573.700902 kJ/mol
# Density = 2.576805 g / cm^3
# Si number density = 25.826835 Si / 1000 Ang^3
#
#
#
# Elastic Constant Matrix: (Units=GPa)
#
#
# Indices 1 2 3 4 5 6 
#
# 1 79.9963 20.0118 29.3364 0.0000 35.2065 0.0000
# 2 20.0118 225.2015 69.4293 0.0000 38.9038 0.0000
# 3 29.3364 69.4293 135.8878 0.0000 36.4339 0.0000
# 4 0.0000 0.0000 0.0000 43.4785 0.0000 9.5990
# 5 35.2065 38.9038 36.4339 0.0000 50.1260 0.0000
# 6 0.0000 0.0000 0.0000 9.5990 0.0000 5.7350
#
#
#
# Elastic Compliance Matrix: (Units=1/GPa)
#
#
# Indices 1 2 3 4 5 6 
#
# 1 0.018276 0.000888 -0.000960 0.000000 -0.012828 0.000000
# 2 0.000888 0.005613 -0.002142 0.000000 -0.003423 0.000000
# 3 -0.000960 -0.002142 0.009979 0.000000 -0.004917 0.000000
# 4 0.000000 0.000000 0.000000 0.036480 0.000000 -0.061058
# 5 -0.012828 -0.003423 -0.004917 0.000000 0.035190 0.000000
# 6 0.000000 0.000000 0.000000 -0.061058 0.000000 0.276563
#
#
# Mechanical properties :
#
#
# Convention : Reuss Voigt Hill
#
# Bulk Modulus (GPa) = 33.96676 75.40451 54.68563
# Shear Modulus (GPa) = 12.61538 41.35513 26.98525
#
# Velocity S-wave (km/s) = 2.21251 4.00590 3.23593
# Velocity P-wave (km/s) = 4.43928 7.11729 5.93140
#
# Compressibility (1/GPa) = 0.02944055
#
# Stress axis : x y z
#
# Youngs Moduli (GPa) = 54.71660 178.14883 100.21287
#
# Poissons Ratio (x) = -0.15818 0.09619
# Poissons Ratio (y) = -0.04858 0.21464
# Poissons Ratio (z) = 0.05252 0.38156
#
# Static dielectric constant tensor:
#      x y z
#    x 2.253220 0.000000 -0.056500 
#    y 0.000000 2.153530 0.000000 
#    z -0.056500 0.000000 2.091170 
# 
# From -- ./inp_files/136881.got.cif
#   From: 2010.05.17/outbox.cif.g08.bks.cpg/sg12_69_cif.got.tgz:136881.got - 2010.06.03 13:09:07.
