data_PCOD9213134
_publ_section_title
;
Structure prediction by ZEFSAII (Michael W. Deem and Ramdas Pophale) SiO2 
 PCOD9213134
Probable space group: C 2/M
;
_chemical_formula_sum "Si O2"
_cell_formula_units_Z 56
_cell_length_a 27.106517
_cell_length_b 16.834173
_cell_length_c 9.161845
_cell_angle_alpha 90.000000
_cell_angle_beta 36.638746
_cell_angle_gamma 90.000000
_cell_volume 2494.903250
_symmetry_space_group_name_H-M "C 2/M"
_symmetry_group_IT_number 12
_symmetry_cell_setting 'monoclinic'
loop_
_space_group_symop_operation_xyz
x,y,z
-x,y,-z
-x,-y,-z
x,-y,z
1/2+x,1/2+y,z
1/2-x,1/2+y,-z
1/2-x,1/2-y,-z
1/2+x,1/2-y,z
loop_
_atom_site_type_symbol
_atom_site_label
_atom_site_fract_x
_atom_site_fract_y
_atom_site_fract_z
Si Si1 0.766339 0.410620 0.431327
Si Si2 0.072171 0.649086 0.424081
Si Si3 0.491755 0.692302 0.348253
Si Si4 0.773191 0.372375 0.751251
Si Si5 0.203062 0.303323 0.884610
Si Si6 0.333031 0.410189 0.730288
Si Si7 0.923211 0.909273 0.072136
O O1 0.790854 0.500000 0.324453
O O2 0.777913 0.405671 0.577928
O O3 0.811168 0.337458 0.243301
O O4 0.667297 0.400938 0.643906
O O5 0.026899 0.715242 0.629884
O O6 0.142264 0.610257 0.358929
O O7 0.000000 0.606352 0.500000
O O8 0.124381 0.698605 0.177816
O O9 0.500000 0.677207 0.500000
O O10 0.410039 0.643119 0.505060
O O11 0.565737 0.656038 0.079721
O O12 0.754131 0.277820 0.780283
O O13 0.697258 0.404236 0.029643
O O14 0.255979 0.375004 0.827121
O O15 0.351604 0.500000 0.648660
O O16 0.928032 0.000000 0.002910
O O17 0.000000 0.899182 0.000000
#
# Coordination Sequence:
#
# PCOD9213134 Si02
#       7
#     8   8   8   8   8   8   8
#     4  11  24  40  63  92 124 165 207 249 306 368
#     4  10  22  40  63  89 120 156 206 259 312 360
#     4  11  20  34  55  86 126 158 196 240 295 363
#     4  11  21  40  60  90 124 160 206 261 297 358
#     4  11  21  41  61  87 123 162 204 252 299 362
#     4  11  20  34  60  87 120 164 204 247 298 356
#     4  10  22  37  54  87 133 168 193 230 293 377
#
# _framework density 22.445758999999999
#
# number of rings (size 3 to 8) (size 9 to 14) (size 15 to 20)
#    0.000    1.286    2.857    4.286    2.000    3.429 
#    0.000    0.714    0.000   16.286    0.000    0.000 
#    0.000    0.000    0.000    0.000    0.000    0.000 
#
# Total GULP energy -156403.530931 kJ/mol
# GULP energy per Si atom -5585.840390 kJ/mol
# Density = 2.239467 g / cm^3
# Si number density = 22.445759 Si / 1000 Ang^3
#
#
#
# Elastic Constant Matrix: (Units=GPa)
#
#
# Indices 1 2 3 4 5 6 
#
# 1 95.3707 7.3810 8.4827 0.0000 -12.4989 0.0000
# 2 7.3810 40.8413 13.3060 0.0000 2.7913 0.0000
# 3 8.4827 13.3060 57.8303 0.0000 7.0179 0.0000
# 4 0.0000 0.0000 0.0000 23.9068 0.0000 3.8126
# 5 -12.4989 2.7913 7.0179 0.0000 32.8225 0.0000
# 6 0.0000 0.0000 0.0000 3.8126 0.0000 17.0118
#
#
#
# Elastic Compliance Matrix: (Units=1/GPa)
#
#
# Indices 1 2 3 4 5 6 
#
# 1 0.011432 -0.001796 -0.001859 0.000000 0.004904 0.000000
# 2 -0.001796 0.026782 -0.005687 0.000000 -0.001745 0.000000
# 3 -0.001859 -0.005687 0.019404 0.000000 -0.004373 0.000000
# 4 0.000000 0.000000 0.000000 0.043379 0.000000 -0.009722
# 5 0.004904 -0.001745 -0.004373 0.000000 0.033418 0.000000
# 6 0.000000 0.000000 0.000000 -0.009722 0.000000 0.060962
#
#
# Mechanical properties :
#
#
# Convention : Reuss Voigt Hill
#
# Bulk Modulus (GPa) = 25.68383 28.04241 26.86312
# Shear Modulus (GPa) = 22.02278 25.73973 23.88126
#
# Velocity S-wave (km/s) = 3.13574 3.39005 3.26537
# Velocity P-wave (km/s) = 4.95761 5.27672 5.11965
#
# Compressibility (1/GPa) = 0.03893500
#
# Stress axis : x y z
#
# Youngs Moduli (GPa) = 87.47111 37.33911 51.53629
#
# Poissons Ratio (x) = 0.06705 0.09580
# Poissons Ratio (y) = 0.15707 0.29308
# Poissons Ratio (z) = 0.16260 0.21234
#
# Static dielectric constant tensor:
#      x y z
#    x 1.908340 0.000000 0.012450 
#    y 0.000000 1.826190 0.000000 
#    z 0.012450 0.000000 1.846380 
# 
# From -- ./inp_files/75852.got.cif
#   From: 2010.05.17/outbox.cif.g08.bks.cpg/sg12_38_cif.got.tgz:75852.got - 2010.06.03 13:09:07.
