data_PCOD9213825
_publ_section_title
;
Structure prediction by ZEFSAII (Michael W. Deem and Ramdas Pophale) SiO2 
 PCOD9213825
Probable space group: C 2/M
;
_chemical_formula_sum "Si O2"
_cell_formula_units_Z 48
_cell_length_a 19.957443
_cell_length_b 8.801838
_cell_length_c 15.331179
_cell_angle_alpha 90.000000
_cell_angle_beta 113.484411
_cell_angle_gamma 90.000000
_cell_volume 2470.034211
_symmetry_space_group_name_H-M "C 2/M"
_symmetry_group_IT_number 12
_symmetry_cell_setting 'monoclinic'
loop_
_space_group_symop_operation_xyz
x,y,z
-x,y,-z
-x,-y,-z
x,-y,z
1/2+x,1/2+y,z
1/2-x,1/2+y,-z
1/2-x,1/2-y,-z
1/2+x,1/2-y,z
loop_
_atom_site_type_symbol
_atom_site_label
_atom_site_fract_x
_atom_site_fract_y
_atom_site_fract_z
Si Si1 0.840632 0.181083 0.389494
Si Si2 0.398494 0.183726 0.871776
Si Si3 0.439771 0.318186 0.597968
Si Si4 0.188695 0.820144 0.329732
Si Si5 0.908364 0.318493 0.260379
Si Si6 0.066628 0.684147 0.919200
O O1 0.907910 0.225808 0.487129
O O2 0.764809 0.239364 0.389324
O O3 0.852319 0.247613 0.299632
O O4 0.839644 0.000000 0.385657
O O5 0.341234 0.259950 0.778096
O O6 0.480805 0.224734 0.883033
O O7 0.391975 0.000000 0.863293
O O8 0.394239 0.231470 0.970968
O O9 0.455293 0.500000 0.605400
O O10 0.374359 0.289413 0.632296
O O11 0.511409 0.230661 0.665038
O O12 0.200468 0.000000 0.332936
O O13 0.902056 0.500000 0.258574
O O14 0.901773 0.263914 0.156748
O O15 0.068116 0.500000 0.919923
#
# Coordination Sequence:
#
# PCOD9213825 Si02
#       6
#     8   8   8   8   8   8
#     4  11  24  40  56  77 112 155 189 224 276 334
#     4   9  16  33  58  83 110 144 182 221 273 332
#     4  10  22  39  58  81 111 147 188 230 275 328
#     4  11  22  37  57  85 114 142 184 236 279 322
#     4  11  21  36  59  87 114 144 184 230 275 324
#     4   8  16  31  56  85 111 141 181 224 269 327
#
# _framework density 19.432929000000001
#
# number of rings (size 3 to 8) (size 9 to 14) (size 15 to 20)
#    0.000    2.000    1.667    3.500    0.000    4.000 
#    0.000    4.167    0.000    0.000    0.000    0.000 
#    0.000    0.000    0.000    0.000    0.000    0.000 
#
# Total GULP energy -134036.001921 kJ/mol
# GULP energy per Si atom -5584.833413 kJ/mol
# Density = 1.938870 g / cm^3
# Si number density = 19.432929 Si / 1000 Ang^3
#
#
#
# Elastic Constant Matrix: (Units=GPa)
#
#
# Indices 1 2 3 4 5 6 
#
# 1 29.7865 16.9421 -0.4920 0.0000 -10.4121 0.0000
# 2 16.9421 26.9379 12.0628 0.0000 -8.8811 0.0000
# 3 -0.4920 12.0628 81.9607 0.0000 -19.5030 0.0000
# 4 0.0000 0.0000 0.0000 24.5772 0.0000 1.6095
# 5 -10.4121 -8.8811 -19.5030 0.0000 26.8273 0.0000
# 6 0.0000 0.0000 0.0000 1.6095 0.0000 30.4880
#
#
#
# Elastic Compliance Matrix: (Units=1/GPa)
#
#
# Indices 1 2 3 4 5 6 
#
# 1 0.061484 -0.036999 0.010373 0.000000 0.019155 0.000000
# 2 -0.036999 0.064756 -0.009756 0.000000 -0.000015 0.000000
# 3 0.010373 -0.009756 0.016794 0.000000 0.013005 0.000000
# 4 0.000000 0.000000 0.000000 0.040829 0.000000 -0.002155
# 5 0.019155 -0.000015 0.013005 0.000000 0.054159 0.000000
# 6 0.000000 0.000000 0.000000 -0.002155 0.000000 0.032914
#
#
# Mechanical properties :
#
#
# Convention : Reuss Voigt Hill
#
# Bulk Modulus (GPa) = 14.23115 21.74565 17.98840
# Shear Modulus (GPa) = 13.61938 23.72332 18.67135
#
# Velocity S-wave (km/s) = 2.65021 3.49776 3.10306
# Velocity P-wave (km/s) = 4.08704 5.24660 4.70270
#
# Compressibility (1/GPa) = 0.07026838
#
# Stress axis : x y z
#
# Youngs Moduli (GPa) = 16.26441 15.44254 59.54609
#
# Poissons Ratio (x) = 0.57136 -0.61765
# Poissons Ratio (y) = 0.60177 0.58096
# Poissons Ratio (z) = -0.16870 0.15066
#
# Static dielectric constant tensor:
#      x y z
#    x 1.672230 0.000000 -0.024390 
#    y 0.000000 1.647920 0.000000 
#    z -0.024390 0.000000 1.693840 
# 
# From -- ./inp_files/229955.got.cif
#   From: 2010.05.17/outbox.cif.g08.bks.cpg/sg12_115_cif.got.tgz:229955.got - 2010.06.03 13:09:07.
