data_PCOD9213622
_publ_section_title
;
Structure prediction by ZEFSAII (Michael W. Deem and Ramdas Pophale) SiO2 
 PCOD9213622
Probable space group: C 2/M
;
_chemical_formula_sum "Si O2"
_cell_formula_units_Z 64
_cell_length_a 15.016606
_cell_length_b 31.596866
_cell_length_c 8.913415
_cell_angle_alpha 90.000000
_cell_angle_beta 46.079074
_cell_angle_gamma 90.000000
_cell_volume 3046.295427
_symmetry_space_group_name_H-M "C 2/M"
_symmetry_group_IT_number 12
_symmetry_cell_setting 'monoclinic'
loop_
_space_group_symop_operation_xyz
x,y,z
-x,y,-z
-x,-y,-z
x,-y,z
1/2+x,1/2+y,z
1/2-x,1/2+y,-z
1/2-x,1/2-y,-z
1/2+x,1/2-y,z
loop_
_atom_site_type_symbol
_atom_site_label
_atom_site_fract_x
_atom_site_fract_y
_atom_site_fract_z
Si Si1 0.814391 0.326574 0.615864
Si Si2 0.115498 0.951023 0.482144
Si Si3 0.087988 0.156252 0.261573
Si Si4 0.865149 0.750163 0.734131
Si Si5 0.160355 0.377274 0.113990
Si Si6 0.888817 0.450471 0.016418
Si Si7 0.470182 0.196887 0.867155
Si Si8 0.918451 0.876570 0.235388
O O1 0.781523 0.281923 0.735471
O O2 0.864895 0.354820 0.697186
O O3 0.705690 0.354398 0.674840
O O4 0.909180 0.314129 0.373823
O O5 0.251711 0.944412 0.248813
O O6 0.100923 0.915502 0.627759
O O7 0.000000 0.948400 0.500000
O O8 0.114330 0.000000 0.539697
O O9 0.151736 0.199902 0.235899
O O10 0.000000 0.142848 0.500000
O O11 0.996194 0.160074 0.229368
O O12 0.192768 0.124302 0.084988
O O13 0.888506 0.730755 0.870944
O O14 0.000000 0.745802 0.500000
O O15 0.103931 0.347083 0.051552
O O16 0.107697 0.422957 0.139178
O O17 0.903325 0.500000 0.968056
O O18 0.000000 0.438262 0.000000
O O19 0.500000 0.210032 0.000000
O O20 0.000000 0.891200 0.000000
#
# Coordination Sequence:
#
# PCOD9213622 Si02
#       8
#     8   8   8   8   8   8   8   8
#     4  10  23  42  61  88 130 166 207 263 316 386
#     4  10  23  44  70  96 130 174 217 265 321 390
#     4  11  23  40  63  92 125 171 215 265 313 375
#     4   8  19  43  60  84 128 167 212 261 320 373
#     4  11  21  39  63  89 125 171 204 249 318 382
#     4  10  22  40  67 103 133 161 211 270 318 376
#     4  10  22  38  62  91 113 165 218 256 307 368
#     4  12  24  40  62  97 130 163 214 269 324 375
#
# _framework density 21.009122999999999
#
# number of rings (size 3 to 8) (size 9 to 14) (size 15 to 20)
#    0.000    1.750    1.250    3.375    5.250    2.750 
#    2.250    2.500    0.000    1.500    0.000    0.000 
#    0.000    0.000    0.000    0.000    0.000    0.000 
#
# Total GULP energy -178582.421444 kJ/mol
# GULP energy per Si atom -5580.700670 kJ/mol
# Density = 2.096131 g / cm^3
# Si number density = 21.009123 Si / 1000 Ang^3
#
#
#
# Elastic Constant Matrix: (Units=GPa)
#
#
# Indices 1 2 3 4 5 6 
#
# 1 97.4828 40.3636 25.4925 0.0000 3.7532 0.0000
# 2 40.3636 109.5528 27.7005 0.0000 7.8969 0.0000
# 3 25.4925 27.7005 95.9506 0.0000 3.6420 0.0000
# 4 0.0000 0.0000 0.0000 -0.7652 0.0000 4.6655
# 5 3.7532 7.8969 3.6420 0.0000 34.0488 0.0000
# 6 0.0000 0.0000 0.0000 4.6655 0.0000 22.7138
#
#
#
# Elastic Compliance Matrix: (Units=1/GPa)
#
#
# Indices 1 2 3 4 5 6 
#
# 1 0.012504 -0.004049 -0.002145 0.000000 -0.000210 0.000000
# 2 -0.004049 0.011294 -0.002111 0.000000 -0.001947 0.000000
# 3 -0.002145 -0.002111 0.011621 0.000000 -0.000517 0.000000
# 4 0.000000 0.000000 0.000000 -0.580227 0.000000 0.119181
# 5 -0.000210 -0.001947 -0.000517 0.000000 0.029900 0.000000
# 6 0.000000 0.000000 0.000000 0.119181 0.000000 0.019546
#
#
# Mechanical properties :
#
#
# Convention : Reuss Voigt Hill
#
# Bulk Modulus (GPa) = 53.16778 54.45547 53.81163
# Shear Modulus (GPa) = -10.58241 25.16148 7.28954
#
# Velocity S-wave (km/s) = -2.24677 3.46446 1.86473
# Velocity P-wave (km/s) = 4.31640 6.47916 5.50503
#
# Compressibility (1/GPa) = 0.01880838
#
# Stress axis : x y z
#
# Youngs Moduli (GPa) = 79.97473 88.54210 86.05164
#
# Poissons Ratio (x) = 0.35855 0.18459
# Poissons Ratio (y) = 0.32385 0.18163
# Poissons Ratio (z) = 0.17155 0.18689
#
# Static dielectric constant tensor:
#      x y z
#    x 1.799410 0.000000 -0.006630 
#    y 0.000000 1.755580 0.000000 
#    z -0.006630 0.000000 1.832940 
# 
# From -- ./inp_files/68609.got.cif
#   From: 2010.05.17/outbox.cif.g08.bks.cpg/sg12_35_cif.got.tgz:68609.got - 2010.06.03 13:09:07.
