data_PCOD9213360
_publ_section_title
;
Structure prediction by ZEFSAII (Michael W. Deem and Ramdas Pophale) SiO2 
 PCOD9213360
Probable space group: C 2/M
;
_chemical_formula_sum "Si O2"
_cell_formula_units_Z 56
_cell_length_a 24.198917
_cell_length_b 14.391966
_cell_length_c 7.574836
_cell_angle_alpha 90.000000
_cell_angle_beta 122.648830
_cell_angle_gamma 90.000000
_cell_volume 2221.251490
_symmetry_space_group_name_H-M "C 2/M"
_symmetry_group_IT_number 12
_symmetry_cell_setting 'monoclinic'
loop_
_space_group_symop_operation_xyz
x,y,z
-x,y,-z
-x,-y,-z
x,-y,z
1/2+x,1/2+y,z
1/2-x,1/2+y,-z
1/2-x,1/2-y,-z
1/2+x,1/2-y,z
loop_
_atom_site_type_symbol
_atom_site_label
_atom_site_fract_x
_atom_site_fract_y
_atom_site_fract_z
Si Si1 0.900667 0.394778 0.268419
Si Si2 0.163219 0.254174 0.618078
Si Si3 0.075039 0.896296 0.853506
Si Si4 0.249283 0.601909 0.129143
Si Si5 0.431741 0.794201 0.984430
Si Si6 0.690674 0.894216 0.407702
Si Si7 0.421713 0.399237 0.569939
O O1 0.917369 0.500000 0.346002
O O2 0.895557 0.317730 0.408797
O O3 0.823686 0.393297 0.074828
O O4 0.942944 0.356833 0.179786
O O5 0.203860 0.189076 0.822722
O O6 0.210558 0.323530 0.595361
O O7 0.124209 0.179701 0.433575
O O8 0.079500 0.890763 0.646960
O O9 0.996747 0.894352 0.754429
O O10 0.099330 0.000000 0.947850
O O11 0.098027 0.802985 0.990594
O O12 0.275931 0.500000 0.124042
O O13 0.237548 0.604985 0.319710
O O14 0.378393 0.853219 0.782187
O O15 0.500000 0.782377 0.000000
O O16 0.683576 0.000000 0.459613
O O17 0.396034 0.500000 0.574787
#
# Coordination Sequence:
#
# PCOD9213360 Si02
#       7
#     8   8   8   8   8   8   8
#     4  10  22  38  56  82 113 145 189 238 279 322
#     4  12  19  35  61  86 107 145 193 229 275 333
#     4   9  18  35  55  80 114 145 176 227 285 329
#     4   9  20  38  58  81 112 147 180 225 289 343
#     4  11  21  38  59  80 109 156 193 223 275 338
#     4  10  23  39  55  81 117 152 186 231 282 323
#     4   9  18  32  55  85 114 140 175 229 287 331
#
# _framework density 25.211013999999999
#
# number of rings (size 3 to 8) (size 9 to 14) (size 15 to 20)
#    0.000    2.000    1.429    4.714    0.000    1.429 
#    0.000    1.429    0.000    6.000    0.000    0.000 
#    0.000    0.000    0.000    0.000    0.000    0.000 
#
# Total GULP energy -156507.324142 kJ/mol
# GULP energy per Si atom -5589.547291 kJ/mol
# Density = 2.515363 g / cm^3
# Si number density = 25.211014 Si / 1000 Ang^3
#
#
#
# Elastic Constant Matrix: (Units=GPa)
#
#
# Indices 1 2 3 4 5 6 
#
# 1 70.9544 27.2559 7.2338 0.0000 0.0740 0.0000
# 2 27.2559 217.3073 19.1086 0.0000 -6.4837 0.0000
# 3 7.2338 19.1086 32.6240 0.0000 -4.7499 0.0000
# 4 0.0000 0.0000 0.0000 19.7556 0.0000 -2.5433
# 5 0.0740 -6.4837 -4.7499 0.0000 28.5396 0.0000
# 6 0.0000 0.0000 0.0000 -2.5433 0.0000 30.5467
#
#
#
# Elastic Compliance Matrix: (Units=1/GPa)
#
#
# Indices 1 2 3 4 5 6 
#
# 1 0.014994 -0.001689 -0.002456 0.000000 -0.000831 0.000000
# 2 -0.001689 0.005054 -0.002478 0.000000 0.000740 0.000000
# 3 -0.002456 -0.002478 0.033376 0.000000 0.004998 0.000000
# 4 0.000000 0.000000 0.000000 0.051167 0.000000 0.004260
# 5 -0.000831 0.000740 0.004998 0.000000 0.036041 0.000000
# 6 0.000000 0.000000 0.000000 0.004260 0.000000 0.033091
#
#
# Mechanical properties :
#
#
# Convention : Reuss Voigt Hill
#
# Bulk Modulus (GPa) = 24.88998 47.56470 36.22734
# Shear Modulus (GPa) = 24.95489 33.58754 29.27122
#
# Velocity S-wave (km/s) = 3.14959 3.65397 3.41111
# Velocity P-wave (km/s) = 4.80839 6.05884 5.46947
#
# Compressibility (1/GPa) = 0.04017681
#
# Stress axis : x y z
#
# Youngs Moduli (GPa) = 66.69421 197.87758 29.96181
#
# Poissons Ratio (x) = 0.33430 0.07359
# Poissons Ratio (y) = 0.11268 0.07424
# Poissons Ratio (z) = 0.16381 0.49027
#
# Static dielectric constant tensor:
#      x y z
#    x 1.972300 0.000000 -0.023070 
#    y 0.000000 2.018840 0.000000 
#    z -0.023070 0.000000 2.077220 
# 
# From -- ./inp_files/96508.got.cif
#   From: 2010.05.17/outbox.cif.g08.bks.cpg/sg12_49_cif.got.tgz:96508.got - 2010.06.03 13:09:07.
