data_PCOD9213166
_publ_section_title
;
Structure prediction by ZEFSAII (Michael W. Deem and Ramdas Pophale) SiO2 
 PCOD9213166
Probable space group: C 2/M
;
_chemical_formula_sum "Si O2"
_cell_formula_units_Z 64
_cell_length_a 31.008514
_cell_length_b 18.529893
_cell_length_c 8.626632
_cell_angle_alpha 90.000000
_cell_angle_beta 140.552534
_cell_angle_gamma 90.000000
_cell_volume 3149.358899
_symmetry_space_group_name_H-M "C 2/M"
_symmetry_group_IT_number 12
_symmetry_cell_setting 'monoclinic'
loop_
_space_group_symop_operation_xyz
x,y,z
-x,y,-z
-x,-y,-z
x,-y,z
1/2+x,1/2+y,z
1/2-x,1/2+y,-z
1/2-x,1/2-y,-z
1/2+x,1/2-y,z
loop_
_atom_site_type_symbol
_atom_site_label
_atom_site_fract_x
_atom_site_fract_y
_atom_site_fract_z
Si Si1 0.513942 0.335061 0.854293
Si Si2 0.133813 0.583478 0.700927
Si Si3 0.796193 0.341221 0.551423
Si Si4 0.024120 0.325197 0.245923
Si Si5 0.840694 0.819518 0.641851
Si Si6 0.385646 0.414642 0.469299
Si Si7 0.905955 0.415677 0.059100
Si Si8 0.771191 0.917341 0.921371
O O1 0.484109 0.257402 0.723839
O O2 0.464392 0.396624 0.654740
O O3 0.500000 0.338154 0.000000
O O4 0.595457 0.338393 0.067375
O O5 0.111884 0.500000 0.610522
O O6 0.096182 0.638105 0.480429
O O7 0.213947 0.585350 0.895424
O O8 0.118034 0.602434 0.834170
O O9 0.837384 0.267790 0.625586
O O10 0.734623 0.334443 0.504030
O O11 0.849596 0.395509 0.775663
O O12 0.757361 0.368355 0.292846
O O13 0.000000 0.329404 0.000000
O O14 0.972545 0.371875 0.203508
O O15 0.857520 0.863824 0.531451
O O16 0.377070 0.500000 0.483058
O O17 0.341620 0.397576 0.195512
O O18 0.920320 0.500000 0.093544
O O19 0.775052 0.000000 0.875271
#
# Coordination Sequence:
#
# PCOD9213166 Si02
#       8
#     8   8   8   8   8   8   8   8
#     4   9  20  39  61  88 120 155 200 257 304 366
#     4  10  22  37  56  87 123 163 208 248 296 367
#     4  11  22  39  61  91 127 162 204 253 310 375
#     4  11  21  36  58  86 123 163 203 253 303 366
#     4  10  22  40  62  89 124 159 203 257 313 375
#     4  10  22  42  66  92 120 160 211 264 316 372
#     4  11  22  38  59  85 122 166 205 250 305 366
#     4  10  22  40  61  90 125 160 205 253 305 370
#
# _framework density 20.321598000000002
#
# number of rings (size 3 to 8) (size 9 to 14) (size 15 to 20)
#    0.000    1.750    1.250    2.625    3.500    7.750 
#    4.500    0.625    0.000    1.500    0.000    0.000 
#    0.000    0.000    0.000    0.000    0.000    0.000 
#
# Total GULP energy -178561.490165 kJ/mol
# GULP energy per Si atom -5580.046568 kJ/mol
# Density = 2.027535 g / cm^3
# Si number density = 20.321598 Si / 1000 Ang^3
#
#
#
# Elastic Constant Matrix: (Units=GPa)
#
#
# Indices 1 2 3 4 5 6 
#
# 1 21.0498 0.3942 -3.4471 0.0000 -2.1936 0.0000
# 2 0.3942 29.6524 23.7853 0.0000 -6.2538 0.0000
# 3 -3.4471 23.7853 100.0646 0.0000 11.2458 0.0000
# 4 0.0000 0.0000 0.0000 62.8255 0.0000 8.3060
# 5 -2.1936 -6.2538 11.2458 0.0000 27.7363 0.0000
# 6 0.0000 0.0000 0.0000 8.3060 0.0000 19.1979
#
#
#
# Elastic Compliance Matrix: (Units=1/GPa)
#
#
# Indices 1 2 3 4 5 6 
#
# 1 0.048099 -0.001385 0.001670 0.000000 0.002815 0.000000
# 2 -0.001385 0.047685 -0.013179 0.000000 0.015986 0.000000
# 3 0.001670 -0.013179 0.014148 0.000000 -0.008576 0.000000
# 4 0.000000 0.000000 0.000000 0.016883 0.000000 -0.007304
# 5 0.002815 0.015986 -0.008576 0.000000 0.043358 0.000000
# 6 0.000000 0.000000 0.000000 -0.007304 0.000000 0.055249
#
#
# Mechanical properties :
#
#
# Convention : Reuss Voigt Hill
#
# Bulk Modulus (GPa) = 11.88451 21.35907 16.62179
# Shear Modulus (GPa) = 17.90456 30.62091 24.26274
#
# Velocity S-wave (km/s) = 2.97149 3.88598 3.45909
# Velocity P-wave (km/s) = 4.19927 5.53785 4.91435
#
# Compressibility (1/GPa) = 0.08414316
#
# Stress axis : x y z
#
# Youngs Moduli (GPa) = 20.79040 20.97081 70.68385
#
# Poissons Ratio (x) = 0.02905 -0.11803
# Poissons Ratio (y) = 0.02880 0.93155
# Poissons Ratio (z) = -0.03472 0.27638
#
# Static dielectric constant tensor:
#      x y z
#    x 1.732380 0.000000 0.017340 
#    y 0.000000 1.720400 0.000000 
#    z 0.017340 0.000000 1.722640 
# 
# From -- ./inp_files/112901.got.cif
#   From: 2010.05.17/outbox.cif.g08.bks.cpg/sg12_57_cif.got.tgz:112901.got - 2010.06.03 13:09:07.
