data_PCOD9213243
_publ_section_title
;
Structure prediction by ZEFSAII (Michael W. Deem and Ramdas Pophale) SiO2 
 PCOD9213243
Probable space group: C 2/M
;
_chemical_formula_sum "Si O2"
_cell_formula_units_Z 44
_cell_length_a 7.967043
_cell_length_b 22.599520
_cell_length_c 12.898478
_cell_angle_alpha 90.000000
_cell_angle_beta 124.149798
_cell_angle_gamma 90.000000
_cell_volume 1921.945307
_symmetry_space_group_name_H-M "C 2/M"
_symmetry_group_IT_number 12
_symmetry_cell_setting 'monoclinic'
loop_
_space_group_symop_operation_xyz
x,y,z
-x,y,-z
-x,-y,-z
x,-y,z
1/2+x,1/2+y,z
1/2-x,1/2+y,-z
1/2-x,1/2-y,-z
1/2+x,1/2-y,z
loop_
_atom_site_type_symbol
_atom_site_label
_atom_site_fract_x
_atom_site_fract_y
_atom_site_fract_z
Si Si1 0.303348 0.897579 0.226343
Si Si2 0.204729 0.500000 0.935437
Si Si3 0.609564 0.626580 0.797960
Si Si4 0.500000 0.892244 0.500000
Si Si5 0.624793 0.689747 0.439984
Si Si6 0.230387 0.183756 0.035525
Si Si7 0.727702 0.500000 0.809725
O O1 0.444882 0.920878 0.369235
O O2 0.366267 0.839593 0.179853
O O3 0.096137 0.885407 0.212339
O O4 0.256330 0.944167 0.121724
O O5 0.966237 0.500000 0.875939
O O6 0.318831 0.500000 0.083405
O O7 0.552514 0.683019 0.707765
O O8 0.655668 0.565846 0.751022
O O9 0.762160 0.643334 0.943511
O O10 0.696653 0.854107 0.535289
O O11 0.500000 0.674754 0.500000
O O12 0.750000 0.750000 0.500000
O O13 0.250000 0.250000 0.000000
O O14 0.000000 0.179051 0.000000
#
# Coordination Sequence:
#
# PCOD9213243 Si02
#       7
#     8   4   8   4   8   8   4
#     4  10  22  42  64  91 126 175 215 269 327 394
#     4  11  23  38  68  95 131 172 215 281 330 397
#     4  10  23  41  65  92 126 172 221 268 331 401
#     4  10  24  43  62  96 136 173 228 258 336 410
#     4  11  24  42  68  97 130 179 219 273 330 401
#     4  10  22  37  60  93 126 164 214 270 330 388
#     4  11  23  41  61 103 131 166 223 272 344 394
#
# _framework density 22.893470000000001
#
# number of rings (size 3 to 8) (size 9 to 14) (size 15 to 20)
#    0.000    1.636    2.727    0.545    5.091    4.000 
#    0.000    1.364    0.000    0.000    0.000    0.000 
#    0.000    0.000    0.000    0.000    0.000    0.000 
#
# Total GULP energy -122491.643332 kJ/mol
# GULP energy per Si atom -5567.801970 kJ/mol
# Density = 2.284136 g / cm^3
# Si number density = 22.893470 Si / 1000 Ang^3
#
#
#
# Elastic Constant Matrix: (Units=GPa)
#
#
# Indices 1 2 3 4 5 6 
#
# 1 76.2090 -1.4647 13.8853 0.0000 -16.3207 0.0000
# 2 -1.4647 88.4256 17.1037 0.0000 -5.8764 0.0000
# 3 13.8853 17.1037 104.8135 0.0000 -5.9350 0.0000
# 4 0.0000 0.0000 0.0000 17.5779 0.0000 8.8095
# 5 -16.3207 -5.8764 -5.9350 0.0000 19.2668 0.0000
# 6 0.0000 0.0000 0.0000 8.8095 0.0000 0.0720
#
#
#
# Elastic Compliance Matrix: (Units=1/GPa)
#
#
# Indices 1 2 3 4 5 6 
#
# 1 0.016418 0.001510 -0.001636 0.000000 0.013864 0.000000
# 2 0.001510 0.011992 -0.001911 0.000000 0.004348 0.000000
# 3 -0.001636 -0.001911 0.010135 0.000000 0.001153 0.000000
# 4 0.000000 0.000000 0.000000 -0.000944 0.000000 0.115396
# 5 0.013864 0.004348 0.001153 0.000000 0.065328 0.000000
# 6 0.000000 0.000000 0.000000 0.115396 0.000000 -0.230252
#
#
# Mechanical properties :
#
#
# Convention : Reuss Voigt Hill
#
# Bulk Modulus (GPa) = 29.01030 36.49965 32.75498
# Shear Modulus (GPa) = -44.73972 23.37827 -10.68073
#
# Velocity S-wave (km/s) = -4.42549 3.19905 -2.16230
# Velocity P-wave (km/s) = 3.66251 5.44271 2.84685
#
# Compressibility (1/GPa) = 0.03447051
#
# Stress axis : x y z
#
# Youngs Moduli (GPa) = 60.90858 83.38557 98.67170
#
# Poissons Ratio (x) = -0.12589 0.16146
# Poissons Ratio (y) = -0.09196 0.18854
# Poissons Ratio (z) = 0.09967 0.15933
#
# Static dielectric constant tensor:
#      x y z
#    x 1.801980 0.000000 0.021600 
#    y 0.000000 1.973350 0.000000 
#    z 0.021600 0.000000 1.999820 
# 
# From -- ./inp_files/122707.got.cif
#   From: 2010.05.17/outbox.cif.g08.bks.cpg/sg12_62_cif.got.tgz:122707.got - 2010.06.03 13:09:07.
