data_PCOD9213017
_publ_section_title
;
Structure prediction by ZEFSAII (Michael W. Deem and Ramdas Pophale) SiO2 
 PCOD9213017
Probable space group: C 2/M
;
_chemical_formula_sum "Si O2"
_cell_formula_units_Z 64
_cell_length_a 25.166463
_cell_length_b 21.782087
_cell_length_c 11.347832
_cell_angle_alpha 90.000000
_cell_angle_beta 31.763336
_cell_angle_gamma 90.000000
_cell_volume 3274.614744
_symmetry_space_group_name_H-M "C 2/M"
_symmetry_group_IT_number 12
_symmetry_cell_setting 'monoclinic'
loop_
_space_group_symop_operation_xyz
x,y,z
-x,y,-z
-x,-y,-z
x,-y,z
1/2+x,1/2+y,z
1/2-x,1/2+y,-z
1/2-x,1/2-y,-z
1/2+x,1/2-y,z
loop_
_atom_site_type_symbol
_atom_site_label
_atom_site_fract_x
_atom_site_fract_y
_atom_site_fract_z
Si Si1 0.382353 0.318093 0.719964
Si Si2 0.271126 0.351934 0.590058
Si Si3 0.103326 0.136456 0.870136
Si Si4 0.118804 0.740312 0.500279
Si Si5 0.728884 0.431076 0.193560
Si Si6 0.061703 0.719881 0.998804
Si Si7 0.726578 0.644746 0.847502
Si Si8 0.887706 0.571318 0.701732
O O1 0.500000 0.329403 0.500000
O O2 0.371272 0.259314 0.655648
O O3 0.333402 0.377548 0.751985
O O4 0.334678 0.315744 0.939392
O O5 0.306534 0.368455 0.393522
O O6 0.353754 0.302225 0.480417
O O7 0.269652 0.411699 0.674199
O O8 0.164584 0.318040 0.808425
O O9 0.085294 0.208432 0.932621
O O10 0.145477 0.111242 0.915631
O O11 0.000000 0.113983 0.000000
O O12 0.204436 0.690016 0.360154
O O13 0.011078 0.717040 0.749891
O O14 0.690004 0.500000 0.248141
O O15 0.837342 0.427583 0.925816
O O16 0.000000 0.698640 0.000000
O O17 0.807989 0.603635 0.764706
O O18 0.897022 0.500000 0.647363
O O19 0.000000 0.598632 0.500000
#
# Coordination Sequence:
#
# PCOD9213017 Si02
#       8
#     8   8   8   8   8   8   8   8
#     4  10  22  36  56  85 117 152 188 243 301 353
#     4  11  21  36  58  84 117 154 195 246 287 349
#     4  11  21  37  59  84 119 159 196 233 289 353
#     4  11  21  34  54  86 121 150 192 238 298 356
#     4   9  21  40  61  83 111 151 198 245 295 347
#     4  11  20  33  55  83 117 158 197 230 285 362
#     4  11  22  36  59  86 122 154 196 243 294 350
#     4   9  20  41  64  85 113 155 200 243 299 359
#
# _framework density 19.544284000000001
#
# number of rings (size 3 to 8) (size 9 to 14) (size 15 to 20)
#    0.000    1.625    3.750    2.250    3.500    0.750 
#    0.000    0.625    0.000    1.125    0.000    0.000 
#    0.000    0.000    0.000    0.000    0.000    0.000 
#
# Total GULP energy -178436.638930 kJ/mol
# GULP energy per Si atom -5576.144967 kJ/mol
# Density = 1.949980 g / cm^3
# Si number density = 19.544284 Si / 1000 Ang^3
#
#
#
# Elastic Constant Matrix: (Units=GPa)
#
#
# Indices 1 2 3 4 5 6 
#
# 1 95.4336 2.2763 51.6187 0.0000 2.4136 0.0000
# 2 2.2763 25.6819 18.2451 0.0000 -1.8144 0.0000
# 3 51.6187 18.2451 114.6748 0.0000 -9.7205 0.0000
# 4 0.0000 0.0000 0.0000 13.8601 0.0000 -10.0737
# 5 2.4136 -1.8144 -9.7205 0.0000 35.2268 0.0000
# 6 0.0000 0.0000 0.0000 -10.0737 0.0000 -17.2786
#
#
#
# Elastic Compliance Matrix: (Units=1/GPa)
#
#
# Indices 1 2 3 4 5 6 
#
# 1 0.014422 0.003725 -0.007323 0.000000 -0.002817 0.000000
# 2 0.003725 0.044866 -0.008848 0.000000 -0.000386 0.000000
# 3 -0.007323 -0.008848 0.013750 0.000000 0.003840 0.000000
# 4 0.000000 0.000000 0.000000 0.050676 0.000000 -0.029545
# 5 -0.002817 -0.000386 0.003840 0.000000 0.029620 0.000000
# 6 0.000000 0.000000 0.000000 -0.029545 0.000000 -0.040650
#
#
# Mechanical properties :
#
#
# Convention : Reuss Voigt Hill
#
# Bulk Modulus (GPa) = 20.76996 42.23005 31.50001
# Shear Modulus (GPa) = 32.54680 17.27169 24.90925
#
# Velocity S-wave (km/s) = 4.08522 2.97597 3.57389
# Velocity P-wave (km/s) = 5.73604 5.78470 5.76043
#
# Compressibility (1/GPa) = 0.04814645
#
# Stress axis : x y z
#
# Youngs Moduli (GPa) = 69.33894 22.28844 72.72735
#
# Poissons Ratio (x) = -0.08303 0.53260
# Poissons Ratio (y) = -0.25831 0.64349
# Poissons Ratio (z) = 0.50779 0.19721
#
# Static dielectric constant tensor:
#      x y z
#    x 1.768530 0.000000 -0.005210 
#    y 0.000000 1.680840 0.000000 
#    z -0.005210 0.000000 1.694730 
# 
# From -- ./inp_files/184675.got.cif
#   From: 2010.05.17/outbox.cif.g08.bks.cpg/sg12_93_cif.got.tgz:184675.got - 2010.06.03 13:09:07.
