data_PCOD9213356
_publ_section_title
;
Structure prediction by ZEFSAII (Michael W. Deem and Ramdas Pophale) SiO2 
 PCOD9213356
Probable space group: C 2/M
;
_chemical_formula_sum "Si O2"
_cell_formula_units_Z 56
_cell_length_a 14.910217
_cell_length_b 7.348945
_cell_length_c 31.186279
_cell_angle_alpha 90.000000
_cell_angle_beta 138.116545
_cell_angle_gamma 90.000000
_cell_volume 2281.394006
_symmetry_space_group_name_H-M "C 2/M"
_symmetry_group_IT_number 12
_symmetry_cell_setting 'monoclinic'
loop_
_space_group_symop_operation_xyz
x,y,z
-x,y,-z
-x,-y,-z
x,-y,z
1/2+x,1/2+y,z
1/2-x,1/2+y,-z
1/2-x,1/2-y,-z
1/2+x,1/2-y,z
loop_
_atom_site_type_symbol
_atom_site_label
_atom_site_fract_x
_atom_site_fract_y
_atom_site_fract_z
Si Si1 0.792458 0.216481 0.916753
Si Si2 0.456564 0.794700 0.220799
Si Si3 0.875794 0.712004 0.320641
Si Si4 0.893177 0.777003 0.812480
Si Si5 0.278759 0.779709 0.646279
Si Si6 0.678159 0.782497 0.429570
Si Si7 0.055772 0.785357 0.951693
O O1 0.677716 0.294647 0.845298
O O2 0.927740 0.230463 0.937602
O O3 0.763453 0.000000 0.911302
O O4 0.821339 0.287707 0.975269
O O5 0.544889 0.796168 0.209073
O O6 0.565681 0.717600 0.292186
O O7 0.422185 0.000000 0.223082
O O8 0.889514 0.500000 0.315043
O O9 0.763566 0.780177 0.246472
O O10 0.811095 0.720816 0.345475
O O11 0.025236 0.790054 0.375130
O O12 0.994047 0.713718 0.885659
O O13 0.894931 0.000000 0.813444
O O14 0.242874 0.722140 0.585269
O O15 0.279708 0.000000 0.649349
O O16 0.750000 0.750000 0.500000
O O17 0.669414 0.000000 0.422511
O O18 0.082553 0.000000 0.955044
#
# Coordination Sequence:
#
# PCOD9213356 Si02
#       7
#     8   8   8   8   8   8   8
#     4   8  14  24  40  65  93 121 158 201 239 276
#     4   9  17  29  47  69  94 124 159 198 240 285
#     4   9  19  35  54  77 105 135 169 208 251 298
#     4   9  17  29  47  69  94 124 159 198 240 285
#     4   9  19  35  54  77 105 135 169 208 251 298
#     4  10  22  38  56  80 105 133 169 205 248 304
#     4   8  14  24  40  65  93 121 158 201 239 276
#
# _framework density 24.546396999999999
#
# number of rings (size 3 to 8) (size 9 to 14) (size 15 to 20)
#    0.000    3.143    0.000    0.857    2.000    2.286 
#    0.000    2.857    0.000    0.857    0.000    2.000 
#    0.000    0.000    0.000    0.000    0.000    0.000 
#
# Total GULP energy -156083.319619 kJ/mol
# GULP energy per Si atom -5574.404272 kJ/mol
# Density = 2.449053 g / cm^3
# Si number density = 24.546397 Si / 1000 Ang^3
#
#
#
# Elastic Constant Matrix: (Units=GPa)
#
#
# Indices 1 2 3 4 5 6 
#
# 1 58.0206 0.2835 54.5122 0.0000 -13.3912 0.0001
# 2 0.2835 95.9001 3.0552 -0.0001 0.3265 0.0001
# 3 54.5122 3.0552 120.3804 0.0000 -34.7314 0.0000
# 4 0.0000 -0.0001 0.0000 -15.3213 0.0000 6.4862
# 5 -13.3912 0.3265 -34.7314 0.0000 48.6510 0.0000
# 6 0.0001 0.0001 0.0000 6.4862 0.0000 -0.3912
#
#
#
# Elastic Compliance Matrix: (Units=1/GPa)
#
#
# Indices 1 2 3 4 5 6 
#
# 1 0.030139 0.000369 -0.014186 0.000000 -0.001834 0.000000
# 2 0.000369 0.010445 -0.000533 0.000000 -0.000349 0.000000
# 3 -0.014186 -0.000533 0.017152 0.000000 0.008343 0.000000
# 4 0.000000 0.000000 0.000000 0.010842 0.000000 0.179786
# 5 -0.001834 -0.000349 0.008343 0.000000 0.026008 0.000000
# 6 0.000000 0.000000 0.000000 0.179786 0.000000 0.424680
#
#
# Mechanical properties :
#
#
# Convention : Reuss Voigt Hill
#
# Bulk Modulus (GPa) = 34.44163 43.33367 38.88765
# Shear Modulus (GPa) = 8.96629 21.01773 14.99201
#
# Velocity S-wave (km/s) = 1.91330 2.92934 2.47404
# Velocity P-wave (km/s) = 4.35232 5.39754 4.90286
#
# Compressibility (1/GPa) = 0.02903463
#
# Stress axis : x y z
#
# Youngs Moduli (GPa) = 33.18005 95.74329 58.30328
#
# Poissons Ratio (x) = -0.03534 0.82711
# Poissons Ratio (y) = -0.01225 0.03107
# Poissons Ratio (z) = 0.47070 0.05102
#
# Static dielectric constant tensor:
#      x y z
#    x 1.946620 0.000000 0.011170 
#    y 0.000000 -7.545990 0.000000 
#    z 0.011170 0.000000 2.224260 
# 
# From -- ./inp_files/375912.got.cif
#   From: 2010.05.17/outbox.cif.g08.bks.cpg/sg12_188_cif.got.tgz:375912.got - 2010.06.03 13:09:07.
