data_PCOD9213515
_publ_section_title
;
Structure prediction by ZEFSAII (Michael W. Deem and Ramdas Pophale) SiO2 
 PCOD9213515
Probable space group: C 2/M
;
_chemical_formula_sum "Si O2"
_cell_formula_units_Z 44
_cell_length_a 14.810387
_cell_length_b 8.208566
_cell_length_c 16.756619
_cell_angle_alpha 90.000000
_cell_angle_beta 61.625293
_cell_angle_gamma 90.000000
_cell_volume 1792.391623
_symmetry_space_group_name_H-M "C 2/M"
_symmetry_group_IT_number 12
_symmetry_cell_setting 'monoclinic'
loop_
_space_group_symop_operation_xyz
x,y,z
-x,y,-z
-x,-y,-z
x,-y,z
1/2+x,1/2+y,z
1/2-x,1/2+y,-z
1/2-x,1/2-y,-z
1/2+x,1/2-y,z
loop_
_atom_site_type_symbol
_atom_site_label
_atom_site_fract_x
_atom_site_fract_y
_atom_site_fract_z
Si Si1 0.297492 0.816129 0.248749
Si Si2 0.000000 0.251842 0.500000
Si Si3 0.286760 0.188813 0.568540
Si Si4 0.104405 0.306671 0.123562
Si Si5 0.656426 0.307502 0.934992
Si Si6 0.945364 0.812036 0.688965
O O1 0.297757 0.706580 0.327345
O O2 0.361368 0.770731 0.143895
O O3 0.178173 0.803498 0.270555
O O4 0.320414 0.000000 0.262848
O O5 0.116686 0.194005 0.452820
O O6 0.005908 0.300677 0.401508
O O7 0.250000 0.250000 0.500000
O O8 0.323410 0.000000 0.553590
O O9 0.092663 0.500000 0.130287
O O10 0.224607 0.268060 0.092384
O O11 0.039865 0.234568 0.224546
O O12 0.090659 0.245651 0.038979
O O13 0.648188 0.500000 0.929241
O O14 0.978242 0.000000 0.660372
#
# Coordination Sequence:
#
# PCOD9213515 Si02
#       6
#     8   4   8   8   8   8
#     4   9  17  30  48  72 103 139 180 227 279 334
#     4  10  22  38  60  84 114 152 192 236 286 336
#     4  11  23  39  59  85 116 151 192 236 283 337
#     4   9  16  24  37  62  97 135 177 225 276 331
#     4   9  15  24  40  63  95 135 177 224 277 330
#     4   9  17  29  47  71 101 139 183 229 278 333
#
# _framework density 24.548207999999999
#
# number of rings (size 3 to 8) (size 9 to 14) (size 15 to 20)
#    0.000    2.545    0.000    2.727    0.000   11.636 
#    0.000    0.000    0.000    0.000    0.000    1.273 
#    0.000    8.727    0.000    0.727    0.000    0.182 
#
# Total GULP energy -122519.097105 kJ/mol
# GULP energy per Si atom -5569.049868 kJ/mol
# Density = 2.449234 g / cm^3
# Si number density = 24.548208 Si / 1000 Ang^3
#
#
#
# Elastic Constant Matrix: (Units=GPa)
#
#
# Indices 1 2 3 4 5 6 
#
# 1 34.9645 57.4681 -17.6687 0.0000 -16.7515 0.0000
# 2 57.4681 -116.7892 197.8198 0.0000 15.7794 0.0000
# 3 -17.6687 197.8198 138.6486 0.0000 19.9387 0.0000
# 4 0.0000 0.0000 0.0000 25.0616 0.0000 7.1280
# 5 -16.7515 15.7794 19.9387 0.0000 41.5002 0.0000
# 6 0.0000 0.0000 0.0000 7.1280 0.0000 -2.1074
#
#
#
# Elastic Compliance Matrix: (Units=1/GPa)
#
#
# Indices 1 2 3 4 5 6 
#
# 1 0.023484 0.004544 -0.004947 0.000000 0.010128 0.000000
# 2 0.004544 -0.001601 0.002698 0.000000 0.001147 0.000000
# 3 -0.004947 0.002698 0.003402 0.000000 -0.004657 0.000000
# 4 0.000000 0.000000 0.000000 0.020337 0.000000 0.068788
# 5 0.010128 0.001147 -0.004657 0.000000 0.029986 0.000000
# 6 0.000000 0.000000 0.000000 0.068788 0.000000 -0.241854
#
#
# Mechanical properties :
#
#
# Convention : Reuss Voigt Hill
#
# Bulk Modulus (GPa) = 33.47248 59.11803 46.29525
# Shear Modulus (GPa) = -31.07945 0.83786 -15.12079
#
# Velocity S-wave (km/s) = -3.56203 0.58485 -2.48455
# Velocity P-wave (km/s) = 1.80344 4.95891 3.26637
#
# Compressibility (1/GPa) = 0.02987529
#
# Stress axis : x y z
#
# Youngs Moduli (GPa) = 42.58212 -624.63758 293.96010
#
# Poissons Ratio (x) = 2.83848 1.45433
# Poissons Ratio (y) = -0.19350 -0.79321
# Poissons Ratio (z) = 0.21067 1.68550
#
# Static dielectric constant tensor:
#      x y z
#    x 2.042810 0.000000 0.031820 
#    y 0.000000 1.972180 0.000000 
#    z 0.031820 0.000000 1.998720 
# 
# From -- ./inp_files/279810.got.cif
#   From: 2010.05.17/outbox.cif.g08.bks.cpg/sg12_140_cif.got.tgz:279810.got - 2010.06.03 13:09:07.
