data_PCOD9213316
_publ_section_title
;
Structure prediction by ZEFSAII (Michael W. Deem and Ramdas Pophale) SiO2 
 PCOD9213316
Probable space group: C 2/M
;
_chemical_formula_sum "Si O2"
_cell_formula_units_Z 40
_cell_length_a 8.507795
_cell_length_b 23.035332
_cell_length_c 17.543584
_cell_angle_alpha 90.000000
_cell_angle_beta 149.741235
_cell_angle_gamma 90.000000
_cell_volume 1732.524742
_symmetry_space_group_name_H-M "C 2/M"
_symmetry_group_IT_number 12
_symmetry_cell_setting 'monoclinic'
loop_
_space_group_symop_operation_xyz
x,y,z
-x,y,-z
-x,-y,-z
x,-y,z
1/2+x,1/2+y,z
1/2-x,1/2+y,-z
1/2-x,1/2-y,-z
1/2+x,1/2-y,z
loop_
_atom_site_type_symbol
_atom_site_label
_atom_site_fract_x
_atom_site_fract_y
_atom_site_fract_z
Si Si1 0.655279 0.064259 0.869489
Si Si2 0.333218 0.114100 0.602595
Si Si3 0.849429 0.830791 0.161423
Si Si4 0.488439 0.569745 0.314338
Si Si5 0.308602 0.716783 0.839686
O O1 0.502370 0.064386 0.722137
O O2 0.362689 0.085228 0.799106
O O3 0.720900 0.000000 0.927267
O O4 0.000000 0.091644 0.000000
O O5 0.538484 0.170234 0.709784
O O6 0.000000 0.125645 0.500000
O O7 0.245149 0.091504 0.482330
O O8 0.030431 0.888970 0.258891
O O9 0.836393 0.781508 0.221277
O O10 0.965201 0.797445 0.135300
O O11 0.500000 0.849734 0.000000
O O12 0.502141 0.500000 0.309630
O O13 0.500000 0.712982 0.000000
#
# Coordination Sequence:
#
# PCOD9213316 Si02
#       5
#     8   8   8   8   8
#     4   9  18  34  64  99 133 181 235 280 331 398
#     4  10  22  37  68  99 139 180 221 280 339 403
#     4  11  26  44  74 102 135 180 225 289 344 398
#     4  10  23  44  66  99 145 186 226 280 343 404
#     4  11  25  46  73 103 132 177 231 283 344 406
#
# _framework density 23.087693999999999
#
# number of rings (size 3 to 8) (size 9 to 14) (size 15 to 20)
#    0.000    1.800    0.000    3.600   14.000    4.400 
#    0.000    3.000    0.000    0.600    0.000    0.000 
#    0.000    0.000    0.000    0.000    0.000    0.000 
#
# Total GULP energy -111468.111651 kJ/mol
# GULP energy per Si atom -5573.405583 kJ/mol
# Density = 2.303514 g / cm^3
# Si number density = 23.087694 Si / 1000 Ang^3
#
#
#
# Elastic Constant Matrix: (Units=GPa)
#
#
# Indices 1 2 3 4 5 6 
#
# 1 74.6789 28.8689 52.2667 0.0000 -5.5384 -0.0001
# 2 28.8689 161.7383 59.7233 0.0017 -16.1261 0.0008
# 3 52.2667 59.7233 106.4584 -0.0133 18.7435 -0.0111
# 4 0.0000 0.0017 -0.0133 12.7947 -0.0006 -17.7074
# 5 -5.5384 -16.1261 18.7435 -0.0006 35.3097 -0.0002
# 6 -0.0001 0.0008 -0.0111 -17.7074 -0.0002 11.4719
#
#
#
# Elastic Compliance Matrix: (Units=1/GPa)
#
#
# Indices 1 2 3 4 5 6 
#
# 1 0.024568 0.002947 -0.016138 0.000033 0.013766 0.000036
# 2 0.002947 0.009782 -0.008607 0.000019 0.009498 0.000021
# 3 -0.016138 -0.008607 0.025683 -0.000054 -0.020096 -0.000059
# 4 0.000033 0.000019 -0.000054 -0.068788 0.000041 -0.106177
# 5 0.013766 0.009498 -0.020096 0.000041 0.045486 0.000044
# 6 0.000036 0.000021 -0.000059 -0.106177 0.000044 -0.076719
#
#
# Mechanical properties :
#
#
# Convention : Reuss Voigt Hill
#
# Bulk Modulus (GPa) = 60.84320 69.39928 65.12124
# Shear Modulus (GPa) = 550.23391 25.38303 287.80847
#
# Velocity S-wave (km/s) = 15.45448 3.31934 11.17718
# Velocity P-wave (km/s) = 18.57053 6.69440 13.95851
#
# Compressibility (1/GPa) = 0.01643569
#
# Stress axis : x y z
#
# Youngs Moduli (GPa) = 40.70407 102.22810 38.93597
#
# Poissons Ratio (x) = -0.30124 0.62837
# Poissons Ratio (y) = -0.11994 0.33511
# Poissons Ratio (z) = 0.65690 0.87986
#
# Static dielectric constant tensor:
#      x y z
#    x 1.951800 0.000000 0.026330 
#    y 0.000000 1.898650 0.000000 
#    z 0.026330 0.000000 1.874030 
# 
# From -- ./inp_files/259347.got.cif
#   From: 2010.05.17/outbox.cif.g08.bks.cpg/sg12_130_cif.got.tgz:259347.got - 2010.06.03 13:09:07.
