data_PCOD9213395
_publ_section_title
;
Structure prediction by ZEFSAII (Michael W. Deem and Ramdas Pophale) SiO2 
 PCOD9213395
Probable space group: C 2/M
;
_chemical_formula_sum "Si O2"
_cell_formula_units_Z 64
_cell_length_a 9.960713
_cell_length_b 27.637096
_cell_length_c 20.657550
_cell_angle_alpha 90.000000
_cell_angle_beta 136.993974
_cell_angle_gamma 90.000000
_cell_volume 3878.769336
_symmetry_space_group_name_H-M "C 2/M"
_symmetry_group_IT_number 12
_symmetry_cell_setting 'monoclinic'
loop_
_space_group_symop_operation_xyz
x,y,z
-x,y,-z
-x,-y,-z
x,-y,z
1/2+x,1/2+y,z
1/2-x,1/2+y,-z
1/2-x,1/2-y,-z
1/2+x,1/2-y,z
loop_
_atom_site_type_symbol
_atom_site_label
_atom_site_fract_x
_atom_site_fract_y
_atom_site_fract_z
Si Si1 0.320987 0.204119 0.984615
Si Si2 0.465876 0.152121 0.825988
Si Si3 0.173363 0.202091 0.509382
Si Si4 0.050735 0.701979 0.721396
Si Si5 0.006746 0.945182 0.112439
Si Si6 0.977778 0.818001 0.311910
Si Si7 0.671561 0.054338 0.888722
Si Si8 0.566501 0.653531 0.206527
O O1 0.135338 0.181493 0.882323
O O2 0.500000 0.217104 0.000000
O O3 0.250000 0.250000 0.000000
O O4 0.406260 0.166777 0.066909
O O5 0.523140 0.186672 0.786038
O O6 0.239278 0.160233 0.761862
O O7 0.516716 0.097001 0.827778
O O8 0.250000 0.250000 0.500000
O O9 0.361623 0.182402 0.614623
O O10 0.000000 0.212561 0.500000
O O11 0.081676 0.172784 0.417364
O O12 0.046526 0.760067 0.709832
O O13 0.252255 0.679197 0.766117
O O14 0.039722 0.901527 0.173478
O O15 0.177953 0.942392 0.118524
O O16 0.008564 0.000000 0.140122
O O17 0.805471 0.939249 0.000306
O O18 0.094817 0.840105 0.293008
O O19 0.589102 0.000000 0.860970
#
# Coordination Sequence:
#
# PCOD9213395 Si02
#       8
#     8   8   8   8   8   8   8   8
#     4  12  26  37  50  76 120 160 190 219 266 332
#     4  12  21  36  56  80 113 151 187 226 277 331
#     4  10  22  38  57  81 110 148 190 238 280 323
#     4  11  23  37  58  82 112 153 191 228 275 335
#     4   9  18  35  55  79 109 145 191 241 274 320
#     4  11  23  37  54  80 119 148 184 233 275 335
#     4   9  18  34  56  80 107 145 194 238 274 322
#     4  12  23  36  55  84 113 152 190 226 280 334
#
# _framework density 16.500078999999999
#
# number of rings (size 3 to 8) (size 9 to 14) (size 15 to 20)
#    0.000    1.250    5.000    3.000    7.000    0.000 
#    0.000    0.625    0.000    2.250    0.000    5.250 
#    0.000    0.000    0.000    0.000    0.000    0.000 
#
# Total GULP energy -178593.261295 kJ/mol
# GULP energy per Si atom -5581.039415 kJ/mol
# Density = 1.646252 g / cm^3
# Si number density = 16.500079 Si / 1000 Ang^3
#
#
#
# Elastic Constant Matrix: (Units=GPa)
#
#
# Indices 1 2 3 4 5 6 
#
# 1 85.2660 21.9152 16.8831 0.0000 -6.8132 0.0000
# 2 21.9152 102.6877 13.4196 0.0000 -0.0696 0.0000
# 3 16.8831 13.4196 67.2688 0.0000 -3.1929 0.0000
# 4 0.0000 0.0000 0.0000 8.3521 0.0000 0.0896
# 5 -6.8132 -0.0696 -3.1929 0.0000 29.5657 0.0000
# 6 0.0000 0.0000 0.0000 0.0896 0.0000 15.4067
#
#
#
# Elastic Compliance Matrix: (Units=1/GPa)
#
#
# Indices 1 2 3 4 5 6 
#
# 1 0.013103 -0.002445 -0.002671 0.000000 0.002725 0.000000
# 2 -0.002445 0.010456 -0.001506 0.000000 -0.000702 0.000000
# 3 -0.002671 -0.001506 0.015889 0.000000 0.001097 0.000000
# 4 0.000000 0.000000 0.000000 0.119739 0.000000 -0.000697
# 5 0.002725 -0.000702 0.001097 0.000000 0.034568 0.000000
# 6 0.000000 0.000000 0.000000 -0.000697 0.000000 0.064911
#
#
# Mechanical properties :
#
#
# Convention : Reuss Voigt Hill
#
# Bulk Modulus (GPa) = 38.16292 39.96203 39.06247
# Shear Modulus (GPa) = 17.81611 24.19852 21.00732
#
# Velocity S-wave (km/s) = 3.28953 3.83374 3.57201
# Velocity P-wave (km/s) = 6.13247 6.62334 6.38262
#
# Compressibility (1/GPa) = 0.02620345
#
# Stress axis : x y z
#
# Youngs Moduli (GPa) = 76.31685 95.63485 62.93816
#
# Poissons Ratio (x) = 0.23387 0.16814
# Poissons Ratio (y) = 0.18663 0.09475
# Poissons Ratio (z) = 0.20388 0.14398
#
# Static dielectric constant tensor:
#      x y z
#    x 1.553280 0.000000 -0.008850 
#    y 0.000000 1.635530 0.000000 
#    z -0.008850 0.000000 1.582550 
# 
# From -- ./inp_files/302648.got.cif
#   From: 2010.05.17/outbox.cif.g08.bks.cpg/sg12_152_cif.got.tgz:302648.got - 2010.06.03 13:09:07.
