data_PCOD9213437
_publ_section_title
;
Structure prediction by ZEFSAII (Michael W. Deem and Ramdas Pophale) SiO2 
 PCOD9213437
Probable space group: C 2/M
;
_chemical_formula_sum "Si O2"
_cell_formula_units_Z 56
_cell_length_a 29.074708
_cell_length_b 8.028975
_cell_length_c 17.612844
_cell_angle_alpha 90.000000
_cell_angle_beta 139.619339
_cell_angle_gamma 90.000000
_cell_volume 2663.716585
_symmetry_space_group_name_H-M "C 2/M"
_symmetry_group_IT_number 12
_symmetry_cell_setting 'monoclinic'
loop_
_space_group_symop_operation_xyz
x,y,z
-x,y,-z
-x,-y,-z
x,-y,z
1/2+x,1/2+y,z
1/2-x,1/2+y,-z
1/2-x,1/2-y,-z
1/2+x,1/2-y,z
loop_
_atom_site_type_symbol
_atom_site_label
_atom_site_fract_x
_atom_site_fract_y
_atom_site_fract_z
Si Si1 0.160961 0.700416 0.539731
Si Si2 0.913878 0.701500 0.702854
Si Si3 0.011622 0.298712 0.428360
Si Si4 0.079879 0.296130 0.118245
Si Si5 0.783259 0.310639 0.963545
Si Si6 0.937967 0.193466 0.185969
Si Si7 0.786801 0.699177 0.804459
O O1 0.166910 0.500000 0.546388
O O2 0.143076 0.758080 0.431712
O O3 0.090688 0.744068 0.499712
O O4 0.229248 0.770369 0.667126
O O5 0.914142 0.500000 0.701929
O O6 0.900125 0.756354 0.771256
O O7 0.991972 0.756153 0.773052
O O8 0.004719 0.500000 0.416131
O O9 0.000000 0.244797 0.500000
O O10 0.957875 0.224968 0.299045
O O11 0.080222 0.500000 0.117511
O O12 0.137404 0.236558 0.129806
O O13 0.000000 0.242576 0.000000
O O14 0.759536 0.500000 0.929246
O O15 0.868448 0.295873 0.076456
O O16 0.750000 0.250000 0.000000
O O17 0.764258 0.229644 0.858227
O O18 0.922298 0.000000 0.154281
O O19 0.794654 0.500000 0.823402
#
# Coordination Sequence:
#
# PCOD9213437 Si02
#       7
#     8   8   8   8   8   8   8
#     4   9  19  34  53  81 117 153 187 228 283 344
#     4   9  18  36  60  84 113 153 195 231 277 342
#     4   9  19  36  58  82 108 149 195 235 282 341
#     4   9  17  33  60  87 110 145 195 242 284 336
#     4  11  24  41  59  81 112 152 194 239 293 351
#     4  11  22  36  56  85 115 146 186 236 289 339
#     4  10  22  38  58  85 114 146 190 243 291 341
#
# _framework density 21.023257999999998
#
# number of rings (size 3 to 8) (size 9 to 14) (size 15 to 20)
#    0.000    2.286    0.000    3.429    2.000    6.571 
#    0.000    0.714    0.000    1.714    0.000    0.000 
#    0.000    0.000    0.000    0.000    0.000    0.000 
#
# Total GULP energy -156336.277655 kJ/mol
# GULP energy per Si atom -5583.438488 kJ/mol
# Density = 2.097541 g / cm^3
# Si number density = 21.023258 Si / 1000 Ang^3
#
#
#
# Elastic Constant Matrix: (Units=GPa)
#
#
# Indices 1 2 3 4 5 6 
#
# 1 120.5218 15.7929 50.8197 0.0000 -34.1993 0.0000
# 2 15.7929 12.8200 -5.3412 0.0000 -7.4724 0.0000
# 3 50.8197 -5.3412 88.9565 0.0000 -12.9118 0.0000
# 4 0.0000 0.0000 0.0000 25.5660 0.0000 0.7024
# 5 -34.1993 -7.4724 -12.9118 0.0000 29.0424 0.0000
# 6 0.0000 0.0000 0.0000 0.7024 0.0000 11.0365
#
#
#
# Elastic Compliance Matrix: (Units=1/GPa)
#
#
# Indices 1 2 3 4 5 6 
#
# 1 0.018674 -0.019993 -0.010074 0.000000 0.012367 0.000000
# 2 -0.019993 0.121450 0.021200 0.000000 0.017130 0.000000
# 3 -0.010074 0.021200 0.018535 0.000000 0.001833 0.000000
# 4 0.000000 0.000000 0.000000 0.039183 0.000000 -0.002494
# 5 0.012367 0.017130 0.001833 0.000000 0.054218 0.000000
# 6 0.000000 0.000000 0.000000 -0.002494 0.000000 0.090768
#
#
# Mechanical properties :
#
#
# Convention : Reuss Voigt Hill
#
# Bulk Modulus (GPa) = 7.09588 38.31569 22.70579
# Shear Modulus (GPa) = 12.26884 23.86409 18.06647
#
# Velocity S-wave (km/s) = 2.41837 3.37282 2.93466
# Velocity P-wave (km/s) = 3.34374 5.78211 4.72300
#
# Compressibility (1/GPa) = 0.14092676
#
# Stress axis : x y z
#
# Youngs Moduli (GPa) = 53.54984 8.23385 53.95093
#
# Poissons Ratio (x) = 0.16462 0.54348
# Poissons Ratio (y) = 1.07063 -1.14378
# Poissons Ratio (z) = 0.53944 -0.17456
#
# Static dielectric constant tensor:
#      x y z
#    x 1.768450 0.000000 -0.035850 
#    y 0.000000 1.755680 0.000000 
#    z -0.035850 0.000000 1.739700 
# 
# From -- ./inp_files/292565.got.cif
#   From: 2010.05.17/outbox.cif.g08.bks.cpg/sg12_147_cif.got.tgz:292565.got - 2010.06.03 13:09:07.
