data_PCOD9213184
_publ_section_title
;
Structure prediction by ZEFSAII (Michael W. Deem and Ramdas Pophale) SiO2 
 PCOD9213184
Probable space group: C 2/M
;
_chemical_formula_sum "Si O2"
_cell_formula_units_Z 56
_cell_length_a 9.197808
_cell_length_b 29.245034
_cell_length_c 17.339328
_cell_angle_alpha 90.000000
_cell_angle_beta 39.682087
_cell_angle_gamma 90.000000
_cell_volume 2978.160930
_symmetry_space_group_name_H-M "C 2/M"
_symmetry_group_IT_number 12
_symmetry_cell_setting 'monoclinic'
loop_
_space_group_symop_operation_xyz
x,y,z
-x,y,-z
-x,-y,-z
x,-y,z
1/2+x,1/2+y,z
1/2-x,1/2+y,-z
1/2-x,1/2-y,-z
1/2+x,1/2-y,z
loop_
_atom_site_type_symbol
_atom_site_label
_atom_site_fract_x
_atom_site_fract_y
_atom_site_fract_z
Si Si1 0.236541 0.870396 0.603212
Si Si2 0.011310 0.191167 0.815691
Si Si3 0.277819 0.643339 0.037882
Si Si4 0.710739 0.700918 0.473933
Si Si5 0.118228 0.550537 0.067092
Si Si6 0.856155 0.280380 0.800604
Si Si7 0.885980 0.051300 0.800399
O O1 0.500000 0.885729 0.500000
O O2 0.196513 0.834587 0.688863
O O3 0.191128 0.840497 0.543841
O O4 0.056297 0.910954 0.695574
O O5 0.135677 0.215315 0.836731
O O6 0.896010 0.228608 0.809076
O O7 0.842528 0.154651 0.923324
O O8 0.144192 0.596596 0.104291
O O9 0.161189 0.688745 0.116786
O O10 0.500000 0.638016 0.000000
O O11 0.500000 0.702894 0.500000
O O12 0.750000 0.750000 0.500000
O O13 0.936988 0.697787 0.330856
O O14 0.146460 0.500000 0.091468
O O15 0.863817 0.552617 0.136801
O O16 0.311547 0.554468 0.921047
O O17 0.980546 0.000000 0.749746
#
# Coordination Sequence:
#
# PCOD9213184 Si02
#       7
#     8   8   8   8   8   8   8
#     4  12  23  39  63  87 122 159 203 248 295 357
#     4  11  22  39  56  86 116 161 199 245 297 345
#     4  10  22  37  57  87 124 154 193 248 304 359
#     4  12  24  38  57  85 117 160 202 242 287 348
#     4   9  18  37  63  91 117 147 194 247 304 361
#     4  11  23  38  56  80 125 157 202 242 290 350
#     4   9  20  38  63  91 116 148 195 249 301 358
#
# _framework density 18.803549
#
# number of rings (size 3 to 8) (size 9 to 14) (size 15 to 20)
#    0.000    1.429    4.286    2.571    2.000    0.571 
#    0.000    0.000    0.000    1.286    0.000    0.000 
#    0.000    0.000    0.000    0.000    0.000    0.000 
#
# Total GULP energy -156051.913998 kJ/mol
# GULP energy per Si atom -5573.282643 kJ/mol
# Density = 1.876075 g / cm^3
# Si number density = 18.803549 Si / 1000 Ang^3
#
#
#
# Elastic Constant Matrix: (Units=GPa)
#
#
# Indices 1 2 3 4 5 6 
#
# 1 51.1526 32.5125 15.9593 0.0000 -0.6369 0.0000
# 2 32.5125 115.0656 29.7412 0.0000 -14.1974 0.0000
# 3 15.9593 29.7412 72.6890 0.0000 -0.7990 0.0000
# 4 0.0000 0.0000 0.0000 22.7653 0.0000 -3.6009
# 5 -0.6369 -14.1974 -0.7990 0.0000 18.6847 0.0000
# 6 0.0000 0.0000 0.0000 -3.6009 0.0000 20.0177
#
#
#
# Elastic Compliance Matrix: (Units=1/GPa)
#
#
# Indices 1 2 3 4 5 6 
#
# 1 0.024669 -0.006831 -0.002670 0.000000 -0.004464 0.000000
# 2 -0.006831 0.012691 -0.003591 0.000000 0.009257 0.000000
# 3 -0.002670 -0.003591 0.015789 0.000000 -0.002145 0.000000
# 4 0.000000 0.000000 0.000000 0.045213 0.000000 0.008133
# 5 -0.004464 0.009257 -0.002145 0.000000 0.060310 0.000000
# 6 0.000000 0.000000 0.000000 0.008133 0.000000 0.051419
#
#
# Mechanical properties :
#
#
# Convention : Reuss Voigt Hill
#
# Bulk Modulus (GPa) = 37.08591 43.92590 40.50591
# Shear Modulus (GPa) = 20.38625 23.00649 21.69637
#
# Velocity S-wave (km/s) = 3.29625 3.50168 3.40051
# Velocity P-wave (km/s) = 5.85257 6.30556 6.08329
#
# Compressibility (1/GPa) = 0.02696442
#
# Stress axis : x y z
#
# Youngs Moduli (GPa) = 40.53751 78.79502 63.33397
#
# Poissons Ratio (x) = 0.53823 0.16912
# Poissons Ratio (y) = 0.27690 0.22744
# Poissons Ratio (z) = 0.10825 0.28297
#
# Static dielectric constant tensor:
#      x y z
#    x 1.724290 0.000000 0.064960 
#    y 0.000000 1.682810 0.000000 
#    z 0.064960 0.000000 1.734300 
# 
# From -- ./inp_files/125345.got.cif
#   From: 2010.05.17/outbox.cif.g08.bks.cpg/sg12_63_cif.got.tgz:125345.got - 2010.06.03 13:09:07.
