data_PCOD9213755
_publ_section_title
;
Structure prediction by ZEFSAII (Michael W. Deem and Ramdas Pophale) SiO2 
 PCOD9213755
Probable space group: C 2/M
;
_chemical_formula_sum "Si O2"
_cell_formula_units_Z 34
_cell_length_a 12.452398
_cell_length_b 18.578005
_cell_length_c 16.070124
_cell_angle_alpha 90.000000
_cell_angle_beta 28.115543
_cell_angle_gamma 90.000000
_cell_volume 1751.958169
_symmetry_space_group_name_H-M "C 2/M"
_symmetry_group_IT_number 12
_symmetry_cell_setting 'monoclinic'
loop_
_space_group_symop_operation_xyz
x,y,z
-x,y,-z
-x,-y,-z
x,-y,z
1/2+x,1/2+y,z
1/2-x,1/2+y,-z
1/2-x,1/2-y,-z
1/2+x,1/2-y,z
loop_
_atom_site_type_symbol
_atom_site_label
_atom_site_fract_x
_atom_site_fract_y
_atom_site_fract_z
Si Si1 0.343322 0.114444 0.465381
Si Si2 0.132629 0.153363 0.148393
Si Si3 0.133757 0.500000 0.994537
Si Si4 0.000000 0.500000 0.500000
Si Si5 0.278311 0.698844 0.101624
Si Si6 0.275798 0.500000 0.593470
O O1 0.437691 0.061847 0.472206
O O2 0.549363 0.163680 0.293217
O O3 0.243851 0.068433 0.455108
O O4 0.133363 0.157438 0.648485
O O5 0.256507 0.214668 0.117384
O O6 0.215582 0.071972 0.105037
O O7 0.185020 0.173149 0.017623
O O8 0.000000 0.500000 0.000000
O O9 0.948324 0.500000 0.195108
O O10 0.500000 0.674787 0.000000
O O11 0.500000 0.500000 0.500000
#
# Coordination Sequence:
#
# PCOD9213755 Si02
#       6
#     8   8   4   2   8   4
#     4  11  22  44  64 100 136 169 224 272 334 397
#     4  11  24  42  65  96 131 175 221 274 332 400
#     4  12  22  42  67  93 130 170 221 276 332 389
#     4  10  22  38  70  98 130 170 218 268 332 400
#     4  11  24  42  66  95 135 174 224 272 337 400
#     4  11  23  40  64  99 130 176 220 270 329 395
#
# _framework density 19.406856000000001
#
# number of rings (size 3 to 8) (size 9 to 14) (size 15 to 20)
#    0.000    0.941    2.353    5.647    0.000    0.000 
#    0.000    2.941    0.000    0.000    0.000    0.000 
#    0.000    0.000    0.000    0.000    0.000    0.000 
#
# Total GULP energy -94724.591827 kJ/mol
# GULP energy per Si atom -5572.034813 kJ/mol
# Density = 1.936268 g / cm^3
# Si number density = 19.406856 Si / 1000 Ang^3
#
#
#
# Elastic Constant Matrix: (Units=GPa)
#
#
# Indices 1 2 3 4 5 6 
#
# 1 113.8788 45.6882 37.7073 -0.0073 -3.5109 -0.0146
# 2 45.6882 112.2519 39.7098 -0.0095 -12.0741 -0.0504
# 3 37.7073 39.7098 166.2861 -0.0597 -7.8115 -0.0380
# 4 -0.0073 -0.0095 -0.0597 -23.4191 0.0259 -7.6543
# 5 -3.5109 -12.0741 -7.8115 0.0259 28.4614 0.0210
# 6 -0.0146 -0.0504 -0.0380 -7.6543 0.0210 7.0881
#
#
#
# Elastic Compliance Matrix: (Units=1/GPa)
#
#
# Indices 1 2 3 4 5 6 
#
# 1 0.010858 -0.003952 -0.001554 0.000004 -0.000764 -0.000008
# 2 -0.003952 0.011533 -0.001673 -0.000009 0.003946 0.000043
# 3 -0.001554 -0.001673 0.006811 -0.000016 0.000968 0.000002
# 4 0.000004 -0.000009 -0.000016 -0.031561 0.000046 -0.034082
# 5 -0.000764 0.003946 0.000968 0.000046 0.036981 -0.000028
# 6 -0.000008 0.000043 0.000002 -0.034082 -0.000028 0.104277
#
#
# Mechanical properties :
#
#
# Convention : Reuss Voigt Hill
#
# Bulk Modulus (GPa) = 67.36392 70.95862 69.16127
# Shear Modulus (GPa) = 31.60464 20.38018 25.99241
#
# Velocity S-wave (km/s) = 4.03988 3.24412 3.66367
# Velocity P-wave (km/s) = 7.51982 7.11867 7.32199
#
# Compressibility (1/GPa) = 0.01484474
#
# Stress axis : x y z
#
# Youngs Moduli (GPa) = 92.09999 86.70714 146.81881
#
# Poissons Ratio (x) = 0.34263 0.22821
# Poissons Ratio (y) = 0.36394 0.24558
# Poissons Ratio (z) = 0.14316 0.14504
#
# Static dielectric constant tensor:
#      x y z
#    x 1.648900 0.000000 0.000320 
#    y 0.000000 1.700770 0.000000 
#    z 0.000320 0.000000 1.661400 
# 
# From -- ./inp_files/206530.got.cif
#   From: 2010.05.17/outbox.cif.g08.bks.cpg/sg12_104_cif.got.tgz:206530.got - 2010.06.03 13:09:07.
