data_PCOD9213620
_publ_section_title
;
Structure prediction by ZEFSAII (Michael W. Deem and Ramdas Pophale) SiO2 
 PCOD9213620
Probable space group: C 2/M
;
_chemical_formula_sum "Si O2"
_cell_formula_units_Z 28
_cell_length_a 17.564090
_cell_length_b 9.708768
_cell_length_c 12.044412
_cell_angle_alpha 90.000000
_cell_angle_beta 34.909867
_cell_angle_gamma 90.000000
_cell_volume 1175.409889
_symmetry_space_group_name_H-M "C 2/M"
_symmetry_group_IT_number 12
_symmetry_cell_setting 'monoclinic'
loop_
_space_group_symop_operation_xyz
x,y,z
-x,y,-z
-x,-y,-z
x,-y,z
1/2+x,1/2+y,z
1/2-x,1/2+y,-z
1/2-x,1/2-y,-z
1/2+x,1/2-y,z
loop_
_atom_site_type_symbol
_atom_site_label
_atom_site_fract_x
_atom_site_fract_y
_atom_site_fract_z
Si Si1 0.000000 0.241238 0.500000
Si Si2 0.256737 0.849596 0.662125
Si Si3 0.376794 0.343567 0.871620
Si Si4 0.070299 0.656142 0.771662
O O1 0.130255 0.327127 0.380376
O O2 0.038066 0.158267 0.344257
O O3 0.156520 0.722217 0.767472
O O4 0.335304 0.853177 0.450472
O O5 0.192358 0.000000 0.752259
O O6 0.343446 0.500000 0.939408
O O7 0.460587 0.266108 0.865443
O O8 0.250000 0.250000 0.000000
O O9 0.022861 0.500000 0.848289
#
# Coordination Sequence:
#
# PCOD9213620 Si02
#       4
#     4   8   8   8
#     4  10  22  38  62  90 120 154 196 242 292 348
#     4   9  17  31  55  85 116 153 195 239 289 345
#     4  11  23  40  62  88 119 155 196 242 293 349
#     4   9  18  33  54  82 117 155 194 238 290 347
#
# _framework density 23.821477999999999
#
# number of rings (size 3 to 8) (size 9 to 14) (size 15 to 20)
#    0.000    2.286    0.000    2.571    0.000   11.429 
#    0.000    1.429    0.000    6.857    0.000    0.000 
#    0.000    0.000    0.000    0.000    0.000    0.000 
#
# Total GULP energy -78298.014579 kJ/mol
# GULP energy per Si atom -5592.715327 kJ/mol
# Density = 2.376726 g / cm^3
# Si number density = 23.821478 Si / 1000 Ang^3
#
#
#
# Elastic Constant Matrix: (Units=GPa)
#
#
# Indices 1 2 3 4 5 6 
#
# 1 143.7966 72.7432 26.7370 0.0000 -11.7864 0.0000
# 2 72.7432 248.5993 30.6499 0.0000 -37.0960 0.0000
# 3 26.7370 30.6499 60.6829 0.0000 15.7050 0.0000
# 4 0.0000 0.0000 0.0000 24.6979 0.0000 -15.9522
# 5 -11.7864 -37.0960 15.7050 0.0000 61.4541 0.0000
# 6 0.0000 0.0000 0.0000 -15.9522 0.0000 12.9844
#
#
#
# Elastic Compliance Matrix: (Units=1/GPa)
#
#
# Indices 1 2 3 4 5 6 
#
# 1 0.008630 -0.001944 -0.003153 0.000000 0.001287 0.000000
# 2 -0.001944 0.005494 -0.002870 0.000000 0.003677 0.000000
# 3 -0.003153 -0.002870 0.021334 0.000000 -0.007789 0.000000
# 4 0.000000 0.000000 0.000000 0.196096 0.000000 0.240916
# 5 0.001287 0.003677 -0.007789 0.000000 0.020729 0.000000
# 6 0.000000 0.000000 0.000000 0.240916 0.000000 0.372997
#
#
# Mechanical properties :
#
#
# Convention : Reuss Voigt Hill
#
# Bulk Modulus (GPa) = 51.22301 79.25990 65.24145
# Shear Modulus (GPa) = 7.71937 41.35718 24.53827
#
# Velocity S-wave (km/s) = 1.80209 4.17121 3.21298
# Velocity P-wave (km/s) = 5.08720 7.51953 6.41962
#
# Compressibility (1/GPa) = 0.01952248
#
# Stress axis : x y z
#
# Youngs Moduli (GPa) = 115.87921 182.01883 46.87379
#
# Poissons Ratio (x) = 0.35389 0.14781
# Poissons Ratio (y) = 0.22530 0.13452
# Poissons Ratio (z) = 0.36541 0.52236
#
# Static dielectric constant tensor:
#      x y z
#    x 1.874910 0.000000 0.039410 
#    y 0.000000 1.837160 0.000000 
#    z 0.039410 0.000000 2.001650 
# 
# From -- ./inp_files/138514.got.cif
#   From: 2010.05.17/outbox.cif.g08.bks.cpg/sg12_70_cif.got.tgz:138514.got - 2010.06.03 13:09:07.
