data_PCOD9213753
_publ_section_title
;
Structure prediction by ZEFSAII (Michael W. Deem and Ramdas Pophale) SiO2 
 PCOD9213753
Probable space group: C 2/M
;
_chemical_formula_sum "Si O2"
_cell_formula_units_Z 28
_cell_length_a 10.294202
_cell_length_b 20.062236
_cell_length_c 13.612459
_cell_angle_alpha 90.000000
_cell_angle_beta 30.208263
_cell_angle_gamma 90.000000
_cell_volume 1414.494972
_symmetry_space_group_name_H-M "C 2/M"
_symmetry_group_IT_number 12
_symmetry_cell_setting 'monoclinic'
loop_
_space_group_symop_operation_xyz
x,y,z
-x,y,-z
-x,-y,-z
x,-y,z
1/2+x,1/2+y,z
1/2-x,1/2+y,-z
1/2-x,1/2-y,-z
1/2+x,1/2-y,z
loop_
_atom_site_type_symbol
_atom_site_label
_atom_site_fract_x
_atom_site_fract_y
_atom_site_fract_z
Si Si1 0.000000 0.262884 0.000000
Si Si2 0.847735 0.392098 0.189491
Si Si3 0.527130 0.795007 0.597289
Si Si4 0.258930 0.423817 0.525200
O O1 0.959115 0.316509 0.115142
O O2 0.741369 0.220237 0.171828
O O3 0.547970 0.395518 0.354538
O O4 0.868685 0.422282 0.282990
O O5 0.000000 0.425126 0.000000
O O6 0.500000 0.778676 0.500000
O O7 0.750000 0.750000 0.500000
O O8 0.610012 0.871688 0.555385
O O9 0.272132 0.500000 0.482028
#
# Coordination Sequence:
#
# PCOD9213753 Si02
#       4
#     4   8   8   8
#     4  10  22  38  70  94 122 166 224 264 316 368
#     4   9  19  38  64  95 122 165 218 267 308 368
#     4  12  25  44  67  96 132 170 217 270 320 381
#     4  11  23  39  61  94 133 169 209 262 323 387
#
# _framework density 19.795051000000001
#
# number of rings (size 3 to 8) (size 9 to 14) (size 15 to 20)
#    0.857    0.571    2.857    3.429    0.000    9.714 
#    0.000    0.714    0.000    0.000    0.000    0.000 
#    0.000    0.000    0.000    0.000    0.000    0.000 
#
# Total GULP energy -78059.394462 kJ/mol
# GULP energy per Si atom -5575.671033 kJ/mol
# Density = 1.975000 g / cm^3
# Si number density = 19.795051 Si / 1000 Ang^3
#
#
#
# Elastic Constant Matrix: (Units=GPa)
#
#
# Indices 1 2 3 4 5 6 
#
# 1 97.7492 45.7053 46.2089 0.0046 -3.5136 -0.0075
# 2 45.7053 108.1073 34.8741 -0.0273 -15.4242 0.0181
# 3 46.2089 34.8741 128.6921 -0.0022 -8.3713 0.0143
# 4 0.0046 -0.0273 -0.0022 -48.4810 0.0113 27.2212
# 5 -3.5136 -15.4242 -8.3713 0.0113 25.8972 -0.0039
# 6 -0.0075 0.0181 0.0143 27.2212 -0.0039 -10.9313
#
#
#
# Elastic Compliance Matrix: (Units=1/GPa)
#
#
# Indices 1 2 3 4 5 6 
#
# 1 0.014420 -0.005170 -0.003933 0.000022 -0.002394 0.000033
# 2 -0.005170 0.012743 -0.001174 -0.000014 0.006509 -0.000014
# 3 -0.003933 -0.001174 0.009623 -0.000019 0.001878 -0.000034
# 4 0.000022 -0.000014 -0.000019 0.051799 -0.000015 0.128990
# 5 -0.002394 0.006509 0.001878 -0.000015 0.042773 -0.000037
# 6 0.000033 -0.000014 -0.000034 0.128990 -0.000037 0.229731
#
#
# Mechanical properties :
#
#
# Convention : Reuss Voigt Hill
#
# Bulk Modulus (GPa) = 61.59734 65.34723 63.47229
# Shear Modulus (GPa) = 12.91817 7.14766 10.03291
#
# Velocity S-wave (km/s) = 2.55737 1.90228 2.25375
# Velocity P-wave (km/s) = 6.31706 6.15698 6.23754
#
# Compressibility (1/GPa) = 0.01623447
#
# Stress axis : x y z
#
# Youngs Moduli (GPa) = 69.34578 78.47538 103.92004
#
# Poissons Ratio (x) = 0.40568 0.40869
# Poissons Ratio (y) = 0.35848 0.12196
# Poissons Ratio (z) = 0.27272 0.09210
#
# Static dielectric constant tensor:
#      x y z
#    x 1.676530 -0.000010 0.020680 
#    y -0.000010 1.741510 0.000000 
#    z 0.020680 0.000000 1.710810 
# 
# From -- ./inp_files/206893.got.cif
#   From: 2010.05.17/outbox.cif.g08.bks.cpg/sg12_104_cif.got.tgz:206893.got - 2010.06.03 13:09:07.
