data_PCOD9213278
_publ_section_title
;
Structure prediction by ZEFSAII (Michael W. Deem and Ramdas Pophale) SiO2 
 PCOD9213278
Probable space group: C 2/M
;
_chemical_formula_sum "Si O2"
_cell_formula_units_Z 40
_cell_length_a 8.461884
_cell_length_b 18.338051
_cell_length_c 14.186998
_cell_angle_alpha 90.000000
_cell_angle_beta 58.638747
_cell_angle_gamma 90.000000
_cell_volume 1879.832963
_symmetry_space_group_name_H-M "C 2/M"
_symmetry_group_IT_number 12
_symmetry_cell_setting 'monoclinic'
loop_
_space_group_symop_operation_xyz
x,y,z
-x,y,-z
-x,-y,-z
x,-y,z
1/2+x,1/2+y,z
1/2-x,1/2+y,-z
1/2-x,1/2-y,-z
1/2+x,1/2-y,z
loop_
_atom_site_type_symbol
_atom_site_label
_atom_site_fract_x
_atom_site_fract_y
_atom_site_fract_z
Si Si1 0.183282 0.000000 0.314183
Si Si2 0.000000 0.645692 0.000000
Si Si3 0.217662 0.172780 0.952884
Si Si4 0.517853 0.793154 0.299609
Si Si5 0.252069 0.500000 0.493238
Si Si6 0.000000 0.627134 0.500000
Si Si7 0.234913 0.839471 0.244925
O O1 0.223336 0.073973 0.246541
O O2 0.288788 0.000000 0.381908
O O3 0.968770 0.000000 0.407783
O O4 0.828124 0.616257 0.988517
O O5 0.116359 0.683731 0.880184
O O6 0.327594 0.174775 0.819917
O O7 0.250000 0.250000 0.000000
O O8 0.000000 0.160548 0.000000
O O9 0.539516 0.824405 0.396577
O O10 0.321982 0.815772 0.317209
O O11 0.550183 0.706294 0.287229
O O12 0.165330 0.428009 0.474666
#
# Coordination Sequence:
#
# PCOD9213278 Si02
#       7
#     4   4   8   8   4   4   8
#     4  11  24  45  66  91 129 176 217 262 330 411
#     4  10  22  37  62  92 138 169 210 272 332 387
#     4  11  18  34  59  91 130 168 209 263 337 385
#     4  11  24  38  65  99 129 166 224 275 316 386
#     4  10  24  46  66  85 129 182 211 264 339 393
#     4  11  24  44  66  95 130 172 218 275 330 384
#     4  11  24  41  66  98 132 170 218 268 330 388
#
# _framework density 21.278485
#
# number of rings (size 3 to 8) (size 9 to 14) (size 15 to 20)
#    0.000    1.200    5.000    1.200    2.800    2.800 
#    0.000    0.000    0.000    0.000    0.000    7.700 
#    0.000    0.000    0.000    0.000    0.000    0.000 
#
# Total GULP energy -111446.039612 kJ/mol
# GULP energy per Si atom -5572.301981 kJ/mol
# Density = 2.123005 g / cm^3
# Si number density = 21.278485 Si / 1000 Ang^3
#
#
#
# Elastic Constant Matrix: (Units=GPa)
#
#
# Indices 1 2 3 4 5 6 
#
# 1 123.4276 23.6700 24.3117 0.0000 8.3266 0.0000
# 2 23.6700 107.4919 18.1738 0.0000 5.5451 0.0000
# 3 24.3117 18.1738 101.0895 0.0000 33.1637 0.0000
# 4 0.0000 0.0000 0.0000 23.5246 0.0000 -12.9118
# 5 8.3266 5.5451 33.1637 0.0000 33.3542 0.0000
# 6 0.0000 0.0000 0.0000 -12.9118 0.0000 20.6497
#
#
#
# Elastic Compliance Matrix: (Units=1/GPa)
#
#
# Indices 1 2 3 4 5 6 
#
# 1 0.008772 -0.001625 -0.001763 0.000000 -0.000167 0.000000
# 2 -0.001625 0.009896 -0.001457 0.000000 0.000209 0.000000
# 3 -0.001763 -0.001457 0.015367 0.000000 -0.014597 0.000000
# 4 0.000000 0.000000 0.000000 0.064720 0.000000 0.040468
# 5 -0.000167 0.000209 -0.014597 0.000000 0.044502 0.000000
# 6 0.000000 0.000000 0.000000 0.040468 0.000000 0.073731
#
#
# Mechanical properties :
#
#
# Convention : Reuss Voigt Hill
#
# Bulk Modulus (GPa) = 41.07463 51.59111 46.33287
# Shear Modulus (GPa) = 21.29539 33.22926 27.26233
#
# Velocity S-wave (km/s) = 3.16697 3.95604 3.58329
# Velocity P-wave (km/s) = 5.71998 6.72052 6.24033
#
# Compressibility (1/GPa) = 0.02434593
#
# Stress axis : x y z
#
# Youngs Moduli (GPa) = 113.99892 101.04689 65.07565
#
# Poissons Ratio (x) = 0.16420 0.11471
# Poissons Ratio (y) = 0.18525 0.09481
# Poissons Ratio (z) = 0.20094 0.14722
#
# Static dielectric constant tensor:
#      x y z
#    x 1.866400 0.000000 0.014080 
#    y 0.000000 1.804760 0.000000 
#    z 0.014080 0.000000 1.760730 
# 
# From -- ./inp_files/196412.got.cif
#   From: 2010.05.17/outbox.cif.g08.bks.cpg/sg12_99_cif.got.tgz:196412.got - 2010.06.03 13:09:07.
