data_PCOD9213441
_publ_section_title
;
Structure prediction by ZEFSAII (Michael W. Deem and Ramdas Pophale) SiO2 
 PCOD9213441
Probable space group: C 2/M
;
_chemical_formula_sum "Si O2"
_cell_formula_units_Z 56
_cell_length_a 12.093691
_cell_length_b 14.392621
_cell_length_c 17.401015
_cell_angle_alpha 90.000000
_cell_angle_beta 66.984096
_cell_angle_gamma 90.000000
_cell_volume 2787.714096
_symmetry_space_group_name_H-M "C 2/M"
_symmetry_group_IT_number 12
_symmetry_cell_setting 'monoclinic'
loop_
_space_group_symop_operation_xyz
x,y,z
-x,y,-z
-x,-y,-z
x,-y,z
1/2+x,1/2+y,z
1/2-x,1/2+y,-z
1/2-x,1/2-y,-z
1/2+x,1/2-y,z
loop_
_atom_site_type_symbol
_atom_site_label
_atom_site_fract_x
_atom_site_fract_y
_atom_site_fract_z
Si Si1 0.912267 0.603495 0.095203
Si Si2 0.756881 0.893276 0.254391
Si Si3 0.479543 0.393976 0.087755
Si Si4 0.530634 0.156941 0.219261
Si Si5 0.315759 0.746821 0.369019
Si Si6 0.132934 0.887649 0.501479
Si Si7 0.196158 0.198186 0.089092
O O1 0.867679 0.500000 0.091798
O O2 0.800922 0.670802 0.117701
O O3 0.972525 0.605335 0.162105
O O4 0.000000 0.625380 0.000000
O O5 0.633035 0.894230 0.240478
O O6 0.750263 0.818370 0.324061
O O7 0.870350 0.861491 0.170716
O O8 0.781370 0.000000 0.273908
O O9 0.443621 0.500000 0.082568
O O10 0.611086 0.387234 0.088582
O O11 0.500000 0.345385 0.000000
O O12 0.428452 0.200754 0.300350
O O13 0.604030 0.236848 0.157040
O O14 0.228259 0.828292 0.424487
O O15 0.360395 0.672618 0.421447
O O16 0.000000 0.881809 0.500000
O O17 0.160058 0.000000 0.502128
O O18 0.250000 0.250000 0.000000
#
# Coordination Sequence:
#
# PCOD9213441 Si02
#       7
#     8   8   8   8   8   8   8
#     4  11  25  42  58  85 126 176 228 278 330 380
#     4  11  23  41  64  94 132 175 222 273 330 390
#     4  10  22  38  58  85 121 169 225 277 321 374
#     4  12  24  40  64  95 132 172 221 276 328 386
#     4  11  23  44  69 101 138 168 214 272 329 403
#     4  10  23  45  74 103 133 170 211 263 331 409
#     4  12  23  37  61  84 123 169 226 273 322 382
#
# _framework density 20.088144
#
# number of rings (size 3 to 8) (size 9 to 14) (size 15 to 20)
#    0.000    1.000    2.857    3.857    2.000    1.143 
#    0.000    1.429    0.000    4.714    0.000    0.000 
#    0.000    0.000    0.000    0.000    0.000    0.000 
#
# Total GULP energy -156180.964481 kJ/mol
# GULP energy per Si atom -5577.891589 kJ/mol
# Density = 2.004242 g / cm^3
# Si number density = 20.088144 Si / 1000 Ang^3
#
#
#
# Elastic Constant Matrix: (Units=GPa)
#
#
# Indices 1 2 3 4 5 6 
#
# 1 122.5831 42.4161 45.7686 0.0000 2.7618 0.0000
# 2 42.4161 117.6126 52.1897 0.0000 -7.2875 0.0000
# 3 45.7686 52.1897 126.2754 0.0000 -8.7939 0.0000
# 4 0.0000 0.0000 0.0000 96.0305 0.0000 -40.0487
# 5 2.7618 -7.2875 -8.7939 0.0000 30.3237 0.0000
# 6 0.0000 0.0000 0.0000 -40.0487 0.0000 46.0238
#
#
#
# Elastic Compliance Matrix: (Units=1/GPa)
#
#
# Indices 1 2 3 4 5 6 
#
# 1 0.010136 -0.002569 -0.002775 0.000000 -0.002345 0.000000
# 2 -0.002569 0.011112 -0.003530 0.000000 0.001881 0.000000
# 3 -0.002775 -0.003530 0.010556 0.000000 0.002466 0.000000
# 4 0.000000 0.000000 0.000000 0.016345 0.000000 0.014223
# 5 -0.002345 0.001881 0.002466 0.000000 0.034358 0.000000
# 6 0.000000 0.000000 0.000000 0.014223 0.000000 0.034104
#
#
# Mechanical properties :
#
#
# Convention : Reuss Voigt Hill
#
# Bulk Modulus (GPa) = 71.15377 71.91332 71.53355
# Shear Modulus (GPa) = 35.95939 49.54871 42.75405
#
# Velocity S-wave (km/s) = 4.23552 4.97184 4.61838
# Velocity P-wave (km/s) = 7.70826 8.29672 8.00789
#
# Compressibility (1/GPa) = 0.01405407
#
# Stress axis : x y z
#
# Youngs Moduli (GPa) = 98.66079 89.99093 94.73360
#
# Poissons Ratio (x) = 0.23121 0.26290
# Poissons Ratio (y) = 0.25348 0.33446
# Poissons Ratio (z) = 0.27380 0.31771
#
# Static dielectric constant tensor:
#      x y z
#    x 1.759050 0.000000 0.039620 
#    y 0.000000 1.767310 0.000000 
#    z 0.039620 0.000000 1.727890 
# 
# From -- ./inp_files/263246.got.cif
#   From: 2010.05.17/outbox.cif.g08.bks.cpg/sg12_132_cif.got.tgz:263246.got - 2010.06.03 13:09:07.
