data_PCOD9213157
_publ_section_title
;
Structure prediction by ZEFSAII (Michael W. Deem and Ramdas Pophale) SiO2 
 PCOD9213157
Probable space group: C 2/M
;
_chemical_formula_sum "Si O2"
_cell_formula_units_Z 64
_cell_length_a 8.905684
_cell_length_b 22.800103
_cell_length_c 15.298570
_cell_angle_alpha 90.000000
_cell_angle_beta 92.074922
_cell_angle_gamma 90.000000
_cell_volume 3104.345738
_symmetry_space_group_name_H-M "C 2/M"
_symmetry_group_IT_number 12
_symmetry_cell_setting 'monoclinic'
loop_
_space_group_symop_operation_xyz
x,y,z
-x,y,-z
-x,-y,-z
x,-y,z
1/2+x,1/2+y,z
1/2-x,1/2+y,-z
1/2-x,1/2-y,-z
1/2+x,1/2-y,z
loop_
_atom_site_type_symbol
_atom_site_label
_atom_site_fract_x
_atom_site_fract_y
_atom_site_fract_z
Si Si1 0.615848 0.267069 0.431906
Si Si2 0.430284 0.562114 0.757283
Si Si3 0.580146 0.866146 0.408273
Si Si4 0.952815 0.184683 0.747395
Si Si5 0.069107 0.568424 0.756923
Si Si6 0.291056 0.259235 0.160782
Si Si7 0.478058 0.164069 0.901824
Si Si8 0.885018 0.934470 0.419206
O O1 0.500000 0.290360 0.500000
O O2 0.750000 0.250000 0.500000
O O3 0.569283 0.203719 0.390320
O O4 0.617587 0.312151 0.351432
O O5 0.467519 0.500000 0.800828
O O6 0.482470 0.623236 0.795876
O O7 0.249927 0.567190 0.748762
O O8 0.514456 0.563846 0.665883
O O9 0.500000 0.875489 0.500000
O O10 0.501239 0.904244 0.332107
O O11 0.752589 0.887319 0.414703
O O12 0.832211 0.216396 0.803633
O O13 0.111386 0.217061 0.755581
O O14 0.022441 0.500000 0.769509
O O15 0.020158 0.613560 0.832573
O O16 0.407160 0.219698 0.107613
O O17 0.190987 0.310630 0.115705
O O18 0.500000 0.141368 0.000000
O O19 0.000000 0.926022 0.500000
O O20 0.815675 0.000000 0.427488
#
# Coordination Sequence:
#
# PCOD9213157 Si02
#       8
#     8   8   8   8   8   8   8   8
#     4  11  26  36  53  85 121 168 214 263 322 372
#     4  10  23  39  61  85 119 167 213 260 316 378
#     4  11  24  40  61  90 127 168 219 269 317 376
#     4  11  22  39  64  87 128 165 212 263 318 386
#     4  11  24  43  65  93 129 173 217 263 323 389
#     4  10  22  40  67  98 122 162 205 260 326 390
#     4  11  23  43  69 101 131 163 208 266 329 397
#     4  10  22  37  56  82 113 159 213 264 313 361
#
# _framework density 20.616258999999999
#
# number of rings (size 3 to 8) (size 9 to 14) (size 15 to 20)
#    0.000    1.375    1.250    3.750   10.500    2.250 
#    0.000    0.000    0.000    0.000    0.000    1.750 
#    0.000    0.000    0.000    0.000    0.000    0.000 
#
# Total GULP energy -178498.264086 kJ/mol
# GULP energy per Si atom -5578.070753 kJ/mol
# Density = 2.056934 g / cm^3
# Si number density = 20.616259 Si / 1000 Ang^3
#
#
#
# Elastic Constant Matrix: (Units=GPa)
#
#
# Indices 1 2 3 4 5 6 
#
# 1 66.6103 25.9127 28.5848 0.0000 -4.6691 0.0000
# 2 25.9127 139.1445 22.8453 0.0000 -0.5610 0.0000
# 3 28.5848 22.8453 72.8563 0.0000 4.9741 0.0000
# 4 0.0000 0.0000 0.0000 17.8286 0.0000 0.3891
# 5 -4.6691 -0.5610 4.9741 0.0000 12.3157 0.0000
# 6 0.0000 0.0000 0.0000 0.3891 0.0000 24.0981
#
#
#
# Elastic Compliance Matrix: (Units=1/GPa)
#
#
# Indices 1 2 3 4 5 6 
#
# 1 0.020063 -0.002405 -0.007845 0.000000 0.010665 0.000000
# 2 -0.002405 0.007887 -0.001534 0.000000 0.000067 0.000000
# 3 -0.007845 -0.001534 0.017989 0.000000 -0.010310 0.000000
# 4 0.000000 0.000000 0.000000 0.056109 0.000000 -0.000906
# 5 0.010665 0.000067 -0.010310 0.000000 0.089408 0.000000
# 6 0.000000 0.000000 0.000000 -0.000906 0.000000 0.041512
#
#
# Mechanical properties :
#
#
# Convention : Reuss Voigt Hill
#
# Bulk Modulus (GPa) = 44.70476 48.14408 46.42442
# Shear Modulus (GPa) = 18.93996 24.26637 21.60316
#
# Velocity S-wave (km/s) = 3.03428 3.43454 3.24059
# Velocity P-wave (km/s) = 5.83156 6.25550 6.04724
#
# Compressibility (1/GPa) = 0.02236898
#
# Stress axis : x y z
#
# Youngs Moduli (GPa) = 49.84380 126.79406 55.59062
#
# Poissons Ratio (x) = 0.30496 0.43613
# Poissons Ratio (y) = 0.11988 0.08527
# Poissons Ratio (z) = 0.39105 0.19450
#
# Static dielectric constant tensor:
#      x y z
#    x 1.609470 0.000000 -0.115550 
#    y 0.000000 1.843480 0.000000 
#    z -0.115550 0.000000 1.599030 
# 
# From -- ./inp_files/198865.got.cif
#   From: 2010.05.17/outbox.cif.g08.bks.cpg/sg12_100_cif.got.tgz:198865.got - 2010.06.03 13:09:07.
