data_PCOD9213148
_publ_section_title
;
Structure prediction by ZEFSAII (Michael W. Deem and Ramdas Pophale) SiO2 
 PCOD9213148
Probable space group: C 2/M
;
_chemical_formula_sum "Si O2"
_cell_formula_units_Z 36
_cell_length_a 11.247376
_cell_length_b 32.829777
_cell_length_c 7.245789
_cell_angle_alpha 90.000000
_cell_angle_beta 39.515237
_cell_angle_gamma 90.000000
_cell_volume 1702.375745
_symmetry_space_group_name_H-M "C 2/M"
_symmetry_group_IT_number 12
_symmetry_cell_setting 'monoclinic'
loop_
_space_group_symop_operation_xyz
x,y,z
-x,y,-z
-x,-y,-z
x,-y,z
1/2+x,1/2+y,z
1/2-x,1/2+y,-z
1/2-x,1/2-y,-z
1/2+x,1/2-y,z
loop_
_atom_site_type_symbol
_atom_site_label
_atom_site_fract_x
_atom_site_fract_y
_atom_site_fract_z
Si Si1 0.259201 0.500000 0.510763
Si Si2 0.447417 0.436730 0.772461
Si Si3 0.897951 0.155321 0.928426
Si Si4 0.500000 0.191406 0.500000
Si Si5 0.961824 0.243380 0.824796
Si Si6 0.847604 0.500000 0.920951
O O1 0.385567 0.460006 0.321800
O O2 0.196376 0.500000 0.803615
O O3 0.066994 0.500000 0.632935
O O4 0.500000 0.446162 0.500000
O O5 0.426742 0.388549 0.807191
O O6 0.255508 0.460482 0.036547
O O7 0.678259 0.165651 0.219784
O O8 0.006036 0.196223 0.268204
O O9 0.000000 0.151202 0.000000
O O10 0.432034 0.221626 0.416233
O O11 0.750000 0.250000 0.000000
O O12 0.000000 0.247620 0.000000
#
# Coordination Sequence:
#
# PCOD9213148 Si02
#       6
#     4   8   8   4   8   4
#     4   8  15  31  56  79 110 149 185 239 280 353
#     4   9  18  33  54  85 112 143 194 239 283 351
#     4  10  22  37  55  84 117 155 189 244 302 345
#     4  10  22  42  60  83 126 157 204 254 292 364
#     4   9  20  38  61  87 116 163 208 247 302 359
#     4   8  15  31  56  78 112 148 186 230 297 339
#
# _framework density 21.146917999999999
#
# number of rings (size 3 to 8) (size 9 to 14) (size 15 to 20)
#    0.000    2.889    0.000    1.333    1.556    9.778 
#    4.000    2.222    4.889    4.000    0.000    0.000 
#    0.000    0.000    0.000    0.000    0.000    0.000 
#
# Total GULP energy -100272.726241 kJ/mol
# GULP energy per Si atom -5570.707013 kJ/mol
# Density = 2.109879 g / cm^3
# Si number density = 21.146918 Si / 1000 Ang^3
#
#
#
# Elastic Constant Matrix: (Units=GPa)
#
#
# Indices 1 2 3 4 5 6 
#
# 1 113.3060 39.7498 42.7217 0.0000 -11.3544 0.0000
# 2 39.7498 148.7385 42.9959 0.0000 -19.8629 0.0000
# 3 42.7217 42.9959 87.3962 0.0000 -22.4223 0.0000
# 4 0.0000 0.0000 0.0000 31.1899 0.0000 10.2812
# 5 -11.3544 -19.8629 -22.4223 0.0000 40.4780 0.0000
# 6 0.0000 0.0000 0.0000 10.2812 0.0000 4.4829
#
#
#
# Elastic Compliance Matrix: (Units=1/GPa)
#
#
# Indices 1 2 3 4 5 6 
#
# 1 0.011155 -0.001658 -0.004713 0.000000 -0.000295 0.000000
# 2 -0.001658 0.008225 -0.002704 0.000000 0.002073 0.000000
# 3 -0.004713 -0.002704 0.016781 0.000000 0.006647 0.000000
# 4 0.000000 0.000000 0.000000 0.131400 0.000000 -0.301360
# 5 -0.000295 0.002073 0.006647 0.000000 0.029321 0.000000
# 6 0.000000 0.000000 0.000000 -0.301360 0.000000 0.914228
#
#
# Mechanical properties :
#
#
# Convention : Reuss Voigt Hill
#
# Bulk Modulus (GPa) = 55.52041 66.70840 61.11440
# Shear Modulus (GPa) = 4.40426 30.16171 17.28298
#
# Velocity S-wave (km/s) = 1.44472 3.78073 2.86191
# Velocity P-wave (km/s) = 5.39394 7.11844 6.31533
#
# Compressibility (1/GPa) = 0.01801140
#
# Stress axis : x y z
#
# Youngs Moduli (GPa) = 89.64821 121.58339 59.58956
#
# Poissons Ratio (x) = 0.20161 0.28083
# Poissons Ratio (y) = 0.14865 0.16112
# Poissons Ratio (z) = 0.42249 0.32875
#
# Static dielectric constant tensor:
#      x y z
#    x 1.799850 0.000000 0.020270 
#    y 0.000000 1.799110 0.000000 
#    z 0.020270 0.000000 1.871020 
# 
# From -- ./inp_files/41355.got.cif
#   From: 2010.05.17/outbox.cif.g08.bks.cpg/sg12_21_cif.got.tgz:41355.got - 2010.06.03 13:09:07.
