data_PCOD9213497
_publ_section_title
;
Structure prediction by ZEFSAII (Michael W. Deem and Ramdas Pophale) SiO2 
 PCOD9213497
Probable space group: C 2/M
;
_chemical_formula_sum "Si O2"
_cell_formula_units_Z 64
_cell_length_a 13.787029
_cell_length_b 24.881390
_cell_length_c 9.597139
_cell_angle_alpha 90.000000
_cell_angle_beta 93.344616
_cell_angle_gamma 90.000000
_cell_volume 3286.599186
_symmetry_space_group_name_H-M "C 2/M"
_symmetry_group_IT_number 12
_symmetry_cell_setting 'monoclinic'
loop_
_space_group_symop_operation_xyz
x,y,z
-x,y,-z
-x,-y,-z
x,-y,z
1/2+x,1/2+y,z
1/2-x,1/2+y,-z
1/2-x,1/2-y,-z
1/2+x,1/2-y,z
loop_
_atom_site_type_symbol
_atom_site_label
_atom_site_fract_x
_atom_site_fract_y
_atom_site_fract_z
Si Si1 0.352124 0.729939 0.183236
Si Si2 0.112893 0.063584 0.032407
Si Si3 0.614607 0.830528 0.638134
Si Si4 0.373246 0.261653 0.867327
Si Si5 0.327430 0.368004 0.714324
Si Si6 0.884232 0.059235 0.480442
Si Si7 0.708859 0.611724 0.779700
Si Si8 0.407438 0.157459 0.691462
O O1 0.394445 0.770603 0.300015
O O2 0.242299 0.750214 0.149082
O O3 0.342766 0.669737 0.238174
O O4 0.398942 0.731753 0.032819
O O5 0.186194 0.093676 0.934416
O O6 0.119991 0.000000 0.013939
O O7 0.142510 0.082429 0.187166
O O8 0.000000 0.079228 0.000000
O O9 0.713093 0.855257 0.707146
O O10 0.621469 0.828000 0.470768
O O11 0.518298 0.862229 0.680085
O O12 0.385190 0.316199 0.778764
O O13 0.413300 0.209177 0.793195
O O14 0.349716 0.388913 0.562821
O O15 0.844309 0.069054 0.322781
O O16 0.000000 0.058739 0.500000
O O17 0.849793 0.000000 0.526213
O O18 0.821745 0.620232 0.746940
#
# Coordination Sequence:
#
# PCOD9213497 Si02
#       8
#     8   8   8   8   8   8   8   8
#     4   9  19  35  56  85 118 153 194 236 281 343
#     4  11  24  42  64  89 117 151 196 250 306 357
#     4  10  22  38  59  89 124 161 198 237 286 348
#     4   9  19  35  56  85 118 153 194 236 281 343
#     4  11  21  40  63  86 121 158 192 243 299 352
#     4  11  24  40  60  87 113 147 200 252 302 355
#     4  11  21  40  63  86 121 158 192 243 299 352
#     4  10  22  38  59  89 124 161 198 237 286 348
#
# _framework density 19.473016000000001
#
# number of rings (size 3 to 8) (size 9 to 14) (size 15 to 20)
#    0.000    1.750    2.500    1.500    3.500    6.000 
#    0.000    0.000    0.000    4.500    0.000    0.000 
#    0.000    0.000    0.000    0.000    0.000    0.000 
#
# Total GULP energy -178462.211967 kJ/mol
# GULP energy per Si atom -5576.944124 kJ/mol
# Density = 1.942869 g / cm^3
# Si number density = 19.473016 Si / 1000 Ang^3
#
#
#
# Elastic Constant Matrix: (Units=GPa)
#
#
# Indices 1 2 3 4 5 6 
#
# 1 59.1995 20.6349 5.4833 0.0000 -11.5628 0.0000
# 2 20.6349 57.6145 -7.1903 0.0000 1.5713 0.0000
# 3 5.4833 -7.1903 44.7770 0.0000 0.8712 0.0000
# 4 0.0000 0.0000 0.0000 18.1191 0.0000 -9.4065
# 5 -11.5628 1.5713 0.8712 0.0000 23.6595 0.0000
# 6 0.0000 0.0000 0.0000 -9.4065 0.0000 7.2917
#
#
#
# Elastic Compliance Matrix: (Units=1/GPa)
#
#
# Indices 1 2 3 4 5 6 
#
# 1 0.022782 -0.009042 -0.004473 0.000000 0.011899 0.000000
# 2 -0.009042 0.021340 0.004651 0.000000 -0.006008 0.000000
# 3 -0.004473 0.004651 0.023693 0.000000 -0.003368 0.000000
# 4 0.000000 0.000000 0.000000 0.167099 0.000000 0.215563
# 5 0.011899 -0.006008 -0.003368 0.000000 0.048605 0.000000
# 6 0.000000 0.000000 0.000000 0.215563 0.000000 0.415226
#
#
# Mechanical properties :
#
#
# Convention : Reuss Voigt Hill
#
# Bulk Modulus (GPa) = 19.96598 22.16075 21.06337
# Shear Modulus (GPa) = 6.81969 19.32493 13.07231
#
# Velocity S-wave (km/s) = 1.87343 3.15365 2.59376
# Velocity P-wave (km/s) = 3.86718 4.96645 4.45088
#
# Compressibility (1/GPa) = 0.05008519
#
# Stress axis : x y z
#
# Youngs Moduli (GPa) = 43.89338 46.86114 42.20645
#
# Poissons Ratio (x) = 0.42374 0.18881
# Poissons Ratio (y) = 0.39690 -0.19630
# Poissons Ratio (z) = 0.19635 -0.21795
#
# Static dielectric constant tensor:
#      x y z
#    x 1.714860 0.000000 -0.016440 
#    y 0.000000 1.668970 0.000000 
#    z -0.016440 0.000000 1.663810 
# 
# From -- ./inp_files/65884.got.cif
#   From: 2010.05.17/outbox.cif.g08.bks.cpg/sg12_33_cif.got.tgz:65884.got - 2010.06.03 13:09:07.
