data_PCOD9213044
_publ_section_title
;
Structure prediction by ZEFSAII (Michael W. Deem and Ramdas Pophale) SiO2 
 PCOD9213044
Probable space group: C 2/M
;
_chemical_formula_sum "Si O2"
_cell_formula_units_Z 30
_cell_length_a 5.141979
_cell_length_b 24.613491
_cell_length_c 12.462830
_cell_angle_alpha 90.000000
_cell_angle_beta 80.529570
_cell_angle_gamma 90.000000
_cell_volume 1555.823497
_symmetry_space_group_name_H-M "C 2/M"
_symmetry_group_IT_number 12
_symmetry_cell_setting 'monoclinic'
loop_
_space_group_symop_operation_xyz
x,y,z
-x,y,-z
-x,-y,-z
x,-y,z
1/2+x,1/2+y,z
1/2-x,1/2+y,-z
1/2-x,1/2-y,-z
1/2+x,1/2-y,z
loop_
_atom_site_type_symbol
_atom_site_label
_atom_site_fract_x
_atom_site_fract_y
_atom_site_fract_z
Si Si1 0.026113 0.875399 0.809983
Si Si2 0.500000 0.000000 0.500000
Si Si3 0.998372 0.561358 0.129185
Si Si4 0.500000 0.711960 0.000000
Si Si5 0.760814 0.112872 0.433428
O O1 0.216234 0.920806 0.849329
O O2 0.149920 0.863803 0.686045
O O3 0.731538 0.898653 0.816035
O O4 0.027969 0.826319 0.893943
O O5 0.675779 0.049091 0.430497
O O6 0.937820 0.500000 0.167813
O O7 0.000000 0.563778 0.000000
O O8 0.250000 0.750000 0.000000
O O9 0.500000 0.140331 0.500000
O O10 0.000000 0.115618 0.500000
#
# Coordination Sequence:
#
# PCOD9213044 Si02
#       5
#     8   2   8   4   8
#     4  12  23  41  64  91 128 170 215 260 319 384
#     4   8  22  36  54  94 126 178 210 232 290 376
#     4  11  22  35  56  92 134 166 197 244 310 393
#     4  12  26  46  69  90 119 160 222 286 340 368
#     4  10  22  36  58  88 129 167 210 240 296 368
#
# _framework density 19.282392999999999
#
# number of rings (size 3 to 8) (size 9 to 14) (size 15 to 20)
#    0.800    0.267    2.667    4.400    3.733    2.133 
#    0.000    0.000    0.000    4.800    0.000    0.000 
#    0.000    0.000    0.000    0.000    0.000    0.000 
#
# Total GULP energy -83505.397408 kJ/mol
# GULP energy per Si atom -5567.026494 kJ/mol
# Density = 1.923851 g / cm^3
# Si number density = 19.282393 Si / 1000 Ang^3
#
#
#
# Elastic Constant Matrix: (Units=GPa)
#
#
# Indices 1 2 3 4 5 6 
#
# 1 70.9542 27.1180 17.8109 0.0000 -17.7488 0.0000
# 2 27.1180 79.3289 52.8953 0.0000 -10.8402 0.0000
# 3 17.8109 52.8953 142.3139 0.0000 -15.3146 0.0000
# 4 0.0000 0.0000 0.0000 1.3995 0.0000 -9.0897
# 5 -17.7488 -10.8402 -15.3146 0.0000 30.9567 0.0000
# 6 0.0000 0.0000 0.0000 -9.0897 0.0000 22.7723
#
#
#
# Elastic Compliance Matrix: (Units=1/GPa)
#
#
# Indices 1 2 3 4 5 6 
#
# 1 0.018238 -0.005499 0.000717 0.000000 0.008886 0.000000
# 2 -0.005499 0.018675 -0.006220 0.000000 0.000310 0.000000
# 3 0.000717 -0.006220 0.009568 0.000000 0.002967 0.000000
# 4 0.000000 0.000000 0.000000 -0.448695 0.000000 -0.179099
# 5 0.008886 0.000310 0.002967 0.000000 0.038974 0.000000
# 6 0.000000 0.000000 0.000000 -0.179099 0.000000 -0.027576
#
#
# Mechanical properties :
#
#
# Convention : Reuss Voigt Hill
#
# Bulk Modulus (GPa) = 40.85110 54.24948 47.55029
# Shear Modulus (GPa) = -13.86368 24.01056 5.07344
#
# Velocity S-wave (km/s) = -2.68429 3.53258 1.62383
# Velocity P-wave (km/s) = 3.40947 6.69583 5.31312
#
# Compressibility (1/GPa) = 0.02447915
#
# Stress axis : x y z
#
# Youngs Moduli (GPa) = 54.83119 53.54798 104.51638
#
# Poissons Ratio (x) = 0.29444 -0.07498
# Poissons Ratio (y) = 0.30149 0.65005
# Poissons Ratio (z) = -0.03934 0.33304
#
# Static dielectric constant tensor:
#      x y z
#    x 1.670290 0.000000 -0.006000 
#    y 0.000000 1.643280 0.000000 
#    z -0.006000 0.000000 1.691080 
# 
# From -- ./inp_files/114791.got.cif
#   From: 2010.05.17/outbox.cif.g08.bks.cpg/sg12_58_cif.got.tgz:114791.got - 2010.06.03 13:09:07.
