data_PCOD9213073
_publ_section_title
;
Structure prediction by ZEFSAII (Michael W. Deem and Ramdas Pophale) SiO2 
 PCOD9213073
Probable space group: C 2/M
;
_chemical_formula_sum "Si O2"
_cell_formula_units_Z 40
_cell_length_a 22.494499
_cell_length_b 13.336676
_cell_length_c 7.725349
_cell_angle_alpha 90.000000
_cell_angle_beta 72.904538
_cell_angle_gamma 90.000000
_cell_volume 2215.217974
_symmetry_space_group_name_H-M "C 2/M"
_symmetry_group_IT_number 12
_symmetry_cell_setting 'monoclinic'
loop_
_space_group_symop_operation_xyz
x,y,z
-x,y,-z
-x,-y,-z
x,-y,z
1/2+x,1/2+y,z
1/2-x,1/2+y,-z
1/2-x,1/2-y,-z
1/2+x,1/2-y,z
loop_
_atom_site_type_symbol
_atom_site_label
_atom_site_fract_x
_atom_site_fract_y
_atom_site_fract_z
Si Si1 0.650749 0.885111 0.304416
Si Si2 0.514103 0.614772 0.783460
Si Si3 0.619058 0.316593 0.209500
Si Si4 0.202738 0.115235 0.818327
Si Si5 0.638190 0.720266 0.566223
O O1 0.616656 0.805123 0.209749
O O2 0.724379 0.878029 0.202608
O O3 0.641819 0.835709 0.502463
O O4 0.631187 0.000000 0.309607
O O5 0.532834 0.500000 0.730827
O O6 0.449818 0.639504 0.742856
O O7 0.569678 0.688304 0.685879
O O8 0.500000 0.622646 0.000000
O O9 0.648651 0.336325 0.373238
O O10 0.660849 0.356883 0.018799
O O11 0.184941 0.186847 0.674624
O O12 0.188690 0.000000 0.781091
#
# Coordination Sequence:
#
# PCOD9213073 Si02
#       5
#     8   8   8   8   8
#     4   9  22  41  59  81 117 159 198 237 274 330
#     4  11  21  37  59  87 120 147 181 239 300 350
#     4  10  22  36  61  85 119 151 190 233 287 345
#     4  11  20  37  60  89 122 149 185 237 293 344
#     4  10  22  36  61  85 119 151 190 233 287 345
#
# _framework density 18.056913999999999
#
# number of rings (size 3 to 8) (size 9 to 14) (size 15 to 20)
#    1.200    0.600    2.000    3.000    0.000    4.000 
#    0.000    3.000    0.000    1.200    0.000    0.000 
#    0.000    0.000    0.000    0.000    0.000    0.000 
#
# Total GULP energy -111434.980893 kJ/mol
# GULP energy per Si atom -5571.749045 kJ/mol
# Density = 1.801582 g / cm^3
# Si number density = 18.056914 Si / 1000 Ang^3
#
#
#
# Elastic Constant Matrix: (Units=GPa)
#
#
# Indices 1 2 3 4 5 6 
#
# 1 18.1530 -3.2654 -2.1628 0.0000 -5.9263 0.0000
# 2 -3.2654 58.2529 -5.2640 0.0000 -26.0512 0.0000
# 3 -2.1628 -5.2640 33.1293 0.0000 -6.3492 0.0000
# 4 0.0000 0.0000 0.0000 24.8181 0.0000 2.1082
# 5 -5.9263 -26.0512 -6.3492 0.0000 28.0521 0.0000
# 6 0.0000 0.0000 0.0000 2.1082 0.0000 28.8159
#
#
#
# Elastic Compliance Matrix: (Units=1/GPa)
#
#
# Indices 1 2 3 4 5 6 
#
# 1 0.075800 0.025165 0.017243 0.000000 0.043287 0.000000
# 2 0.025165 0.041545 0.017412 0.000000 0.047839 0.000000
# 3 0.017243 0.017412 0.039592 0.000000 0.028774 0.000000
# 4 0.000000 0.000000 0.000000 0.040545 0.000000 -0.002966
# 5 0.043287 0.047839 0.028774 0.000000 0.095732 0.000000
# 6 0.000000 0.000000 0.000000 -0.002966 0.000000 0.034920
#
#
# Mechanical properties :
#
#
# Convention : Reuss Voigt Hill
#
# Bulk Modulus (GPa) = 3.61562 9.79452 6.70507
# Shear Modulus (GPa) = 16.62870 24.35238 20.49054
#
# Velocity S-wave (km/s) = 3.03793 3.67637 3.37230
# Velocity P-wave (km/s) = 3.78313 4.84324 4.34564
#
# Compressibility (1/GPa) = 0.27657758
#
# Stress axis : x y z
#
# Youngs Moduli (GPa) = 13.19261 24.07052 25.25782
#
# Poissons Ratio (x) = -0.60574 -0.43552
# Poissons Ratio (y) = -0.33200 -0.43980
# Poissons Ratio (z) = -0.22748 -0.41912
#
# Static dielectric constant tensor:
#      x y z
#    x 1.615660 0.000000 0.013770 
#    y 0.000000 1.626820 0.000000 
#    z 0.013770 0.000000 1.622110 
# 
# From -- ./inp_files/101613.got.cif
#   From: 2010.05.17/outbox.cif.g08.bks.cpg/sg12_51_cif.got.tgz:101613.got - 2010.06.03 13:09:07.
