data_PCOD9213225
_publ_section_title
;
Structure prediction by ZEFSAII (Michael W. Deem and Ramdas Pophale) SiO2 
 PCOD9213225
Probable space group: C 2/M
;
_chemical_formula_sum "Si O2"
_cell_formula_units_Z 44
_cell_length_a 28.747534
_cell_length_b 16.991092
_cell_length_c 10.658941
_cell_angle_alpha 90.000000
_cell_angle_beta 155.366273
_cell_angle_gamma 90.000000
_cell_volume 2170.102586
_symmetry_space_group_name_H-M "C 2/M"
_symmetry_group_IT_number 12
_symmetry_cell_setting 'monoclinic'
loop_
_space_group_symop_operation_xyz
x,y,z
-x,y,-z
-x,-y,-z
x,-y,z
1/2+x,1/2+y,z
1/2-x,1/2+y,-z
1/2-x,1/2-y,-z
1/2+x,1/2-y,z
loop_
_atom_site_type_symbol
_atom_site_label
_atom_site_fract_x
_atom_site_fract_y
_atom_site_fract_z
Si Si1 0.965780 0.133882 0.786640
Si Si2 0.945661 0.000000 0.557829
Si Si3 0.208097 0.826323 0.317572
Si Si4 0.117891 0.655383 0.716113
Si Si5 0.714507 0.500000 0.276606
Si Si6 0.268751 0.000000 0.123901
Si Si7 0.197831 0.748346 0.681934
O O1 0.877086 0.200653 0.594948
O O2 0.913378 0.076509 0.557354
O O3 0.000000 0.093194 0.000000
O O4 0.075289 0.173304 0.999685
O O5 0.864916 0.000000 0.239436
O O6 0.081782 0.000000 0.908632
O O7 0.250000 0.750000 0.500000
O O8 0.244881 0.816241 0.263588
O O9 0.237655 0.919557 0.412756
O O10 0.170830 0.575032 0.791631
O O11 0.119727 0.713261 0.599485
O O12 0.000000 0.646670 0.500000
O O13 0.206403 0.697514 0.024581
O O14 0.777842 0.500000 0.297616
#
# Coordination Sequence:
#
# PCOD9213225 Si02
#       7
#     8   4   8   8   4   4   8
#     4  11  21  37  62  89 126 165 215 272 325 391
#     4  10  22  37  59  93 124 169 215 269 337 388
#     4  11  22  40  65  93 128 173 216 270 333 391
#     4  11  24  40  63  93 129 172 220 274 333 393
#     4  10  23  40  64  96 130 173 220 277 331 395
#     4  12  20  41  63  90 135 167 216 276 331 395
#     4  11  22  41  62  92 128 168 218 272 328 403
#
# _framework density 20.275538000000001
#
# number of rings (size 3 to 8) (size 9 to 14) (size 15 to 20)
#    0.000    1.091    5.455    1.909    0.000    0.000 
#    0.000    0.909    0.000    3.273    0.000    0.000 
#    0.000    0.000    0.000    0.000    0.000    0.000 
#
# Total GULP energy -122477.622076 kJ/mol
# GULP energy per Si atom -5567.164640 kJ/mol
# Density = 2.022939 g / cm^3
# Si number density = 20.275538 Si / 1000 Ang^3
#
#
#
# Elastic Constant Matrix: (Units=GPa)
#
#
# Indices 1 2 3 4 5 6 
#
# 1 80.2969 23.4943 25.6134 0.0000 16.4693 0.0000
# 2 23.4943 132.9148 35.9147 0.0000 1.6434 0.0000
# 3 25.6134 35.9147 45.3640 0.0000 7.4861 0.0000
# 4 0.0000 0.0000 0.0000 54.1471 0.0000 24.4780
# 5 16.4693 1.6434 7.4861 0.0000 35.7297 0.0000
# 6 0.0000 0.0000 0.0000 24.4780 0.0000 46.3114
#
#
#
# Elastic Compliance Matrix: (Units=1/GPa)
#
#
# Indices 1 2 3 4 5 6 
#
# 1 0.016320 -0.000744 -0.007655 0.000000 -0.005885 0.000000
# 2 -0.000744 0.009654 -0.007465 0.000000 0.001463 0.000000
# 3 -0.007655 -0.007465 0.032770 0.000000 -0.002994 0.000000
# 4 0.000000 0.000000 0.000000 0.024266 0.000000 -0.012826
# 5 -0.005885 0.001463 -0.002994 0.000000 0.031260 0.000000
# 6 0.000000 0.000000 0.000000 -0.012826 0.000000 0.028372
#
#
# Mechanical properties :
#
#
# Convention : Reuss Voigt Hill
#
# Bulk Modulus (GPa) = 37.01260 47.62448 42.31854
# Shear Modulus (GPa) = 27.26655 38.80786 33.03720
#
# Velocity S-wave (km/s) = 3.67113 4.37970 4.04098
# Velocity P-wave (km/s) = 6.02196 7.00823 6.53373
#
# Compressibility (1/GPa) = 0.02701782
#
# Stress axis : x y z
#
# Youngs Moduli (GPa) = 61.27427 103.58432 30.51589
#
# Poissons Ratio (x) = 0.07703 0.23359
# Poissons Ratio (y) = 0.04556 0.22779
# Poissons Ratio (z) = 0.46904 0.77321
#
# Static dielectric constant tensor:
#      x y z
#    x 1.718300 0.000000 -0.006410 
#    y 0.000000 1.858260 0.000000 
#    z -0.006410 0.000000 1.679240 
# 
# From -- ./inp_files/130979.got.cif
#   From: 2010.05.17/outbox.cif.g08.bks.cpg/sg12_66_cif.got.tgz:130979.got - 2010.06.03 13:09:07.
