data_PCOD9213781
_publ_section_title
;
Structure prediction by ZEFSAII (Michael W. Deem and Ramdas Pophale) SiO2 
 PCOD9213781
Probable space group: C 2/M
;
_chemical_formula_sum "Si O2"
_cell_formula_units_Z 56
_cell_length_a 32.095957
_cell_length_b 7.787456
_cell_length_c 12.306449
_cell_angle_alpha 90.000000
_cell_angle_beta 119.867397
_cell_angle_gamma 90.000000
_cell_volume 2667.399567
_symmetry_space_group_name_H-M "C 2/M"
_symmetry_group_IT_number 12
_symmetry_cell_setting 'monoclinic'
loop_
_space_group_symop_operation_xyz
x,y,z
-x,y,-z
-x,-y,-z
x,-y,z
1/2+x,1/2+y,z
1/2-x,1/2+y,-z
1/2-x,1/2-y,-z
1/2+x,1/2-y,z
loop_
_atom_site_type_symbol
_atom_site_label
_atom_site_fract_x
_atom_site_fract_y
_atom_site_fract_z
Si Si1 0.146992 0.710863 0.630507
Si Si2 0.179157 0.800902 0.131073
Si Si3 0.421737 0.207952 0.917595
Si Si4 0.694662 0.199585 0.913810
Si Si5 0.235829 0.706882 0.604980
Si Si6 0.507151 0.209217 0.179857
Si Si7 0.462883 0.210396 0.544149
O O1 0.146022 0.500000 0.628513
O O2 0.168513 0.774933 0.773868
O O3 0.183759 0.763152 0.582249
O O4 0.092038 0.766202 0.544514
O O5 0.131068 0.780083 0.137836
O O6 0.223913 0.727279 0.257398
O O7 0.190005 0.000000 0.126448
O O8 0.171000 0.726555 0.000588
O O9 0.450060 0.259708 0.845947
O O10 0.418360 0.000000 0.913976
O O11 0.456633 0.262193 0.061711
O O12 0.694884 0.000000 0.891347
O O13 0.750000 0.250000 0.000000
O O14 0.236339 0.500000 0.611560
O O15 0.250000 0.750000 0.500000
O O16 0.517522 0.267658 0.313934
O O17 0.506557 0.000000 0.178617
O O18 0.500000 0.265381 0.500000
O O19 0.462537 0.000000 0.543509
#
# Coordination Sequence:
#
# PCOD9213781 Si02
#       7
#     8   8   8   8   8   8   8
#     4   9  19  35  53  79 114 147 178 228 283 328
#     4  11  23  38  55  82 115 147 187 232 277 335
#     4   9  18  33  55  82 109 141 183 233 279 326
#     4  11  21  37  59  82 112 147 186 231 279 331
#     4  10  22  39  56  80 115 148 186 230 275 331
#     4   8  16  31  50  79 113 139 179 233 279 329
#     4   9  17  28  48  78 111 143 176 221 281 335
#
# _framework density 20.994230999999999
#
# number of rings (size 3 to 8) (size 9 to 14) (size 15 to 20)
#    0.000    2.429    1.429    1.714    4.000    1.143 
#    0.000    1.429    0.000    0.000    0.000    1.000 
#    0.000    0.000    0.000    0.000    0.000    0.000 
#
# Total GULP energy -156282.517219 kJ/mol
# GULP energy per Si atom -5581.518472 kJ/mol
# Density = 2.094645 g / cm^3
# Si number density = 20.994231 Si / 1000 Ang^3
#
#
#
# Elastic Constant Matrix: (Units=GPa)
#
#
# Indices 1 2 3 4 5 6 
#
# 1 153.2309 -0.4613 82.9684 0.0000 7.2288 0.0000
# 2 -0.4613 23.8419 3.2923 0.0000 -0.0991 0.0000
# 3 82.9684 3.2923 144.5081 0.0000 -17.5855 0.0000
# 4 0.0000 0.0000 0.0000 11.1220 0.0000 -0.0572
# 5 7.2288 -0.0991 -17.5855 0.0000 26.3433 0.0000
# 6 0.0000 0.0000 0.0000 -0.0572 0.0000 23.1268
#
#
#
# Elastic Compliance Matrix: (Units=1/GPa)
#
#
# Indices 1 2 3 4 5 6 
#
# 1 0.010762 0.001163 -0.007145 0.000000 -0.007719 0.000000
# 2 0.001163 0.042208 -0.001795 0.000000 -0.001358 0.000000
# 3 -0.007145 -0.001795 0.012300 0.000000 0.010165 0.000000
# 4 0.000000 0.000000 0.000000 0.089913 0.000000 0.000222
# 5 -0.007719 -0.001358 0.010165 0.000000 0.046859 0.000000
# 6 0.000000 0.000000 0.000000 0.000222 0.000000 0.043240
#
#
# Mechanical properties :
#
#
# Convention : Reuss Voigt Hill
#
# Bulk Modulus (GPa) = 20.11391 54.79773 37.45582
# Shear Modulus (GPa) = 18.02396 27.83718 22.93057
#
# Velocity S-wave (km/s) = 2.93323 3.64530 3.30848
# Velocity P-wave (km/s) = 4.59056 6.62387 5.69864
#
# Compressibility (1/GPa) = 0.04971683
#
# Stress axis : x y z
#
# Youngs Moduli (GPa) = 92.91567 23.69242 81.29995
#
# Poissons Ratio (x) = -0.02755 0.58089
# Poissons Ratio (y) = -0.10804 0.14589
# Poissons Ratio (z) = 0.66388 0.04252
#
# Static dielectric constant tensor:
#      x y z
#    x 1.728240 0.000000 -0.010960 
#    y 0.000000 1.794040 0.000000 
#    z -0.010960 0.000000 1.747650 
# 
# From -- ./inp_files/181098.got.cif
#   From: 2010.05.17/outbox.cif.g08.bks.cpg/sg12_91_cif.got.tgz:181098.got - 2010.06.03 13:09:07.
