data_PCOD9213672
_publ_section_title
;
Structure prediction by ZEFSAII (Michael W. Deem and Ramdas Pophale) SiO2 
 PCOD9213672
Probable space group: C 2/M
;
_chemical_formula_sum "Si O2"
_cell_formula_units_Z 48
_cell_length_a 14.452590
_cell_length_b 28.140021
_cell_length_c 11.613549
_cell_angle_alpha 90.000000
_cell_angle_beta 150.075498
_cell_angle_gamma 90.000000
_cell_volume 2356.201121
_symmetry_space_group_name_H-M "C 2/M"
_symmetry_group_IT_number 12
_symmetry_cell_setting 'monoclinic'
loop_
_space_group_symop_operation_xyz
x,y,z
-x,y,-z
-x,-y,-z
x,-y,z
1/2+x,1/2+y,z
1/2-x,1/2+y,-z
1/2-x,1/2-y,-z
1/2+x,1/2-y,z
loop_
_atom_site_type_symbol
_atom_site_label
_atom_site_fract_x
_atom_site_fract_y
_atom_site_fract_z
Si Si1 0.670748 0.554159 0.358824
Si Si2 0.361250 0.386917 0.130838
Si Si3 0.474179 0.900430 0.840893
Si Si4 0.675742 0.684062 0.515432
Si Si5 0.805330 0.219592 0.724325
Si Si6 0.704926 0.878203 0.708819
O O1 0.659281 0.500000 0.308448
O O2 0.496180 0.568552 0.250356
O O3 0.852503 0.564265 0.631783
O O4 0.686669 0.589861 0.267388
O O5 0.492804 0.347743 0.332346
O O6 0.297711 0.373468 0.933167
O O7 0.176143 0.394454 0.003340
O O8 0.352993 0.851405 0.710325
O O9 0.500000 0.916032 0.000000
O O10 0.708619 0.729358 0.631288
O O11 0.658396 0.706578 0.369501
O O12 0.689685 0.174818 0.643475
O O13 0.000000 0.220395 0.000000
O O14 0.500000 0.899563 0.500000
#
# Coordination Sequence:
#
# PCOD9213672 Si02
#       6
#     8   8   8   8   8   8
#     4  11  25  43  69 104 131 165 220 273 333 402
#     4  11  22  44  70  93 133 178 212 271 337 384
#     4  11  24  46  67  92 133 172 223 276 323 387
#     4  10  22  38  63  96 130 171 225 262 315 391
#     4  11  19  38  61  94 134 175 215 266 318 386
#     4  12  21  42  68  99 137 174 211 272 336 390
#
# _framework density 20.371776000000001
#
# number of rings (size 3 to 8) (size 9 to 14) (size 15 to 20)
#    0.000    1.000    6.667    1.000    0.000    5.333 
#    6.000    3.333    0.000    0.000    0.000    0.000 
#    0.000    0.000    0.000    0.000    0.000    0.000 
#
# Total GULP energy -134060.957945 kJ/mol
# GULP energy per Si atom -5585.873248 kJ/mol
# Density = 2.032541 g / cm^3
# Si number density = 20.371776 Si / 1000 Ang^3
#
#
#
# Elastic Constant Matrix: (Units=GPa)
#
#
# Indices 1 2 3 4 5 6 
#
# 1 92.9134 27.7630 44.9408 0.0000 13.2127 0.0000
# 2 27.7630 101.0361 9.4406 0.0000 17.5800 0.0000
# 3 44.9408 9.4406 84.7714 0.0000 21.1448 0.0000
# 4 0.0000 0.0000 0.0000 -1.0811 0.0000 5.8752
# 5 13.2127 17.5800 21.1448 0.0000 39.9529 0.0000
# 6 0.0000 0.0000 0.0000 5.8752 0.0000 -5.6035
#
#
#
# Elastic Compliance Matrix: (Units=1/GPa)
#
#
# Indices 1 2 3 4 5 6 
#
# 1 0.015664 -0.003673 -0.008071 0.000000 0.000708 0.000000
# 2 -0.003673 0.011579 0.001873 0.000000 -0.004872 0.000000
# 3 -0.008071 0.001873 0.017750 0.000000 -0.007549 0.000000
# 4 0.000000 0.000000 0.000000 0.196892 0.000000 0.206438
# 5 0.000708 -0.004872 -0.007549 0.000000 0.030934 0.000000
# 6 0.000000 0.000000 0.000000 0.206438 0.000000 0.037987
#
#
# Mechanical properties :
#
#
# Convention : Reuss Voigt Hill
#
# Bulk Modulus (GPa) = 39.60486 49.22329 44.41407
# Shear Modulus (GPa) = 14.75078 19.75877 17.25477
#
# Velocity S-wave (km/s) = 2.69379 3.11772 2.91347
# Velocity P-wave (km/s) = 5.39987 6.09714 5.75907
#
# Compressibility (1/GPa) = 0.02524943
#
# Stress axis : x y z
#
# Youngs Moduli (GPa) = 63.84221 86.36021 56.33880
#
# Poissons Ratio (x) = 0.31721 0.45474
# Poissons Ratio (y) = 0.23450 -0.10551
# Poissons Ratio (z) = 0.51530 -0.16174
#
# Static dielectric constant tensor:
#      x y z
#    x 1.718210 0.000000 -0.000580 
#    y 0.000000 1.726290 0.000000 
#    z -0.000580 0.000000 1.728860 
# 
# From -- ./inp_files/149862.got.cif
#   From: 2010.05.17/outbox.cif.g08.bks.cpg/sg12_75_cif.got.tgz:149862.got - 2010.06.03 13:09:07.
