data_PCOD9213358
_publ_section_title
;
Structure prediction by ZEFSAII (Michael W. Deem and Ramdas Pophale) SiO2 
 PCOD9213358
Probable space group: C 2/M
;
_chemical_formula_sum "Si O2"
_cell_formula_units_Z 56
_cell_length_a 31.781029
_cell_length_b 8.691564
_cell_length_c 12.280586
_cell_angle_alpha 90.000000
_cell_angle_beta 63.199387
_cell_angle_gamma 90.000000
_cell_volume 3027.837846
_symmetry_space_group_name_H-M "C 2/M"
_symmetry_group_IT_number 12
_symmetry_cell_setting 'monoclinic'
loop_
_space_group_symop_operation_xyz
x,y,z
-x,y,-z
-x,-y,-z
x,-y,z
1/2+x,1/2+y,z
1/2-x,1/2+y,-z
1/2-x,1/2-y,-z
1/2+x,1/2-y,z
loop_
_atom_site_type_symbol
_atom_site_label
_atom_site_fract_x
_atom_site_fract_y
_atom_site_fract_z
Si Si1 0.541015 0.685572 0.801964
Si Si2 0.664896 0.814046 0.289056
Si Si3 0.203516 0.816015 0.612946
Si Si4 0.649023 0.814911 0.064272
Si Si5 0.434625 0.314833 0.983911
Si Si6 0.730103 0.184507 0.810305
Si Si7 0.381018 0.815836 0.432531
O O1 0.544060 0.500000 0.791391
O O2 0.485960 0.727109 0.875697
O O3 0.568880 0.760088 0.670386
O O4 0.564795 0.732582 0.889637
O O5 0.646851 0.762403 0.191835
O O6 0.717205 0.749216 0.246555
O O7 0.631814 0.770252 0.428945
O O8 0.668145 0.000000 0.284345
O O9 0.250000 0.750000 0.500000
O O10 0.204452 0.752538 0.734219
O O11 0.158409 0.758704 0.599203
O O12 0.205184 0.000000 0.611808
O O13 0.607398 0.752215 0.037671
O O14 0.646307 0.000000 0.066492
O O15 0.699043 0.772009 0.951566
O O16 0.431592 0.500000 0.986601
O O17 0.731772 0.000000 0.799678
O O18 0.377683 0.000000 0.428591
#
# Coordination Sequence:
#
# PCOD9213358 Si02
#       7
#     8   8   8   8   8   8   8
#     4   9  19  37  60  85 113 142 178 226 283 339
#     4  10  22  39  55  75 112 154 189 230 275 325
#     4  12  23  36  55  80 113 147 182 226 276 326
#     4  10  22  38  56  81 111 146 189 234 278 330
#     4   9  19  37  60  85 110 141 181 228 282 337
#     4  11  22  36  57  84 111 144 190 234 279 333
#     4  11  22  36  56  83 113 148 188 225 276 334
#
# _framework density 18.495045999999999
#
# number of rings (size 3 to 8) (size 9 to 14) (size 15 to 20)
#    0.000    1.714    1.429    4.286    0.000    5.714 
#    0.000    2.143    0.000    4.286    0.000    0.000 
#    0.000    0.000    0.000    0.000    0.000    0.000 
#
# Total GULP energy -156438.318779 kJ/mol
# GULP energy per Si atom -5587.082814 kJ/mol
# Density = 1.845295 g / cm^3
# Si number density = 18.495046 Si / 1000 Ang^3
#
#
#
# Elastic Constant Matrix: (Units=GPa)
#
#
# Indices 1 2 3 4 5 6 
#
# 1 46.3850 15.1209 55.8063 0.0000 2.1658 0.0000
# 2 15.1209 26.0492 38.3955 0.0000 -1.8744 0.0000
# 3 55.8063 38.3955 166.2963 0.0000 -2.4158 0.0000
# 4 0.0000 0.0000 0.0000 21.0516 0.0000 -2.3897
# 5 2.1658 -1.8744 -2.4158 0.0000 25.3529 0.0000
# 6 0.0000 0.0000 0.0000 -2.3897 0.0000 28.3971
#
#
#
# Elastic Compliance Matrix: (Units=1/GPa)
#
#
# Indices 1 2 3 4 5 6 
#
# 1 0.037074 -0.005179 -0.011313 0.000000 -0.004628 0.000000
# 2 -0.005179 0.059149 -0.011865 0.000000 0.003685 0.000000
# 3 -0.011313 -0.011865 0.012568 0.000000 0.001287 0.000000
# 4 0.000000 0.000000 0.000000 0.047960 0.000000 0.004036
# 5 -0.004628 0.003685 0.001287 0.000000 0.040234 0.000000
# 6 0.000000 0.000000 0.000000 0.004036 0.000000 0.035555
#
#
# Mechanical properties :
#
#
# Convention : Reuss Voigt Hill
#
# Bulk Modulus (GPa) = 19.20226 50.81956 35.01091
# Shear Modulus (GPa) = 16.30725 23.58751 19.94738
#
# Velocity S-wave (km/s) = 2.97258 3.57507 3.28765
# Velocity P-wave (km/s) = 4.71026 6.67671 5.77776
#
# Compressibility (1/GPa) = 0.05207722
#
# Stress axis : x y z
#
# Youngs Moduli (GPa) = 26.97341 16.90637 79.56713
#
# Poissons Ratio (x) = 0.08755 0.90013
# Poissons Ratio (y) = 0.13969 0.94409
# Poissons Ratio (z) = 0.30515 0.20060
#
# Static dielectric constant tensor:
#      x y z
#    x 1.605940 0.000000 0.000440 
#    y 0.000000 1.622520 0.000000 
#    z 0.000440 0.000000 1.655790 
# 
# From -- ./inp_files/186369.got.cif
#   From: 2010.05.17/outbox.cif.g08.bks.cpg/sg12_94_cif.got.tgz:186369.got - 2010.06.03 13:09:07.
