data_PCOD9213175
_publ_section_title
;
Structure prediction by ZEFSAII (Michael W. Deem and Ramdas Pophale) SiO2 
 PCOD9213175
Probable space group: C 2/M
;
_chemical_formula_sum "Si O2"
_cell_formula_units_Z 64
_cell_length_a 26.721938
_cell_length_b 14.477339
_cell_length_c 9.347576
_cell_angle_alpha 90.000000
_cell_angle_beta 73.735461
_cell_angle_gamma 90.000000
_cell_volume 3471.501444
_symmetry_space_group_name_H-M "C 2/M"
_symmetry_group_IT_number 12
_symmetry_cell_setting 'monoclinic'
loop_
_space_group_symop_operation_xyz
x,y,z
-x,y,-z
-x,-y,-z
x,-y,z
1/2+x,1/2+y,z
1/2-x,1/2+y,-z
1/2-x,1/2-y,-z
1/2+x,1/2-y,z
loop_
_atom_site_type_symbol
_atom_site_label
_atom_site_fract_x
_atom_site_fract_y
_atom_site_fract_z
Si Si1 0.197927 0.733362 0.954593
Si Si2 0.445708 0.110472 0.978698
Si Si3 0.341899 0.889781 0.244760
Si Si4 0.714532 0.602992 0.745091
Si Si5 0.175026 0.310102 0.425833
Si Si6 0.059362 0.896355 0.402464
Si Si7 0.835229 0.101378 0.526869
Si Si8 0.601186 0.211214 0.241191
O O1 0.198266 0.649321 0.841255
O O2 0.187993 0.824458 0.870036
O O3 0.250000 0.750000 0.000000
O O4 0.152764 0.719488 0.104470
O O5 0.435978 0.150802 0.828907
O O6 0.447403 0.000000 0.965612
O O7 0.500000 0.144322 0.000000
O O8 0.397900 0.131059 0.125742
O O9 0.334296 0.837885 0.401574
O O10 0.336804 0.000000 0.269747
O O11 0.715909 0.500000 0.803971
O O12 0.773578 0.636614 0.667143
O O13 0.683397 0.601691 0.621229
O O14 0.185002 0.199787 0.398890
O O15 0.123499 0.329980 0.372157
O O16 0.102523 0.894331 0.495341
O O17 0.076196 0.811059 0.290685
O O18 0.000000 0.884219 0.500000
O O19 0.063510 0.000000 0.335283
O O20 0.818191 0.000000 0.600275
#
# Coordination Sequence:
#
# PCOD9213175 Si02
#       8
#     8   8   8   8   8   8   8   8
#     4  11  22  40  55  80 119 157 193 233 282 349
#     4   9  20  40  60  80 114 154 190 231 284 343
#     4  10  22  37  57  84 114 152 191 233 289 342
#     4  11  22  35  56  82 114 151 189 235 288 337
#     4  11  20  37  58  84 118 146 189 244 282 343
#     4   9  19  37  60  86 117 148 188 242 299 345
#     4   9  19  34  55  82 111 148 186 231 287 338
#     4  10  22  37  61  86 114 151 193 238 288 347
#
# _framework density 18.435827
#
# number of rings (size 3 to 8) (size 9 to 14) (size 15 to 20)
#    0.000    2.000    2.500    0.750    0.000    4.000 
#    0.000    0.000    0.000    3.000    0.000    0.000 
#    0.000    0.000    0.000    0.000    0.000    0.000 
#
# Total GULP energy -178352.234607 kJ/mol
# GULP energy per Si atom -5573.507331 kJ/mol
# Density = 1.839387 g / cm^3
# Si number density = 18.435827 Si / 1000 Ang^3
#
#
#
# Elastic Constant Matrix: (Units=GPa)
#
#
# Indices 1 2 3 4 5 6 
#
# 1 80.6593 17.0923 20.3439 0.0000 17.9227 0.0000
# 2 17.0923 69.6236 19.9650 0.0000 5.6934 0.0000
# 3 20.3439 19.9650 65.7363 0.0000 16.5262 0.0000
# 4 0.0000 0.0000 0.0000 24.7068 0.0000 2.8910
# 5 17.9227 5.6934 16.5262 0.0000 19.5921 0.0000
# 6 0.0000 0.0000 0.0000 2.8910 0.0000 24.8600
#
#
#
# Elastic Compliance Matrix: (Units=1/GPa)
#
#
# Indices 1 2 3 4 5 6 
#
# 1 0.016116 -0.002627 -0.000857 0.000000 -0.013257 0.000000
# 2 -0.002627 0.016169 -0.004468 0.000000 0.001473 0.000000
# 3 -0.000857 -0.004468 0.020701 0.000000 -0.015379 0.000000
# 4 0.000000 0.000000 0.000000 0.041033 0.000000 -0.004772
# 5 -0.013257 0.001473 -0.015379 0.000000 0.075712 0.000000
# 6 0.000000 0.000000 0.000000 -0.004772 0.000000 0.040780
#
#
# Mechanical properties :
#
#
# Convention : Reuss Voigt Hill
#
# Bulk Modulus (GPa) = 26.96723 36.75795 31.86259
# Shear Modulus (GPa) = 20.94019 24.40633 22.67326
#
# Velocity S-wave (km/s) = 3.37388 3.64243 3.51072
# Velocity P-wave (km/s) = 5.46231 6.13770 5.80982
#
# Compressibility (1/GPa) = 0.03708205
#
# Stress axis : x y z
#
# Youngs Moduli (GPa) = 62.04900 61.84850 48.30725
#
# Poissons Ratio (x) = 0.16245 0.04141
# Poissons Ratio (y) = 0.16298 0.21584
# Poissons Ratio (z) = 0.05318 0.27634
#
# Static dielectric constant tensor:
#      x y z
#    x 1.656360 0.000000 0.020140 
#    y 0.000000 1.664820 0.000000 
#    z 0.020140 0.000000 1.624600 
# 
# From -- ./inp_files/104583.got.cif
#   From: 2010.05.17/outbox.cif.g08.bks.cpg/sg12_53_cif.got.tgz:104583.got - 2010.06.03 13:09:07.
