data_PCOD9213556
_publ_section_title
;
Structure prediction by ZEFSAII (Michael W. Deem and Ramdas Pophale) SiO2 
 PCOD9213556
Probable space group: C 2/M
;
_chemical_formula_sum "Si O2"
_cell_formula_units_Z 64
_cell_length_a 21.173103
_cell_length_b 17.272630
_cell_length_c 24.169202
_cell_angle_alpha 90.000000
_cell_angle_beta 20.441849
_cell_angle_gamma 90.000000
_cell_volume 3087.093963
_symmetry_space_group_name_H-M "C 2/M"
_symmetry_group_IT_number 12
_symmetry_cell_setting 'monoclinic'
loop_
_space_group_symop_operation_xyz
x,y,z
-x,y,-z
-x,-y,-z
x,-y,z
1/2+x,1/2+y,z
1/2-x,1/2+y,-z
1/2-x,1/2-y,-z
1/2+x,1/2-y,z
loop_
_atom_site_type_symbol
_atom_site_label
_atom_site_fract_x
_atom_site_fract_y
_atom_site_fract_z
Si Si1 0.653133 0.089338 0.125281
Si Si2 0.554691 0.916090 0.590446
Si Si3 0.471981 0.679538 0.924024
Si Si4 0.276066 0.726358 0.790900
Si Si5 0.909574 0.333861 0.234134
Si Si6 0.168357 0.369157 0.323081
Si Si7 0.151472 0.249750 0.522853
Si Si8 0.300953 0.590800 0.689997
O O1 0.506468 0.089815 0.295769
O O2 0.566978 0.130939 0.142911
O O3 0.693737 0.000000 0.079331
O O4 0.824706 0.132286 0.010461
O O5 0.375611 0.911045 0.698738
O O6 0.663308 0.837497 0.488828
O O7 0.641510 0.000000 0.509464
O O8 0.540293 0.749975 0.830488
O O9 0.635441 0.624635 0.810700
O O10 0.382469 0.726269 0.049074
O O11 0.339285 0.778420 0.686782
O O12 0.439964 0.730360 0.699919
O O13 0.254732 0.642459 0.781886
O O14 0.739255 0.315240 0.412837
O O15 0.845583 0.387781 0.236660
O O16 0.000000 0.390415 0.500000
O O17 0.250000 0.250000 0.500000
O O18 0.500000 0.608774 0.500000
O O19 0.298745 0.500000 0.704571
#
# Coordination Sequence:
#
# PCOD9213556 Si02
#       8
#     8   8   8   8   8   8   8   8
#     4  11  24  42  61  92 130 167 216 263 316 381
#     4  10  22  38  60  92 130 162 205 266 321 374
#     4  12  23  40  68  94 124 170 215 262 319 388
#     4  11  21  39  60  95 127 160 213 261 316 382
#     4  12  23  40  66  94 124 172 219 266 314 382
#     4  11  22  39  66  93 124 164 210 262 317 388
#     4  11  20  39  65  90 123 166 216 258 310 381
#     4  11  23  39  64  98 131 169 215 271 329 373
#
# _framework density 20.731470999999999
#
# number of rings (size 3 to 8) (size 9 to 14) (size 15 to 20)
#    0.000    0.875    6.250    3.000    0.000    0.750 
#    0.000    5.625    0.000    0.000    0.000    0.000 
#    0.000    0.000    0.000    0.000    0.000    0.000 
#
# Total GULP energy -178645.857289 kJ/mol
# GULP energy per Si atom -5582.683040 kJ/mol
# Density = 2.068429 g / cm^3
# Si number density = 20.731471 Si / 1000 Ang^3
#
#
#
# Elastic Constant Matrix: (Units=GPa)
#
#
# Indices 1 2 3 4 5 6 
#
# 1 135.2662 33.2178 34.4935 -0.0090 -32.6502 0.0037
# 2 33.2178 93.5144 7.0094 0.0249 -13.3805 0.0031
# 3 34.4935 7.0094 64.7995 0.0236 -15.2081 0.0072
# 4 -0.0090 0.0249 0.0236 16.7045 0.0123 -2.2302
# 5 -32.6502 -13.3805 -15.2081 0.0123 32.5029 -0.0050
# 6 0.0037 0.0031 0.0072 -2.2302 -0.0050 18.1817
#
#
#
# Elastic Compliance Matrix: (Units=1/GPa)
#
#
# Indices 1 2 3 4 5 6 
#
# 1 0.010901 -0.002419 -0.003600 0.000009 0.008270 0.000003
# 2 -0.002419 0.011901 0.000651 -0.000023 0.002774 -0.000004
# 3 -0.003600 0.000651 0.018527 -0.000034 0.005320 -0.000009
# 4 0.000009 -0.000023 -0.000034 0.060861 -0.000038 0.007465
# 5 0.008270 0.002774 0.005320 -0.000038 0.042706 0.000003
# 6 0.000003 -0.000004 -0.000009 0.007465 0.000003 0.055916
#
#
# Mechanical properties :
#
#
# Convention : Reuss Voigt Hill
#
# Bulk Modulus (GPa) = 32.68689 49.22460 40.95575
# Shear Modulus (GPa) = 22.54843 28.06846 25.30845
#
# Velocity S-wave (km/s) = 3.30152 3.68354 3.49775
# Velocity P-wave (km/s) = 5.50767 6.47199 6.00921
#
# Compressibility (1/GPa) = 0.03059330
#
# Stress axis : x y z
#
# Youngs Moduli (GPa) = 91.73307 84.02703 53.97569
#
# Poissons Ratio (x) = 0.20327 0.19432
# Poissons Ratio (y) = 0.22191 -0.03516
# Poissons Ratio (z) = 0.33026 -0.05474
#
# Static dielectric constant tensor:
#      x y z
#    x 1.759840 -0.000010 0.013180 
#    y -0.000010 1.748450 0.000020 
#    z 0.013180 0.000020 1.820510 
# 
# From -- ./inp_files/347867.got.cif
#   From: 2010.05.17/outbox.cif.g08.bks.cpg/sg12_174_cif.got.tgz:347867.got - 2010.06.03 13:09:07.
