data_PCOD9213494
_publ_section_title
;
Structure prediction by ZEFSAII (Michael W. Deem and Ramdas Pophale) SiO2 
 PCOD9213494
Probable space group: C 2/M
;
_chemical_formula_sum "Si O2"
_cell_formula_units_Z 58
_cell_length_a 8.947025
_cell_length_b 29.636481
_cell_length_c 11.517517
_cell_angle_alpha 90.000000
_cell_angle_beta 89.510232
_cell_angle_gamma 90.000000
_cell_volume 3053.854072
_symmetry_space_group_name_H-M "C 2/M"
_symmetry_group_IT_number 12
_symmetry_cell_setting 'monoclinic'
loop_
_space_group_symop_operation_xyz
x,y,z
-x,y,-z
-x,-y,-z
x,-y,z
1/2+x,1/2+y,z
1/2-x,1/2+y,-z
1/2-x,1/2-y,-z
1/2+x,1/2-y,z
loop_
_atom_site_type_symbol
_atom_site_label
_atom_site_fract_x
_atom_site_fract_y
_atom_site_fract_z
Si Si1 0.822631 0.358398 0.986678
Si Si2 0.217565 0.293349 0.798681
Si Si3 0.413539 0.654420 0.610514
Si Si4 0.628709 0.425674 0.680571
Si Si5 0.640595 0.803343 0.238264
Si Si6 0.500000 0.500000 0.500000
Si Si7 0.164688 0.049481 0.946551
Si Si8 0.839188 0.630785 0.556614
O O1 0.765566 0.321973 0.082111
O O2 0.803954 0.339459 0.857094
O O3 0.750340 0.407464 0.997352
O O4 0.000000 0.362257 0.000000
O O5 0.328163 0.314898 0.702551
O O6 0.271610 0.241791 0.797763
O O7 0.039895 0.296484 0.770134
O O8 0.500000 0.677236 0.500000
O O9 0.525944 0.619538 0.671188
O O10 0.280968 0.628712 0.545177
O O11 0.558314 0.460859 0.591641
O O12 0.642266 0.443833 0.809502
O O13 0.793739 0.410487 0.638873
O O14 0.672174 0.823796 0.365340
O O15 0.233778 0.000000 0.969099
O O16 0.000000 0.049641 0.000000
O O17 0.000000 0.628043 0.500000
#
# Coordination Sequence:
#
# PCOD9213494 Si02
#       8
#     8   8   8   8   8   2   8   8
#     4  10  23  44  63  87 127 165 205 261 321 370
#     4  11  24  40  60  90 123 162 214 259 314 382
#     4  10  22  38  59  88 121 168 199 252 318 366
#     4  11  22  40  67  91 131 166 206 261 313 377
#     4  11  24  38  63  90 122 166 210 264 312 376
#     4  12  20  40  68  96 122 170 210 250 306 374
#     4  11  23  39  67  99 124 161 212 261 314 376
#     4  11  21  40  62  90 127 166 210 256 322 376
#
# _framework density 18.992394000000001
#
# number of rings (size 3 to 8) (size 9 to 14) (size 15 to 20)
#    0.000    1.241    5.517    1.241    3.862    2.483 
#    0.000    0.345    0.000    0.000    0.000    0.000 
#    0.000    0.000    0.000    0.000    0.000    0.000 
#
# Total GULP energy -161483.520956 kJ/mol
# GULP energy per Si atom -5568.397274 kJ/mol
# Density = 1.894917 g / cm^3
# Si number density = 18.992394 Si / 1000 Ang^3
#
#
#
# Elastic Constant Matrix: (Units=GPa)
#
#
# Indices 1 2 3 4 5 6 
#
# 1 69.3947 31.2158 22.3126 0.0000 -20.5254 0.0000
# 2 31.2158 114.0846 22.2291 0.0000 -12.4544 0.0000
# 3 22.3126 22.2291 65.8867 0.0000 -18.5062 0.0000
# 4 0.0000 0.0000 0.0000 -8.2892 0.0000 29.5732
# 5 -20.5254 -12.4544 -18.5062 0.0000 27.6096 0.0000
# 6 0.0000 0.0000 0.0000 29.5732 0.0000 4.5611
#
#
#
# Elastic Compliance Matrix: (Units=1/GPa)
#
#
# Indices 1 2 3 4 5 6 
#
# 1 0.020386 -0.003837 -0.002265 0.000000 0.011906 0.000000
# 2 -0.003837 0.010258 -0.002049 0.000000 0.000402 0.000000
# 3 -0.002265 -0.002049 0.019592 0.000000 0.010524 0.000000
# 4 0.000000 0.000000 0.000000 -0.004999 0.000000 0.032413
# 5 0.011906 0.000402 0.010524 0.000000 0.052306 0.000000
# 6 0.000000 0.000000 0.000000 0.032413 0.000000 0.009085
#
#
# Mechanical properties :
#
#
# Convention : Reuss Voigt Hill
#
# Bulk Modulus (GPa) = 29.46817 44.54234 37.00525
# Shear Modulus (GPa) = 37.24627 16.35019 26.79823
#
# Velocity S-wave (km/s) = 4.43325 2.93726 3.76040
# Velocity P-wave (km/s) = 6.46177 5.91667 6.19522
#
# Compressibility (1/GPa) = 0.03393492
#
# Stress axis : x y z
#
# Youngs Moduli (GPa) = 49.05276 97.48163 51.04171
#
# Poissons Ratio (x) = 0.37403 0.11561
# Poissons Ratio (y) = 0.18821 0.10457
# Poissons Ratio (z) = 0.11111 0.19972
#
# Static dielectric constant tensor:
#      x y z
#    x 1.656080 0.000000 -0.011200 
#    y 0.000000 1.682470 0.000000 
#    z -0.011200 0.000000 1.694380 
# 
# From -- ./inp_files/125272.got.cif
#   From: 2010.05.17/outbox.cif.g08.bks.cpg/sg12_63_cif.got.tgz:125272.got - 2010.06.03 13:09:07.
