data_PCOD9213224
_publ_section_title
;
Structure prediction by ZEFSAII (Michael W. Deem and Ramdas Pophale) SiO2 
 PCOD9213224
Probable space group: C 2/M
;
_chemical_formula_sum "Si O2"
_cell_formula_units_Z 56
_cell_length_a 26.695093
_cell_length_b 16.326560
_cell_length_c 9.781174
_cell_angle_alpha 90.000000
_cell_angle_beta 136.273609
_cell_angle_gamma 90.000000
_cell_volume 2946.663080
_symmetry_space_group_name_H-M "C 2/M"
_symmetry_group_IT_number 12
_symmetry_cell_setting 'monoclinic'
loop_
_space_group_symop_operation_xyz
x,y,z
-x,y,-z
-x,-y,-z
x,-y,z
1/2+x,1/2+y,z
1/2-x,1/2+y,-z
1/2-x,1/2-y,-z
1/2+x,1/2-y,z
loop_
_atom_site_type_symbol
_atom_site_label
_atom_site_fract_x
_atom_site_fract_y
_atom_site_fract_z
Si Si1 0.768028 0.593138 0.055753
Si Si2 0.311844 0.324222 0.340336
Si Si3 0.603744 0.246551 0.094546
Si Si4 0.946531 0.744804 0.689067
Si Si5 0.929162 0.595735 0.454210
Si Si6 0.258251 0.347203 0.703329
Si Si7 0.798950 0.592507 0.694478
O O1 0.759333 0.500000 0.988800
O O2 0.853921 0.613034 0.225906
O O3 0.743107 0.599458 0.163394
O O4 0.721361 0.654071 0.871548
O O5 0.397938 0.313140 0.517372
O O6 0.282688 0.236698 0.336335
O O7 0.275241 0.389459 0.369898
O O8 0.580663 0.243739 0.207861
O O9 0.662696 0.317066 0.186869
O O10 0.643020 0.159888 0.141856
O O11 0.532212 0.259570 0.864392
O O12 0.933715 0.658247 0.588783
O O13 0.925739 0.500000 0.489856
O O14 0.000000 0.606494 0.500000
O O15 0.218462 0.389406 0.498183
O O16 0.823565 0.500000 0.763767
#
# Coordination Sequence:
#
# PCOD9213224 Si02
#       7
#     8   8   8   8   8   8   8
#     4  11  23  38  61  89 120 159 203 253 307 358
#     4  11  21  38  59  87 118 161 206 249 292 356
#     4  10  22  37  59  92 118 157 203 251 303 361
#     4  11  21  38  61  84 124 160 203 247 301 364
#     4  10  23  38  54  86 130 165 194 240 308 376
#     4  11  20  39  62  87 119 159 206 252 296 362
#     4  11  21  37  62  90 123 157 198 252 306 359
#
# _framework density 19.004549000000001
#
# number of rings (size 3 to 8) (size 9 to 14) (size 15 to 20)
#    0.000    1.286    4.286    2.143    4.000    2.286 
#    0.000    1.429    0.000    5.143    0.000    0.000 
#    0.000    0.000    0.000    0.000    0.000    0.000 
#
# Total GULP energy -156374.103607 kJ/mol
# GULP energy per Si atom -5584.789415 kJ/mol
# Density = 1.896129 g / cm^3
# Si number density = 19.004549 Si / 1000 Ang^3
#
#
#
# Elastic Constant Matrix: (Units=GPa)
#
#
# Indices 1 2 3 4 5 6 
#
# 1 78.2711 21.0654 43.0968 0.0000 12.2451 0.0000
# 2 21.0654 38.9531 17.3297 0.0000 11.8189 0.0000
# 3 43.0968 17.3297 112.2139 0.0000 20.3887 0.0000
# 4 0.0000 0.0000 0.0000 19.9516 0.0000 -4.4250
# 5 12.2451 11.8189 20.3887 0.0000 39.8405 0.0000
# 6 0.0000 0.0000 0.0000 -4.4250 0.0000 26.3266
#
#
#
# Elastic Compliance Matrix: (Units=1/GPa)
#
#
# Indices 1 2 3 4 5 6 
#
# 1 0.017867 -0.006976 -0.005692 0.000000 -0.000509 0.000000
# 2 -0.006976 0.031966 -0.001019 0.000000 -0.006818 0.000000
# 3 -0.005692 -0.001019 0.011998 0.000000 -0.004088 0.000000
# 4 0.000000 0.000000 0.000000 0.052062 0.000000 0.008751
# 5 -0.000509 -0.006818 -0.004088 0.000000 0.029371 0.000000
# 6 0.000000 0.000000 0.000000 0.008751 0.000000 0.039455
#
#
# Mechanical properties :
#
#
# Convention : Reuss Voigt Hill
#
# Bulk Modulus (GPa) = 29.02112 43.60243 36.31178
# Shear Modulus (GPa) = 22.56525 27.08681 24.82603
#
# Velocity S-wave (km/s) = 3.44955 3.77938 3.61823
# Velocity P-wave (km/s) = 5.58298 6.48367 6.05011
#
# Compressibility (1/GPa) = 0.03445766
#
# Stress axis : x y z
#
# Youngs Moduli (GPa) = 55.96795 31.28317 83.34787
#
# Poissons Ratio (x) = 0.21822 0.47444
# Poissons Ratio (y) = 0.39041 0.08493
# Poissons Ratio (z) = 0.31859 0.03188
#
# Static dielectric constant tensor:
#      x y z
#    x 1.683750 0.000000 0.006280 
#    y 0.000000 1.642260 0.000000 
#    z 0.006280 0.000000 1.681320 
# 
# From -- ./inp_files/98217.got.cif
#   From: 2010.05.17/outbox.cif.g08.bks.cpg/sg12_50_cif.got.tgz:98217.got - 2010.06.03 13:09:07.
