data_PCOD9213575
_publ_section_title
;
Structure prediction by ZEFSAII (Michael W. Deem and Ramdas Pophale) SiO2 
 PCOD9213575
Probable space group: C 2/M
;
_chemical_formula_sum "Si O2"
_cell_formula_units_Z 40
_cell_length_a 12.948008
_cell_length_b 27.704627
_cell_length_c 7.942189
_cell_angle_alpha 90.000000
_cell_angle_beta 145.395867
_cell_angle_gamma 90.000000
_cell_volume 1617.967296
_symmetry_space_group_name_H-M "C 2/M"
_symmetry_group_IT_number 12
_symmetry_cell_setting 'monoclinic'
loop_
_space_group_symop_operation_xyz
x,y,z
-x,y,-z
-x,-y,-z
x,-y,z
1/2+x,1/2+y,z
1/2-x,1/2+y,-z
1/2-x,1/2-y,-z
1/2+x,1/2-y,z
loop_
_atom_site_type_symbol
_atom_site_label
_atom_site_fract_x
_atom_site_fract_y
_atom_site_fract_z
Si Si1 0.818881 0.053687 0.875852
Si Si2 0.009251 0.135939 0.314682
Si Si3 0.963160 0.306368 0.189069
Si Si4 0.895207 0.406854 0.712889
Si Si5 0.203517 0.214522 0.157945
O O1 0.656318 0.067333 0.530615
O O2 0.795563 0.000000 0.914810
O O3 0.860932 0.094521 0.069539
O O4 0.000000 0.053268 0.000000
O O5 0.000000 0.149552 0.500000
O O6 0.203580 0.113433 0.527066
O O7 0.960241 0.179855 0.122689
O O8 0.842536 0.297112 0.192272
O O9 0.974465 0.361442 0.150822
O O10 0.170858 0.294399 0.513781
O O11 0.864734 0.269141 0.934069
O O12 0.000000 0.435649 0.000000
#
# Coordination Sequence:
#
# PCOD9213575 Si02
#       5
#     8   8   8   8   8
#     4   9  20  42  67  91 124 164 206 260 321 379
#     4  11  23  40  64  91 127 167 210 258 314 373
#     4  10  22  39  59  89 126 167 207 255 310 367
#     4  11  23  40  62  95 126 163 212 259 312 373
#     4  10  22  38  61  88 127 166 207 254 311 367
#
# _framework density 24.722377999999999
#
# number of rings (size 3 to 8) (size 9 to 14) (size 15 to 20)
#    0.000    1.800    2.000    1.200    8.400    1.600 
#    0.000    0.000    0.000    8.400    0.000    0.000 
#    0.000    0.000    0.000    0.000    0.000    0.000 
#
# Total GULP energy -111865.797348 kJ/mol
# GULP energy per Si atom -5593.289867 kJ/mol
# Density = 2.466611 g / cm^3
# Si number density = 24.722378 Si / 1000 Ang^3
#
#
#
# Elastic Constant Matrix: (Units=GPa)
#
#
# Indices 1 2 3 4 5 6 
#
# 1 88.0302 -9.0571 12.1636 0.0000 6.4975 0.0000
# 2 -9.0571 95.1073 28.8457 0.0000 -4.6996 0.0000
# 3 12.1636 28.8457 160.3092 0.0000 -10.5481 0.0000
# 4 0.0000 0.0000 0.0000 24.5190 0.0000 0.9968
# 5 6.4975 -4.6996 -10.5481 0.0000 40.3263 0.0000
# 6 0.0000 0.0000 0.0000 0.9968 0.0000 16.6752
#
#
#
# Elastic Compliance Matrix: (Units=1/GPa)
#
#
# Indices 1 2 3 4 5 6 
#
# 1 0.011837 0.001416 -0.001290 0.000000 -0.002080 0.000000
# 2 0.001416 0.011315 -0.002108 0.000000 0.000539 0.000000
# 3 -0.001290 -0.002108 0.006830 0.000000 0.001749 0.000000
# 4 0.000000 0.000000 0.000000 0.040884 0.000000 -0.002444
# 5 -0.002080 0.000539 0.001749 0.000000 0.025653 0.000000
# 6 0.000000 0.000000 0.000000 -0.002444 0.000000 0.060115
#
#
# Mechanical properties :
#
#
# Convention : Reuss Voigt Hill
#
# Bulk Modulus (GPa) = 38.43429 45.26122 41.84775
# Shear Modulus (GPa) = 29.53830 37.07041 33.30436
#
# Velocity S-wave (km/s) = 3.46034 3.87650 3.67431
# Velocity P-wave (km/s) = 5.61653 6.19547 5.91309
#
# Compressibility (1/GPa) = 0.02601843
#
# Stress axis : x y z
#
# Youngs Moduli (GPa) = 84.48023 88.37645 146.40926
#
# Poissons Ratio (x) = -0.12511 0.18883
# Poissons Ratio (y) = -0.11959 0.30863
# Poissons Ratio (z) = 0.10896 0.18630
#
# Static dielectric constant tensor:
#      x y z
#    x 2.017270 0.000000 0.014730 
#    y 0.000000 1.919180 0.000000 
#    z 0.014730 0.000000 2.000760 
# 
# From -- ./inp_files/68739.got.cif
#   From: 2010.05.17/outbox.cif.g08.bks.cpg/sg12_35_cif.got.tgz:68739.got - 2010.06.03 13:09:07.
