data_PCOD9213463
_publ_section_title
;
Structure prediction by ZEFSAII (Michael W. Deem and Ramdas Pophale) SiO2 
 PCOD9213463
Probable space group: C 2/M
;
_chemical_formula_sum "Si O2"
_cell_formula_units_Z 52
_cell_length_a 17.146806
_cell_length_b 29.150428
_cell_length_c 5.115806
_cell_angle_alpha 90.000000
_cell_angle_beta 108.453898
_cell_angle_gamma 90.000000
_cell_volume 2425.579915
_symmetry_space_group_name_H-M "C 2/M"
_symmetry_group_IT_number 12
_symmetry_cell_setting 'monoclinic'
loop_
_space_group_symop_operation_xyz
x,y,z
-x,y,-z
-x,-y,-z
x,-y,z
1/2+x,1/2+y,z
1/2-x,1/2+y,-z
1/2-x,1/2-y,-z
1/2+x,1/2-y,z
loop_
_atom_site_type_symbol
_atom_site_label
_atom_site_fract_x
_atom_site_fract_y
_atom_site_fract_z
Si Si1 0.243212 0.445815 0.298888
Si Si2 0.643937 0.833193 0.746397
Si Si3 0.500000 0.265517 0.000000
Si Si4 0.911721 0.384555 0.803276
Si Si5 0.343229 0.258311 0.498759
Si Si6 0.920801 0.161022 0.293990
Si Si7 0.797612 0.104626 0.842142
O O1 0.247863 0.500000 0.333099
O O2 0.153190 0.426029 0.277040
O O3 0.302268 0.419668 0.567584
O O4 0.263215 0.430524 0.024785
O O5 0.586490 0.857760 0.468829
O O6 0.645641 0.778879 0.719559
O O7 0.732393 0.853839 0.763452
O O8 0.622203 0.850253 0.010338
O O9 0.418879 0.244795 0.773952
O O10 0.538296 0.297544 0.819833
O O11 0.000000 0.399911 0.000000
O O12 0.250000 0.250000 0.500000
O O13 0.359153 0.311088 0.423533
O O14 0.000000 0.136696 0.500000
O O15 0.877283 0.127313 0.048741
#
# Coordination Sequence:
#
# PCOD9213463 Si02
#       7
#     8   8   4   8   8   8   8
#     4  10  22  41  66  95 121 157 208 262 325 396
#     4  10  23  37  57  88 125 169 216 255 300 364
#     4  10  24  40  58  92 129 174 223 266 316 370
#     4  10  22  38  58  89 126 168 208 254 314 374
#     4  11  25  39  62  90 130 178 222 271 317 371
#     4  10  24  41  63  93 126 170 219 263 321 378
#     4  10  22  40  66  90 123 162 205 259 319 379
#
# _framework density 21.438171000000001
#
# number of rings (size 3 to 8) (size 9 to 14) (size 15 to 20)
#    0.000    1.846    0.000    1.846   14.000    4.000 
#    0.000    0.000    0.000    8.308    0.000    0.000 
#    0.000    0.000    0.000    0.000    0.000    0.000 
#
# Total GULP energy -145244.949004 kJ/mol
# GULP energy per Si atom -5586.344192 kJ/mol
# Density = 2.138938 g / cm^3
# Si number density = 21.438171 Si / 1000 Ang^3
#
#
#
# Elastic Constant Matrix: (Units=GPa)
#
#
# Indices 1 2 3 4 5 6 
#
# 1 73.8163 6.1283 21.1863 0.0000 18.4065 0.0000
# 2 6.1283 81.3155 24.0086 0.0000 17.4032 0.0000
# 3 21.1863 24.0086 76.5199 0.0000 26.2723 0.0000
# 4 0.0000 0.0000 0.0000 27.5825 0.0000 -3.0145
# 5 18.4065 17.4032 26.2723 0.0000 46.2266 0.0000
# 6 0.0000 0.0000 0.0000 -3.0145 0.0000 7.4059
#
#
#
# Elastic Compliance Matrix: (Units=1/GPa)
#
#
# Indices 1 2 3 4 5 6 
#
# 1 0.015511 0.000707 -0.002863 0.000000 -0.004815 0.000000
# 2 0.000707 0.014013 -0.003335 0.000000 -0.003661 0.000000
# 3 -0.002863 -0.003335 0.017500 0.000000 -0.007550 0.000000
# 4 0.000000 0.000000 0.000000 0.037943 0.000000 0.015444
# 5 -0.004815 -0.003661 -0.007550 0.000000 0.029219 0.000000
# 6 0.000000 0.000000 0.000000 0.015444 0.000000 0.141314
#
#
# Mechanical properties :
#
#
# Convention : Reuss Voigt Hill
#
# Bulk Modulus (GPa) = 27.74639 37.14424 32.44531
# Shear Modulus (GPa) = 17.95356 28.26491 23.10924
#
# Velocity S-wave (km/s) = 2.89703 3.63497 3.28677
# Velocity P-wave (km/s) = 4.91538 5.91449 5.43793
#
# Compressibility (1/GPa) = 0.03604073
#
# Stress axis : x y z
#
# Youngs Moduli (GPa) = 64.47093 71.36301 57.14300
#
# Poissons Ratio (x) = -0.05045 0.16361
# Poissons Ratio (y) = -0.04557 0.19059
# Poissons Ratio (z) = 0.18459 0.23801
#
# Static dielectric constant tensor:
#      x y z
#    x 3.286540 0.000000 1.542170 
#    y 0.000000 1.734060 0.000000 
#    z 1.542170 0.000000 3.485790 
# 
# From -- ./inp_files/18189.got.cif
#   From: 2010.05.17/outbox.cif.g08.bks.cpg/sg12_10_cif.got.tgz:18189.got - 2010.06.03 13:09:07.
