data_PCOD9213554
_publ_section_title
;
Structure prediction by ZEFSAII (Michael W. Deem and Ramdas Pophale) SiO2 
 PCOD9213554
Probable space group: C 2/M
;
_chemical_formula_sum "Si O2"
_cell_formula_units_Z 56
_cell_length_a 25.420741
_cell_length_b 13.417596
_cell_length_c 8.465788
_cell_angle_alpha 90.000000
_cell_angle_beta 108.936224
_cell_angle_gamma 90.000000
_cell_volume 2731.281877
_symmetry_space_group_name_H-M "C 2/M"
_symmetry_group_IT_number 12
_symmetry_cell_setting 'monoclinic'
loop_
_space_group_symop_operation_xyz
x,y,z
-x,y,-z
-x,-y,-z
x,-y,z
1/2+x,1/2+y,z
1/2-x,1/2+y,-z
1/2-x,1/2-y,-z
1/2+x,1/2-y,z
loop_
_atom_site_type_symbol
_atom_site_label
_atom_site_fract_x
_atom_site_fract_y
_atom_site_fract_z
Si Si1 0.380186 0.200186 0.668559
Si Si2 0.192569 0.612300 0.657077
Si Si3 0.334548 0.256900 0.083061
Si Si4 0.698206 0.384638 0.423835
Si Si5 0.055530 0.283728 0.966088
Si Si6 0.749683 0.383196 0.823354
Si Si7 0.979873 0.608781 0.656420
O O1 0.338100 0.127345 0.540047
O O2 0.350908 0.306573 0.648566
O O3 0.407327 0.168475 0.859513
O O4 0.434807 0.196293 0.614264
O O5 0.184907 0.500000 0.707000
O O6 0.168679 0.688105 0.762177
O O7 0.256618 0.628139 0.671238
O O8 0.299337 0.353452 0.101213
O O9 0.397182 0.276692 0.084449
O O10 0.299466 0.190978 0.921879
O O11 0.680455 0.500000 0.407282
O O12 0.727117 0.365068 0.623094
O O13 0.000000 0.238177 0.000000
O O14 0.029168 0.363419 0.822421
O O15 0.764292 0.500000 0.850154
O O16 0.955986 0.500000 0.677046
O O17 0.000000 0.601842 0.500000
#
# Coordination Sequence:
#
# PCOD9213554 Si02
#       7
#     8   8   8   8   8   8   8
#     4  11  21  37  59  84 119 156 199 241 300 356
#     4  11  22  35  58  89 122 159 200 244 295 358
#     4  11  22  38  62  89 124 162 200 252 300 355
#     4  10  22  39  59  86 120 159 198 243 299 359
#     4  10  24  40  60  86 121 162 197 243 299 357
#     4  10  22  38  60  92 125 160 202 248 303 360
#     4  10  22  40  62  89 118 152 197 246 298 355
#
# _framework density 20.503191999999999
#
# number of rings (size 3 to 8) (size 9 to 14) (size 15 to 20)
#    0.000    1.571    1.429    3.000    4.000    5.429 
#    0.000    0.000    0.000    8.143    0.000    0.000 
#    0.000    0.000    0.000    0.000    0.000    0.000 
#
# Total GULP energy -156174.295317 kJ/mol
# GULP energy per Si atom -5577.653404 kJ/mol
# Density = 2.045653 g / cm^3
# Si number density = 20.503192 Si / 1000 Ang^3
#
#
#
# Elastic Constant Matrix: (Units=GPa)
#
#
# Indices 1 2 3 4 5 6 
#
# 1 125.4821 17.2861 31.4196 0.0000 -5.7968 0.0000
# 2 17.2861 62.0556 35.9571 0.0000 6.3175 0.0000
# 3 31.4196 35.9571 100.9109 0.0000 12.7410 0.0000
# 4 0.0000 0.0000 0.0000 -2.5926 0.0000 -2.9104
# 5 -5.7968 6.3175 12.7410 0.0000 29.1608 0.0000
# 6 0.0000 0.0000 0.0000 -2.9104 0.0000 24.2540
#
#
#
# Elastic Compliance Matrix: (Units=1/GPa)
#
#
# Indices 1 2 3 4 5 6 
#
# 1 0.008983 -0.001229 -0.002771 0.000000 0.003263 0.000000
# 2 -0.001229 0.020523 -0.006708 0.000000 -0.001760 0.000000
# 3 -0.002771 -0.006708 0.013811 0.000000 -0.005132 0.000000
# 4 0.000000 0.000000 0.000000 -0.339921 0.000000 -0.040789
# 5 0.003263 -0.001760 -0.005132 0.000000 0.037565 0.000000
# 6 0.000000 0.000000 0.000000 -0.040789 0.000000 0.036336
#
#
# Mechanical properties :
#
#
# Convention : Reuss Voigt Hill
#
# Bulk Modulus (GPa) = 45.66037 50.86380 48.26208
# Shear Modulus (GPa) = -25.77476 23.75015 -1.01230
#
# Velocity S-wave (km/s) = -3.54942 3.40717 -0.70342
# Velocity P-wave (km/s) = 2.34955 6.35138 4.78855
#
# Compressibility (1/GPa) = 0.02190083
#
# Stress axis : x y z
#
# Youngs Moduli (GPa) = 111.31997 48.72608 72.40759
#
# Poissons Ratio (x) = 0.05988 0.20065
# Poissons Ratio (y) = 0.13679 0.48571
# Poissons Ratio (z) = 0.30847 0.32686
#
# Static dielectric constant tensor:
#      x y z
#    x 1.813030 0.000000 -0.028740 
#    y 0.000000 1.691450 0.000000 
#    z -0.028740 0.000000 1.797160 
# 
# From -- ./inp_files/96458.got.cif
#   From: 2010.05.17/outbox.cif.g08.bks.cpg/sg12_49_cif.got.tgz:96458.got - 2010.06.03 13:09:07.
