data_PCOD9213276
_publ_section_title
;
Structure prediction by ZEFSAII (Michael W. Deem and Ramdas Pophale) SiO2 
 PCOD9213276
Probable space group: C 2/M
;
_chemical_formula_sum "Si O2"
_cell_formula_units_Z 42
_cell_length_a 13.640125
_cell_length_b 19.739535
_cell_length_c 8.778990
_cell_angle_alpha 90.000000
_cell_angle_beta 122.321083
_cell_angle_gamma 90.000000
_cell_volume 1997.514844
_symmetry_space_group_name_H-M "C 2/M"
_symmetry_group_IT_number 12
_symmetry_cell_setting 'monoclinic'
loop_
_space_group_symop_operation_xyz
x,y,z
-x,y,-z
-x,-y,-z
x,-y,z
1/2+x,1/2+y,z
1/2-x,1/2+y,-z
1/2-x,1/2-y,-z
1/2+x,1/2-y,z
loop_
_atom_site_type_symbol
_atom_site_label
_atom_site_fract_x
_atom_site_fract_y
_atom_site_fract_z
Si Si1 0.579888 0.693708 0.301995
Si Si2 0.360828 0.620249 0.204910
Si Si3 0.500000 0.500000 0.500000
Si Si4 0.193704 0.673310 0.298408
Si Si5 0.404054 0.922256 0.530724
Si Si6 0.160039 0.924624 0.158321
O O1 0.453719 0.682415 0.270085
O O2 0.684168 0.688570 0.511685
O O3 0.612548 0.760705 0.234914
O O4 0.591702 0.629758 0.200239
O O5 0.418241 0.560363 0.353327
O O6 0.240545 0.645504 0.178287
O O7 0.339562 0.592308 0.018140
O O8 0.126218 0.617930 0.342499
O O9 0.500000 0.890372 0.500000
O O10 0.288489 0.922858 0.333748
O O11 0.437350 0.000000 0.593659
O O12 0.115215 0.000000 0.152904
#
# Coordination Sequence:
#
# PCOD9213276 Si02
#       6
#     8   8   2   8   8   8
#     4  10  22  38  56  87 123 168 204 243 309 375
#     4  12  23  39  63  96 128 160 209 258 321 366
#     4  12  24  36  66 100 130 164 192 274 318 372
#     4  10  22  38  61  86 123 165 206 253 304 371
#     4   9  20  40  64  89 119 164 212 253 312 379
#     4  10  22  37  62  92 126 160 206 265 314 369
#
# _framework density 21.026126999999999
#
# number of rings (size 3 to 8) (size 9 to 14) (size 15 to 20)
#    0.000    1.714    2.857    0.571    2.667    6.095 
#    0.000    2.857    0.000    3.429    0.000    0.000 
#    0.000    0.000    0.000    0.000    0.000    0.000 
#
# Total GULP energy -117025.608193 kJ/mol
# GULP energy per Si atom -5572.648009 kJ/mol
# Density = 2.097827 g / cm^3
# Si number density = 21.026127 Si / 1000 Ang^3
#
#
#
# Elastic Constant Matrix: (Units=GPa)
#
#
# Indices 1 2 3 4 5 6 
#
# 1 137.7801 62.8243 3.1018 0.0000 -17.2781 0.0000
# 2 62.8243 122.4811 27.7729 0.0000 -12.3622 0.0000
# 3 3.1018 27.7729 27.5418 0.0000 -10.2748 0.0000
# 4 0.0000 0.0000 0.0000 15.7538 0.0000 -6.3585
# 5 -17.2781 -12.3622 -10.2748 0.0000 18.2280 0.0000
# 6 0.0000 0.0000 0.0000 -6.3585 0.0000 16.7492
#
#
#
# Elastic Compliance Matrix: (Units=1/GPa)
#
#
# Indices 1 2 3 4 5 6 
#
# 1 0.011858 -0.007233 0.010537 0.000000 0.012274 0.000000
# 2 -0.007233 0.015028 -0.016582 0.000000 -0.006011 0.000000
# 3 0.010537 -0.016582 0.065053 0.000000 0.035411 0.000000
# 4 0.000000 0.000000 0.000000 0.074963 0.000000 0.028458
# 5 0.012274 -0.006011 0.035411 0.000000 0.082379 0.000000
# 6 0.000000 0.000000 0.000000 0.028458 0.000000 0.070508
#
#
# Mechanical properties :
#
#
# Convention : Reuss Voigt Hill
#
# Bulk Modulus (GPa) = 15.29425 52.80009 34.04717
# Shear Modulus (GPa) = 13.58187 23.08649 18.33418
#
# Velocity S-wave (km/s) = 2.54432 3.31719 2.95612
# Velocity P-wave (km/s) = 3.99013 6.31172 5.28010
#
# Compressibility (1/GPa) = 0.06538407
#
# Stress axis : x y z
#
# Youngs Moduli (GPa) = 84.33207 66.54402 15.37204
#
# Poissons Ratio (x) = 0.48129 -0.16198
# Poissons Ratio (y) = 0.60995 0.25489
# Poissons Ratio (z) = -0.88861 1.10341
#
# Static dielectric constant tensor:
#      x y z
#    x 1.771020 0.000000 0.006030 
#    y 0.000000 1.761170 0.000000 
#    z 0.006030 0.000000 1.770460 
# 
# From -- ./inp_files/49469.got.cif
#   From: 2010.05.17/outbox.cif.g08.bks.cpg/sg12_25_cif.got.tgz:49469.got - 2010.06.03 13:09:07.
