data_PCOD9213768
_publ_section_title
;
Structure prediction by ZEFSAII (Michael W. Deem and Ramdas Pophale) SiO2 
 PCOD9213768
Probable space group: C 2/M
;
_chemical_formula_sum "Si O2"
_cell_formula_units_Z 64
_cell_length_a 14.770931
_cell_length_b 32.678060
_cell_length_c 19.837962
_cell_angle_alpha 90.000000
_cell_angle_beta 158.439422
_cell_angle_gamma 90.000000
_cell_volume 3518.847917
_symmetry_space_group_name_H-M "C 2/M"
_symmetry_group_IT_number 12
_symmetry_cell_setting 'monoclinic'
loop_
_space_group_symop_operation_xyz
x,y,z
-x,y,-z
-x,-y,-z
x,-y,z
1/2+x,1/2+y,z
1/2-x,1/2+y,-z
1/2-x,1/2-y,-z
1/2+x,1/2-y,z
loop_
_atom_site_type_symbol
_atom_site_label
_atom_site_fract_x
_atom_site_fract_y
_atom_site_fract_z
Si Si1 0.978067 0.954537 0.596866
Si Si2 0.232423 0.328963 0.212965
Si Si3 0.387846 0.706519 0.095022
Si Si4 0.693313 0.737606 0.190421
Si Si5 0.512482 0.868574 0.835134
Si Si6 0.083798 0.545669 0.199903
Si Si7 0.880941 0.317325 0.493168
Si Si8 0.208965 0.871328 0.487084
O O1 0.782676 0.953707 0.399198
O O2 0.902011 0.916971 0.590728
O O3 0.247758 0.949375 0.750220
O O4 0.965916 0.000000 0.618693
O O5 0.255982 0.282984 0.259564
O O6 0.188568 0.357695 0.246980
O O7 0.478391 0.341957 0.344761
O O8 0.000000 0.332881 0.000000
O O9 0.536791 0.707573 0.128889
O O10 0.612747 0.703547 0.302548
O O11 0.250000 0.750000 0.000000
O O12 0.213728 0.667325 0.980971
O O13 0.938703 0.713570 0.343094
O O14 0.500000 0.747349 0.000000
O O15 0.587889 0.915140 0.905791
O O16 0.394720 0.867831 0.679290
O O17 0.972641 0.500000 0.121560
O O18 0.840537 0.357525 0.509617
O O19 0.000000 0.322647 0.500000
#
# Coordination Sequence:
#
# PCOD9213768 Si02
#       8
#     8   8   8   8   8   8   8   8
#     4   8  14  27  49  79 111 139 175 220 270 326
#     4  11  22  33  50  78 116 146 177 223 272 328
#     4  11  22  36  54  74 109 148 182 221 273 320
#     4  10  22  39  55  75 102 143 190 233 268 316
#     4  11  20  33  54  84 112 145 186 224 263 331
#     4   8  14  27  48  78 114 145 173 218 268 316
#     4  10  24  41  56  74 105 144 185 236 279 321
#     4  11  21  33  57  81 104 145 190 229 273 324
#
# _framework density 18.187771000000001
#
# number of rings (size 3 to 8) (size 9 to 14) (size 15 to 20)
#    0.000    2.000    2.500    2.625    3.500    1.500 
#    0.000    0.000    0.000    4.125    0.000    2.625 
#    0.000   17.000    0.000    0.000    0.000    0.000 
#
# Total GULP energy -178228.224269 kJ/mol
# GULP energy per Si atom -5569.632008 kJ/mol
# Density = 1.814637 g / cm^3
# Si number density = 18.187771 Si / 1000 Ang^3
#
#
#
# Elastic Constant Matrix: (Units=GPa)
#
#
# Indices 1 2 3 4 5 6 
#
# 1 45.4332 31.8137 11.8385 0.0022 3.3999 0.0038
# 2 31.8137 146.9601 40.6444 -0.0012 16.0153 -0.0072
# 3 11.8385 40.6444 72.1060 0.0084 10.2815 0.0055
# 4 0.0022 -0.0012 0.0084 13.9126 -0.0011 0.0902
# 5 3.3999 16.0153 10.2815 -0.0011 15.7843 -0.0036
# 6 0.0038 -0.0072 0.0055 0.0902 -0.0036 1.0824
#
#
#
# Elastic Compliance Matrix: (Units=1/GPa)
#
#
# Indices 1 2 3 4 5 6 
#
# 1 0.026052 -0.005337 -0.001368 -0.000003 0.000695 -0.000118
# 2 -0.005337 0.009658 -0.003676 0.000003 -0.006256 0.000081
# 3 -0.001368 -0.003676 0.017188 -0.000010 -0.007171 -0.000129
# 4 -0.000003 0.000003 -0.000010 0.071916 0.000008 -0.005994
# 5 0.000695 -0.006256 -0.007171 0.000008 0.074223 0.000239
# 6 -0.000118 0.000081 -0.000129 -0.005994 0.000239 0.924375
#
#
# Mechanical properties :
#
#
# Convention : Reuss Voigt Hill
#
# Bulk Modulus (GPa) = 31.11766 48.12137 39.61952
# Shear Modulus (GPa) = 4.32943 18.16936 11.24939
#
# Velocity S-wave (km/s) = 1.54453 3.16411 2.48969
# Velocity P-wave (km/s) = 4.50855 6.31382 5.48595
#
# Compressibility (1/GPa) = 0.03213609
#
# Stress axis : x y z
#
# Youngs Moduli (GPa) = 38.38475 103.53788 58.18132
#
# Poissons Ratio (x) = 0.55259 0.07959
# Poissons Ratio (y) = 0.20486 0.21387
# Poissons Ratio (z) = 0.05251 0.38060
#
# Static dielectric constant tensor:
#      x y z
#    x 1.690160 0.000000 -0.074110 
#    y 0.000000 1.672280 -0.000010 
#    z -0.074110 -0.000010 1.767590 
# 
# From -- ./inp_files/312969.got.cif
#   From: 2010.05.17/outbox.cif.g08.bks.cpg/sg12_157_cif.got.tgz:312969.got - 2010.06.03 13:09:07.
