data_PCOD9213912
_publ_section_title
;
Structure prediction by ZEFSAII (Michael W. Deem and Ramdas Pophale) SiO2 
 PCOD9213912
Probable space group: C 2/M
;
_chemical_formula_sum "Si O2"
_cell_formula_units_Z 56
_cell_length_a 14.449992
_cell_length_b 26.587407
_cell_length_c 9.867311
_cell_angle_alpha 90.000000
_cell_angle_beta 63.262110
_cell_angle_gamma 90.000000
_cell_volume 3385.555052
_symmetry_space_group_name_H-M "C 2/M"
_symmetry_group_IT_number 12
_symmetry_cell_setting 'monoclinic'
loop_
_space_group_symop_operation_xyz
x,y,z
-x,y,-z
-x,-y,-z
x,-y,z
1/2+x,1/2+y,z
1/2-x,1/2+y,-z
1/2-x,1/2-y,-z
1/2+x,1/2-y,z
loop_
_atom_site_type_symbol
_atom_site_label
_atom_site_fract_x
_atom_site_fract_y
_atom_site_fract_z
Si Si1 0.834636 0.819594 0.365399
Si Si2 0.315132 0.298240 0.799654
Si Si3 0.847149 0.296196 0.332245
Si Si4 0.400703 0.557864 0.968150
Si Si5 0.945678 0.694656 0.683836
Si Si6 0.735251 0.347223 0.880825
Si Si7 0.524969 0.613035 0.339161
O O1 0.858426 0.761183 0.379316
O O2 0.726696 0.826941 0.516152
O O3 0.821395 0.825185 0.213836
O O4 0.924673 0.856459 0.352912
O O5 0.214631 0.294752 0.768753
O O6 0.384095 0.247759 0.741968
O O7 0.386325 0.344497 0.702797
O O8 0.285906 0.312673 0.973066
O O9 0.964786 0.313985 0.263952
O O10 0.368183 0.500000 0.999425
O O11 0.312288 0.597988 0.062464
O O12 0.500000 0.565510 0.000000
O O13 0.439001 0.572868 0.793771
O O14 0.855807 0.653990 0.764252
O O15 0.000000 0.693729 0.500000
O O16 0.500000 0.589962 0.500000
#
# Coordination Sequence:
#
# PCOD9213912 Si02
#       7
#     8   8   8   8   8   8   8
#     4  11  19  33  52  79 113 155 184 219 260 309
#     4  11  22  34  49  81 115 149 188 220 263 313
#     4  11  21  32  52  75 117 157 188 217 252 311
#     4  10  22  39  60  84 107 135 176 235 298 337
#     4  12  21  34  53  77 111 154 191 219 257 319
#     4  11  23  37  54  79 109 145 185 228 276 326
#     4  11  20  34  58  81 114 148 182 219 271 337
#
# _framework density 16.540863000000002
#
# number of rings (size 3 to 8) (size 9 to 14) (size 15 to 20)
#    0.000    1.000    7.143    1.714    0.000    0.857 
#    0.000    0.000    0.000    0.429    0.000    8.000 
#    0.000    0.000    0.000    0.000    0.000    0.000 
#
# Total GULP energy -156236.686342 kJ/mol
# GULP energy per Si atom -5579.881655 kJ/mol
# Density = 1.650321 g / cm^3
# Si number density = 16.540863 Si / 1000 Ang^3
#
#
#
# Elastic Constant Matrix: (Units=GPa)
#
#
# Indices 1 2 3 4 5 6 
#
# 1 117.0285 33.8843 41.4852 0.0000 -1.5175 0.0000
# 2 33.8843 76.3187 39.2885 0.0000 -11.0645 0.0000
# 3 41.4852 39.2885 109.3981 0.0000 3.4136 0.0000
# 4 0.0000 0.0000 0.0000 12.6871 0.0000 -0.1798
# 5 -1.5175 -11.0645 3.4136 0.0000 28.3848 0.0000
# 6 0.0000 0.0000 0.0000 -0.1798 0.0000 16.0972
#
#
#
# Elastic Compliance Matrix: (Units=1/GPa)
#
#
# Indices 1 2 3 4 5 6 
#
# 1 0.010475 -0.003272 -0.002785 0.000000 -0.000380 0.000000
# 2 -0.003272 0.018607 -0.005684 0.000000 0.007762 0.000000
# 3 -0.002785 -0.005684 0.012359 0.000000 -0.003851 0.000000
# 4 0.000000 0.000000 0.000000 0.078832 0.000000 0.000881
# 5 -0.000380 0.007762 -0.003851 0.000000 0.038698 0.000000
# 6 0.000000 0.000000 0.000000 0.000881 0.000000 0.062133
#
#
# Mechanical properties :
#
#
# Convention : Reuss Voigt Hill
#
# Bulk Modulus (GPa) = 55.68482 59.11794 57.40138
# Shear Modulus (GPa) = 19.95439 23.97297 21.96368
#
# Velocity S-wave (km/s) = 3.47705 3.81112 3.64791
# Velocity P-wave (km/s) = 7.06102 7.42862 7.24715
#
# Compressibility (1/GPa) = 0.01795821
#
# Stress axis : x y z
#
# Youngs Moduli (GPa) = 95.46843 53.74355 80.91596
#
# Poissons Ratio (x) = 0.17585 0.22537
# Poissons Ratio (y) = 0.31237 0.45991
# Poissons Ratio (z) = 0.26590 0.30547
#
# Static dielectric constant tensor:
#      x y z
#    x 1.590690 0.000000 0.010560 
#    y 0.000000 1.525930 0.000000 
#    z 0.010560 0.000000 1.593800 
# 
# From -- ./inp_files/65445.got.cif
#   From: 2010.05.17/outbox.cif.g08.bks.cpg/sg12_33_cif.got.tgz:65445.got - 2010.06.03 13:09:07.
