data_PCOD9213141
_publ_section_title
;
Structure prediction by ZEFSAII (Michael W. Deem and Ramdas Pophale) SiO2 
 PCOD9213141
Probable space group: C 2/M
;
_chemical_formula_sum "Si O2"
_cell_formula_units_Z 48
_cell_length_a 17.190407
_cell_length_b 13.835981
_cell_length_c 12.171744
_cell_angle_alpha 90.000000
_cell_angle_beta 129.128638
_cell_angle_gamma 90.000000
_cell_volume 2245.743329
_symmetry_space_group_name_H-M "C 2/M"
_symmetry_group_IT_number 12
_symmetry_cell_setting 'monoclinic'
loop_
_space_group_symop_operation_xyz
x,y,z
-x,y,-z
-x,-y,-z
x,-y,z
1/2+x,1/2+y,z
1/2-x,1/2+y,-z
1/2-x,1/2-y,-z
1/2+x,1/2-y,z
loop_
_atom_site_type_symbol
_atom_site_label
_atom_site_fract_x
_atom_site_fract_y
_atom_site_fract_z
Si Si1 0.599340 0.201199 0.030834
Si Si2 0.908571 0.116457 0.217763
Si Si3 0.705615 0.616628 0.674718
Si Si4 0.694747 0.114594 0.916325
Si Si5 0.632020 0.382868 0.373906
Si Si6 0.189511 0.885671 0.182772
O O1 0.694820 0.159820 0.182462
O O2 0.613268 0.168040 0.917649
O O3 0.607016 0.316123 0.055820
O O4 0.500000 0.163909 0.000000
O O5 0.886885 0.139274 0.326101
O O6 0.803333 0.141677 0.065091
O O7 0.016376 0.152258 0.272506
O O8 0.913090 0.000000 0.211251
O O9 0.715841 0.500000 0.684366
O O10 0.685349 0.649927 0.532987
O O11 0.680396 0.000000 0.918431
O O12 0.710481 0.133535 0.800775
O O13 0.628607 0.500000 0.376881
O O14 0.688281 0.361675 0.310273
O O15 0.166869 0.000000 0.148942
#
# Coordination Sequence:
#
# PCOD9213141 Si02
#       6
#     8   8   8   8   8   8
#     4  11  23  36  55  82 109 144 186 229 264 316
#     4   8  14  26  50  81 110 138 170 215 270 321
#     4   9  18  34  54  80 112 144 181 226 269 315
#     4   9  19  36  57  81 111 143 179 224 273 321
#     4   9  17  30  53  82 111 143 177 216 274 334
#     4  10  22  37  55  80 112 146 178 221 278 331
#
# _framework density 21.37377
#
# number of rings (size 3 to 8) (size 9 to 14) (size 15 to 20)
#    0.000    2.667    0.000    2.500    2.333    4.333 
#    0.000    0.000    0.000    1.000    0.000    4.667 
#    0.000    0.000    0.000    0.000    0.000    0.000 
#
# Total GULP energy -133884.950552 kJ/mol
# GULP energy per Si atom -5578.539606 kJ/mol
# Density = 2.132512 g / cm^3
# Si number density = 21.373770 Si / 1000 Ang^3
#
#
#
# Elastic Constant Matrix: (Units=GPa)
#
#
# Indices 1 2 3 4 5 6 
#
# 1 164.3966 30.5863 53.4919 0.0000 -35.5195 0.0000
# 2 30.5863 65.1922 11.2393 0.0000 -6.6795 0.0000
# 3 53.4919 11.2393 67.7773 0.0000 -23.7607 0.0000
# 4 0.0000 0.0000 0.0000 16.6147 0.0000 -1.0398
# 5 -35.5195 -6.6795 -23.7607 0.0000 38.7696 0.0000
# 6 0.0000 0.0000 0.0000 -1.0398 0.0000 22.5511
#
#
#
# Elastic Compliance Matrix: (Units=1/GPa)
#
#
# Indices 1 2 3 4 5 6 
#
# 1 0.009392 -0.003009 -0.005195 0.000000 0.004903 0.000000
# 2 -0.003009 0.016816 -0.000465 0.000000 -0.000144 0.000000
# 3 -0.005195 -0.000465 0.021951 0.000000 0.008614 0.000000
# 4 0.000000 0.000000 0.000000 0.060362 0.000000 0.002783
# 5 0.004903 -0.000144 0.008614 0.000000 0.035539 0.000000
# 6 0.000000 0.000000 0.000000 0.002783 0.000000 0.044472
#
#
# Mechanical properties :
#
#
# Convention : Reuss Voigt Hill
#
# Bulk Modulus (GPa) = 32.44320 54.22233 43.33277
# Shear Modulus (GPa) = 23.13278 29.05697 26.09487
#
# Velocity S-wave (km/s) = 3.29340 3.69110 3.49790
# Velocity P-wave (km/s) = 5.44738 6.60222 6.05240
#
# Compressibility (1/GPa) = 0.03082310
#
# Stress axis : x y z
#
# Youngs Moduli (GPa) = 106.47078 59.46658 45.55607
#
# Poissons Ratio (x) = 0.17891 0.23666
# Poissons Ratio (y) = 0.32033 0.02116
# Poissons Ratio (z) = 0.55312 0.02762
#
# Static dielectric constant tensor:
#      x y z
#    x 1.810520 0.000000 -0.068040 
#    y 0.000000 1.829900 0.000000 
#    z -0.068040 0.000000 1.793190 
# 
# From -- ./inp_files/143877.got.cif
#   From: 2010.05.17/outbox.cif.g08.bks.cpg/sg12_72_cif.got.tgz:143877.got - 2010.06.03 13:09:07.
