data_PCOD9213612
_publ_section_title
;
Structure prediction by ZEFSAII (Michael W. Deem and Ramdas Pophale) SiO2 
 PCOD9213612
Probable space group: C 2/M
;
_chemical_formula_sum "Si O2"
_cell_formula_units_Z 48
_cell_length_a 26.197054
_cell_length_b 15.010984
_cell_length_c 11.984824
_cell_angle_alpha 90.000000
_cell_angle_beta 150.238693
_cell_angle_gamma 90.000000
_cell_volume 2339.453416
_symmetry_space_group_name_H-M "C 2/M"
_symmetry_group_IT_number 12
_symmetry_cell_setting 'monoclinic'
loop_
_space_group_symop_operation_xyz
x,y,z
-x,y,-z
-x,-y,-z
x,-y,z
1/2+x,1/2+y,z
1/2-x,1/2+y,-z
1/2-x,1/2-y,-z
1/2+x,1/2-y,z
loop_
_atom_site_type_symbol
_atom_site_label
_atom_site_fract_x
_atom_site_fract_y
_atom_site_fract_z
Si Si1 0.446173 0.844890 0.516484
Si Si2 0.590585 0.000000 0.875721
Si Si3 0.907439 0.240975 0.889221
Si Si4 0.057781 0.000000 0.724818
Si Si5 0.733170 0.354144 0.562685
Si Si6 0.619261 0.000000 0.192015
Si Si7 0.300224 0.000000 0.153423
Si Si8 0.543506 0.658425 0.335276
O O1 0.500000 0.822986 0.500000
O O2 0.521194 0.911668 0.726474
O O3 0.430933 0.753215 0.555889
O O4 0.351300 0.910868 0.305019
O O5 0.668751 0.000000 0.919239
O O6 0.628227 0.000000 0.073807
O O7 0.819779 0.294672 0.787431
O O8 0.839579 0.194291 0.665087
O O9 0.968980 0.178755 0.089291
O O10 0.000000 0.292271 0.000000
O O11 0.018736 0.911017 0.710470
O O12 0.000000 0.000000 0.500000
O O13 0.179710 0.000000 0.942614
O O14 0.809075 0.417682 0.637221
O O15 0.650014 0.385382 0.494478
O O16 0.500000 0.000000 0.000000
#
# Coordination Sequence:
#
# PCOD9213612 Si02
#       8
#     8   4   8   4   8   4   4   8
#     4   9  19  42  67  98 121 161 214 267 319 380
#     4   9  20  40  68  93 129 156 201 276 329 363
#     4   9  20  40  61  90 122 165 205 262 316 388
#     4  12  28  44  56  93 135 170 215 268 310 378
#     4  10  22  38  62  88 131 162 208 258 330 376
#     4  12  24  39  61  96 120 164 218 270 312 382
#     4   9  22  43  69  91 130 164 212 267 322 380
#     4  11  23  40  65  92 131 171 214 261 321 387
#
# _framework density 20.517612
#
# number of rings (size 3 to 8) (size 9 to 14) (size 15 to 20)
#    0.000    2.000    0.000    3.500    4.667    3.333 
#    3.000    5.000    0.000    0.000    0.000    0.000 
#    0.000    0.000    0.000    0.000    0.000    0.000 
#
# Total GULP energy -133656.321021 kJ/mol
# GULP energy per Si atom -5569.013376 kJ/mol
# Density = 2.047091 g / cm^3
# Si number density = 20.517612 Si / 1000 Ang^3
#
#
#
# Elastic Constant Matrix: (Units=GPa)
#
#
# Indices 1 2 3 4 5 6 
#
# 1 88.8278 38.9136 68.3963 0.0000 39.4017 0.0000
# 2 38.9136 88.7119 39.3967 0.0000 27.6583 0.0000
# 3 68.3963 39.3967 132.5861 0.0000 40.0157 0.0000
# 4 0.0000 0.0000 0.0000 5.7118 0.0000 18.0880
# 5 39.4017 27.6583 40.0157 0.0000 48.0711 0.0000
# 6 0.0000 0.0000 0.0000 18.0880 0.0000 20.7094
#
#
#
# Elastic Compliance Matrix: (Units=1/GPa)
#
#
# Indices 1 2 3 4 5 6 
#
# 1 0.023678 -0.003504 -0.007912 0.000000 -0.010806 0.000000
# 2 -0.003504 0.014784 -0.001182 0.000000 -0.004651 0.000000
# 3 -0.007912 -0.001182 0.013105 0.000000 -0.003743 0.000000
# 4 0.000000 0.000000 0.000000 -0.099142 0.000000 0.086592
# 5 -0.010806 -0.004651 -0.003743 0.000000 0.035451 0.000000
# 6 0.000000 0.000000 0.000000 0.086592 0.000000 -0.027344
#
#
# Mechanical properties :
#
#
# Convention : Reuss Voigt Hill
#
# Bulk Modulus (GPa) = 37.92010 67.05989 52.49000
# Shear Modulus (GPa) = -912.21233 25.79309 -443.20962
#
# Velocity S-wave (km/s) = -21.10841 3.54943 -14.71337
# Velocity P-wave (km/s) = 23.99093 7.03939 16.21745
#
# Compressibility (1/GPa) = 0.02637124
#
# Stress axis : x y z
#
# Youngs Moduli (GPa) = 42.23320 67.63986 76.30685
#
# Poissons Ratio (x) = 0.23699 0.60377
# Poissons Ratio (y) = 0.14797 0.09019
# Poissons Ratio (z) = 0.33416 0.07995
#
# Static dielectric constant tensor:
#      x y z
#    x 1.443630 0.000000 -0.213270 
#    y 0.000000 1.832020 0.000000 
#    z -0.213270 0.000000 1.555310 
# 
# From -- ./inp_files/183926.got.cif
#   From: 2010.05.17/outbox.cif.g08.bks.cpg/sg12_92_cif.got.tgz:183926.got - 2010.06.03 13:09:07.
