data_PCOD9213832
_publ_section_title
;
Structure prediction by ZEFSAII (Michael W. Deem and Ramdas Pophale) SiO2 
 PCOD9213832
Probable space group: C 2/M
;
_chemical_formula_sum "Si O2"
_cell_formula_units_Z 48
_cell_length_a 11.945484
_cell_length_b 15.182385
_cell_length_c 11.389898
_cell_angle_alpha 90.000000
_cell_angle_beta 105.712717
_cell_angle_gamma 90.000000
_cell_volume 1988.491450
_symmetry_space_group_name_H-M "C 2/M"
_symmetry_group_IT_number 12
_symmetry_cell_setting 'monoclinic'
loop_
_space_group_symop_operation_xyz
x,y,z
-x,y,-z
-x,-y,-z
x,-y,z
1/2+x,1/2+y,z
1/2-x,1/2+y,-z
1/2-x,1/2-y,-z
1/2+x,1/2-y,z
loop_
_atom_site_type_symbol
_atom_site_label
_atom_site_fract_x
_atom_site_fract_y
_atom_site_fract_z
Si Si1 0.564658 0.397779 0.289070
Si Si2 0.319425 0.103286 0.248062
Si Si3 0.566331 0.899677 0.351860
Si Si4 0.656939 0.295362 0.806599
Si Si5 0.194289 0.164058 0.540367
Si Si6 0.884788 0.606178 0.892357
O O1 0.527702 0.500000 0.275950
O O2 0.692911 0.390067 0.269495
O O3 0.467951 0.337593 0.199631
O O4 0.589469 0.367657 0.429697
O O5 0.436743 0.122195 0.361599
O O6 0.329077 0.190813 0.171116
O O7 0.324371 0.000000 0.205606
O O8 0.693246 0.897890 0.443342
O O9 0.585676 0.856832 0.229839
O O10 0.548294 0.000000 0.319179
O O11 0.666229 0.318022 0.668156
O O12 0.765153 0.346995 0.893384
O O13 0.250000 0.250000 0.500000
O O14 0.864403 0.500000 0.885345
O O15 0.000000 0.621630 0.000000
#
# Coordination Sequence:
#
# PCOD9213832 Si02
#       6
#     8   8   8   8   8   8
#     4  11  23  37  56  86 123 161 198 241 298 353
#     4  10  22  39  58  82 120 163 197 237 291 352
#     4   9  19  35  57  81 114 156 200 240 284 344
#     4  11  22  37  62  86 119 154 201 246 299 351
#     4  11  20  34  54  85 120 158 200 244 288 344
#     4   9  19  38  65  94 118 147 195 252 304 353
#
# _framework density 24.138904
#
# number of rings (size 3 to 8) (size 9 to 14) (size 15 to 20)
#    0.000    1.833    1.667    2.500    2.333    3.333 
#    0.000    3.333    0.000    0.500    0.000    0.000 
#    0.000    0.000    0.000    0.000    0.000    0.000 
#
# Total GULP energy -133708.633968 kJ/mol
# GULP energy per Si atom -5571.193082 kJ/mol
# Density = 2.408396 g / cm^3
# Si number density = 24.138904 Si / 1000 Ang^3
#
#
#
# Elastic Constant Matrix: (Units=GPa)
#
#
# Indices 1 2 3 4 5 6 
#
# 1 131.2149 51.5337 33.2706 0.0000 44.1232 0.0000
# 2 51.5337 149.0306 34.0901 0.0000 31.3278 0.0000
# 3 33.2706 34.0901 68.4525 0.0000 36.3420 0.0000
# 4 0.0000 0.0000 0.0000 9.4884 0.0000 7.7304
# 5 44.1232 31.3278 36.3420 0.0000 41.2390 0.0000
# 6 0.0000 0.0000 0.0000 7.7304 0.0000 30.3000
#
#
#
# Elastic Compliance Matrix: (Units=1/GPa)
#
#
# Indices 1 2 3 4 5 6 
#
# 1 0.012465 -0.001910 0.002261 0.000000 -0.013878 0.000000
# 2 -0.001910 0.008352 -0.001781 0.000000 -0.002732 0.000000
# 3 0.002261 -0.001781 0.028118 0.000000 -0.025845 0.000000
# 4 0.000000 0.000000 0.000000 0.133048 0.000000 -0.033944
# 5 -0.013878 -0.002732 -0.025845 0.000000 0.063949 0.000000
# 6 0.000000 0.000000 0.000000 -0.033944 0.000000 0.041664
#
#
# Mechanical properties :
#
#
# Convention : Reuss Voigt Hill
#
# Bulk Modulus (GPa) = 21.70390 65.16520 43.43455
# Shear Modulus (GPa) = 16.34987 31.52573 23.93780
#
# Velocity S-wave (km/s) = 2.60537 3.61780 3.15249
# Velocity P-wave (km/s) = 4.24987 6.67127 5.59317
#
# Compressibility (1/GPa) = 0.04607468
#
# Stress axis : x y z
#
# Youngs Moduli (GPa) = 80.22709 119.73007 35.56423
#
# Poissons Ratio (x) = 0.22869 -0.08040
# Poissons Ratio (y) = 0.15324 0.06333
# Poissons Ratio (z) = -0.18137 0.21320
#
# Static dielectric constant tensor:
#      x y z
#    x 2.046890 0.000000 -0.052290 
#    y 0.000000 1.890150 0.000000 
#    z -0.052290 0.000000 1.934000 
# 
# From -- ./inp_files/205131.got.cif
#   From: 2010.05.17/outbox.cif.g08.bks.cpg/sg12_103_cif.got.tgz:205131.got - 2010.06.03 13:09:07.
