data_PCOD9213527
_publ_section_title
;
Structure prediction by ZEFSAII (Michael W. Deem and Ramdas Pophale) SiO2 
 PCOD9213527
Probable space group: C 2/M
;
_chemical_formula_sum "Si O2"
_cell_formula_units_Z 64
_cell_length_a 31.678241
_cell_length_b 7.668213
_cell_length_c 11.759338
_cell_angle_alpha 90.000000
_cell_angle_beta 92.944504
_cell_angle_gamma 90.000000
_cell_volume 2852.754159
_symmetry_space_group_name_H-M "C 2/M"
_symmetry_group_IT_number 12
_symmetry_cell_setting 'monoclinic'
loop_
_space_group_symop_operation_xyz
x,y,z
-x,y,-z
-x,-y,-z
x,-y,z
1/2+x,1/2+y,z
1/2-x,1/2+y,-z
1/2-x,1/2-y,-z
1/2+x,1/2-y,z
loop_
_atom_site_type_symbol
_atom_site_label
_atom_site_fract_x
_atom_site_fract_y
_atom_site_fract_z
Si Si1 0.216700 0.799713 0.649497
Si Si2 0.714832 0.197988 0.902624
Si Si3 0.042126 0.786207 0.573389
Si Si4 0.561767 0.287402 0.070121
Si Si5 0.691114 0.206866 0.326664
Si Si6 0.522824 0.712472 0.825695
Si Si7 0.655704 0.291215 0.084248
Si Si8 0.634460 0.296839 0.515850
O O1 0.213906 0.801834 0.785875
O O2 0.262986 0.722507 0.628819
O O3 0.173929 0.718281 0.592758
O O4 0.217679 0.000000 0.609548
O O5 0.722716 0.000000 0.870096
O O6 0.750000 0.250000 0.000000
O O7 0.671873 0.216616 0.967787
O O8 0.038409 0.731260 0.704669
O O9 0.087292 0.726573 0.528807
O O10 0.000000 0.729728 0.500000
O O11 0.041591 0.000000 0.569509
O O12 0.561339 0.500000 0.071255
O O13 0.524989 0.231866 0.150901
O O14 0.608596 0.229827 0.105644
O O15 0.549819 0.234377 0.939784
O O16 0.685508 0.240365 0.192600
O O17 0.652035 0.285551 0.390321
O O18 0.690699 0.000000 0.345104
O O19 0.523321 0.500000 0.824317
O O20 0.656161 0.500000 0.074027
O O21 0.631435 0.500000 0.549428
#
# Coordination Sequence:
#
# PCOD9213527 Si02
#       8
#     8   8   8   8   8   8   8   8
#     4  10  22  40  61  85 116 152 194 244 293 345
#     4  12  24  39  59  85 118 156 192 232 285 345
#     4   9  18  30  50  81 117 148 181 239 298 341
#     4   8  16  28  49  80 112 146 183 232 286 339
#     4  11  23  39  58  81 116 157 196 241 293 347
#     4   8  14  28  47  76 115 147 182 230 289 340
#     4  11  22  35  58  88 117 151 193 240 289 345
#     4  10  22  38  60  88 114 150 199 246 293 345
#
# _framework density 22.434460000000001
#
# number of rings (size 3 to 8) (size 9 to 14) (size 15 to 20)
#    0.000    2.125    1.250    3.000    3.500    1.000 
#    0.000    0.000    0.000    0.375    0.000    7.000 
#    0.000    0.000    0.000    0.000    0.000    0.000 
#
# Total GULP energy -178707.788370 kJ/mol
# GULP energy per Si atom -5584.618387 kJ/mol
# Density = 2.238340 g / cm^3
# Si number density = 22.434460 Si / 1000 Ang^3
#
#
#
# Elastic Constant Matrix: (Units=GPa)
#
#
# Indices 1 2 3 4 5 6 
#
# 1 164.4213 6.5024 40.3945 0.0000 -15.3916 0.0000
# 2 6.5024 56.0209 -4.9772 0.0000 3.5282 0.0000
# 3 40.3945 -4.9772 90.1760 0.0000 -24.3079 0.0000
# 4 0.0000 0.0000 0.0000 14.7908 0.0000 -3.9150
# 5 -15.3916 3.5282 -24.3079 0.0000 28.1503 0.0000
# 6 0.0000 0.0000 0.0000 -3.9150 0.0000 6.6256
#
#
#
# Elastic Compliance Matrix: (Units=1/GPa)
#
#
# Indices 1 2 3 4 5 6 
#
# 1 0.006951 -0.001150 -0.002755 0.000000 0.001566 0.000000
# 2 -0.001150 0.018200 0.000958 0.000000 -0.002082 0.000000
# 3 -0.002755 0.000958 0.015560 0.000000 0.011809 0.000000
# 4 0.000000 0.000000 0.000000 0.080145 0.000000 0.047357
# 5 0.001566 -0.002082 0.011809 0.000000 0.046838 0.000000
# 6 0.000000 0.000000 0.000000 0.047357 0.000000 0.178913
#
#
# Mechanical properties :
#
#
# Convention : Reuss Voigt Hill
#
# Bulk Modulus (GPa) = 28.72134 43.82863 36.27499
# Shear Modulus (GPa) = 13.73224 27.82657 20.77941
#
# Velocity S-wave (km/s) = 2.47676 3.52568 3.04670
# Velocity P-wave (km/s) = 4.58358 6.01270 5.34611
#
# Compressibility (1/GPa) = 0.03481732
#
# Stress axis : x y z
#
# Youngs Moduli (GPa) = 143.86737 54.94417 64.26789
#
# Poissons Ratio (x) = 0.06320 0.17706
# Poissons Ratio (y) = 0.16547 -0.06160
# Poissons Ratio (z) = 0.39637 -0.05266
#
# Static dielectric constant tensor:
#      x y z
#    x 1.862810 0.000000 0.009740 
#    y 0.000000 1.863500 0.000000 
#    z 0.009740 0.000000 1.829640 
# 
# From -- ./inp_files/187412.got.cif
#   From: 2010.05.17/outbox.cif.g08.bks.cpg/sg12_94_cif.got.tgz:187412.got - 2010.06.03 13:09:07.
