data_PCOD9213024
_publ_section_title
;
Structure prediction by ZEFSAII (Michael W. Deem and Ramdas Pophale) SiO2 
 PCOD9213024
Probable space group: C 2/M
;
_chemical_formula_sum "Si O2"
_cell_formula_units_Z 60
_cell_length_a 26.531838
_cell_length_b 15.304986
_cell_length_c 12.769939
_cell_angle_alpha 90.000000
_cell_angle_beta 143.549070
_cell_angle_gamma 90.000000
_cell_volume 3080.871533
_symmetry_space_group_name_H-M "C 2/M"
_symmetry_group_IT_number 12
_symmetry_cell_setting 'monoclinic'
loop_
_space_group_symop_operation_xyz
x,y,z
-x,y,-z
-x,-y,-z
x,-y,z
1/2+x,1/2+y,z
1/2-x,1/2+y,-z
1/2-x,1/2-y,-z
1/2+x,1/2-y,z
loop_
_atom_site_type_symbol
_atom_site_label
_atom_site_fract_x
_atom_site_fract_y
_atom_site_fract_z
Si Si1 0.143727 0.500000 0.530683
Si Si2 0.501241 0.868776 0.381156
Si Si3 0.231888 0.846619 0.224518
Si Si4 0.552612 0.723102 0.982707
Si Si5 0.482134 0.332800 0.645664
Si Si6 0.838247 0.899133 0.120483
Si Si7 0.884111 0.403027 0.003348
Si Si8 0.800398 0.161081 0.278926
O O1 0.072830 0.423905 0.441879
O O2 0.215435 0.422979 0.635037
O O3 0.500000 0.894523 0.500000
O O4 0.517086 0.765216 0.400525
O O5 0.414281 0.888538 0.173820
O O6 0.284561 0.757702 0.297457
O O7 0.144560 0.822770 0.137089
O O8 0.206508 0.876532 0.064058
O O9 0.501796 0.680981 0.800870
O O10 0.571362 0.824601 0.985116
O O11 0.500000 0.715621 0.000000
O O12 0.561532 0.383504 0.729079
O O13 0.390570 0.373016 0.470432
O O14 0.806900 0.840136 0.163856
O O15 0.821174 0.000000 0.118186
O O16 0.909780 0.500000 0.012388
O O17 0.783249 0.391989 0.829327
#
# Coordination Sequence:
#
# PCOD9213024 Si02
#       8
#     4   8   8   8   8   8   8   8
#     4  12  21  34  63  82 122 146 198 244 274 321
#     4  11  22  35  55  88 123 160 192 228 282 333
#     4  10  22  37  57  89 114 146 196 244 285 327
#     4   9  21  44  66  80 108 149 188 243 306 342
#     4  10  22  38  58  83 116 153 194 238 283 340
#     4  11  22  35  56  83 120 163 194 223 275 337
#     4  10  22  36  56  90 120 153 194 230 280 341
#     4  11  21  35  56  83 124 157 187 227 278 344
#
# _framework density 19.475010000000001
#
# number of rings (size 3 to 8) (size 9 to 14) (size 15 to 20)
#    0.000    1.600    2.667    3.000    1.867    1.867 
#    0.000    3.000    0.000    0.000    0.000    0.000 
#    0.000    0.000    0.000    0.000    0.000    0.000 
#
# Total GULP energy -167033.729075 kJ/mol
# GULP energy per Si atom -5567.790969 kJ/mol
# Density = 1.943068 g / cm^3
# Si number density = 19.475010 Si / 1000 Ang^3
#
#
#
# Elastic Constant Matrix: (Units=GPa)
#
#
# Indices 1 2 3 4 5 6 
#
# 1 74.1818 -1.9396 4.3943 0.0000 -4.2782 0.0000
# 2 -1.9396 59.2546 -5.0987 0.0000 -0.7520 0.0000
# 3 4.3943 -5.0987 31.3269 0.0000 14.8492 0.0000
# 4 0.0000 0.0000 0.0000 19.7719 0.0000 5.3782
# 5 -4.2782 -0.7520 14.8492 0.0000 14.7528 0.0000
# 6 0.0000 0.0000 0.0000 5.3782 0.0000 3.1001
#
#
#
# Elastic Compliance Matrix: (Units=1/GPa)
#
#
# Indices 1 2 3 4 5 6 
#
# 1 0.014637 -0.000037 -0.007784 0.000000 0.012078 0.000000
# 2 -0.000037 0.017222 0.004585 0.000000 -0.003748 0.000000
# 3 -0.007784 0.004585 0.066398 0.000000 -0.068856 0.000000
# 4 0.000000 0.000000 0.000000 0.095772 0.000000 -0.166149
# 5 0.012078 -0.003748 -0.068856 0.000000 0.140402 0.000000
# 6 0.000000 0.000000 0.000000 -0.166149 0.000000 0.610809
#
#
# Mechanical properties :
#
#
# Convention : Reuss Voigt Hill
#
# Bulk Modulus (GPa) = 10.89528 17.71948 14.30738
# Shear Modulus (GPa) = 5.09005 18.68544 11.88774
#
# Velocity S-wave (km/s) = 1.61843 3.10087 2.47333
# Velocity P-wave (km/s) = 3.01646 4.68389 3.93941
#
# Compressibility (1/GPa) = 0.09178285
#
# Stress axis : x y z
#
# Youngs Moduli (GPa) = 68.31949 58.06511 15.06074
#
# Poissons Ratio (x) = 0.00217 0.11724
# Poissons Ratio (y) = 0.00256 -0.06905
# Poissons Ratio (z) = 0.53183 -0.26622
#
# Static dielectric constant tensor:
#      x y z
#    x 1.653190 0.000000 0.016840 
#    y 0.000000 1.681240 0.000000 
#    z 0.016840 0.000000 1.717960 
# 
# From -- ./inp_files/177379.got.cif
#   From: 2010.05.17/outbox.cif.g08.bks.cpg/sg12_89_cif.got.tgz:177379.got - 2010.06.03 13:09:07.
