data_PCOD9213325
_publ_section_title
;
Structure prediction by ZEFSAII (Michael W. Deem and Ramdas Pophale) SiO2 
 PCOD9213325
Probable space group: C 2/M
;
_chemical_formula_sum "Si O2"
_cell_formula_units_Z 40
_cell_length_a 29.203235
_cell_length_b 10.077777
_cell_length_c 7.106295
_cell_angle_alpha 90.000000
_cell_angle_beta 91.253881
_cell_angle_gamma 90.000000
_cell_volume 2090.908047
_symmetry_space_group_name_H-M "C 2/M"
_symmetry_group_IT_number 12
_symmetry_cell_setting 'monoclinic'
loop_
_space_group_symop_operation_xyz
x,y,z
-x,y,-z
-x,-y,-z
x,-y,z
1/2+x,1/2+y,z
1/2-x,1/2+y,-z
1/2-x,1/2-y,-z
1/2+x,1/2-y,z
loop_
_atom_site_type_symbol
_atom_site_label
_atom_site_fract_x
_atom_site_fract_y
_atom_site_fract_z
Si Si1 0.879082 0.846354 0.314763
Si Si2 0.939405 0.652539 0.812919
Si Si3 0.140728 0.154767 0.126730
Si Si4 0.540412 0.847315 0.734582
Si Si5 0.709504 0.344494 0.431954
O O1 0.921871 0.749039 0.349257
O O2 0.835253 0.824143 0.441696
O O3 0.893615 0.000000 0.337250
O O4 0.862382 0.828254 0.097310
O O5 0.927712 0.500000 0.765620
O O6 0.897819 0.752713 0.784864
O O7 0.986798 0.688819 0.713321
O O8 0.950186 0.655065 0.038569
O O9 0.190086 0.183810 0.221224
O O10 0.130884 0.000000 0.168471
O O11 0.546067 0.000000 0.673896
O O12 0.722592 0.500000 0.445657
O O13 0.750000 0.250000 0.500000
#
# Coordination Sequence:
#
# PCOD9213325 Si02
#       5
#     8   8   8   8   8
#     4   9  18  33  52  73  98 128 161 197 238 285
#     4   8  14  26  46  73 103 132 162 196 233 277
#     4   9  18  33  52  73  98 128 161 197 238 285
#     4   8  14  26  46  73 103 132 162 196 233 277
#     4  10  22  38  53  72  97 123 158 205 249 290
#
# _framework density 19.130444000000001
#
# number of rings (size 3 to 8) (size 9 to 14) (size 15 to 20)
#    0.000    3.200    0.000    1.200    0.000    3.200 
#    0.000    5.000    0.000    6.000    0.000    0.000 
#    0.000    0.000    0.000    0.000    0.000    0.000 
#
# Total GULP energy -111584.035319 kJ/mol
# GULP energy per Si atom -5579.201766 kJ/mol
# Density = 1.908690 g / cm^3
# Si number density = 19.130444 Si / 1000 Ang^3
#
#
#
# Elastic Constant Matrix: (Units=GPa)
#
#
# Indices 1 2 3 4 5 6 
#
# 1 79.3862 59.9408 10.7405 0.0000 21.8882 0.0000
# 2 59.9408 66.3402 13.5013 0.0000 15.9949 0.0000
# 3 10.7405 13.5013 57.4526 0.0000 4.8281 0.0000
# 4 0.0000 0.0000 0.0000 12.0413 0.0000 -0.2461
# 5 21.8882 15.9949 4.8281 0.0000 29.4254 0.0000
# 6 0.0000 0.0000 0.0000 -0.2461 0.0000 46.6216
#
#
#
# Elastic Compliance Matrix: (Units=1/GPa)
#
#
# Indices 1 2 3 4 5 6 
#
# 1 0.043483 -0.036527 0.001525 0.000000 -0.012740 0.000000
# 2 -0.036527 0.048684 -0.004737 0.000000 0.001485 0.000000
# 3 0.001525 -0.004737 0.018366 0.000000 -0.001573 0.000000
# 4 0.000000 0.000000 0.000000 0.083056 0.000000 0.000438
# 5 -0.012740 0.001485 -0.001573 0.000000 0.042912 0.000000
# 6 0.000000 0.000000 0.000000 0.000438 0.000000 0.021452
#
#
# Mechanical properties :
#
#
# Convention : Reuss Voigt Hill
#
# Bulk Modulus (GPa) = 32.20059 41.28268 36.74164
# Shear Modulus (GPa) = 14.37687 25.55074 19.96380
#
# Velocity S-wave (km/s) = 2.74436 3.65856 3.23393
# Velocity P-wave (km/s) = 5.18755 6.28277 5.76124
#
# Compressibility (1/GPa) = 0.03105533
#
# Stress axis : x y z
#
# Youngs Moduli (GPa) = 22.99754 20.54083 54.44898
#
# Poissons Ratio (x) = 0.75030 -0.08306
# Poissons Ratio (y) = 0.84004 0.25791
# Poissons Ratio (z) = -0.03508 0.09730
#
# Static dielectric constant tensor:
#      x y z
#    x 1.617280 0.000000 0.018000 
#    y 0.000000 1.636140 0.000000 
#    z 0.018000 0.000000 1.758920 
# 
# From -- ./inp_files/40299.got.cif
#   From: 2010.05.17/outbox.cif.g08.bks.cpg/sg12_21_cif.got.tgz:40299.got - 2010.06.03 13:09:07.
