data_PCOD9213801
_publ_section_title
;
Structure prediction by ZEFSAII (Michael W. Deem and Ramdas Pophale) SiO2 
 PCOD9213801
Probable space group: C 2/M
;
_chemical_formula_sum "Si O2"
_cell_formula_units_Z 56
_cell_length_a 29.388877
_cell_length_b 8.971099
_cell_length_c 11.369963
_cell_angle_alpha 90.000000
_cell_angle_beta 72.901146
_cell_angle_gamma 90.000000
_cell_volume 2865.195210
_symmetry_space_group_name_H-M "C 2/M"
_symmetry_group_IT_number 12
_symmetry_cell_setting 'monoclinic'
loop_
_space_group_symop_operation_xyz
x,y,z
-x,y,-z
-x,-y,-z
x,-y,z
1/2+x,1/2+y,z
1/2-x,1/2+y,-z
1/2-x,1/2-y,-z
1/2+x,1/2-y,z
loop_
_atom_site_type_symbol
_atom_site_label
_atom_site_fract_x
_atom_site_fract_y
_atom_site_fract_z
Si Si1 0.802230 0.821978 0.235792
Si Si2 0.706314 0.325632 0.244352
Si Si3 0.618560 0.176933 0.678988
Si Si4 0.979205 0.320474 0.140909
Si Si5 0.942245 0.179901 0.761197
Si Si6 0.396660 0.673982 0.553794
Si Si7 0.342806 0.318744 0.952904
O O1 0.748344 0.765278 0.271803
O O2 0.833168 0.755873 0.317746
O O3 0.803514 0.000000 0.239631
O O4 0.826517 0.771063 0.093998
O O5 0.720100 0.500000 0.228234
O O6 0.656597 0.317286 0.351878
O O7 0.693747 0.271210 0.121898
O O8 0.575764 0.220862 0.799557
O O9 0.602052 0.228193 0.563031
O O10 0.624811 0.000000 0.678120
O O11 0.982409 0.500000 0.144279
O O12 0.011284 0.251375 0.218907
O O13 0.000000 0.270438 0.000000
O O14 0.931398 0.219290 0.633979
O O15 0.895810 0.227156 0.873009
O O16 0.945050 0.000000 0.764355
O O17 0.405983 0.500000 0.517939
O O18 0.342737 0.500000 0.950372
#
# Coordination Sequence:
#
# PCOD9213801 Si02
#       7
#     8   8   8   8   8   8   8
#     4  11  21  33  53  81 111 142 179 223 268 314
#     4   9  18  35  57  79 108 143 177 217 266 319
#     4  11  24  39  55  76 106 144 182 221 265 316
#     4  10  22  39  57  81 112 142 174 215 266 321
#     4   9  18  35  60  84 107 140 179 219 265 315
#     4   9  20  39  59  80 107 140 180 223 264 312
#     4   8  16  32  54  82 112 140 174 217 265 319
#
# _framework density 19.544917000000002
#
# number of rings (size 3 to 8) (size 9 to 14) (size 15 to 20)
#    0.000    2.429    0.000    3.857    0.000    3.714 
#    0.000    6.429    0.000    0.000    0.000    0.000 
#    0.000    0.000    0.000    0.000    0.000    0.000 
#
# Total GULP energy -156341.702119 kJ/mol
# GULP energy per Si atom -5583.632219 kJ/mol
# Density = 1.950043 g / cm^3
# Si number density = 19.544917 Si / 1000 Ang^3
#
#
#
# Elastic Constant Matrix: (Units=GPa)
#
#
# Indices 1 2 3 4 5 6 
#
# 1 97.3942 23.6725 -2.1365 0.0000 20.7352 0.0000
# 2 23.6725 26.2307 12.2387 0.0000 5.7542 0.0000
# 3 -2.1365 12.2387 38.6825 0.0000 15.8312 0.0000
# 4 0.0000 0.0000 0.0000 23.9923 0.0000 1.7747
# 5 20.7352 5.7542 15.8312 0.0000 17.1184 0.0000
# 6 0.0000 0.0000 0.0000 1.7747 0.0000 30.0120
#
#
#
# Elastic Compliance Matrix: (Units=1/GPa)
#
#
# Indices 1 2 3 4 5 6 
#
# 1 0.033323 -0.034112 0.039355 0.000000 -0.065292 0.000000
# 2 -0.034112 0.079750 -0.053185 0.000000 0.063697 0.000000
# 3 0.039355 -0.053185 0.091784 0.000000 -0.114674 0.000000
# 4 0.000000 0.000000 0.000000 0.041863 0.000000 -0.002476
# 5 -0.065292 0.063697 -0.114674 0.000000 0.222143 0.000000
# 6 0.000000 0.000000 0.000000 -0.002476 0.000000 0.033466
#
#
# Mechanical properties :
#
#
# Convention : Reuss Voigt Hill
#
# Bulk Modulus (GPa) = 9.17666 25.53964 17.35815
# Shear Modulus (GPa) = 7.87976 22.79339 15.33657
#
# Velocity S-wave (km/s) = 2.01007 3.41868 2.80426
# Velocity P-wave (km/s) = 3.17687 5.35525 4.40291
#
# Compressibility (1/GPa) = 0.10897213
#
# Stress axis : x y z
#
# Youngs Moduli (GPa) = 30.00957 12.53918 10.89519
#
# Poissons Ratio (x) = 0.42773 -0.42877
# Poissons Ratio (y) = 1.02368 0.57946
# Poissons Ratio (z) = -1.18101 0.66689
#
# Static dielectric constant tensor:
#      x y z
#    x 1.661220 0.000000 -0.011620 
#    y 0.000000 1.648340 0.000000 
#    z -0.011620 0.000000 1.704260 
# 
# From -- ./inp_files/186486.got.cif
#   From: 2010.05.17/outbox.cif.g08.bks.cpg/sg12_94_cif.got.tgz:186486.got - 2010.06.03 13:09:07.
