data_PCOD9213739
_publ_section_title
;
Structure prediction by ZEFSAII (Michael W. Deem and Ramdas Pophale) SiO2 
 PCOD9213739
Probable space group: C 2/M
;
_chemical_formula_sum "Si O2"
_cell_formula_units_Z 40
_cell_length_a 26.203217
_cell_length_b 15.709726
_cell_length_c 14.137398
_cell_angle_alpha 90.000000
_cell_angle_beta 21.005042
_cell_angle_gamma 90.000000
_cell_volume 2086.034168
_symmetry_space_group_name_H-M "C 2/M"
_symmetry_group_IT_number 12
_symmetry_cell_setting 'monoclinic'
loop_
_space_group_symop_operation_xyz
x,y,z
-x,y,-z
-x,-y,-z
x,-y,z
1/2+x,1/2+y,z
1/2-x,1/2+y,-z
1/2-x,1/2-y,-z
1/2+x,1/2-y,z
loop_
_atom_site_type_symbol
_atom_site_label
_atom_site_fract_x
_atom_site_fract_y
_atom_site_fract_z
Si Si1 0.401735 0.707706 0.761249
Si Si2 0.822430 0.093310 0.512780
Si Si3 0.355138 0.404424 0.015867
Si Si4 0.367759 0.176502 0.296628
Si Si5 0.868199 0.720629 0.504330
O O1 0.500000 0.690776 0.500000
O O2 0.495259 0.769974 0.665539
O O3 0.250000 0.750000 0.000000
O O4 0.379798 0.624922 0.865025
O O5 0.718356 0.099591 0.602843
O O6 0.806142 0.182771 0.597147
O O7 0.799723 0.000000 0.598337
O O8 0.991058 0.097452 0.198748
O O9 0.299027 0.500000 0.118041
O O10 0.251445 0.336783 0.241665
O O11 0.250000 0.250000 0.500000
O O12 0.411182 0.176764 0.330737
O O13 0.500000 0.195485 0.000000
#
# Coordination Sequence:
#
# PCOD9213739 Si02
#       5
#     8   8   8   8   8
#     4  11  22  40  67  93 126 171 220 269 332 386
#     4   9  21  38  62  92 130 169 215 258 313 385
#     4  10  22  41  66  99 130 169 217 267 322 394
#     4  10  23  36  62  91 130 175 215 256 322 383
#     4  10  22  38  67  89 133 168 218 264 327 375
#
# _framework density 19.175142000000001
#
# number of rings (size 3 to 8) (size 9 to 14) (size 15 to 20)
#    0.000    2.000    2.000    0.000   16.800    1.600 
#    0.000    4.000    0.000    0.000    0.000    0.000 
#    0.000    0.000    0.000    0.000    0.000    0.000 
#
# Total GULP energy -111402.164389 kJ/mol
# GULP energy per Si atom -5570.108219 kJ/mol
# Density = 1.913150 g / cm^3
# Si number density = 19.175142 Si / 1000 Ang^3
#
#
#
# Elastic Constant Matrix: (Units=GPa)
#
#
# Indices 1 2 3 4 5 6 
#
# 1 118.1088 34.7638 65.7317 -0.0001 4.4755 0.0000
# 2 34.7638 147.7028 66.4280 0.0000 1.6460 0.0000
# 3 65.7317 66.4280 108.7983 0.0000 5.7897 0.0000
# 4 -0.0001 0.0000 0.0000 26.3511 0.0000 3.2460
# 5 4.4755 1.6460 5.7897 0.0000 35.0929 0.0000
# 6 0.0000 0.0000 0.0000 3.2460 0.0000 17.0591
#
#
#
# Elastic Compliance Matrix: (Units=1/GPa)
#
#
# Indices 1 2 3 4 5 6 
#
# 1 0.012803 0.000636 -0.008106 0.000000 -0.000325 0.000000
# 2 0.000636 0.009374 -0.006134 0.000000 0.000491 0.000000
# 3 -0.008106 -0.006134 0.017921 0.000000 -0.001635 0.000000
# 4 0.000000 0.000000 0.000000 0.038860 0.000000 -0.007394
# 5 -0.000325 0.000491 -0.001635 0.000000 0.028784 0.000000
# 6 0.000000 0.000000 0.000000 -0.007394 0.000000 0.060027
#
#
# Mechanical properties :
#
#
# Convention : Reuss Voigt Hill
#
# Bulk Modulus (GPa) = 77.57948 78.71742 78.14845
# Shear Modulus (GPa) = 25.09123 29.54640 27.31881
#
# Velocity S-wave (km/s) = 3.62128 3.92965 3.77861
# Velocity P-wave (km/s) = 7.61782 7.85687 7.73827
#
# Compressibility (1/GPa) = 0.01289001
#
# Stress axis : x y z
#
# Youngs Moduli (GPa) = 78.10477 106.68129 55.80141
#
# Poissons Ratio (x) = -0.06784 0.45234
# Poissons Ratio (y) = -0.04967 0.34226
# Poissons Ratio (z) = 0.63313 0.65433
#
# Static dielectric constant tensor:
#      x y z
#    x 1.743460 0.000000 -0.010940 
#    y 0.000000 1.692680 0.000000 
#    z -0.010940 0.000000 1.669060 
# 
# From -- ./inp_files/194679.got.cif
#   From: 2010.05.17/outbox.cif.g08.bks.cpg/sg12_98_cif.got.tgz:194679.got - 2010.06.03 13:09:07.
