data_PCOD9213130
_publ_section_title
;
Structure prediction by ZEFSAII (Michael W. Deem and Ramdas Pophale) SiO2 
 PCOD9213130
Probable space group: C 2/M
;
_chemical_formula_sum "Si O2"
_cell_formula_units_Z 48
_cell_length_a 16.806018
_cell_length_b 32.850799
_cell_length_c 5.102750
_cell_angle_alpha 90.000000
_cell_angle_beta 70.617574
_cell_angle_gamma 90.000000
_cell_volume 2657.517693
_symmetry_space_group_name_H-M "C 2/M"
_symmetry_group_IT_number 12
_symmetry_cell_setting 'monoclinic'
loop_
_space_group_symop_operation_xyz
x,y,z
-x,y,-z
-x,-y,-z
x,-y,z
1/2+x,1/2+y,z
1/2-x,1/2+y,-z
1/2-x,1/2-y,-z
1/2+x,1/2-y,z
loop_
_atom_site_type_symbol
_atom_site_label
_atom_site_fract_x
_atom_site_fract_y
_atom_site_fract_z
Si Si1 0.099830 0.452045 0.338716
Si Si2 0.055472 0.331384 0.690420
Si Si3 0.799369 0.159211 0.713215
Si Si4 0.666137 0.907328 0.750416
Si Si5 0.677324 0.228469 0.739310
Si Si6 0.100676 0.188321 0.914229
O O1 0.107624 0.500000 0.273016
O O2 0.156104 0.440285 0.530233
O O3 0.000000 0.444178 0.500000
O O4 0.130871 0.425955 0.057533
O O5 0.105605 0.371560 0.712181
O O6 0.119044 0.294198 0.591714
O O7 0.000000 0.338297 0.500000
O O8 0.000000 0.319950 0.000000
O O9 0.754371 0.115987 0.706148
O O10 0.723191 0.192083 0.847750
O O11 0.852300 0.174054 0.402905
O O12 0.860521 0.161612 0.894216
O O13 0.750000 0.250000 0.500000
O O14 0.626555 0.264300 0.937570
O O15 0.000000 0.185110 0.000000
#
# Coordination Sequence:
#
# PCOD9213130 Si02
#       6
#     8   8   8   8   8   8
#     4  11  22  36  56  84 116 147 177 211 256 312
#     4  11  22  34  51  73  98 136 185 222 256 302
#     4  10  22  37  54  77 106 143 183 224 271 322
#     4  11  21  37  56  77 111 146 178 218 261 312
#     4   9  21  35  50  71 102 140 179 225 272 312
#     4  11  21  36  55  77 106 139 182 232 281 323
#
# _framework density 18.061968
#
# number of rings (size 3 to 8) (size 9 to 14) (size 15 to 20)
#    0.000    1.500    0.000    6.000    0.000   13.333 
#    0.000    0.000    0.000    0.000    0.000    0.000 
#    0.000   46.667    0.000    0.000    0.000    0.000 
#
# Total GULP energy -134038.671792 kJ/mol
# GULP energy per Si atom -5584.944658 kJ/mol
# Density = 1.802086 g / cm^3
# Si number density = 18.061968 Si / 1000 Ang^3
#
#
#
# Elastic Constant Matrix: (Units=GPa)
#
#
# Indices 1 2 3 4 5 6 
#
# 1 127.5107 37.5562 43.8279 0.0000 9.9864 0.0000
# 2 37.5562 72.7162 20.9284 0.0000 -4.5372 0.0000
# 3 43.8279 20.9284 93.2416 0.0000 13.5676 0.0000
# 4 0.0000 0.0000 0.0000 19.3471 0.0000 -2.5953
# 5 9.9864 -4.5372 13.5676 0.0000 28.1507 0.0000
# 6 0.0000 0.0000 0.0000 -2.5953 0.0000 25.7623
#
#
#
# Elastic Compliance Matrix: (Units=1/GPa)
#
#
# Indices 1 2 3 4 5 6 
#
# 1 0.010656 -0.004657 -0.003554 0.000000 -0.002818 0.000000
# 2 -0.004657 0.017227 -0.002497 0.000000 0.005632 0.000000
# 3 -0.003554 -0.002497 0.013799 0.000000 -0.005792 0.000000
# 4 0.000000 0.000000 0.000000 0.052395 0.000000 0.005278
# 5 -0.002818 0.005632 -0.005792 0.000000 0.040222 0.000000
# 6 0.000000 0.000000 0.000000 0.005278 0.000000 0.039348
#
#
# Mechanical properties :
#
#
# Convention : Reuss Voigt Hill
#
# Bulk Modulus (GPa) = 49.34221 55.34371 52.34296
# Shear Modulus (GPa) = 24.77464 27.39574 26.08519
#
# Velocity S-wave (km/s) = 3.70759 3.89879 3.80439
# Velocity P-wave (km/s) = 6.76062 7.13967 6.95273
#
# Compressibility (1/GPa) = 0.02026662
#
# Stress axis : x y z
#
# Youngs Moduli (GPa) = 93.84195 58.04698 72.47117
#
# Poissons Ratio (x) = 0.27031 0.25754
# Poissons Ratio (y) = 0.43700 0.18099
# Poissons Ratio (z) = 0.33348 0.14497
#
# Static dielectric constant tensor:
#      x y z
#    x 1.615270 0.000000 0.029340 
#    y 0.000000 1.638780 0.000000 
#    z 0.029340 0.000000 1.563810 
# 
# From -- ./inp_files/12796.got.cif
#   From: 2010.05.17/outbox.cif.g08.bks.cpg/sg12_7_cif.got.tgz:12796.got - 2010.06.03 13:09:07.
