data_PCOD9213520
_publ_section_title
;
Structure prediction by ZEFSAII (Michael W. Deem and Ramdas Pophale) SiO2 
 PCOD9213520
Probable space group: C 2/M
;
_chemical_formula_sum "Si O2"
_cell_formula_units_Z 28
_cell_length_a 26.937240
_cell_length_b 9.609783
_cell_length_c 6.310110
_cell_angle_alpha 90.000000
_cell_angle_beta 124.656722
_cell_angle_gamma 90.000000
_cell_volume 1343.626261
_symmetry_space_group_name_H-M "C 2/M"
_symmetry_group_IT_number 12
_symmetry_cell_setting 'monoclinic'
loop_
_space_group_symop_operation_xyz
x,y,z
-x,y,-z
-x,-y,-z
x,-y,z
1/2+x,1/2+y,z
1/2-x,1/2+y,-z
1/2-x,1/2-y,-z
1/2+x,1/2-y,z
loop_
_atom_site_type_symbol
_atom_site_label
_atom_site_fract_x
_atom_site_fract_y
_atom_site_fract_z
Si Si1 0.611234 0.157785 0.034587
Si Si2 0.084018 0.151518 0.351390
Si Si3 0.500000 0.755484 0.500000
Si Si4 0.805825 0.160676 0.051535
O O1 0.587057 0.224527 0.192247
O O2 0.632544 0.000000 0.113735
O O3 0.555741 0.160681 0.733911
O O4 0.662850 0.258672 0.067318
O O5 0.028455 0.167560 0.377682
O O6 0.143641 0.156947 0.641514
O O7 0.081406 0.000000 0.237828
O O8 0.790171 0.000000 0.962457
O O9 0.750000 0.250000 0.000000
#
# Coordination Sequence:
#
# PCOD9213520 Si02
#       4
#     8   8   4   8
#     4  11  23  38  59  87 119 155 193 236 287 343
#     4  10  22  39  60  87 117 152 194 239 289 343
#     4  10  22  38  60  86 118 154 196 240 284 338
#     4  10  22  41  63  86 115 151 193 241 289 341
#
# _framework density 20.839130999999998
#
# number of rings (size 3 to 8) (size 9 to 14) (size 15 to 20)
#    0.000    1.714    0.000    3.429    0.000   13.714 
#    0.000    0.000    0.000    0.000    0.000    0.000 
#    0.000    0.000    0.000    0.000    0.000    0.000 
#
# Total GULP energy -78236.098023 kJ/mol
# GULP energy per Si atom -5588.292716 kJ/mol
# Density = 2.079170 g / cm^3
# Si number density = 20.839131 Si / 1000 Ang^3
#
#
#
# Elastic Constant Matrix: (Units=GPa)
#
#
# Indices 1 2 3 4 5 6 
#
# 1 143.3779 69.6600 16.6598 0.0000 -6.6402 0.0000
# 2 69.6600 199.8016 28.8416 0.0000 -16.0168 0.0000
# 3 16.6598 28.8416 25.0496 0.0000 -17.3101 0.0000
# 4 0.0000 0.0000 0.0000 11.8999 0.0000 -3.7036
# 5 -6.6402 -16.0168 -17.3101 0.0000 32.1527 0.0000
# 6 0.0000 0.0000 0.0000 -3.7036 0.0000 19.2593
#
#
#
# Elastic Compliance Matrix: (Units=1/GPa)
#
#
# Indices 1 2 3 4 5 6 
#
# 1 0.008596 -0.002568 -0.003850 0.000000 -0.001577 0.000000
# 2 -0.002568 0.006797 -0.006600 0.000000 -0.000698 0.000000
# 3 -0.003850 -0.006600 0.075258 0.000000 0.036433 0.000000
# 4 0.000000 0.000000 0.000000 0.089384 0.000000 0.017189
# 5 -0.001577 -0.000698 0.036433 0.000000 0.050043 0.000000
# 6 0.000000 0.000000 0.000000 0.017189 0.000000 0.055228
#
#
# Mechanical properties :
#
#
# Convention : Reuss Voigt Hill
#
# Bulk Modulus (GPa) = 15.47651 66.50577 40.99114
# Shear Modulus (GPa) = 15.02034 29.53356 22.27695
#
# Velocity S-wave (km/s) = 2.68764 3.76868 3.27310
# Velocity P-wave (km/s) = 4.13207 7.13585 5.83071
#
# Compressibility (1/GPa) = 0.06461405
#
# Stress axis : x y z
#
# Youngs Moduli (GPa) = 116.32688 147.12309 13.28767
#
# Poissons Ratio (x) = 0.37777 0.05116
# Poissons Ratio (y) = 0.29869 0.08771
# Poissons Ratio (z) = 0.44791 0.97109
#
# Static dielectric constant tensor:
#      x y z
#    x 1.723820 0.000000 0.011050 
#    y 0.000000 1.731730 0.000000 
#    z 0.011050 0.000000 1.751140 
# 
# From -- ./inp_files/26913.got.cif
#   From: 2010.05.17/outbox.cif.g08.bks.cpg/sg12_14_cif.got.tgz:26913.got - 2010.06.03 13:09:07.
