data_PCOD9213339
_publ_section_title
;
Structure prediction by ZEFSAII (Michael W. Deem and Ramdas Pophale) SiO2 
 PCOD9213339
Probable space group: C 2/M
;
_chemical_formula_sum "Si O2"
_cell_formula_units_Z 34
_cell_length_a 19.476958
_cell_length_b 7.111087
_cell_length_c 10.091887
_cell_angle_alpha 90.000000
_cell_angle_beta 120.889414
_cell_angle_gamma 90.000000
_cell_volume 1199.492817
_symmetry_space_group_name_H-M "C 2/M"
_symmetry_group_IT_number 12
_symmetry_cell_setting 'monoclinic'
loop_
_space_group_symop_operation_xyz
x,y,z
-x,y,-z
-x,-y,-z
x,-y,z
1/2+x,1/2+y,z
1/2-x,1/2+y,-z
1/2-x,1/2-y,-z
1/2+x,1/2-y,z
loop_
_atom_site_type_symbol
_atom_site_label
_atom_site_fract_x
_atom_site_fract_y
_atom_site_fract_z
Si Si1 0.343563 0.777655 0.558048
Si Si2 0.892967 0.284726 0.883119
Si Si3 0.290496 0.774655 0.232611
Si Si4 0.435035 0.771381 0.207142
Si Si5 0.500000 0.500000 0.500000
O O1 0.250000 0.750000 0.500000
O O2 0.389394 0.702042 0.731591
O O3 0.344598 0.703125 0.409972
O O4 0.360561 0.000000 0.567941
O O5 0.916737 0.500000 0.889114
O O6 0.799511 0.290267 0.836438
O O7 0.940605 0.214096 0.058219
O O8 0.342652 0.726005 0.157394
O O9 0.286536 0.000000 0.236633
O O10 0.486526 0.664003 0.367786
O O11 0.444931 0.000000 0.226072
#
# Coordination Sequence:
#
# PCOD9213339 Si02
#       5
#     8   8   8   8   2
#     4   8  14  26  44  74 109 143 162 196 263 327
#     4   9  17  29  51  80 112 136 168 213 268 323
#     4   9  17  29  51  80 112 136 168 213 268 323
#     4  10  22  38  55  78 102 139 184 228 263 313
#     4  12  26  40  60  72 104 148 194 224 272 306
#
# _framework density 28.345314999999999
#
# number of rings (size 3 to 8) (size 9 to 14) (size 15 to 20)
#    0.000    2.824    0.000    1.059    3.294    0.000 
#    0.000    0.000    0.000    2.824    0.000    8.235 
#    0.000    0.000    0.000    0.000    0.000    0.000 
#
# Total GULP energy -94866.719141 kJ/mol
# GULP energy per Si atom -5580.395244 kJ/mol
# Density = 2.828080 g / cm^3
# Si number density = 28.345315 Si / 1000 Ang^3
#
#
#
# Elastic Constant Matrix: (Units=GPa)
#
#
# Indices 1 2 3 4 5 6 
#
# 1 94.8121 -14.7672 58.8697 0.0000 -7.4971 0.0000
# 2 -14.7672 206.6537 32.4469 0.0000 -17.7074 0.0000
# 3 58.8697 32.4469 291.4392 0.0000 -44.7628 0.0000
# 4 0.0000 0.0000 0.0000 9.7797 0.0000 6.5200
# 5 -7.4971 -17.7074 -44.7628 0.0000 92.6522 0.0000
# 6 0.0000 0.0000 0.0000 6.5200 0.0000 -14.8840
#
#
#
# Elastic Compliance Matrix: (Units=1/GPa)
#
#
# Indices 1 2 3 4 5 6 
#
# 1 0.012394 0.001300 -0.002653 0.000000 -0.000030 0.000000
# 2 0.001300 0.005108 -0.000718 0.000000 0.000734 0.000000
# 3 -0.002653 -0.000718 0.004313 0.000000 0.001732 0.000000
# 4 0.000000 0.000000 0.000000 0.079140 0.000000 0.034668
# 5 -0.000030 0.000734 0.001732 0.000000 0.011768 0.000000
# 6 0.000000 0.000000 0.000000 0.034668 0.000000 -0.052000
#
#
# Mechanical properties :
#
#
# Convention : Reuss Voigt Hill
#
# Bulk Modulus (GPa) = 56.58784 82.88933 69.73859
# Shear Modulus (GPa) = 70.66478 51.93329 61.29904
#
# Velocity S-wave (km/s) = 4.99841 4.28502 4.65540
# Velocity P-wave (km/s) = 7.30200 7.33404 7.31803
#
# Compressibility (1/GPa) = 0.01767164
#
# Stress axis : x y z
#
# Youngs Moduli (GPa) = 80.68113 195.78701 231.85067
#
# Poissons Ratio (x) = -0.25445 0.61510
# Poissons Ratio (y) = -0.10486 0.16656
# Poissons Ratio (z) = 0.21405 0.14065
#
# Static dielectric constant tensor:
#      x y z
#    x 2.241030 0.000000 0.043990 
#    y 0.000000 2.047970 0.000000 
#    z 0.043990 0.000000 2.195320 
# 
# From -- ./inp_files/118519.got.cif
#   From: 2010.05.17/outbox.cif.g08.bks.cpg/sg12_60_cif.got.tgz:118519.got - 2010.06.03 13:09:07.
