data_PCOD9213192
_publ_section_title
;
Structure prediction by ZEFSAII (Michael W. Deem and Ramdas Pophale) SiO2 
 PCOD9213192
Probable space group: C 2/M
;
_chemical_formula_sum "Si O2"
_cell_formula_units_Z 28
_cell_length_a 5.089175
_cell_length_b 25.264596
_cell_length_c 8.316262
_cell_angle_alpha 90.000000
_cell_angle_beta 94.059699
_cell_angle_gamma 90.000000
_cell_volume 1066.588303
_symmetry_space_group_name_H-M "C 2/M"
_symmetry_group_IT_number 12
_symmetry_cell_setting 'monoclinic'
loop_
_space_group_symop_operation_xyz
x,y,z
-x,y,-z
-x,-y,-z
x,-y,z
1/2+x,1/2+y,z
1/2-x,1/2+y,-z
1/2-x,1/2-y,-z
1/2+x,1/2-y,z
loop_
_atom_site_type_symbol
_atom_site_label
_atom_site_fract_x
_atom_site_fract_y
_atom_site_fract_z
Si Si1 0.500000 0.851012 0.500000
Si Si2 0.782531 0.060277 0.879012
Si Si3 0.070184 0.713896 0.832101
Si Si4 0.255151 0.939446 0.671185
O O1 0.460554 0.816398 0.337996
O O2 0.280830 0.892801 0.545849
O O3 0.486557 0.074537 0.813586
O O4 0.964818 0.058268 0.729998
O O5 0.758018 0.000000 0.941459
O O6 0.000000 0.090170 0.000000
O O7 0.862575 0.762307 0.834383
O O8 0.000000 0.685116 0.000000
O O9 0.314906 0.000000 0.623369
#
# Coordination Sequence:
#
# PCOD9213192 Si02
#       4
#     4   8   8   8
#     4  12  25  42  70 100 130 176 217 258 322 394
#     4   9  18  35  57  82 121 174 224 267 311 360
#     4  10  24  47  72  99 130 163 210 274 333 387
#     4  10  22  37  57  91 134 176 216 261 311 372
#
# _framework density 26.251926000000001
#
# number of rings (size 3 to 8) (size 9 to 14) (size 15 to 20)
#    0.000    2.000    0.000    2.143    0.000   11.429 
#    0.000    7.143    0.000    2.571    0.000    0.000 
#    0.000    0.000    0.000    0.000    0.000    0.000 
#
# Total GULP energy -78079.476292 kJ/mol
# GULP energy per Si atom -5577.105449 kJ/mol
# Density = 2.619218 g / cm^3
# Si number density = 26.251926 Si / 1000 Ang^3
#
#
#
# Elastic Constant Matrix: (Units=GPa)
#
#
# Indices 1 2 3 4 5 6 
#
# 1 155.2204 13.6265 22.2620 0.0000 24.7208 0.0000
# 2 13.6265 85.4126 72.6266 0.0000 10.4035 0.0000
# 3 22.2620 72.6266 175.9664 0.0000 26.3103 0.0000
# 4 0.0000 0.0000 0.0000 49.3232 0.0000 39.2991
# 5 24.7208 10.4035 26.3103 0.0000 51.9471 0.0000
# 6 0.0000 0.0000 0.0000 39.2991 0.0000 190.9193
#
#
#
# Elastic Compliance Matrix: (Units=1/GPa)
#
#
# Indices 1 2 3 4 5 6 
#
# 1 0.007018 -0.000588 -0.000177 0.000000 -0.003133 0.000000
# 2 -0.000588 0.018089 -0.007456 0.000000 0.000433 0.000000
# 3 -0.000177 -0.007456 0.009247 0.000000 -0.003106 0.000000
# 4 0.000000 0.000000 0.000000 0.024252 0.000000 -0.004992
# 5 -0.003133 0.000433 -0.003106 0.000000 0.022227 0.000000
# 6 0.000000 0.000000 0.000000 -0.004992 0.000000 0.006265
#
#
# Mechanical properties :
#
#
# Convention : Reuss Voigt Hill
#
# Bulk Modulus (GPa) = 55.82681 70.40330 63.11506
# Shear Modulus (GPa) = 45.65712 78.97687 62.31700
#
# Velocity S-wave (km/s) = 4.17489 5.49086 4.87746
# Velocity P-wave (km/s) = 6.67469 8.18999 7.47086
#
# Compressibility (1/GPa) = 0.01791254
#
# Stress axis : x y z
#
# Youngs Moduli (GPa) = 142.48412 55.28234 108.14151
#
# Poissons Ratio (x) = 0.03249 0.01914
# Poissons Ratio (y) = 0.08373 0.80634
# Poissons Ratio (z) = 0.02522 0.41220
#
# Static dielectric constant tensor:
#      x y z
#    x 2.041490 0.000000 -0.008130 
#    y 0.000000 2.029650 0.000000 
#    z -0.008130 0.000000 2.541230 
# 
# From -- ./inp_files/33891.got.cif
#   From: 2010.05.17/outbox.cif.g08.bks.cpg/sg12_17_cif.got.tgz:33891.got - 2010.06.03 13:09:07.
