data_PCOD9213035
_publ_section_title
;
Structure prediction by ZEFSAII (Michael W. Deem and Ramdas Pophale) SiO2 
 PCOD9213035
Probable space group: C 2/M
;
_chemical_formula_sum "Si O2"
_cell_formula_units_Z 64
_cell_length_a 11.759500
_cell_length_b 14.357545
_cell_length_c 32.348319
_cell_angle_alpha 90.000000
_cell_angle_beta 149.269346
_cell_angle_gamma 90.000000
_cell_volume 2790.898904
_symmetry_space_group_name_H-M "C 2/M"
_symmetry_group_IT_number 12
_symmetry_cell_setting 'monoclinic'
loop_
_space_group_symop_operation_xyz
x,y,z
-x,y,-z
-x,-y,-z
x,-y,z
1/2+x,1/2+y,z
1/2-x,1/2+y,-z
1/2-x,1/2-y,-z
1/2+x,1/2-y,z
loop_
_atom_site_type_symbol
_atom_site_label
_atom_site_fract_x
_atom_site_fract_y
_atom_site_fract_z
Si Si1 0.105166 0.885845 0.488835
Si Si2 0.839261 0.610071 0.222241
Si Si3 0.277870 0.385778 0.313763
Si Si4 0.581888 0.110298 0.658260
Si Si5 0.201177 0.864392 0.032532
Si Si6 0.080340 0.111192 0.811866
Si Si7 0.203958 0.391204 0.203484
Si Si8 0.157785 0.158790 0.928947
O O1 0.361146 0.853226 0.567364
O O2 0.000000 0.857945 0.500000
O O3 0.953715 0.856009 0.403125
O O4 0.106384 0.000000 0.489156
O O5 0.780380 0.500000 0.197702
O O6 0.947750 0.615550 0.301509
O O7 0.610749 0.666762 0.150587
O O8 0.027022 0.638440 0.248842
O O9 0.282029 0.500000 0.314822
O O10 0.318918 0.350207 0.280174
O O11 0.828842 0.149303 0.727989
O O12 0.591952 0.000000 0.651076
O O13 0.439252 0.886373 0.126414
O O14 0.200507 0.752944 0.026884
O O15 0.210419 0.897262 0.987501
O O16 0.000000 0.892735 0.000000
O O17 0.225977 0.145850 0.819238
O O18 0.178833 0.124848 0.888386
O O19 0.061578 0.000000 0.803266
O O20 0.264771 0.500000 0.222057
#
# Coordination Sequence:
#
# PCOD9213035 Si02
#       8
#     8   8   8   8   8   8   8   8
#     4   9  13  20  40  73 111 143 172 212 262 309
#     4   9  15  28  51  79 108 138 177 221 261 309
#     4   9  16  27  46  75 113 144 173 217 266 308
#     4   8  13  23  42  73 107 137 172 216 257 300
#     4  11  25  40  56  79 107 132 169 224 273 322
#     4   9  19  36  57  79 107 143 185 219 252 313
#     4  10  22  38  55  77 108 144 177 215 266 321
#     4  10  22  36  58  77 104 137 173 219 268 313
#
# _framework density 22.931678999999999
#
# number of rings (size 3 to 8) (size 9 to 14) (size 15 to 20)
#    0.000    2.625    1.250    1.875    3.500    1.250 
#    0.000    1.875    0.000    3.750    0.000    3.500 
#    7.500    0.000    0.000    0.000    0.000    0.000 
#
# Total GULP energy -178562.877346 kJ/mol
# GULP energy per Si atom -5580.089917 kJ/mol
# Density = 2.287949 g / cm^3
# Si number density = 22.931679 Si / 1000 Ang^3
#
#
#
# Elastic Constant Matrix: (Units=GPa)
#
#
# Indices 1 2 3 4 5 6 
#
# 1 144.5856 31.0025 62.2282 -0.0001 -22.9485 0.0000
# 2 31.0025 58.1346 2.5132 0.0000 -0.1873 0.0000
# 3 62.2282 2.5132 130.1988 -0.0006 -28.5449 0.0002
# 4 -0.0001 0.0000 -0.0006 32.4199 -0.0001 -2.5802
# 5 -22.9485 -0.1873 -28.5449 -0.0001 31.4208 0.0000
# 6 0.0000 0.0000 0.0002 -2.5802 0.0000 8.1760
#
#
#
# Elastic Compliance Matrix: (Units=1/GPa)
#
#
# Indices 1 2 3 4 5 6 
#
# 1 0.010420 -0.005370 -0.004015 0.000000 0.003931 0.000000
# 2 -0.005370 0.019985 0.001682 0.000000 -0.002275 0.000000
# 3 -0.004015 0.001682 0.011146 0.000000 0.007204 0.000000
# 4 0.000000 0.000000 0.000000 0.031640 0.000000 0.009985
# 5 0.003931 -0.002275 0.007204 0.000000 0.041228 0.000000
# 6 0.000000 0.000000 0.000000 0.009985 0.000000 0.125460
#
#
# Mechanical properties :
#
#
# Convention : Reuss Voigt Hill
#
# Bulk Modulus (GPa) = 38.24708 58.26742 48.25725
# Shear Modulus (GPa) = 18.93940 30.21502 24.57721
#
# Velocity S-wave (km/s) = 2.87698 3.63383 3.27732
# Velocity P-wave (km/s) = 5.26791 6.56282 5.95069
#
# Compressibility (1/GPa) = 0.02614578
#
# Stress axis : x y z
#
# Youngs Moduli (GPa) = 95.97302 50.03654 89.71644
#
# Poissons Ratio (x) = 0.26872 0.36017
# Poissons Ratio (y) = 0.51542 -0.15092
# Poissons Ratio (z) = 0.38529 -0.08417
#
# Static dielectric constant tensor:
#      x y z
#    x 1.862860 0.000000 -0.016500 
#    y 0.000000 1.943600 0.000000 
#    z -0.016500 0.000000 1.857870 
# 
# From -- ./inp_files/374492.got.cif
#   From: 2010.05.17/outbox.cif.g08.bks.cpg/sg12_188_cif.got.tgz:374492.got - 2010.06.03 13:09:07.
