data_PCOD9213519
_publ_section_title
;
Structure prediction by ZEFSAII (Michael W. Deem and Ramdas Pophale) SiO2 
 PCOD9213519
Probable space group: C 2/M
;
_chemical_formula_sum "Si O2"
_cell_formula_units_Z 36
_cell_length_a 14.001494
_cell_length_b 9.586120
_cell_length_c 11.325366
_cell_angle_alpha 90.000000
_cell_angle_beta 94.212585
_cell_angle_gamma 90.000000
_cell_volume 1515.983915
_symmetry_space_group_name_H-M "C 2/M"
_symmetry_group_IT_number 12
_symmetry_cell_setting 'monoclinic'
loop_
_space_group_symop_operation_xyz
x,y,z
-x,y,-z
-x,-y,-z
x,-y,z
1/2+x,1/2+y,z
1/2-x,1/2+y,-z
1/2-x,1/2-y,-z
1/2+x,1/2-y,z
loop_
_atom_site_type_symbol
_atom_site_label
_atom_site_fract_x
_atom_site_fract_y
_atom_site_fract_z
Si Si1 0.889578 0.840252 0.036950
Si Si2 0.156606 0.341554 0.181543
Si Si3 0.000000 0.240408 0.500000
Si Si4 0.807533 0.842625 0.596551
Si Si5 0.064309 0.347040 0.751454
O O1 0.840162 0.729558 0.945462
O O2 0.855191 0.000000 0.025936
O O3 0.889020 0.777809 0.169141
O O4 0.000000 0.844172 0.000000
O O5 0.193510 0.500000 0.191048
O O6 0.199657 0.235315 0.280025
O O7 0.044687 0.350596 0.209254
O O8 0.917616 0.158097 0.561798
O O9 0.946684 0.324039 0.389949
O O10 0.750000 0.750000 0.500000
O O11 0.772873 0.000000 0.597995
O O12 0.106733 0.500000 0.780626
#
# Coordination Sequence:
#
# PCOD9213519 Si02
#       5
#     8   8   4   8   8
#     4   9  16  26  44  73 108 145 187 234 283 337
#     4   9  17  31  51  76 108 146 189 236 284 336
#     4  10  22  38  60  86 118 154 194 238 286 340
#     4  11  23  39  60  87 118 153 193 237 287 342
#     4   9  17  29  49  77 109 147 190 235 283 337
#
# _framework density 23.746953999999999
#
# number of rings (size 3 to 8) (size 9 to 14) (size 15 to 20)
#    0.000    2.444    0.000    2.667    0.000   11.556 
#    0.000    0.000    0.000    1.333    0.000    0.000 
#    0.000    0.000    0.000    0.000    0.000    0.000 
#
# Total GULP energy -100660.024399 kJ/mol
# GULP energy per Si atom -5592.223578 kJ/mol
# Density = 2.369290 g / cm^3
# Si number density = 23.746954 Si / 1000 Ang^3
#
#
#
# Elastic Constant Matrix: (Units=GPa)
#
#
# Indices 1 2 3 4 5 6 
#
# 1 89.2395 6.0565 4.4969 0.0000 -33.0101 0.0000
# 2 6.0565 240.7481 88.2913 0.0000 12.8186 0.0000
# 3 4.4969 88.2913 155.0254 0.0000 -0.6212 0.0000
# 4 0.0000 0.0000 0.0000 28.4012 0.0000 15.3784
# 5 -33.0101 12.8186 -0.6212 0.0000 36.6841 0.0000
# 6 0.0000 0.0000 0.0000 15.3784 0.0000 8.8097
#
#
#
# Elastic Compliance Matrix: (Units=1/GPa)
#
#
# Indices 1 2 3 4 5 6 
#
# 1 0.017192 -0.001420 0.000374 0.000000 0.015972 0.000000
# 2 -0.001420 0.005501 -0.003105 0.000000 -0.003253 0.000000
# 3 0.000374 -0.003105 0.008214 0.000000 0.001561 0.000000
# 4 0.000000 0.000000 0.000000 0.642458 0.000000 -1.121484
# 5 0.015972 -0.003253 0.001561 0.000000 0.042795 0.000000
# 6 0.000000 0.000000 0.000000 -1.121484 0.000000 2.071188
#
#
# Mechanical properties :
#
#
# Convention : Reuss Voigt Hill
#
# Bulk Modulus (GPa) = 44.23760 75.85581 60.04670
# Shear Modulus (GPa) = 1.78368 40.52357 21.15363
#
# Velocity S-wave (km/s) = 0.86761 4.13543 2.98785
# Velocity P-wave (km/s) = 4.43541 7.40372 6.10279
#
# Compressibility (1/GPa) = 0.02260521
#
# Stress axis : x y z
#
# Youngs Moduli (GPa) = 58.16808 181.77290 121.73813
#
# Poissons Ratio (x) = 0.25814 -0.04554
# Poissons Ratio (y) = 0.08261 0.37800
# Poissons Ratio (z) = -0.02176 0.56441
#
# Static dielectric constant tensor:
#      x y z
#    x 2.033290 0.000000 0.021990 
#    y 0.000000 1.826390 0.000000 
#    z 0.021990 0.000000 1.867200 
# 
# From -- ./inp_files/152072.got.cif
#   From: 2010.05.17/outbox.cif.g08.bks.cpg/sg12_77_cif.got.tgz:152072.got - 2010.06.03 13:09:07.
