data_PCOD9213268
_publ_section_title
;
Structure prediction by ZEFSAII (Michael W. Deem and Ramdas Pophale) SiO2 
 PCOD9213268
Probable space group: C 2/M
;
_chemical_formula_sum "Si O2"
_cell_formula_units_Z 34
_cell_length_a 18.758596
_cell_length_b 7.533903
_cell_length_c 9.807190
_cell_angle_alpha 90.000000
_cell_angle_beta 96.478592
_cell_angle_gamma 90.000000
_cell_volume 1377.154553
_symmetry_space_group_name_H-M "C 2/M"
_symmetry_group_IT_number 12
_symmetry_cell_setting 'monoclinic'
loop_
_space_group_symop_operation_xyz
x,y,z
-x,y,-z
-x,-y,-z
x,-y,z
1/2+x,1/2+y,z
1/2-x,1/2+y,-z
1/2-x,1/2-y,-z
1/2+x,1/2-y,z
loop_
_atom_site_type_symbol
_atom_site_label
_atom_site_fract_x
_atom_site_fract_y
_atom_site_fract_z
Si Si1 0.317803 0.702186 0.856734
Si Si2 0.335008 0.219531 0.276002
Si Si3 0.135406 0.303147 0.423466
Si Si4 0.561462 0.799929 0.920379
Si Si5 0.500000 0.000000 0.500000
O O1 0.315402 0.500000 0.906125
O O2 0.236803 0.768081 0.819584
O O3 0.352212 0.703632 0.713395
O O4 0.369180 0.808285 0.967420
O O5 0.331971 0.276983 0.431615
O O6 0.338910 0.000000 0.280959
O O7 0.406283 0.277987 0.211283
O O8 0.168746 0.500000 0.409011
O O9 0.053458 0.348306 0.444291
O O10 0.535266 0.000000 0.880412
O O11 0.500000 0.713612 0.000000
#
# Coordination Sequence:
#
# PCOD9213268 Si02
#       5
#     8   8   8   8   2
#     4  11  22  36  55  84 121 151 179 226 291 343
#     4   9  19  36  57  84 114 147 189 238 277 327
#     4   9  19  35  62  84 111 142 193 233 274 322
#     4  10  22  37  62  83 106 148 199 237 276 327
#     4   8  20  32  66  86 112 136 192 246 276 300
#
# _framework density 24.688589
#
# number of rings (size 3 to 8) (size 9 to 14) (size 15 to 20)
#    0.706    1.647    0.000    2.118    3.294    0.471 
#    0.000    4.118    0.000    0.000    0.000    0.000 
#    0.000    0.000    0.000    0.000    0.000    0.000 
#
# Total GULP energy -94673.480041 kJ/mol
# GULP energy per Si atom -5569.028238 kJ/mol
# Density = 2.463240 g / cm^3
# Si number density = 24.688589 Si / 1000 Ang^3
#
#
#
# Elastic Constant Matrix: (Units=GPa)
#
#
# Indices 1 2 3 4 5 6 
#
# 1 92.7655 2.5959 11.8370 0.0000 -31.0630 0.0000
# 2 2.5959 70.3312 3.8924 0.0000 -1.9160 0.0000
# 3 11.8370 3.8924 94.1276 0.0000 -8.2102 0.0000
# 4 0.0000 0.0000 0.0000 11.6485 0.0000 6.2259
# 5 -31.0630 -1.9160 -8.2102 0.0000 39.8619 0.0000
# 6 0.0000 0.0000 0.0000 6.2259 0.0000 -15.5773
#
#
#
# Elastic Compliance Matrix: (Units=1/GPa)
#
#
# Indices 1 2 3 4 5 6 
#
# 1 0.014657 -0.000188 -0.000855 0.000000 0.011236 0.000000
# 2 -0.000188 0.014266 -0.000529 0.000000 0.000431 0.000000
# 3 -0.000855 -0.000529 0.010889 0.000000 0.001551 0.000000
# 4 0.000000 0.000000 0.000000 0.070737 0.000000 0.028272
# 5 0.011236 0.000431 0.001551 0.000000 0.034183 0.000000
# 6 0.000000 0.000000 0.000000 0.028272 0.000000 -0.052896
#
#
# Mechanical properties :
#
#
# Convention : Reuss Voigt Hill
#
# Bulk Modulus (GPa) = 27.27146 32.65278 29.96212
# Shear Modulus (GPa) = 46.64111 23.11321 34.87716
#
# Velocity S-wave (km/s) = 4.35118 3.06304 3.76265
# Velocity P-wave (km/s) = 6.02610 5.07584 5.57127
#
# Compressibility (1/GPa) = 0.03666837
#
# Stress axis : x y z
#
# Youngs Moduli (GPa) = 68.22773 70.09493 91.83940
#
# Poissons Ratio (x) = 0.01315 0.07855
# Poissons Ratio (y) = 0.01280 0.04856
# Poissons Ratio (z) = 0.05836 0.03707
#
# Static dielectric constant tensor:
#      x y z
#    x 1.963830 0.000000 0.012260 
#    y 0.000000 2.062520 0.000000 
#    z 0.012260 0.000000 1.974700 
# 
# From -- ./inp_files/82080.got.cif
#   From: 2010.05.17/outbox.cif.g08.bks.cpg/sg12_42_cif.got.tgz:82080.got - 2010.06.03 13:09:07.
