data_PCOD9213749
_publ_section_title
;
Structure prediction by ZEFSAII (Michael W. Deem and Ramdas Pophale) SiO2 
 PCOD9213749
Probable space group: C 2/M
;
_chemical_formula_sum "Si O2"
_cell_formula_units_Z 42
_cell_length_a 14.016562
_cell_length_b 19.313718
_cell_length_c 8.556373
_cell_angle_alpha 90.000000
_cell_angle_beta 66.032461
_cell_angle_gamma 90.000000
_cell_volume 2116.589925
_symmetry_space_group_name_H-M "C 2/M"
_symmetry_group_IT_number 12
_symmetry_cell_setting 'monoclinic'
loop_
_space_group_symop_operation_xyz
x,y,z
-x,y,-z
-x,-y,-z
x,-y,z
1/2+x,1/2+y,z
1/2-x,1/2+y,-z
1/2-x,1/2-y,-z
1/2+x,1/2-y,z
loop_
_atom_site_type_symbol
_atom_site_label
_atom_site_fract_x
_atom_site_fract_y
_atom_site_fract_z
Si Si1 0.145959 0.111550 0.740192
Si Si2 0.604521 0.735351 0.532113
Si Si3 0.505640 0.000000 0.250150
Si Si4 0.500000 0.500000 0.000000
Si Si5 0.177644 0.500000 0.379671
Si Si6 0.781363 0.295047 0.832441
Si Si7 0.499936 0.844003 0.822036
O O1 0.122293 0.165770 0.618960
O O2 0.184451 0.155478 0.863012
O O3 0.248688 0.065437 0.638385
O O4 0.054371 0.060485 0.852420
O O5 0.500000 0.726008 0.500000
O O6 0.692843 0.754505 0.346138
O O7 0.581557 0.800179 0.663470
O O8 0.623168 0.000000 0.244740
O O9 0.419955 0.000000 0.442869
O O10 0.484609 0.926617 0.182664
O O11 0.888680 0.332651 0.810563
O O12 0.750000 0.250000 0.000000
O O13 0.500000 0.817213 0.000000
#
# Coordination Sequence:
#
# PCOD9213749 Si02
#       7
#     8   8   4   2   4   8   8
#     4  11  22  45  65  93 132 171 231 256 325 399
#     4  10  24  41  68 100 131 170 219 279 333 380
#     4  11  21  40  65  94 139 160 217 265 329 393
#     4  10  28  38  70  94 130 192 206 274 334 396
#     4  10  22  38  68  90 121 183 206 267 326 385
#     4  11  23  38  67  98 127 168 221 273 324 385
#     4  11  23  40  64 100 133 172 206 270 334 381
#
# _framework density 19.843240000000002
#
# number of rings (size 3 to 8) (size 9 to 14) (size 15 to 20)
#    0.000    1.333    1.905    3.143   12.000    1.524 
#    0.000    1.905    4.190    0.000    0.000    0.000 
#    0.000    0.000    0.000    0.000    0.000    0.000 
#
# Total GULP energy -116922.698827 kJ/mol
# GULP energy per Si atom -5567.747563 kJ/mol
# Density = 1.979808 g / cm^3
# Si number density = 19.843240 Si / 1000 Ang^3
#
#
#
# Elastic Constant Matrix: (Units=GPa)
#
#
# Indices 1 2 3 4 5 6 
#
# 1 59.1058 37.7413 25.7978 0.0000 10.5021 0.0000
# 2 37.7413 156.3181 74.2707 0.0000 9.4933 0.0000
# 3 25.7978 74.2707 134.3842 0.0000 9.0262 0.0000
# 4 0.0000 0.0000 0.0000 -43.6399 0.0000 -27.1428
# 5 10.5021 9.4933 9.0262 0.0000 28.4298 0.0000
# 6 0.0000 0.0000 0.0000 -27.1428 0.0000 6.8943
#
#
#
# Elastic Compliance Matrix: (Units=1/GPa)
#
#
# Indices 1 2 3 4 5 6 
#
# 1 0.021214 -0.004086 -0.001409 0.000000 -0.006024 0.000000
# 2 -0.004086 0.009518 -0.004459 0.000000 -0.000253 0.000000
# 3 -0.001409 -0.004459 0.010260 0.000000 -0.001248 0.000000
# 4 0.000000 0.000000 0.000000 -0.006644 0.000000 -0.026159
# 5 -0.006024 -0.000253 -0.001248 0.000000 0.037880 0.000000
# 6 0.000000 0.000000 0.000000 -0.026159 0.000000 0.042059
#
#
# Mechanical properties :
#
#
# Convention : Reuss Voigt Hill
#
# Bulk Modulus (GPa) = 47.43272 69.49196 58.46234
# Shear Modulus (GPa) = 35.40523 12.47007 23.93765
#
# Velocity S-wave (km/s) = 4.22862 2.50957 3.47701
# Velocity P-wave (km/s) = 6.91355 6.59498 6.75614
#
# Compressibility (1/GPa) = 0.02108249
#
# Stress axis : x y z
#
# Youngs Moduli (GPa) = 47.13939 105.06838 97.46660
#
# Poissons Ratio (x) = 0.42934 0.13737
# Poissons Ratio (y) = 0.19263 0.43457
# Poissons Ratio (z) = 0.06644 0.46847
#
# Static dielectric constant tensor:
#      x y z
#    x 1.732220 0.000000 -0.005020 
#    y 0.000000 1.749530 0.000000 
#    z -0.005020 0.000000 1.689320 
# 
# From -- ./inp_files/61023.got.cif
#   From: 2010.05.17/outbox.cif.g08.bks.cpg/sg12_31_cif.got.tgz:61023.got - 2010.06.03 13:09:07.
