data_PCOD9213839
_publ_section_title
;
Structure prediction by ZEFSAII (Michael W. Deem and Ramdas Pophale) SiO2 
 PCOD9213839
Probable space group: C 2/M
;
_chemical_formula_sum "Si O2"
_cell_formula_units_Z 64
_cell_length_a 24.184911
_cell_length_b 14.470475
_cell_length_c 15.634714
_cell_angle_alpha 90.000000
_cell_angle_beta 36.422476
_cell_angle_gamma 90.000000
_cell_volume 3248.699707
_symmetry_space_group_name_H-M "C 2/M"
_symmetry_group_IT_number 12
_symmetry_cell_setting 'monoclinic'
loop_
_space_group_symop_operation_xyz
x,y,z
-x,y,-z
-x,-y,-z
x,-y,z
1/2+x,1/2+y,z
1/2-x,1/2+y,-z
1/2-x,1/2-y,-z
1/2+x,1/2-y,z
loop_
_atom_site_type_symbol
_atom_site_label
_atom_site_fract_x
_atom_site_fract_y
_atom_site_fract_z
Si Si1 0.068525 0.143006 0.808620
Si Si2 0.179367 0.889034 0.497097
Si Si3 0.888031 0.349176 0.205302
Si Si4 0.356643 0.599168 0.106830
Si Si5 0.294732 0.749772 0.069050
Si Si6 0.469723 0.390807 0.446727
Si Si7 0.925735 0.400001 0.962172
Si Si8 0.172299 0.889766 0.126972
O O1 0.120810 0.132241 0.654688
O O2 0.070539 0.247469 0.838504
O O3 0.125247 0.095831 0.814701
O O4 0.961627 0.110137 0.938026
O O5 0.283346 0.851166 0.368274
O O6 0.119748 0.852780 0.490661
O O7 0.186952 0.000000 0.480763
O O8 0.891987 0.384612 0.102618
O O9 0.962955 0.402782 0.169200
O O10 0.318246 0.500000 0.125339
O O11 0.297736 0.687990 0.151019
O O12 0.386815 0.814437 0.956654
O O13 0.216293 0.827585 0.149174
O O14 0.296525 0.670164 0.994166
O O15 0.500000 0.350020 0.500000
O O16 0.449617 0.500000 0.486784
O O17 0.560745 0.385905 0.273892
O O18 0.890908 0.500000 0.975403
O O19 0.196797 0.000000 0.096725
#
# Coordination Sequence:
#
# PCOD9213839 Si02
#       8
#     8   8   8   8   8   8   8   8
#     4  11  20  36  53  84 121 157 194 238 284 354
#     4  11  22  35  55  83 117 157 196 237 294 349
#     4  11  21  37  54  82 119 157 196 239 287 356
#     4  11  20  35  59  84 118 158 193 237 291 346
#     4  11  21  36  59  85 115 146 194 240 287 350
#     4   9  20  36  55  80 111 148 191 236 288 342
#     4  11  21  37  58  82 116 156 195 237 293 355
#     4  10  22  39  58  85 116 147 189 248 301 342
#
# _framework density 19.700189000000002
#
# number of rings (size 3 to 8) (size 9 to 14) (size 15 to 20)
#    0.000    1.375    2.500    5.625    1.750    1.000 
#    0.000    0.000    0.000    0.000    0.000    0.000 
#    0.000    4.500    0.000    0.000    0.000    0.000 
#
# Total GULP energy -178433.860666 kJ/mol
# GULP energy per Si atom -5576.058146 kJ/mol
# Density = 1.965535 g / cm^3
# Si number density = 19.700189 Si / 1000 Ang^3
#
#
#
# Elastic Constant Matrix: (Units=GPa)
#
#
# Indices 1 2 3 4 5 6 
#
# 1 58.8790 19.1077 19.4796 0.0000 -13.1794 0.0000
# 2 19.1077 143.3649 -7.3247 0.0000 -12.0612 0.0000
# 3 19.4796 -7.3247 57.1871 0.0000 -5.9438 0.0000
# 4 0.0000 0.0000 0.0000 32.2300 0.0000 9.5804
# 5 -13.1794 -12.0612 -5.9438 0.0000 22.2995 0.0000
# 6 0.0000 0.0000 0.0000 9.5804 0.0000 35.5549
#
#
#
# Elastic Compliance Matrix: (Units=1/GPa)
#
#
# Indices 1 2 3 4 5 6 
#
# 1 0.022304 -0.002482 -0.006875 0.000000 0.010007 0.000000
# 2 -0.002482 0.007692 0.002171 0.000000 0.003272 0.000000
# 3 -0.006875 0.002171 0.020370 0.000000 0.002540 0.000000
# 4 0.000000 0.000000 0.000000 0.033728 0.000000 -0.009088
# 5 0.010007 0.003272 0.002540 0.000000 0.053206 0.000000
# 6 0.000000 0.000000 0.000000 -0.009088 0.000000 0.030574
#
#
# Mechanical properties :
#
#
# Convention : Reuss Voigt Hill
#
# Bulk Modulus (GPa) = 27.78260 35.77292 31.77776
# Shear Modulus (GPa) = 25.74056 33.22810 29.48433
#
# Velocity S-wave (km/s) = 3.61863 4.11139 3.87286
# Velocity P-wave (km/s) = 5.62074 6.38248 6.01368
#
# Compressibility (1/GPa) = 0.03599375
#
# Stress axis : x y z
#
# Youngs Moduli (GPa) = 44.83485 130.00152 49.09072
#
# Poissons Ratio (x) = 0.32267 0.33751
# Poissons Ratio (y) = 0.11128 -0.10657
# Poissons Ratio (z) = 0.30825 -0.28221
#
# Static dielectric constant tensor:
#      x y z
#    x 1.762040 0.000000 -0.002220 
#    y 0.000000 1.777490 0.000000 
#    z -0.002220 0.000000 1.633340 
# 
# From -- ./inp_files/290112.got.cif
#   From: 2010.05.17/outbox.cif.g08.bks.cpg/sg12_146_cif.got.tgz:290112.got - 2010.06.03 13:09:07.
