data_PCOD9213089
_publ_section_title
;
Structure prediction by ZEFSAII (Michael W. Deem and Ramdas Pophale) SiO2 
 PCOD9213089
Probable space group: C 2/M
;
_chemical_formula_sum "Si O2"
_cell_formula_units_Z 52
_cell_length_a 9.483014
_cell_length_b 28.980377
_cell_length_c 14.772812
_cell_angle_alpha 90.000000
_cell_angle_beta 139.441134
_cell_angle_gamma 90.000000
_cell_volume 2639.853922
_symmetry_space_group_name_H-M "C 2/M"
_symmetry_group_IT_number 12
_symmetry_cell_setting 'monoclinic'
loop_
_space_group_symop_operation_xyz
x,y,z
-x,y,-z
-x,-y,-z
x,-y,z
1/2+x,1/2+y,z
1/2-x,1/2+y,-z
1/2-x,1/2-y,-z
1/2+x,1/2-y,z
loop_
_atom_site_type_symbol
_atom_site_label
_atom_site_fract_x
_atom_site_fract_y
_atom_site_fract_z
Si Si1 0.298242 0.601683 0.836098
Si Si2 0.500539 0.815292 0.682656
Si Si3 0.309234 0.000000 0.480376
Si Si4 0.623882 0.000000 0.788734
Si Si5 0.480148 0.579609 0.738452
Si Si6 0.707533 0.000000 0.039292
Si Si7 0.797257 0.242445 0.332511
Si Si8 0.028893 0.155829 0.406215
O O1 0.105310 0.636814 0.767089
O O2 0.238904 0.547480 0.815636
O O3 0.360495 0.606386 0.761086
O O4 0.500000 0.610898 0.000000
O O5 0.403915 0.778864 0.709553
O O6 0.689152 0.788730 0.719144
O O7 0.283135 0.830088 0.520646
O O8 0.500000 0.000000 0.500000
O O9 0.175638 0.954727 0.392092
O O10 0.398408 0.000000 0.625187
O O11 0.628537 0.000000 0.898226
O O12 0.653584 0.545722 0.870107
O O13 0.550832 0.615675 0.697415
O O14 0.500000 0.000000 0.000000
O O15 0.000000 0.248457 0.500000
O O16 0.882072 0.200031 0.313463
O O17 0.000000 0.145276 0.500000
#
# Coordination Sequence:
#
# PCOD9213089 Si02
#       8
#     8   8   4   4   8   4   8   8
#     4  12  24  39  65  90 125 169 218 260 322 379
#     4  10  22  36  64  94 126 168 214 261 332 377
#     4  11  21  35  60  98 120 153 209 270 321 366
#     4  12  22  44  64  89 132 162 205 276 314 374
#     4  11  23  39  63  96 125 163 221 266 310 385
#     4  11  26  44  64  86 129 182 219 251 325 395
#     4   9  19  38  60  93 131 162 204 264 329 385
#     4   9  20  38  62  95 130 162 206 269 323 378
#
# _framework density 19.698060999999999
#
# number of rings (size 3 to 8) (size 9 to 14) (size 15 to 20)
#    0.000    1.846    3.077    3.462    4.308    3.692 
#    0.000    2.308    0.000    0.000    0.000    0.000 
#    0.000    0.000    0.000    0.000    0.000    0.000 
#
# Total GULP energy -144935.906820 kJ/mol
# GULP energy per Si atom -5574.457955 kJ/mol
# Density = 1.965323 g / cm^3
# Si number density = 19.698061 Si / 1000 Ang^3
#
#
#
# Elastic Constant Matrix: (Units=GPa)
#
#
# Indices 1 2 3 4 5 6 
#
# 1 69.8793 45.0430 29.6118 0.0000 -4.5152 0.0000
# 2 45.0430 106.5362 22.0525 0.0000 -6.9616 0.0000
# 3 29.6118 22.0525 82.3246 0.0000 -15.4024 0.0000
# 4 0.0000 0.0000 0.0000 -2.1857 0.0000 -9.6791
# 5 -4.5152 -6.9616 -15.4024 0.0000 27.8649 0.0000
# 6 0.0000 0.0000 0.0000 -9.6791 0.0000 31.7928
#
#
#
# Elastic Compliance Matrix: (Units=1/GPa)
#
#
# Indices 1 2 3 4 5 6 
#
# 1 0.022041 -0.008180 -0.006080 0.000000 -0.001833 0.000000
# 2 -0.008180 0.013005 -0.000202 0.000000 0.001812 0.000000
# 3 -0.006080 -0.000202 0.015832 0.000000 0.007715 0.000000
# 4 0.000000 0.000000 0.000000 -0.194838 0.000000 -0.059317
# 5 -0.001833 0.001812 0.007715 0.000000 0.040308 0.000000
# 6 0.000000 0.000000 0.000000 -0.059317 0.000000 0.013395
#
#
# Mechanical properties :
#
#
# Convention : Reuss Voigt Hill
#
# Bulk Modulus (GPa) = 45.55116 50.23943 47.89530
# Shear Modulus (GPa) = -92.56676 22.29658 -35.13509
#
# Velocity S-wave (km/s) = -6.86257 3.36805 -4.22795
# Velocity P-wave (km/s) = 6.29430 6.37849 0.73037
#
# Compressibility (1/GPa) = 0.02195334
#
# Stress axis : x y z
#
# Youngs Moduli (GPa) = 45.36988 76.89177 63.16487
#
# Poissons Ratio (x) = 0.62899 0.38402
# Poissons Ratio (y) = 0.37113 0.01279
# Poissons Ratio (z) = 0.27584 0.01557
#
# Static dielectric constant tensor:
#      x y z
#    x 1.754520 0.000000 0.001690 
#    y 0.000000 1.741430 0.000000 
#    z 0.001690 0.000000 1.664430 
# 
# From -- ./inp_files/201381.got.cif
#   From: 2010.05.17/outbox.cif.g08.bks.cpg/sg12_101_cif.got.tgz:201381.got - 2010.06.03 13:09:07.
