data_PCOD9213844
_publ_section_title
;
Structure prediction by ZEFSAII (Michael W. Deem and Ramdas Pophale) SiO2 
 PCOD9213844
Probable space group: C 2/M
;
_chemical_formula_sum "Si O2"
_cell_formula_units_Z 36
_cell_length_a 18.668690
_cell_length_b 20.798118
_cell_length_c 5.786585
_cell_angle_alpha 90.000000
_cell_angle_beta 60.541123
_cell_angle_gamma 90.000000
_cell_volume 1956.289854
_symmetry_space_group_name_H-M "C 2/M"
_symmetry_group_IT_number 12
_symmetry_cell_setting 'monoclinic'
loop_
_space_group_symop_operation_xyz
x,y,z
-x,y,-z
-x,-y,-z
x,-y,z
1/2+x,1/2+y,z
1/2-x,1/2+y,-z
1/2-x,1/2-y,-z
1/2+x,1/2-y,z
loop_
_atom_site_type_symbol
_atom_site_label
_atom_site_fract_x
_atom_site_fract_y
_atom_site_fract_z
Si Si1 0.225925 0.643022 0.567748
Si Si2 0.778794 0.500000 0.424173
Si Si3 0.000000 0.725634 0.500000
Si Si4 0.681149 0.749699 0.305417
Si Si5 0.558202 0.115312 0.101782
Si Si6 0.871136 0.500000 0.770877
O O1 0.261197 0.570884 0.487048
O O2 0.291471 0.693260 0.564579
O O3 0.190173 0.679133 0.400564
O O4 0.146002 0.635960 0.857685
O O5 0.836105 0.500000 0.565936
O O6 0.814809 0.500000 0.100927
O O7 0.086928 0.761276 0.382563
O O8 0.011901 0.678087 0.264739
O O9 0.750000 0.750000 0.000000
O O10 0.578573 0.064908 0.268809
O O11 0.500000 0.084199 0.000000
#
# Coordination Sequence:
#
# PCOD9213844 Si02
#       6
#     8   4   4   8   8   4
#     4  10  22  39  58  85 123 159 208 247 312 362
#     4  10  22  40  62  87 121 167 205 251 308 372
#     4  12  22  35  60  83 124 156 210 248 312 350
#     4  11  22  38  60  88 119 163 202 260 300 370
#     4  11  21  35  54  86 126 165 197 244 298 376
#     4  10  23  35  56  88 128 164 200 234 302 378
#
# _framework density 18.402182
#
# number of rings (size 3 to 8) (size 9 to 14) (size 15 to 20)
#    0.000    1.333    4.444    1.667    6.222    0.444 
#    0.000    0.000    0.000    0.667    0.000    1.556 
#    0.000    0.000    0.000    0.000    0.000    0.000 
#
# Total GULP energy -100266.587642 kJ/mol
# GULP energy per Si atom -5570.365980 kJ/mol
# Density = 1.836030 g / cm^3
# Si number density = 18.402182 Si / 1000 Ang^3
#
#
#
# Elastic Constant Matrix: (Units=GPa)
#
#
# Indices 1 2 3 4 5 6 
#
# 1 94.6803 24.3881 14.1089 0.0000 -11.3876 0.0000
# 2 24.3881 105.6914 11.2643 0.0000 -6.6948 0.0000
# 3 14.1089 11.2643 65.7459 0.0000 -7.7061 0.0000
# 4 0.0000 0.0000 0.0000 7.3474 0.0000 13.9586
# 5 -11.3876 -6.6948 -7.7061 0.0000 28.0084 0.0000
# 6 0.0000 0.0000 0.0000 13.9586 0.0000 22.8467
#
#
#
# Elastic Compliance Matrix: (Units=1/GPa)
#
#
# Indices 1 2 3 4 5 6 
#
# 1 0.011870 -0.002316 -0.001705 0.000000 0.003803 0.000000
# 2 -0.002316 0.010190 -0.001109 0.000000 0.001189 0.000000
# 3 -0.001705 -0.001109 0.016175 0.000000 0.003492 0.000000
# 4 0.000000 0.000000 0.000000 -0.846893 0.000000 0.517422
# 5 0.003803 0.001189 0.003492 0.000000 0.038495 0.000000
# 6 0.000000 0.000000 0.000000 0.517422 0.000000 -0.272357
#
#
# Mechanical properties :
#
#
# Convention : Reuss Voigt Hill
#
# Bulk Modulus (GPa) = 35.74738 40.62667 38.18703
# Shear Modulus (GPa) = -4.88790 26.06426 10.58818
#
# Velocity S-wave (km/s) = -1.63154 3.76755 2.40130
# Velocity P-wave (km/s) = 3.98981 6.40710 5.33711
#
# Compressibility (1/GPa) = 0.02797407
#
# Stress axis : x y z
#
# Youngs Moduli (GPa) = 84.24604 98.13997 61.82281
#
# Poissons Ratio (x) = 0.22733 0.10538
# Poissons Ratio (y) = 0.19515 0.06858
# Poissons Ratio (z) = 0.14361 0.10887
#
# Static dielectric constant tensor:
#      x y z
#    x 1.675170 0.000000 0.034520 
#    y 0.000000 1.652220 0.000000 
#    z 0.034520 0.000000 1.712920 
# 
# From -- ./inp_files/10764.got.cif
#   From: 2010.05.17/outbox.cif.g08.bks.cpg/sg12_6_cif.got.tgz:10764.got - 2010.06.03 13:09:07.
