data_PCOD9213379
_publ_section_title
;
Structure prediction by ZEFSAII (Michael W. Deem and Ramdas Pophale) SiO2 
 PCOD9213379
Probable space group: C 2/M
;
_chemical_formula_sum "Si O2"
_cell_formula_units_Z 50
_cell_length_a 12.056193
_cell_length_b 22.540692
_cell_length_c 15.783375
_cell_angle_alpha 90.000000
_cell_angle_beta 139.186914
_cell_angle_gamma 90.000000
_cell_volume 2803.399701
_symmetry_space_group_name_H-M "C 2/M"
_symmetry_group_IT_number 12
_symmetry_cell_setting 'monoclinic'
loop_
_space_group_symop_operation_xyz
x,y,z
-x,y,-z
-x,-y,-z
x,-y,z
1/2+x,1/2+y,z
1/2-x,1/2+y,-z
1/2-x,1/2-y,-z
1/2+x,1/2-y,z
loop_
_atom_site_type_symbol
_atom_site_label
_atom_site_fract_x
_atom_site_fract_y
_atom_site_fract_z
Si Si1 0.641465 0.868349 0.141548
Si Si2 0.312525 0.890826 0.488180
Si Si3 0.484111 0.323923 0.253672
Si Si4 0.069948 0.765701 0.132299
Si Si5 0.530664 0.228875 0.611487
Si Si6 0.195910 0.070941 0.604760
Si Si7 0.500000 0.000000 0.500000
O O1 0.564059 0.805889 0.129843
O O2 0.701023 0.906185 0.255157
O O3 0.807627 0.851517 0.182864
O O4 0.500000 0.897072 0.000000
O O5 0.135283 0.871518 0.342332
O O6 0.433500 0.833317 0.555611
O O7 0.271840 0.904649 0.562048
O O8 0.395935 0.947306 0.491947
O O9 0.472691 0.294252 0.154921
O O10 0.529310 0.273179 0.349304
O O11 0.268886 0.780723 0.258369
O O12 0.000000 0.784608 0.000000
O O13 0.500000 0.255706 0.500000
O O14 0.000000 0.090482 0.500000
O O15 0.198453 0.000000 0.603582
#
# Coordination Sequence:
#
# PCOD9213379 Si02
#       7
#     8   8   8   8   8   8   2
#     4  10  23  38  59  90 125 159 204 244 307 377
#     4  12  22  39  61  91 123 160 205 265 304 364
#     4  11  22  37  62  89 126 164 197 260 317 363
#     4  10  22  38  56  87 125 163 201 246 305 376
#     4  11  22  34  60  94 122 158 207 250 313 376
#     4  11  23  39  62  89 113 158 205 254 306 357
#     4  12  24  40  58  92 126 156 212 248 320 358
#
# _framework density 17.835488999999999
#
# number of rings (size 3 to 8) (size 9 to 14) (size 15 to 20)
#    0.000    1.120    4.800    1.440    4.480    7.360 
#    0.000    0.000    0.000    0.000    0.000    3.360 
#    0.000    0.000    0.000    0.000    0.000    0.000 
#
# Total GULP energy -139431.101636 kJ/mol
# GULP energy per Si atom -5577.244065 kJ/mol
# Density = 1.779489 g / cm^3
# Si number density = 17.835489 Si / 1000 Ang^3
#
#
#
# Elastic Constant Matrix: (Units=GPa)
#
#
# Indices 1 2 3 4 5 6 
#
# 1 91.6070 22.1873 27.7679 0.0000 -26.7358 0.0000
# 2 22.1873 49.8365 14.4816 0.0000 -6.3888 0.0000
# 3 27.7679 14.4816 116.9252 0.0000 -19.0079 0.0000
# 4 0.0000 0.0000 0.0000 15.7992 0.0000 7.1111
# 5 -26.7358 -6.3888 -19.0079 0.0000 31.5759 0.0000
# 6 0.0000 0.0000 0.0000 7.1111 0.0000 -20.3327
#
#
#
# Elastic Compliance Matrix: (Units=1/GPa)
#
#
# Indices 1 2 3 4 5 6 
#
# 1 0.015987 -0.005254 -0.001240 0.000000 0.011727 0.000000
# 2 -0.005254 0.022792 -0.001717 0.000000 -0.000870 0.000000
# 3 -0.001240 -0.001717 0.009790 0.000000 0.004497 0.000000
# 4 0.000000 0.000000 0.000000 0.054686 0.000000 0.019126
# 5 0.011727 -0.000870 0.004497 0.000000 0.044130 0.000000
# 6 0.000000 0.000000 0.000000 0.019126 0.000000 -0.042493
#
#
# Mechanical properties :
#
#
# Convention : Reuss Voigt Hill
#
# Bulk Modulus (GPa) = 31.10483 43.02691 37.06587
# Shear Modulus (GPa) = 37.87037 18.33727 28.10382
#
# Velocity S-wave (km/s) = 4.61294 3.20993 3.97385
# Velocity P-wave (km/s) = 6.77127 6.15751 6.47167
#
# Compressibility (1/GPa) = 0.03214934
#
# Stress axis : x y z
#
# Youngs Moduli (GPa) = 62.55062 43.87525 102.14014
#
# Poissons Ratio (x) = 0.23052 0.12660
# Poissons Ratio (y) = 0.32863 0.17534
# Poissons Ratio (z) = 0.07753 0.07532
#
# Static dielectric constant tensor:
#      x y z
#    x 1.627720 0.000000 0.012120 
#    y 0.000000 1.591960 0.000000 
#    z 0.012120 0.000000 1.609960 
# 
# From -- ./inp_files/79825.got.cif
#   From: 2010.05.17/outbox.cif.g08.bks.cpg/sg12_40_cif.got.tgz:79825.got - 2010.06.03 13:09:07.
