data_PCOD9213040
_publ_section_title
;
Structure prediction by ZEFSAII (Michael W. Deem and Ramdas Pophale) SiO2 
 PCOD9213040
Probable space group: C 2/M
;
_chemical_formula_sum "Si O2"
_cell_formula_units_Z 56
_cell_length_a 24.306555
_cell_length_b 22.125989
_cell_length_c 13.853237
_cell_angle_alpha 90.000000
_cell_angle_beta 159.195291
_cell_angle_gamma 90.000000
_cell_volume 2646.247777
_symmetry_space_group_name_H-M "C 2/M"
_symmetry_group_IT_number 12
_symmetry_cell_setting 'monoclinic'
loop_
_space_group_symop_operation_xyz
x,y,z
-x,y,-z
-x,-y,-z
x,-y,z
1/2+x,1/2+y,z
1/2-x,1/2+y,-z
1/2-x,1/2-y,-z
1/2+x,1/2-y,z
loop_
_atom_site_type_symbol
_atom_site_label
_atom_site_fract_x
_atom_site_fract_y
_atom_site_fract_z
Si Si1 0.374772 0.354672 0.225098
Si Si2 0.845600 0.375636 0.298370
Si Si3 0.114923 0.429736 0.096877
Si Si4 0.784690 0.072714 0.728117
Si Si5 0.134150 0.926818 0.347181
Si Si6 0.877145 0.678184 0.027001
Si Si7 0.099213 0.250658 0.516725
O O1 0.500000 0.387711 0.500000
O O2 0.228478 0.335362 0.051274
O O3 0.472160 0.296885 0.347290
O O4 0.300825 0.387168 0.011375
O O5 0.827534 0.403113 0.374443
O O6 0.863385 0.303719 0.345344
O O7 0.000000 0.398084 0.500000
O O8 0.115127 0.500000 0.066108
O O9 0.280644 0.411290 0.414640
O O10 0.079883 0.383772 0.954597
O O11 0.000000 0.425906 0.000000
O O12 0.775570 0.092919 0.601795
O O13 0.776911 0.000000 0.715000
O O14 0.957044 0.091904 0.045629
O O15 0.135522 0.000000 0.346271
O O16 0.760675 0.716110 0.768043
O O17 0.022760 0.717279 0.299450
#
# Coordination Sequence:
#
# PCOD9213040 Si02
#       7
#     8   8   8   8   8   8   8
#     4  10  22  36  58  87 119 160 206 249 306 372
#     4  12  22  35  59  92 123 157 203 256 315 378
#     4  10  23  41  64  92 125 163 207 260 319 379
#     4   9  20  37  61  88 120 159 208 260 310 372
#     4   8  17  38  62  84 110 160 215 251 297 369
#     4  11  22  38  64  91 123 165 213 255 306 375
#     4  11  22  38  61  90 118 163 208 253 302 368
#
# _framework density 21.162040000000001
#
# number of rings (size 3 to 8) (size 9 to 14) (size 15 to 20)
#    0.000    1.857    2.857    2.571    6.000    0.286 
#    0.000    1.429    3.143    4.286    0.000    0.000 
#    0.000    0.000    0.000    0.000    0.000    0.000 
#
# Total GULP energy -156336.681186 kJ/mol
# GULP energy per Si atom -5583.452899 kJ/mol
# Density = 2.111387 g / cm^3
# Si number density = 21.162040 Si / 1000 Ang^3
#
#
#
# Elastic Constant Matrix: (Units=GPa)
#
#
# Indices 1 2 3 4 5 6 
#
# 1 81.3943 33.4436 28.8579 0.0000 -5.8635 0.0000
# 2 33.4436 47.8022 27.6871 0.0000 -10.0824 0.0000
# 3 28.8579 27.6871 109.6413 0.0000 -24.6509 0.0000
# 4 0.0000 0.0000 0.0000 21.3158 0.0000 -8.6856
# 5 -5.8635 -10.0824 -24.6509 0.0000 30.3884 0.0000
# 6 0.0000 0.0000 0.0000 -8.6856 0.0000 37.1594
#
#
#
# Elastic Compliance Matrix: (Units=1/GPa)
#
#
# Indices 1 2 3 4 5 6 
#
# 1 0.017654 -0.011526 -0.002238 0.000000 -0.002233 0.000000
# 2 -0.011526 0.032394 -0.003951 0.000000 0.005319 0.000000
# 3 -0.002238 -0.003951 0.012617 0.000000 0.008492 0.000000
# 4 0.000000 0.000000 0.000000 0.051852 0.000000 0.012120
# 5 -0.002233 0.005319 0.008492 0.000000 0.041130 0.000000
# 6 0.000000 0.000000 0.000000 0.012120 0.000000 0.029744
#
#
# Mechanical properties :
#
#
# Convention : Reuss Voigt Hill
#
# Bulk Modulus (GPa) = 36.71769 46.53501 41.62635
# Shear Modulus (GPa) = 21.74869 27.69598 24.72233
#
# Velocity S-wave (km/s) = 3.20929 3.62160 3.42166
# Velocity P-wave (km/s) = 5.57863 6.28694 5.94334
#
# Compressibility (1/GPa) = 0.02723483
#
# Stress axis : x y z
#
# Youngs Moduli (GPa) = 56.64294 30.87026 79.26057
#
# Poissons Ratio (x) = 0.35582 0.17740
# Poissons Ratio (y) = 0.65288 0.31312
# Poissons Ratio (z) = 0.12678 0.12195
#
# Static dielectric constant tensor:
#      x y z
#    x 1.754810 0.000000 -0.014420 
#    y 0.000000 1.740820 0.000000 
#    z -0.014420 0.000000 1.848880 
# 
# From -- ./inp_files/247402.got.cif
#   From: 2010.05.17/outbox.cif.g08.bks.cpg/sg12_124_cif.got.tgz:247402.got - 2010.06.03 13:09:07.
