data_PCOD9213179
_publ_section_title
;
Structure prediction by ZEFSAII (Michael W. Deem and Ramdas Pophale) SiO2 
 PCOD9213179
Probable space group: C 2/M
;
_chemical_formula_sum "Si O2"
_cell_formula_units_Z 64
_cell_length_a 24.939076
_cell_length_b 13.767683
_cell_length_c 11.667689
_cell_angle_alpha 90.000000
_cell_angle_beta 44.393138
_cell_angle_gamma 90.000000
_cell_volume 2802.606081
_symmetry_space_group_name_H-M "C 2/M"
_symmetry_group_IT_number 12
_symmetry_cell_setting 'monoclinic'
loop_
_space_group_symop_operation_xyz
x,y,z
-x,y,-z
-x,-y,-z
x,-y,z
1/2+x,1/2+y,z
1/2-x,1/2+y,-z
1/2-x,1/2-y,-z
1/2+x,1/2-y,z
loop_
_atom_site_type_symbol
_atom_site_label
_atom_site_fract_x
_atom_site_fract_y
_atom_site_fract_z
Si Si1 0.238407 0.886957 0.584449
Si Si2 0.306044 0.116613 0.819637
Si Si3 0.846944 0.884420 0.061884
Si Si4 0.614111 0.806874 0.526616
Si Si5 0.664318 0.882589 0.966039
Si Si6 0.003310 0.324729 0.124213
Si Si7 0.817677 0.111174 0.591606
Si Si8 0.516331 0.392146 0.841450
O O1 0.174623 0.855316 0.774660
O O2 0.313933 0.826871 0.498113
O O3 0.208744 0.884666 0.500739
O O4 0.257844 0.000000 0.577539
O O5 0.220108 0.152306 0.918154
O O6 0.361458 0.148574 0.632677
O O7 0.330470 0.145326 0.909135
O O8 0.304238 0.000000 0.824036
O O9 0.837387 0.000000 0.077903
O O10 0.936030 0.875431 0.897894
O O11 0.542989 0.862740 0.694208
O O12 0.615054 0.690170 0.499543
O O13 0.592797 0.828606 0.017862
O O14 0.652138 0.000000 0.974132
O O15 0.744105 0.861266 0.780155
O O16 0.958344 0.220675 0.190146
O O17 0.000000 0.366245 0.000000
O O18 0.836469 0.000000 0.594463
O O19 0.549171 0.500000 0.756184
O O20 0.500000 0.407485 0.000000
#
# Coordination Sequence:
#
# PCOD9213179 Si02
#       8
#     8   8   8   8   8   8   8   8
#     4   9  18  32  56  85 114 147 194 247 296 349
#     4   9  20  40  66  89 111 145 203 262 302 347
#     4   8  15  30  55  87 110 141 192 243 289 334
#     4  11  22  36  58  87 118 158 199 249 301 354
#     4  10  23  43  63  87 119 158 203 252 306 363
#     4  11  25  38  57  90 126 161 199 241 302 371
#     4  10  22  37  57  86 122 161 198 243 302 363
#     4   9  19  34  54  82 120 159 195 237 288 346
#
# _framework density 22.835888000000001
#
# number of rings (size 3 to 8) (size 9 to 14) (size 15 to 20)
#    0.000    2.375    0.000    2.250    7.000    2.750 
#    0.000    1.250    0.000    0.000    0.000    1.750 
#    0.000    0.000    0.000    0.000    0.000    0.000 
#
# Total GULP energy -178292.331780 kJ/mol
# GULP energy per Si atom -5571.635368 kJ/mol
# Density = 2.278391 g / cm^3
# Si number density = 22.835888 Si / 1000 Ang^3
#
#
#
# Elastic Constant Matrix: (Units=GPa)
#
#
# Indices 1 2 3 4 5 6 
#
# 1 77.1365 -3.6160 29.6511 0.0000 21.3169 0.0000
# 2 -3.6160 90.4133 2.9103 0.0000 6.7999 0.0000
# 3 29.6511 2.9103 108.4280 0.0000 -4.0168 0.0000
# 4 0.0000 0.0000 0.0000 15.1528 0.0000 3.2013
# 5 21.3169 6.7999 -4.0168 0.0000 26.9101 0.0000
# 6 0.0000 0.0000 0.0000 3.2013 0.0000 19.0568
#
#
#
# Elastic Compliance Matrix: (Units=1/GPa)
#
#
# Indices 1 2 3 4 5 6 
#
# 1 0.020376 0.002346 -0.006290 0.000000 -0.017672 0.000000
# 2 0.002346 0.011563 -0.001135 0.000000 -0.004950 0.000000
# 3 -0.006290 -0.001135 0.011230 0.000000 0.006946 0.000000
# 4 0.000000 0.000000 0.000000 0.068423 0.000000 -0.011494
# 5 -0.017672 -0.004950 0.006946 0.000000 0.053447 0.000000
# 6 0.000000 0.000000 0.000000 -0.011494 0.000000 0.054405
#
#
# Mechanical properties :
#
#
# Convention : Reuss Voigt Hill
#
# Bulk Modulus (GPa) = 30.29214 37.09651 33.69432
# Shear Modulus (GPa) = 20.78089 28.69278 24.73684
#
# Velocity S-wave (km/s) = 3.01991 3.54853 3.29484
# Velocity P-wave (km/s) = 5.04517 5.75061 5.40940
#
# Compressibility (1/GPa) = 0.03301187
#
# Stress axis : x y z
#
# Youngs Moduli (GPa) = 49.07848 86.48270 89.04342
#
# Poissons Ratio (x) = -0.20293 0.56005
# Poissons Ratio (y) = -0.11516 0.10110
# Poissons Ratio (z) = 0.30869 0.09819
#
# Static dielectric constant tensor:
#      x y z
#    x 1.816430 0.000000 -0.015850 
#    y 0.000000 2.015480 0.000000 
#    z -0.015850 0.000000 1.920870 
# 
# From -- ./inp_files/183794.got.cif
#   From: 2010.05.17/outbox.cif.g08.bks.cpg/sg12_92_cif.got.tgz:183794.got - 2010.06.03 13:09:07.
