data_PCOD9213034
_publ_section_title
;
Structure prediction by ZEFSAII (Michael W. Deem and Ramdas Pophale) SiO2 
 PCOD9213034
Probable space group: C 2/M
;
_chemical_formula_sum "Si O2"
_cell_formula_units_Z 44
_cell_length_a 17.770527
_cell_length_b 13.068650
_cell_length_c 10.200782
_cell_angle_alpha 90.000000
_cell_angle_beta 51.198245
_cell_angle_gamma 90.000000
_cell_volume 1846.203789
_symmetry_space_group_name_H-M "C 2/M"
_symmetry_group_IT_number 12
_symmetry_cell_setting 'monoclinic'
loop_
_space_group_symop_operation_xyz
x,y,z
-x,y,-z
-x,-y,-z
x,-y,z
1/2+x,1/2+y,z
1/2-x,1/2+y,-z
1/2-x,1/2-y,-z
1/2+x,1/2-y,z
loop_
_atom_site_type_symbol
_atom_site_label
_atom_site_fract_x
_atom_site_fract_y
_atom_site_fract_z
Si Si1 0.613797 0.500000 0.401502
Si Si2 0.115621 0.000000 0.867096
Si Si3 0.560914 0.882961 0.795765
Si Si4 0.306106 0.712682 0.251322
Si Si5 0.759742 0.000000 0.999124
Si Si6 0.612403 0.722086 0.393628
Si Si7 0.629327 0.201171 0.102018
O O1 0.500000 0.500000 0.500000
O O2 0.675556 0.500000 0.201543
O O3 0.630187 0.612147 0.442122
O O4 0.147367 0.104947 0.764174
O O5 0.172385 0.000000 0.945818
O O6 0.000000 0.000000 0.000000
O O7 0.650367 0.806757 0.714428
O O8 0.481810 0.834543 0.786420
O O9 0.587454 0.000000 0.736156
O O10 0.500000 0.886041 0.000000
O O11 0.190516 0.704222 0.373373
O O12 0.341554 0.744458 0.065261
O O13 0.690000 0.098989 0.066762
O O14 0.500000 0.746143 0.500000
O O15 0.641784 0.721114 0.207838
#
# Coordination Sequence:
#
# PCOD9213034 Si02
#       7
#     4   4   8   8   4   8   8
#     4  10  22  36  57  93 130 155 199 259 313 358
#     4  12  24  38  56  94 128 162 204 253 311 370
#     4   9  19  33  60  91 119 151 199 264 312 353
#     4  11  22  38  60  91 124 160 203 259 313 363
#     4  12  20  36  68  92 121 154 213 257 300 364
#     4  11  23  39  60  92 126 164 209 252 310 366
#     4  11  20  38  62  95 116 156 213 260 301 358
#
# _framework density 23.832688000000001
#
# number of rings (size 3 to 8) (size 9 to 14) (size 15 to 20)
#    0.000    1.273    4.545    3.273    2.545    0.000 
#    0.000    2.727    0.000    0.000    0.000    0.000 
#    0.000    0.000    0.000    0.000    0.000    0.000 
#
# Total GULP energy -122936.275402 kJ/mol
# GULP energy per Si atom -5588.012518 kJ/mol
# Density = 2.377844 g / cm^3
# Si number density = 23.832688 Si / 1000 Ang^3
#
#
#
# Elastic Constant Matrix: (Units=GPa)
#
#
# Indices 1 2 3 4 5 6 
#
# 1 127.1813 56.6042 34.8568 0.0000 -36.8190 0.0000
# 2 56.6042 157.9229 12.4280 0.0000 -31.2508 0.0000
# 3 34.8568 12.4280 57.2519 0.0000 -15.0351 0.0000
# 4 0.0000 0.0000 0.0000 7.9613 0.0000 -13.1053
# 5 -36.8190 -31.2508 -15.0351 0.0000 53.7901 0.0000
# 6 0.0000 0.0000 0.0000 -13.1053 0.0000 41.6054
#
#
#
# Elastic Compliance Matrix: (Units=1/GPa)
#
#
# Indices 1 2 3 4 5 6 
#
# 1 0.012113 -0.002909 -0.005406 0.000000 0.005090 0.000000
# 2 -0.002909 0.007867 0.000799 0.000000 0.002803 0.000000
# 3 -0.005406 0.000799 0.021298 0.000000 0.002717 0.000000
# 4 0.000000 0.000000 0.000000 0.260874 0.000000 0.082173
# 5 0.005090 0.002803 0.002717 0.000000 0.024462 0.000000
# 6 0.000000 0.000000 0.000000 0.082173 0.000000 0.049919
#
#
# Mechanical properties :
#
#
# Convention : Reuss Voigt Hill
#
# Bulk Modulus (GPa) = 38.10169 61.12601 49.61385
# Shear Modulus (GPa) = 12.49022 36.56917 24.52970
#
# Velocity S-wave (km/s) = 2.29176 3.92141 3.21167
# Velocity P-wave (km/s) = 4.79841 6.79757 5.88352
#
# Compressibility (1/GPa) = 0.02624556
#
# Stress axis : x y z
#
# Youngs Moduli (GPa) = 82.55782 127.12108 46.95216
#
# Poissons Ratio (x) = 0.36978 0.25385
# Poissons Ratio (y) = 0.24015 -0.03753
# Poissons Ratio (z) = 0.44635 -0.10162
#
# Static dielectric constant tensor:
#      x y z
#    x 1.897160 0.000000 0.028440 
#    y 0.000000 1.914430 0.000000 
#    z 0.028440 0.000000 1.959640 
# 
# From -- ./inp_files/155869.got.cif
#   From: 2010.05.17/outbox.cif.g08.bks.cpg/sg12_78_cif.got.tgz:155869.got - 2010.06.03 13:09:07.
