data_PCOD9213342
_publ_section_title
;
Structure prediction by ZEFSAII (Michael W. Deem and Ramdas Pophale) SiO2 
 PCOD9213342
Probable space group: C 2/M
;
_chemical_formula_sum "Si O2"
_cell_formula_units_Z 56
_cell_length_a 16.582760
_cell_length_b 13.686372
_cell_length_c 24.678507
_cell_angle_alpha 90.000000
_cell_angle_beta 28.870503
_cell_angle_gamma 90.000000
_cell_volume 2704.330304
_symmetry_space_group_name_H-M "C 2/M"
_symmetry_group_IT_number 12
_symmetry_cell_setting 'monoclinic'
loop_
_space_group_symop_operation_xyz
x,y,z
-x,y,-z
-x,-y,-z
x,-y,z
1/2+x,1/2+y,z
1/2-x,1/2+y,-z
1/2-x,1/2-y,-z
1/2+x,1/2-y,z
loop_
_atom_site_type_symbol
_atom_site_label
_atom_site_fract_x
_atom_site_fract_y
_atom_site_fract_z
Si Si1 0.321874 0.117535 0.132184
Si Si2 0.049146 0.116700 0.671366
Si Si3 0.094575 0.112262 0.000683
Si Si4 0.672933 0.804087 0.409364
Si Si5 0.593330 0.762621 0.814611
Si Si6 0.815544 0.885377 0.528480
Si Si7 0.023049 0.388668 0.217899
O O1 0.333746 0.162099 0.184825
O O2 0.145392 0.150270 0.208996
O O3 0.316536 0.000000 0.137477
O O4 0.500000 0.144129 0.000000
O O5 0.184753 0.154106 0.634531
O O6 0.115605 0.138099 0.571544
O O7 0.045207 0.000000 0.679063
O O8 0.030112 0.188794 0.082580
O O9 0.068467 0.000000 0.034762
O O10 0.289265 0.124929 0.874012
O O11 0.000000 0.125436 0.000000
O O12 0.500000 0.858904 0.500000
O O13 0.756509 0.794022 0.301789
O O14 0.628746 0.698325 0.462474
O O15 0.511031 0.819050 0.812727
O O16 0.614095 0.877838 0.654116
O O17 0.859795 0.000000 0.514604
O O18 0.004326 0.500000 0.208845
#
# Coordination Sequence:
#
# PCOD9213342 Si02
#       7
#     8   8   8   8   8   8   8
#     4  10  22  40  63  89 114 146 191 241 291 343
#     4  10  22  41  62  84 116 155 193 235 283 340
#     4  10  22  38  55  79 114 156 199 237 277 336
#     4  11  24  38  57  88 121 152 189 236 286 341
#     4  11  22  36  59  85 113 150 188 237 295 342
#     4   9  19  37  62  86 111 149 192 237 287 336
#     4   9  19  36  58  87 117 145 188 242 291 341
#
# _framework density 20.707528
#
# number of rings (size 3 to 8) (size 9 to 14) (size 15 to 20)
#    0.000    2.000    0.000    2.571    0.000    8.571 
#    0.000    4.286    0.000    0.000    0.000    0.000 
#    0.000    0.000    0.000    0.000    0.000    0.000 
#
# Total GULP energy -156242.241683 kJ/mol
# GULP energy per Si atom -5580.080060 kJ/mol
# Density = 2.066040 g / cm^3
# Si number density = 20.707528 Si / 1000 Ang^3
#
#
#
# Elastic Constant Matrix: (Units=GPa)
#
#
# Indices 1 2 3 4 5 6 
#
# 1 81.7253 9.7980 73.4141 0.0018 -23.3874 -0.0010
# 2 9.7980 54.9062 40.4578 0.0005 -1.9503 -0.0005
# 3 73.4141 40.4578 148.4582 -0.0036 -17.3857 -0.0020
# 4 0.0018 0.0005 -0.0036 -6.6490 0.0000 13.4393
# 5 -23.3874 -1.9503 -17.3857 0.0000 39.4322 0.0005
# 6 -0.0010 -0.0005 -0.0020 13.4393 0.0005 24.0448
#
#
#
# Elastic Compliance Matrix: (Units=1/GPa)
#
#
# Indices 1 2 3 4 5 6 
#
# 1 0.026544 0.005535 -0.013454 0.000007 0.010085 -0.000004
# 2 0.005535 0.024052 -0.009245 0.000004 0.000396 -0.000002
# 3 -0.013454 -0.009245 0.015733 -0.000006 -0.001500 0.000004
# 4 0.000007 0.000004 -0.000006 -0.070619 0.000001 0.039471
# 5 0.010085 0.000396 -0.001500 0.000001 0.030700 -0.000001
# 6 -0.000004 -0.000002 0.000004 0.039471 -0.000001 0.019528
#
#
# Mechanical properties :
#
#
# Convention : Reuss Voigt Hill
#
# Bulk Modulus (GPa) = 31.24961 59.15883 45.20422
# Shear Modulus (GPa) = 54.98628 22.12693 38.55660
#
# Velocity S-wave (km/s) = 5.15862 3.27241 4.31973
# Velocity P-wave (km/s) = 7.11376 6.55049 6.83793
#
# Compressibility (1/GPa) = 0.03200040
#
# Stress axis : x y z
#
# Youngs Moduli (GPa) = 37.67314 41.57737 63.56216
#
# Poissons Ratio (x) = -0.23012 0.85514
# Poissons Ratio (y) = -0.20851 0.58764
# Poissons Ratio (z) = 0.50684 0.38439
#
# Static dielectric constant tensor:
#      x y z
#    x 1.690300 0.000000 -0.031600 
#    y 0.000000 1.787920 0.000000 
#    z -0.031600 0.000000 1.768200 
# 
# From -- ./inp_files/340321.got.cif
#   From: 2010.05.17/outbox.cif.g08.bks.cpg/sg12_171_cif.got.tgz:340321.got - 2010.06.03 13:09:07.
