data_PCOD9213481
_publ_section_title
;
Structure prediction by ZEFSAII (Michael W. Deem and Ramdas Pophale) SiO2 
 PCOD9213481
Probable space group: C 2/M
;
_chemical_formula_sum "Si O2"
_cell_formula_units_Z 48
_cell_length_a 25.636098
_cell_length_b 7.922700
_cell_length_c 14.317744
_cell_angle_alpha 90.000000
_cell_angle_beta 41.848495
_cell_angle_gamma 90.000000
_cell_volume 1940.134376
_symmetry_space_group_name_H-M "C 2/M"
_symmetry_group_IT_number 12
_symmetry_cell_setting 'monoclinic'
loop_
_space_group_symop_operation_xyz
x,y,z
-x,y,-z
-x,-y,-z
x,-y,z
1/2+x,1/2+y,z
1/2-x,1/2+y,-z
1/2-x,1/2-y,-z
1/2+x,1/2-y,z
loop_
_atom_site_type_symbol
_atom_site_label
_atom_site_fract_x
_atom_site_fract_y
_atom_site_fract_z
Si Si1 0.504280 0.700598 0.284273
Si Si2 0.081729 0.694420 0.355886
Si Si3 0.163756 0.293778 0.713573
Si Si4 0.905859 0.295501 0.007023
Si Si5 0.163687 0.803592 0.499911
Si Si6 0.248128 0.301458 0.894076
O O1 0.507741 0.500000 0.295684
O O2 0.569119 0.789502 0.260979
O O3 0.418294 0.769513 0.426149
O O4 0.523444 0.734076 0.150897
O O5 0.081996 0.500000 0.382821
O O6 0.166989 0.764871 0.263981
O O7 0.000000 0.776287 0.500000
O O8 0.164364 0.500000 0.702021
O O9 0.101107 0.247206 0.875470
O O10 0.156319 0.213765 0.622101
O O11 0.249783 0.239891 0.636884
O O12 0.907618 0.500000 0.003467
O O13 0.826637 0.230877 0.061255
O O14 0.163365 0.000000 0.473917
O O15 0.238264 0.500000 0.904505
O O16 0.250000 0.250000 0.000000
#
# Coordination Sequence:
#
# PCOD9213481 Si02
#       6
#     8   8   8   8   8   8
#     4  11  23  38  60  86 116 153 192 240 292 346
#     4  11  25  42  59  85 120 155 196 244 291 345
#     4   9  19  38  61  84 111 150 192 232 287 347
#     4  10  22  38  59  85 117 153 192 238 285 344
#     4   9  20  38  59  85 115 146 188 240 288 340
#     4  11  22  38  62  87 118 157 195 239 288 344
#
# _framework density 24.740555000000001
#
# number of rings (size 3 to 8) (size 9 to 14) (size 15 to 20)
#    0.000    1.833    1.667    1.500    2.333    4.667 
#    0.000    3.333    0.000    0.000    0.000    0.000 
#    0.000    0.000    0.000    0.000    0.000    0.000 
#
# Total GULP energy -134180.028509 kJ/mol
# GULP energy per Si atom -5590.834521 kJ/mol
# Density = 2.468424 g / cm^3
# Si number density = 24.740555 Si / 1000 Ang^3
#
#
#
# Elastic Constant Matrix: (Units=GPa)
#
#
# Indices 1 2 3 4 5 6 
#
# 1 51.4381 -6.7601 -3.9466 0.0001 -13.7720 0.0000
# 2 -6.7601 42.4740 3.5844 0.0010 1.5729 -0.0010
# 3 -3.9466 3.5844 123.6566 0.0002 -3.6639 -0.0003
# 4 0.0001 0.0010 0.0002 30.3342 -0.0002 3.1594
# 5 -13.7720 1.5729 -3.6639 -0.0002 45.5551 0.0002
# 6 0.0000 -0.0010 -0.0003 3.1594 0.0002 15.6351
#
#
#
# Elastic Compliance Matrix: (Units=1/GPa)
#
#
# Indices 1 2 3 4 5 6 
#
# 1 0.021655 0.003139 0.000793 0.000000 0.006502 0.000000
# 2 0.003139 0.024091 -0.000596 -0.000001 0.000069 0.000002
# 3 0.000793 -0.000596 0.008157 0.000000 0.000916 0.000000
# 4 0.000000 -0.000001 0.000000 0.033675 0.000000 -0.006805
# 5 0.006502 0.000069 0.000916 0.000000 0.023988 0.000000
# 6 0.000000 0.000002 0.000000 -0.006805 0.000000 0.065334
#
#
# Mechanical properties :
#
#
# Convention : Reuss Voigt Hill
#
# Bulk Modulus (GPa) = 16.50872 22.59156 19.55014
# Shear Modulus (GPa) = 26.25774 33.28427 29.77101
#
# Velocity S-wave (km/s) = 3.26133 3.67186 3.47267
# Velocity P-wave (km/s) = 4.56825 5.20845 4.89882
#
# Compressibility (1/GPa) = 0.06057404
#
# Stress axis : x y z
#
# Youngs Moduli (GPa) = 46.17860 41.50906 122.59946
#
# Poissons Ratio (x) = -0.13029 -0.09720
# Poissons Ratio (y) = -0.14495 0.07308
# Poissons Ratio (z) = -0.03661 0.02474
#
# Static dielectric constant tensor:
#      x y z
#    x 1.971230 0.000000 -0.000720 
#    y 0.000000 1.886390 0.000000 
#    z -0.000720 0.000000 2.003050 
# 
# From -- ./inp_files/244664.got.cif
#   From: 2010.05.17/outbox.cif.g08.bks.cpg/sg12_123_cif.got.tgz:244664.got - 2010.06.03 13:09:07.
