data_PCOD9213888
_publ_section_title
;
Structure prediction by ZEFSAII (Michael W. Deem and Ramdas Pophale) SiO2 
 PCOD9213888
Probable space group: C 2/M
;
_chemical_formula_sum "Si O2"
_cell_formula_units_Z 64
_cell_length_a 29.342441
_cell_length_b 8.388913
_cell_length_c 14.803819
_cell_angle_alpha 90.000000
_cell_angle_beta 54.451774
_cell_angle_gamma 90.000000
_cell_volume 2964.836550
_symmetry_space_group_name_H-M "C 2/M"
_symmetry_group_IT_number 12
_symmetry_cell_setting 'monoclinic'
loop_
_space_group_symop_operation_xyz
x,y,z
-x,y,-z
-x,-y,-z
x,-y,z
1/2+x,1/2+y,z
1/2-x,1/2+y,-z
1/2-x,1/2-y,-z
1/2+x,1/2-y,z
loop_
_atom_site_type_symbol
_atom_site_label
_atom_site_fract_x
_atom_site_fract_y
_atom_site_fract_z
Si Si1 0.227479 0.315077 0.169722
Si Si2 0.477476 0.307957 0.624017
Si Si3 0.664507 0.680108 0.402755
Si Si4 0.072035 0.690357 0.648043
Si Si5 0.852888 0.687819 0.046287
Si Si6 0.738230 0.684640 0.611404
Si Si7 0.363078 0.687537 0.842945
Si Si8 0.381207 0.191793 0.213964
O O1 0.241384 0.500000 0.154728
O O2 0.176754 0.278608 0.298652
O O3 0.285950 0.228586 0.127334
O O4 0.195995 0.267232 0.114257
O O5 0.500000 0.250527 0.500000
O O6 0.476036 0.500000 0.620935
O O7 0.519038 0.259504 0.656487
O O8 0.415732 0.252506 0.723608
O O9 0.646715 0.500000 0.402085
O O10 0.624426 0.749090 0.526606
O O11 0.726730 0.691905 0.370334
O O12 0.070969 0.500000 0.643277
O O13 0.077959 0.730280 0.748273
O O14 0.857638 0.500000 0.023472
O O15 0.887401 0.720919 0.099179
O O16 0.875225 0.781591 0.933959
O O17 0.755920 0.500000 0.604302
O O18 0.750000 0.750000 0.500000
O O19 0.673338 0.704435 0.703017
O O20 0.356408 0.500000 0.833745
O O21 0.370117 0.000000 0.234550
#
# Coordination Sequence:
#
# PCOD9213888 Si02
#       8
#     8   8   8   8   8   8   8   8
#     4  12  24  39  62  94 128 164 212 261 314 379
#     4  10  23  45  70  94 122 160 205 256 318 380
#     4  12  23  36  56  87 128 169 207 253 311 375
#     4  11  23  39  63  94 126 162 211 265 316 372
#     4  11  23  41  64  90 126 170 211 254 310 374
#     4  12  22  33  53  82 121 168 211 255 307 369
#     4  11  24  43  66  92 124 162 208 263 320 376
#     4  10  22  39  59  86 125 168 210 257 309 370
#
# _framework density 21.586351000000001
#
# number of rings (size 3 to 8) (size 9 to 14) (size 15 to 20)
#    0.000    0.875    2.500    5.625    0.000    3.250 
#    0.000    0.625    0.000    3.750    0.000    0.000 
#    0.000    0.000    0.000    0.000    0.000    0.000 
#
# Total GULP energy -178549.558597 kJ/mol
# GULP energy per Si atom -5579.673706 kJ/mol
# Density = 2.153722 g / cm^3
# Si number density = 21.586351 Si / 1000 Ang^3
#
#
#
# Elastic Constant Matrix: (Units=GPa)
#
#
# Indices 1 2 3 4 5 6 
#
# 1 128.3588 -0.0441 36.7335 0.0000 14.9559 0.0000
# 2 -0.0441 34.3820 1.6493 0.0000 1.5071 0.0000
# 3 36.7335 1.6493 92.7535 0.0000 11.5229 0.0000
# 4 0.0000 0.0000 0.0000 24.3416 0.0000 3.2941
# 5 14.9559 1.5071 11.5229 0.0000 27.8572 0.0000
# 6 0.0000 0.0000 0.0000 3.2941 0.0000 24.6853
#
#
#
# Elastic Compliance Matrix: (Units=1/GPa)
#
#
# Indices 1 2 3 4 5 6 
#
# 1 0.009117 0.000322 -0.003169 0.000000 -0.003601 0.000000
# 2 0.000322 0.029176 -0.000452 0.000000 -0.001564 0.000000
# 3 -0.003169 -0.000452 0.012471 0.000000 -0.003433 0.000000
# 4 0.000000 0.000000 0.000000 0.041838 0.000000 -0.005583
# 5 -0.003601 -0.001564 -0.003433 0.000000 0.039335 0.000000
# 6 0.000000 0.000000 0.000000 -0.005583 0.000000 0.041255
#
#
# Mechanical properties :
#
#
# Convention : Reuss Voigt Hill
#
# Bulk Modulus (GPa) = 22.64231 36.90794 29.77513
# Shear Modulus (GPa) = 25.70537 29.85385 27.77961
#
# Velocity S-wave (km/s) = 3.45456 3.72290 3.59124
# Velocity P-wave (km/s) = 5.14042 5.96782 5.56951
#
# Compressibility (1/GPa) = 0.04416511
#
# Stress axis : x y z
#
# Youngs Moduli (GPa) = 109.68139 34.27522 80.18737
#
# Poissons Ratio (x) = -0.01102 0.25412
# Poissons Ratio (y) = -0.03527 0.03623
# Poissons Ratio (z) = 0.34759 0.01549
#
# Static dielectric constant tensor:
#      x y z
#    x 1.642070 0.000000 -0.218220 
#    y 0.000000 1.745620 0.000000 
#    z -0.218220 0.000000 1.494110 
# 
# From -- ./inp_files/249788.got.cif
#   From: 2010.05.17/outbox.cif.g08.bks.cpg/sg12_125_cif.got.tgz:249788.got - 2010.06.03 13:09:07.
