data_PCOD9213610
_publ_section_title
;
Structure prediction by ZEFSAII (Michael W. Deem and Ramdas Pophale) SiO2 
 PCOD9213610
Probable space group: C 2/M
;
_chemical_formula_sum "Si O2"
_cell_formula_units_Z 40
_cell_length_a 13.943395
_cell_length_b 15.000467
_cell_length_c 13.907725
_cell_angle_alpha 90.000000
_cell_angle_beta 135.664464
_cell_angle_gamma 90.000000
_cell_volume 2032.913928
_symmetry_space_group_name_H-M "C 2/M"
_symmetry_group_IT_number 12
_symmetry_cell_setting 'monoclinic'
loop_
_space_group_symop_operation_xyz
x,y,z
-x,y,-z
-x,-y,-z
x,-y,z
1/2+x,1/2+y,z
1/2-x,1/2+y,-z
1/2-x,1/2-y,-z
1/2+x,1/2-y,z
loop_
_atom_site_type_symbol
_atom_site_label
_atom_site_fract_x
_atom_site_fract_y
_atom_site_fract_z
Si Si1 0.422602 0.256069 0.226767
Si Si2 0.870816 0.303601 0.978651
Si Si3 0.655170 0.000000 0.072756
Si Si4 0.812043 0.850487 0.536884
Si Si5 0.050696 0.600762 0.434783
Si Si6 0.664105 0.500000 0.604166
O O1 0.405518 0.249250 0.100224
O O2 0.527365 0.335062 0.328953
O O3 0.489547 0.164116 0.309908
O O4 0.272547 0.266831 0.165356
O O5 0.834308 0.406987 0.975588
O O6 0.000000 0.300067 0.000000
O O7 0.756150 0.000000 0.237429
O O8 0.500000 0.000000 0.000000
O O9 0.750000 0.750000 0.500000
O O10 0.715408 0.898361 0.545213
O O11 0.796959 0.911290 0.430416
O O12 0.001049 0.500000 0.388739
O O13 0.000000 0.637419 0.500000
O O14 0.500000 0.500000 0.500000
#
# Coordination Sequence:
#
# PCOD9213610 Si02
#       6
#     8   8   4   8   8   4
#     4  10  23  40  61  91 125 167 208 264 327 394
#     4  10  23  39  62  91 123 167 210 259 323 393
#     4  10  24  36  66  92 126 165 213 264 332 390
#     4  10  23  38  64  93 131 164 210 273 333 396
#     4  10  22  38  62  87 117 163 209 258 319 385
#     4  12  24  42  67 102 133 168 224 288 346 392
#
# _framework density 19.676189000000001
#
# number of rings (size 3 to 8) (size 9 to 14) (size 15 to 20)
#    0.000    1.800    1.000    1.200   15.400    4.800 
#    0.000    0.000    0.000    0.600    0.000    0.000 
#    0.000    0.000    0.000    0.000    0.000    0.000 
#
# Total GULP energy -111432.281168 kJ/mol
# GULP energy per Si atom -5571.614058 kJ/mol
# Density = 1.963141 g / cm^3
# Si number density = 19.676189 Si / 1000 Ang^3
#
#
#
# Elastic Constant Matrix: (Units=GPa)
#
#
# Indices 1 2 3 4 5 6 
#
# 1 94.5761 -4.0385 20.6707 0.0000 25.0987 0.0000
# 2 -4.0385 68.7566 5.0750 0.0000 5.5134 0.0000
# 3 20.6707 5.0750 73.7391 0.0000 28.8847 0.0000
# 4 0.0000 0.0000 0.0000 26.2733 0.0000 2.0257
# 5 25.0987 5.5134 28.8847 0.0000 26.1730 0.0000
# 6 0.0000 0.0000 0.0000 2.0257 0.0000 25.6070
#
#
#
# Elastic Compliance Matrix: (Units=1/GPa)
#
#
# Indices 1 2 3 4 5 6 
#
# 1 0.014707 0.002067 0.002519 0.000000 -0.017319 0.000000
# 2 0.002067 0.015090 0.000711 0.000000 -0.005945 0.000000
# 3 0.002519 0.000711 0.024328 0.000000 -0.029414 0.000000
# 4 0.000000 0.000000 0.000000 0.038295 0.000000 -0.003029
# 5 -0.017319 -0.005945 -0.029414 0.000000 0.088530 0.000000
# 6 0.000000 0.000000 0.000000 -0.003029 0.000000 0.039292
#
#
# Mechanical properties :
#
#
# Convention : Reuss Voigt Hill
#
# Bulk Modulus (GPa) = 15.45145 31.16514 23.30829
# Shear Modulus (GPa) = 21.62433 29.96830 25.79631
#
# Velocity S-wave (km/s) = 3.31873 3.90689 3.62476
# Velocity P-wave (km/s) = 4.74923 6.01873 5.42127
#
# Compressibility (1/GPa) = 0.06471886
#
# Stress axis : x y z
#
# Youngs Moduli (GPa) = 67.99324 66.27036 41.10451
#
# Poissons Ratio (x) = -0.13696 -0.10355
# Poissons Ratio (y) = -0.14052 -0.02922
# Poissons Ratio (z) = -0.17128 -0.04712
#
# Static dielectric constant tensor:
#      x y z
#    x 1.737150 0.000000 0.023660 
#    y 0.000000 1.779670 0.000000 
#    z 0.023660 0.000000 1.683130 
# 
# From -- ./inp_files/141924.got.cif
#   From: 2010.05.17/outbox.cif.g08.bks.cpg/sg12_71_cif.got.tgz:141924.got - 2010.06.03 13:09:07.
