data_PCOD9213054
_publ_section_title
;
Structure prediction by ZEFSAII (Michael W. Deem and Ramdas Pophale) SiO2 
 PCOD9213054
Probable space group: C 2/M
;
_chemical_formula_sum "Si O2"
_cell_formula_units_Z 40
_cell_length_a 25.976362
_cell_length_b 15.291450
_cell_length_c 8.136730
_cell_angle_alpha 90.000000
_cell_angle_beta 144.485158
_cell_angle_gamma 90.000000
_cell_volume 1877.537479
_symmetry_space_group_name_H-M "C 2/M"
_symmetry_group_IT_number 12
_symmetry_cell_setting 'monoclinic'
loop_
_space_group_symop_operation_xyz
x,y,z
-x,y,-z
-x,-y,-z
x,-y,z
1/2+x,1/2+y,z
1/2-x,1/2+y,-z
1/2-x,1/2-y,-z
1/2+x,1/2-y,z
loop_
_atom_site_type_symbol
_atom_site_label
_atom_site_fract_x
_atom_site_fract_y
_atom_site_fract_z
Si Si1 0.430910 0.000000 0.508663
Si Si2 0.678222 0.000000 0.434679
Si Si3 0.555489 0.859488 0.975466
Si Si4 0.744528 0.000000 0.107901
Si Si5 0.442106 0.338038 0.103208
Si Si6 0.114912 0.100412 0.688637
Si Si7 0.148556 0.000000 0.275063
O O1 0.493610 0.084973 0.689870
O O2 0.367245 0.000000 0.505289
O O3 0.360846 0.000000 0.178733
O O4 0.783135 0.000000 0.701186
O O5 0.641452 0.916408 0.241309
O O6 0.578794 0.761636 0.989257
O O7 0.500000 0.856958 0.000000
O O8 0.786185 0.915233 0.121400
O O9 0.791708 0.000000 0.406792
O O10 0.398456 0.361407 0.165855
O O11 0.548279 0.346732 0.399636
O O12 0.408298 0.411994 0.890231
O O13 0.079929 0.000000 0.596191
#
# Coordination Sequence:
#
# PCOD9213054 Si02
#       7
#     4   4   8   4   8   8   4
#     4   9  18  45  63  79 116 158 195 235 288 350
#     4   9  20  43  61  83 112 156 196 240 291 337
#     4   9  21  37  66  87 108 152 204 241 281 340
#     4  10  22  36  59  86 119 159 188 235 295 337
#     4  11  19  36  61  90 114 153 194 236 292 346
#     4   9  19  37  57  84 114 163 190 225 296 349
#     4  12  22  34  61  90 126 144 186 253 284 338
#
# _framework density 21.304501999999999
#
# number of rings (size 3 to 8) (size 9 to 14) (size 15 to 20)
#    0.600    1.600    2.000    3.000    2.800    1.600 
#    7.200    2.000    0.000    0.000    0.000    0.000 
#    0.000    0.000    0.000    0.000    0.000    0.000 
#
# Total GULP energy -111628.213054 kJ/mol
# GULP energy per Si atom -5581.410653 kJ/mol
# Density = 2.125601 g / cm^3
# Si number density = 21.304502 Si / 1000 Ang^3
#
#
#
# Elastic Constant Matrix: (Units=GPa)
#
#
# Indices 1 2 3 4 5 6 
#
# 1 59.7535 7.4508 11.8357 0.0000 2.0947 0.0000
# 2 7.4508 159.8565 47.2797 0.0000 -6.0310 0.0000
# 3 11.8357 47.2797 112.5678 0.0000 -10.9101 0.0000
# 4 0.0000 0.0000 0.0000 -17.3245 0.0000 25.1941
# 5 2.0947 -6.0310 -10.9101 0.0000 28.1994 0.0000
# 6 0.0000 0.0000 0.0000 25.1941 0.0000 -35.7291
#
#
#
# Elastic Compliance Matrix: (Units=1/GPa)
#
#
# Indices 1 2 3 4 5 6 
#
# 1 0.017220 -0.000326 -0.001874 0.000000 -0.002074 0.000000
# 2 -0.000326 0.007153 -0.002929 0.000000 0.000421 0.000000
# 3 -0.001874 -0.002929 0.010664 0.000000 0.003638 0.000000
# 4 0.000000 0.000000 0.000000 2.268210 0.000000 1.599410
# 5 -0.002074 0.000421 0.003638 0.000000 0.037114 0.000000
# 6 0.000000 0.000000 0.000000 1.599410 0.000000 1.099822
#
#
# Mechanical properties :
#
#
# Convention : Reuss Voigt Hill
#
# Bulk Modulus (GPa) = 40.36106 51.70113 46.03109
# Shear Modulus (GPa) = 1.44563 12.73660 7.09111
#
# Velocity S-wave (km/s) = 0.82464 2.44772 1.82639
# Velocity P-wave (km/s) = 4.46012 5.68409 5.10889
#
# Compressibility (1/GPa) = 0.02477636
#
# Stress axis : x y z
#
# Youngs Moduli (GPa) = 58.07159 139.80014 93.77712
#
# Poissons Ratio (x) = 0.04564 0.17578
# Poissons Ratio (y) = 0.01896 0.27470
# Poissons Ratio (z) = 0.10885 0.40951
#
# Static dielectric constant tensor:
#      x y z
#    x 1.838910 0.000000 -0.030530 
#    y 0.000000 1.743850 0.000000 
#    z -0.030530 0.000000 1.782250 
# 
# From -- ./inp_files/72906.got.cif
#   From: 2010.05.17/outbox.cif.g08.bks.cpg/sg12_37_cif.got.tgz:72906.got - 2010.06.03 13:09:07.
