data_PCOD9213376
_publ_section_title
;
Structure prediction by ZEFSAII (Michael W. Deem and Ramdas Pophale) SiO2 
 PCOD9213376
Probable space group: C 2/M
;
_chemical_formula_sum "Si O2"
_cell_formula_units_Z 44
_cell_length_a 19.451630
_cell_length_b 7.444862
_cell_length_c 20.548365
_cell_angle_alpha 90.000000
_cell_angle_beta 34.670935
_cell_angle_gamma 90.000000
_cell_volume 1692.766857
_symmetry_space_group_name_H-M "C 2/M"
_symmetry_group_IT_number 12
_symmetry_cell_setting 'monoclinic'
loop_
_space_group_symop_operation_xyz
x,y,z
-x,y,-z
-x,-y,-z
x,-y,z
1/2+x,1/2+y,z
1/2-x,1/2+y,-z
1/2-x,1/2-y,-z
1/2+x,1/2-y,z
loop_
_atom_site_type_symbol
_atom_site_label
_atom_site_fract_x
_atom_site_fract_y
_atom_site_fract_z
Si Si1 0.956617 0.705127 0.604450
Si Si2 0.164377 0.781168 0.703239
Si Si3 0.288785 0.712612 0.896073
Si Si4 0.036851 0.794343 0.039676
Si Si5 0.941080 0.216484 0.347853
Si Si6 0.200908 0.000000 0.309102
O O1 0.918167 0.500000 0.628601
O O2 0.063284 0.717916 0.574481
O O3 0.000000 0.773545 0.500000
O O4 0.851048 0.843703 0.700874
O O5 0.252842 0.659289 0.676630
O O6 0.036580 0.734698 0.839459
O O7 0.149436 0.728994 0.639033
O O8 0.185590 0.000000 0.689976
O O9 0.290561 0.500000 0.887426
O O10 0.423751 0.779752 0.777518
O O11 0.250000 0.750000 0.000000
O O12 0.178841 0.786882 0.939337
O O13 0.997419 0.000000 0.065518
O O14 0.000000 0.704177 0.000000
O O15 0.938191 0.000000 0.351069
#
# Coordination Sequence:
#
# PCOD9213376 Si02
#       6
#     8   8   8   8   8   4
#     4  11  26  48  77 103 133 173 231 287 349 421
#     4  10  23  42  64  98 144 178 225 280 338 406
#     4  11  22  36  60  92 128 174 228 269 320 394
#     4  10  22  38  56  86 132 177 219 273 328 383
#     4  10  22  42  68  99 137 185 232 284 341 413
#     4  12  25  44  73 104 133 180 214 285 349 416
#
# _framework density 25.992947000000001
#
# number of rings (size 3 to 8) (size 9 to 14) (size 15 to 20)
#    0.000    1.455    2.727    1.364    5.091    1.818 
#    0.000    0.909    0.000    0.000    0.000    0.000 
#    0.000    0.000    0.000    0.000    0.000    0.000 
#
# Total GULP energy -122599.916129 kJ/mol
# GULP energy per Si atom -5572.723460 kJ/mol
# Density = 2.593379 g / cm^3
# Si number density = 25.992947 Si / 1000 Ang^3
#
#
#
# Elastic Constant Matrix: (Units=GPa)
#
#
# Indices 1 2 3 4 5 6 
#
# 1 189.9304 31.5854 10.6991 -0.0001 21.6390 0.0000
# 2 31.5854 101.4788 4.5286 0.0000 7.6884 -0.0002
# 3 10.6991 4.5286 72.6640 0.0000 14.3900 0.0000
# 4 -0.0001 0.0000 0.0000 15.7227 0.0001 -11.5591
# 5 21.6390 7.6884 14.3900 0.0001 40.4026 -0.0001
# 6 0.0000 -0.0002 0.0000 -11.5591 -0.0001 79.1238
#
#
#
# Elastic Compliance Matrix: (Units=1/GPa)
#
#
# Indices 1 2 3 4 5 6 
#
# 1 0.005858 -0.001605 -0.000217 0.000000 -0.002755 0.000000
# 2 -0.001605 0.010443 -0.000206 0.000000 -0.001054 0.000000
# 3 -0.000217 -0.000206 0.014821 0.000000 -0.005123 0.000000
# 4 0.000000 0.000000 0.000000 0.071255 0.000000 0.010410
# 5 -0.002755 -0.001054 -0.005123 0.000000 0.028252 0.000000
# 6 0.000000 0.000000 0.000000 0.010410 0.000000 0.014159
#
#
# Mechanical properties :
#
#
# Convention : Reuss Voigt Hill
#
# Bulk Modulus (GPa) = 36.94525 50.85549 43.90037
# Shear Modulus (GPa) = 31.67241 48.20049 39.93645
#
# Velocity S-wave (km/s) = 3.49449 4.31091 3.92399
# Velocity P-wave (km/s) = 5.52507 6.66229 6.12015
#
# Compressibility (1/GPa) = 0.02706708
#
# Stress axis : x y z
#
# Youngs Moduli (GPa) = 170.70476 95.75906 67.47017
#
# Poissons Ratio (x) = 0.15369 0.01464
# Poissons Ratio (y) = 0.27397 0.01388
# Poissons Ratio (z) = 0.03704 0.01970
#
# Static dielectric constant tensor:
#      x y z
#    x 2.013360 0.000000 -0.003770 
#    y 0.000000 1.964190 0.000000 
#    z -0.003770 0.000000 2.215050 
# 
# From -- ./inp_files/274800.got.cif
#   From: 2010.05.17/outbox.cif.g08.bks.cpg/sg12_138_cif.got.tgz:274800.got - 2010.06.03 13:09:07.
