data_PCOD9213868
_publ_section_title
;
Structure prediction by ZEFSAII (Michael W. Deem and Ramdas Pophale) SiO2 
 PCOD9213868
Probable space group: C 2/M
;
_chemical_formula_sum "Si O2"
_cell_formula_units_Z 48
_cell_length_a 12.889238
_cell_length_b 13.433782
_cell_length_c 12.495771
_cell_angle_alpha 90.000000
_cell_angle_beta 122.615353
_cell_angle_gamma 90.000000
_cell_volume 1822.466363
_symmetry_space_group_name_H-M "C 2/M"
_symmetry_group_IT_number 12
_symmetry_cell_setting 'monoclinic'
loop_
_space_group_symop_operation_xyz
x,y,z
-x,y,-z
-x,-y,-z
x,-y,z
1/2+x,1/2+y,z
1/2-x,1/2+y,-z
1/2-x,1/2-y,-z
1/2+x,1/2-y,z
loop_
_atom_site_type_symbol
_atom_site_label
_atom_site_fract_x
_atom_site_fract_y
_atom_site_fract_z
Si Si1 0.953726 0.379796 0.089184
Si Si2 0.318183 0.620133 0.086277
Si Si3 0.914095 0.117515 0.794471
Si Si4 0.318574 0.746724 0.300506
Si Si5 0.040984 0.615987 0.363546
Si Si6 0.320022 0.613524 0.510267
O O1 0.953880 0.500000 0.082543
O O2 0.040670 0.356470 0.237035
O O3 0.812957 0.352026 0.038649
O O4 0.000000 0.344247 0.000000
O O5 0.321270 0.500000 0.097828
O O6 0.445899 0.646488 0.098237
O O7 0.314931 0.668934 0.201088
O O8 0.803194 0.184667 0.773793
O O9 0.907367 0.127168 0.660623
O O10 0.894177 0.000000 0.809244
O O11 0.436507 0.817608 0.355770
O O12 0.332311 0.685053 0.417369
O O13 0.006304 0.500000 0.355563
O O14 0.181061 0.625415 0.478188
O O15 0.332318 0.500000 0.479181
#
# Coordination Sequence:
#
# PCOD9213868 Si02
#       6
#     8   8   8   8   8   8
#     4   9  18  37  63  86 114 153 195 238 285 343
#     4  10  22  39  59  84 115 152 194 238 288 347
#     4  10  23  41  58  83 121 159 192 235 293 350
#     4  12  22  37  61  89 119 151 195 245 292 341
#     4  10  22  39  60  88 117 151 196 242 289 342
#     4  10  22  40  60  84 118 157 197 238 285 346
#
# _framework density 26.337933
#
# number of rings (size 3 to 8) (size 9 to 14) (size 15 to 20)
#    0.000    1.833    0.000    3.500    0.000    6.000 
#    0.000    7.500    0.000    4.000    0.000    0.000 
#    0.000    2.000    0.000    0.000    0.000    0.000 
#
# Total GULP energy -134769.163157 kJ/mol
# GULP energy per Si atom -5615.381798 kJ/mol
# Density = 2.627799 g / cm^3
# Si number density = 26.337933 Si / 1000 Ang^3
#
#
#
# Elastic Constant Matrix: (Units=GPa)
#
#
# Indices 1 2 3 4 5 6 
#
# 1 125.1975 57.1705 29.3597 0.0000 17.4682 0.0000
# 2 57.1705 127.7420 33.0249 0.0000 0.6993 0.0000
# 3 29.3597 33.0249 76.3705 0.0000 26.9022 0.0000
# 4 0.0000 0.0000 0.0000 32.6598 0.0000 7.4390
# 5 17.4682 0.6993 26.9022 0.0000 43.0694 0.0000
# 6 0.0000 0.0000 0.0000 7.4390 0.0000 50.7145
#
#
#
# Elastic Compliance Matrix: (Units=1/GPa)
#
#
# Indices 1 2 3 4 5 6 
#
# 1 0.010814 -0.004604 -0.000830 0.000000 -0.003793 0.000000
# 2 -0.004604 0.011059 -0.004624 0.000000 0.004576 0.000000
# 3 -0.000830 -0.004624 0.019575 0.000000 -0.011815 0.000000
# 4 0.000000 0.000000 0.000000 0.031677 0.000000 -0.004647
# 5 -0.003793 0.004576 -0.011815 0.000000 0.032062 0.000000
# 6 0.000000 0.000000 0.000000 -0.004647 0.000000 0.020400
#
#
# Mechanical properties :
#
#
# Convention : Reuss Voigt Hill
#
# Bulk Modulus (GPa) = 46.88178 63.15783 55.01980
# Shear Modulus (GPa) = 32.71929 39.27241 35.99585
#
# Velocity S-wave (km/s) = 3.52843 3.86566 3.70089
# Velocity P-wave (km/s) = 5.86844 6.62996 6.26078
#
# Compressibility (1/GPa) = 0.02133025
#
# Stress axis : x y z
#
# Youngs Moduli (GPa) = 92.47506 90.42096 51.08561
#
# Poissons Ratio (x) = 0.41632 0.04241
# Poissons Ratio (y) = 0.42578 0.23624
# Poissons Ratio (z) = 0.07678 0.41815
#
# Static dielectric constant tensor:
#      x y z
#    x 2.023100 0.000000 -0.011690 
#    y 0.000000 2.076700 0.000000 
#    z -0.011690 0.000000 2.018530 
# 
# From -- ./inp_files/205113.got.cif
#   From: 2010.05.17/outbox.cif.g08.bks.cpg/sg12_103_cif.got.tgz:205113.got - 2010.06.03 13:09:07.
