data_PCOD9213178
_publ_section_title
;
Structure prediction by ZEFSAII (Michael W. Deem and Ramdas Pophale) SiO2 
 PCOD9213178
Probable space group: C 2/M
;
_chemical_formula_sum "Si O2"
_cell_formula_units_Z 56
_cell_length_a 17.420639
_cell_length_b 10.850700
_cell_length_c 15.416390
_cell_angle_alpha 90.000000
_cell_angle_beta 116.734208
_cell_angle_gamma 90.000000
_cell_volume 2602.591805
_symmetry_space_group_name_H-M "C 2/M"
_symmetry_group_IT_number 12
_symmetry_cell_setting 'monoclinic'
loop_
_space_group_symop_operation_xyz
x,y,z
-x,y,-z
-x,-y,-z
x,-y,z
1/2+x,1/2+y,z
1/2-x,1/2+y,-z
1/2-x,1/2-y,-z
1/2+x,1/2-y,z
loop_
_atom_site_type_symbol
_atom_site_label
_atom_site_fract_x
_atom_site_fract_y
_atom_site_fract_z
Si Si1 0.003474 0.705636 0.216889
Si Si2 0.770137 0.257257 0.303641
Si Si3 0.173272 0.353208 0.954037
Si Si4 0.367030 0.644423 0.638396
Si Si5 0.453140 0.000000 0.620106
Si Si6 0.408433 0.642363 0.472381
Si Si7 0.368202 0.141861 0.871085
Si Si8 0.628459 0.000000 0.602994
O O1 0.038725 0.835396 0.271240
O O2 0.053128 0.681158 0.150928
O O3 0.901889 0.685448 0.152021
O O4 0.039824 0.613276 0.309123
O O5 0.698705 0.272425 0.341833
O O6 0.841106 0.156159 0.361902
O O7 0.714340 0.225356 0.192621
O O8 0.821943 0.382401 0.335872
O O9 0.198797 0.500000 0.952584
O O10 0.250000 0.250000 0.000000
O O11 0.123925 0.352570 0.021894
O O12 0.342975 0.500000 0.631907
O O13 0.368330 0.689728 0.540489
O O14 0.537438 0.000000 0.603658
O O15 0.380352 0.000000 0.507195
O O16 0.500000 0.704021 0.500000
O O17 0.424711 0.500000 0.500146
O O18 0.349175 0.000000 0.837540
#
# Coordination Sequence:
#
# PCOD9213178 Si02
#       8
#     8   8   8   8   4   8   8   4
#     4  11  22  42  70  89 125 170 216 269 319 394
#     4  11  22  39  60  86 127 169 207 268 321 388
#     4  11  25  44  70 104 134 168 214 276 336 398
#     4  10  22  40  58  87 123 166 210 262 326 387
#     4  11  24  40  63  96 121 174 222 266 325 382
#     4  10  22  37  57  85 119 164 216 267 320 379
#     4  10  22  42  67  96 124 166 224 265 321 383
#     4  11  26  38  60  94 135 167 218 269 326 392
#
# _framework density 21.517012999999999
#
# number of rings (size 3 to 8) (size 9 to 14) (size 15 to 20)
#    0.000    1.429    2.143    2.143    6.000    2.857 
#    0.000    2.857    0.000    2.571    0.000    0.000 
#    0.000    0.000    0.000    0.000    0.000    0.000 
#
# Total GULP energy -156155.561480 kJ/mol
# GULP energy per Si atom -5576.984339 kJ/mol
# Density = 2.146804 g / cm^3
# Si number density = 21.517013 Si / 1000 Ang^3
#
#
#
# Elastic Constant Matrix: (Units=GPa)
#
#
# Indices 1 2 3 4 5 6 
#
# 1 53.6422 13.8284 14.0522 0.0000 13.3515 0.0000
# 2 13.8284 44.1548 17.2700 0.0000 15.3476 0.0000
# 3 14.0522 17.2700 84.4781 0.0000 22.1021 0.0000
# 4 0.0000 0.0000 0.0000 28.4848 0.0000 6.3198
# 5 13.3515 15.3476 22.1021 0.0000 39.7915 0.0000
# 6 0.0000 0.0000 0.0000 6.3198 0.0000 21.2070
#
#
#
# Elastic Compliance Matrix: (Units=1/GPa)
#
#
# Indices 1 2 3 4 5 6 
#
# 1 0.021329 -0.004518 -0.001413 0.000000 -0.004629 0.000000
# 2 -0.004518 0.027856 -0.002959 0.000000 -0.007585 0.000000
# 3 -0.001413 -0.002959 0.014338 0.000000 -0.006349 0.000000
# 4 0.000000 0.000000 0.000000 0.037592 0.000000 -0.011203
# 5 -0.004629 -0.007585 -0.006349 0.000000 0.033136 0.000000
# 6 0.000000 0.000000 0.000000 -0.011203 0.000000 0.050493
#
#
# Mechanical properties :
#
#
# Convention : Reuss Voigt Hill
#
# Bulk Modulus (GPa) = 21.86094 30.28625 26.07359
# Shear Modulus (GPa) = 22.95978 27.03830 24.99904
#
# Velocity S-wave (km/s) = 3.27012 3.54870 3.41226
# Velocity P-wave (km/s) = 4.94370 5.55852 5.26010
#
# Compressibility (1/GPa) = 0.04574369
#
# Stress axis : x y z
#
# Youngs Moduli (GPa) = 46.88424 35.89875 69.74292
#
# Poissons Ratio (x) = 0.16219 0.09856
# Poissons Ratio (y) = 0.21183 0.20635
# Poissons Ratio (z) = 0.06625 0.10621
#
# Static dielectric constant tensor:
#      x y z
#    x 1.818930 0.000000 0.007140 
#    y 0.000000 2.031980 0.000000 
#    z 0.007140 0.000000 1.777590 
# 
# From -- ./inp_files/223950.got.cif
#   From: 2010.05.17/outbox.cif.g08.bks.cpg/sg12_112_cif.got.tgz:223950.got - 2010.06.03 13:09:07.
