data_PCOD9213927
_publ_section_title
;
Structure prediction by ZEFSAII (Michael W. Deem and Ramdas Pophale) SiO2 
 PCOD9213927
Probable space group: C 2/M
;
_chemical_formula_sum "Si O2"
_cell_formula_units_Z 64
_cell_length_a 24.531325
_cell_length_b 9.132182
_cell_length_c 29.025032
_cell_angle_alpha 90.000000
_cell_angle_beta 32.308895
_cell_angle_gamma 90.000000
_cell_volume 3475.382653
_symmetry_space_group_name_H-M "C 2/M"
_symmetry_group_IT_number 12
_symmetry_cell_setting 'monoclinic'
loop_
_space_group_symop_operation_xyz
x,y,z
-x,y,-z
-x,-y,-z
x,-y,z
1/2+x,1/2+y,z
1/2-x,1/2+y,-z
1/2-x,1/2-y,-z
1/2+x,1/2-y,z
loop_
_atom_site_type_symbol
_atom_site_label
_atom_site_fract_x
_atom_site_fract_y
_atom_site_fract_z
Si Si1 0.644375 0.324610 0.588759
Si Si2 0.228380 0.332807 0.146874
Si Si3 0.412913 0.326955 0.600622
Si Si4 0.885844 0.673045 0.100622
Si Si5 0.321894 0.324610 0.911241
Si Si6 0.560243 0.323982 0.750000
Si Si7 0.477871 0.167193 0.646875
Si Si8 0.178149 0.675523 0.750000
O O1 0.651874 0.500000 0.581270
O O2 0.750000 0.250000 0.500000
O O3 0.609363 0.283458 0.665579
O O4 0.561159 0.266868 0.612167
O O5 0.254318 0.500000 0.115273
O O6 0.311126 0.266584 0.122317
O O7 0.214507 0.233131 0.112167
O O8 0.121401 0.334135 0.250000
O O9 0.500000 0.308286 0.500000
O O10 0.409201 0.500000 0.615661
O O11 0.444238 0.233416 0.622318
O O12 0.298844 0.286947 0.665346
O O13 0.859476 0.500000 0.115662
O O14 0.870464 0.713052 0.165346
O O15 0.000000 0.691713 0.000000
O O16 0.314415 0.500000 0.918730
O O17 0.440521 0.283458 0.834420
O O18 0.250000 0.250000 0.000000
O O19 0.566146 0.500000 0.750000
O O20 0.619620 0.251896 0.750000
O O21 0.515135 0.000000 0.615273
O O22 0.170199 0.500000 0.750000
#
# Coordination Sequence:
#
# PCOD9213927 Si02
#       8
#     8   8   8   8   8   8   8   8
#     4  11  24  43  65  92 124 164 207 254 310 368
#     4  11  23  40  64  93 122 159 206 257 308 362
#     4  10  22  40  62  90 121 160 204 248 304 365
#     4  10  22  40  62  90 121 160 204 248 304 365
#     4  11  24  43  65  92 124 164 207 254 310 368
#     4  10  24  43  62  87 125 164 200 248 311 366
#     4  11  23  40  64  93 122 159 206 257 308 362
#     4  10  22  39  60  87 123 162 202 248 301 358
#
# _framework density 18.415240000000001
#
# number of rings (size 3 to 8) (size 9 to 14) (size 15 to 20)
#    0.000    1.500    2.500    1.500    3.500    4.500 
#    0.000    0.000    0.000    0.000    0.000    0.000 
#    0.000    0.000    0.000    0.000    0.000    0.000 
#
# Total GULP energy -178818.184076 kJ/mol
# GULP energy per Si atom -5588.068252 kJ/mol
# Density = 1.837333 g / cm^3
# Si number density = 18.415240 Si / 1000 Ang^3
#
#
#
# Elastic Constant Matrix: (Units=GPa)
#
#
# Indices 1 2 3 4 5 6 
#
# 1 142.7434 65.9217 54.5083 0.0020 -2.1206 -0.0013
# 2 65.9217 75.4852 58.2465 0.0034 -0.5075 -0.0004
# 3 54.5083 58.2465 120.5845 0.0001 0.6602 0.0003
# 4 0.0020 0.0034 0.0001 25.6523 0.0002 -0.8322
# 5 -2.1206 -0.5075 0.6602 0.0002 28.2161 0.0003
# 6 -0.0013 -0.0004 0.0003 -0.8322 0.0003 38.2943
#
#
#
# Elastic Compliance Matrix: (Units=1/GPa)
#
#
# Indices 1 2 3 4 5 6 
#
# 1 0.011780 -0.009837 -0.000577 0.000000 0.000722 0.000000
# 2 -0.009837 0.029345 -0.009728 -0.000003 0.000016 0.000000
# 3 -0.000577 -0.009728 0.013256 0.000001 -0.000529 0.000000
# 4 0.000000 -0.000003 0.000001 0.039010 0.000000 0.000848
# 5 0.000722 0.000016 -0.000529 0.000000 0.035508 0.000000
# 6 0.000000 0.000000 0.000000 0.000848 0.000000 0.026132
#
#
# Mechanical properties :
#
#
# Convention : Reuss Voigt Hill
#
# Bulk Modulus (GPa) = 70.94279 77.35177 74.14728
# Shear Modulus (GPa) = 24.99836 29.10831 27.05334
#
# Velocity S-wave (km/s) = 3.68840 3.98007 3.83701
# Velocity P-wave (km/s) = 7.53304 7.95089 7.74478
#
# Compressibility (1/GPa) = 0.01409587
#
# Stress axis : x y z
#
# Youngs Moduli (GPa) = 84.89245 34.07748 75.43946
#
# Poissons Ratio (x) = 0.33522 0.04354
# Poissons Ratio (y) = 0.83509 0.73388
# Poissons Ratio (z) = 0.04899 0.33151
#
# Static dielectric constant tensor:
#      x y z
#    x 1.579990 0.000000 0.007020 
#    y 0.000000 1.622960 0.000000 
#    z 0.007020 0.000000 1.686540 
# 
# From -- ./inp_files/238631.got.cif
#   From: 2010.05.17/outbox.cif.g08.bks.cpg/sg12_120_cif.got.tgz:238631.got - 2010.06.03 13:09:07.
