data_PCOD9213247
_publ_section_title
;
Structure prediction by ZEFSAII (Michael W. Deem and Ramdas Pophale) SiO2 
 PCOD9213247
Probable space group: C 2/M
;
_chemical_formula_sum "Si O2"
_cell_formula_units_Z 40
_cell_length_a 21.997709
_cell_length_b 8.035642
_cell_length_c 10.426567
_cell_angle_alpha 90.000000
_cell_angle_beta 84.080505
_cell_angle_gamma 90.000000
_cell_volume 1833.231973
_symmetry_space_group_name_H-M "C 2/M"
_symmetry_group_IT_number 12
_symmetry_cell_setting 'monoclinic'
loop_
_space_group_symop_operation_xyz
x,y,z
-x,y,-z
-x,-y,-z
x,-y,z
1/2+x,1/2+y,z
1/2-x,1/2+y,-z
1/2-x,1/2-y,-z
1/2+x,1/2-y,z
loop_
_atom_site_type_symbol
_atom_site_label
_atom_site_fract_x
_atom_site_fract_y
_atom_site_fract_z
Si Si1 0.226287 0.693778 0.173607
Si Si2 0.649842 0.193847 0.938144
Si Si3 0.185183 0.688527 0.468028
Si Si4 0.514651 0.500000 0.341122
Si Si5 0.560176 0.500000 0.895369
Si Si6 0.564285 0.188406 0.414610
O O1 0.243348 0.500000 0.149526
O O2 0.289929 0.792265 0.165390
O O3 0.190973 0.705004 0.313610
O O4 0.181517 0.739929 0.067569
O O5 0.600296 0.333193 0.913223
O O6 0.628892 0.000000 0.945129
O O7 0.182623 0.500000 0.513499
O O8 0.250000 0.750000 0.500000
O O9 0.116534 0.752903 0.502496
O O10 0.500000 0.500000 0.500000
O O11 0.461432 0.500000 0.248413
O O12 0.553362 0.331358 0.313327
O O13 0.500000 0.500000 0.000000
O O14 0.500000 0.170959 0.500000
O O15 0.579783 0.000000 0.366277
#
# Coordination Sequence:
#
# PCOD9213247 Si02
#       6
#     8   8   8   4   4   8
#     4   9  19  39  65  93 130 171 215 274 340 394
#     4  10  22  43  69  94 128 173 217 275 334 394
#     4  10  22  37  60  96 132 167 215 278 328 394
#     4  10  24  44  66  92 128 186 212 265 334 387
#     4  12  28  44  66 106 138 170 233 279 321 410
#     4   9  20  41  64  89 127 176 221 264 330 403
#
# _framework density 21.819386999999999
#
# number of rings (size 3 to 8) (size 9 to 14) (size 15 to 20)
#    0.000    2.200    1.000    0.000    5.600    5.200 
#    0.000    4.000    0.000    0.000    0.000    0.000 
#    0.000    0.000    0.000    0.000    0.000    0.000 
#
# Total GULP energy -111370.031367 kJ/mol
# GULP energy per Si atom -5568.501568 kJ/mol
# Density = 2.176973 g / cm^3
# Si number density = 21.819387 Si / 1000 Ang^3
#
#
#
# Elastic Constant Matrix: (Units=GPa)
#
#
# Indices 1 2 3 4 5 6 
#
# 1 174.9641 69.5629 40.3317 0.0000 35.8729 0.0000
# 2 69.5629 139.8188 26.1952 0.0000 29.2639 0.0000
# 3 40.3317 26.1952 52.0402 0.0000 14.2654 0.0000
# 4 0.0000 0.0000 0.0000 19.4965 0.0000 14.4739
# 5 35.8729 29.2639 14.2654 0.0000 36.4825 0.0000
# 6 0.0000 0.0000 0.0000 14.4739 0.0000 45.7089
#
#
#
# Elastic Compliance Matrix: (Units=1/GPa)
#
#
# Indices 1 2 3 4 5 6 
#
# 1 0.008667 -0.002518 -0.004108 0.000000 -0.004897 0.000000
# 2 -0.002518 0.009687 -0.001650 0.000000 -0.004649 0.000000
# 3 -0.004108 -0.001650 0.024372 0.000000 -0.004167 0.000000
# 4 0.000000 0.000000 0.000000 0.067054 0.000000 -0.021233
# 5 -0.004897 -0.004649 -0.004167 0.000000 0.037584 0.000000
# 6 0.000000 0.000000 0.000000 -0.021233 0.000000 0.028601
#
#
# Mechanical properties :
#
#
# Convention : Reuss Voigt Hill
#
# Bulk Modulus (GPa) = 38.20377 71.00032 54.60204
# Shear Modulus (GPa) = 24.84561 35.71980 30.28270
#
# Velocity S-wave (km/s) = 3.37811 4.05046 3.72947
# Velocity P-wave (km/s) = 5.72387 7.38144 6.60486
#
# Compressibility (1/GPa) = 0.02617543
#
# Stress axis : x y z
#
# Youngs Moduli (GPa) = 115.37610 103.23075 41.02987
#
# Poissons Ratio (x) = 0.25991 0.16853
# Poissons Ratio (y) = 0.29049 0.06771
# Poissons Ratio (z) = 0.47392 0.17037
#
# Static dielectric constant tensor:
#      x y z
#    x 1.945410 0.000000 0.042360 
#    y 0.000000 1.891520 0.000000 
#    z 0.042360 0.000000 1.825060 
# 
# From -- ./inp_files/151987.got.cif
#   From: 2010.05.17/outbox.cif.g08.bks.cpg/sg12_76_cif.got.tgz:151987.got - 2010.06.03 13:09:07.
