data_PCOD9213786
_publ_section_title
;
Structure prediction by ZEFSAII (Michael W. Deem and Ramdas Pophale) SiO2 
 PCOD9213786
Probable space group: C 2/M
;
_chemical_formula_sum "Si O2"
_cell_formula_units_Z 32
_cell_length_a 6.149854
_cell_length_b 23.369730
_cell_length_c 12.187374
_cell_angle_alpha 90.000000
_cell_angle_beta 66.584780
_cell_angle_gamma 90.000000
_cell_volume 1607.330849
_symmetry_space_group_name_H-M "C 2/M"
_symmetry_group_IT_number 12
_symmetry_cell_setting 'monoclinic'
loop_
_space_group_symop_operation_xyz
x,y,z
-x,y,-z
-x,-y,-z
x,-y,z
1/2+x,1/2+y,z
1/2-x,1/2+y,-z
1/2-x,1/2-y,-z
1/2+x,1/2-y,z
loop_
_atom_site_type_symbol
_atom_site_label
_atom_site_fract_x
_atom_site_fract_y
_atom_site_fract_z
Si Si1 0.450191 0.123257 0.829843
Si Si2 0.124262 0.198528 0.212171
Si Si3 0.500000 0.304995 0.000000
Si Si4 0.195421 0.500000 0.064861
Si Si5 0.873312 0.311848 0.640499
O O1 0.673091 0.151537 0.846543
O O2 0.387292 0.057507 0.857262
O O3 0.501913 0.144346 0.695564
O O4 0.216472 0.155811 0.917871
O O5 0.154016 0.250572 0.292012
O O6 0.896085 0.166813 0.307845
O O7 0.072814 0.224471 0.100646
O O8 0.500000 0.500000 0.000000
O O9 0.000000 0.500000 0.000000
O O10 0.000000 0.304721 0.500000
#
# Coordination Sequence:
#
# PCOD9213786 Si02
#       5
#     8   8   4   4   8
#     4  11  24  42  66  98 131 181 223 282 343 410
#     4  11  22  38  64  95 136 176 220 276 346 412
#     4  10  22  39  56  98 132 167 220 274 348 406
#     4  12  26  48  75  99 145 183 234 284 347 428
#     4  11  24  42  64  96 134 180 228 276 339 412
#
# _framework density 19.908781999999999
#
# number of rings (size 3 to 8) (size 9 to 14) (size 15 to 20)
#    0.000    1.000    3.750    3.000    3.500    4.000 
#    2.250    0.625    0.000    1.500    0.000    0.000 
#    0.000    0.000    0.000    0.000    0.000    0.000 
#
# Total GULP energy -89080.696801 kJ/mol
# GULP energy per Si atom -5567.543550 kJ/mol
# Density = 1.986347 g / cm^3
# Si number density = 19.908782 Si / 1000 Ang^3
#
#
#
# Elastic Constant Matrix: (Units=GPa)
#
#
# Indices 1 2 3 4 5 6 
#
# 1 96.6124 29.4201 42.9673 0.0000 -11.7899 0.0000
# 2 29.4201 132.6188 49.1228 0.0000 4.5904 0.0000
# 3 42.9673 49.1228 172.4963 0.0000 -3.9502 0.0000
# 4 0.0000 0.0000 0.0000 12.3896 0.0000 1.7812
# 5 -11.7899 4.5904 -3.9502 0.0000 24.6566 0.0000
# 6 0.0000 0.0000 0.0000 1.7812 0.0000 15.1078
#
#
#
# Elastic Compliance Matrix: (Units=1/GPa)
#
#
# Indices 1 2 3 4 5 6 
#
# 1 0.012845 -0.002157 -0.002445 0.000000 0.006152 0.000000
# 2 -0.002157 0.008887 -0.002063 0.000000 -0.003017 0.000000
# 3 -0.002445 -0.002063 0.007001 0.000000 0.000337 0.000000
# 4 0.000000 0.000000 0.000000 0.082105 0.000000 -0.009680
# 5 0.006152 -0.003017 0.000337 0.000000 0.044114 0.000000
# 6 0.000000 0.000000 0.000000 -0.009680 0.000000 0.067332
#
#
# Mechanical properties :
#
#
# Convention : Reuss Voigt Hill
#
# Bulk Modulus (GPa) = 64.91195 71.63864 68.27529
# Shear Modulus (GPa) = 20.76851 29.11195 24.94023
#
# Velocity S-wave (km/s) = 3.23334 3.82811 3.54323
# Velocity P-wave (km/s) = 6.82750 7.45659 7.14897
#
# Compressibility (1/GPa) = 0.01540548
#
# Stress axis : x y z
#
# Youngs Moduli (GPa) = 77.84855 112.51903 142.83174
#
# Poissons Ratio (x) = 0.24272 0.34915
# Poissons Ratio (y) = 0.16793 0.29462
# Poissons Ratio (z) = 0.19030 0.23209
#
# Static dielectric constant tensor:
#      x y z
#    x 2.042380 0.000000 0.069130 
#    y 0.000000 1.678100 0.000000 
#    z 0.069130 0.000000 1.701640 
# 
# From -- ./inp_files/114950.got.cif
#   From: 2010.05.17/outbox.cif.g08.bks.cpg/sg12_58_cif.got.tgz:114950.got - 2010.06.03 13:09:07.
