data_PCOD9213108
_publ_section_title
;
Structure prediction by ZEFSAII (Michael W. Deem and Ramdas Pophale) SiO2 
 PCOD9213108
Probable space group: C 2/M
;
_chemical_formula_sum "Si O2"
_cell_formula_units_Z 50
_cell_length_a 31.643450
_cell_length_b 15.846979
_cell_length_c 16.459162
_cell_angle_alpha 90.000000
_cell_angle_beta 163.013632
_cell_angle_gamma 90.000000
_cell_volume 2411.211201
_symmetry_space_group_name_H-M "C 2/M"
_symmetry_group_IT_number 12
_symmetry_cell_setting 'monoclinic'
loop_
_space_group_symop_operation_xyz
x,y,z
-x,y,-z
-x,-y,-z
x,-y,z
1/2+x,1/2+y,z
1/2-x,1/2+y,-z
1/2-x,1/2-y,-z
1/2+x,1/2-y,z
loop_
_atom_site_type_symbol
_atom_site_label
_atom_site_fract_x
_atom_site_fract_y
_atom_site_fract_z
Si Si1 0.605695 0.798643 0.263939
Si Si2 0.714728 0.401850 0.122033
Si Si3 0.007934 0.896516 0.607528
Si Si4 0.426133 0.101720 0.641416
Si Si5 0.757718 0.898048 0.270885
Si Si6 0.500000 0.500000 0.000000
Si Si7 0.536996 0.632948 0.212426
O O1 0.750000 0.750000 0.500000
O O2 0.644518 0.865518 0.405101
O O3 0.510237 0.726492 0.131854
O O4 0.500000 0.834923 0.000000
O O5 0.750250 0.500000 0.170975
O O6 0.847713 0.363742 0.416663
O O7 0.647981 0.366605 0.916248
O O8 0.584565 0.398371 0.948272
O O9 0.867343 0.871706 0.401256
O O10 0.000000 0.869039 0.500000
O O11 0.011796 0.000000 0.615036
O O12 0.413520 0.000000 0.617745
O O13 0.593854 0.125380 0.951600
O O14 0.816759 0.865856 0.465445
O O15 0.763899 0.000000 0.287068
O O16 0.458540 0.572595 0.856017
#
# Coordination Sequence:
#
# PCOD9213108 Si02
#       7
#     8   8   8   8   8   2   8
#     4  12  25  38  50  76 105 134 188 238 265 314
#     4   9  17  33  52  76 103 137 179 215 264 330
#     4   8  14  27  53  84 110 134 172 223 265 311
#     4  10  22  37  52  71 106 149 177 216 280 327
#     4   9  17  33  52  76 107 140 177 211 267 335
#     4  12  20  32  60  78 100 136 192 230 276 296
#     4  11  20  34  55  75 101 139 182 228 269 309
#
# _framework density 20.736466
#
# number of rings (size 3 to 8) (size 9 to 14) (size 15 to 20)
#    0.000    2.080    2.400    2.880    0.000    0.320 
#    0.000    0.800    0.000    4.800    0.000   17.920 
#    0.000    0.000    0.000    0.000    0.000    0.000 
#
# Total GULP energy -139279.807021 kJ/mol
# GULP energy per Si atom -5571.192281 kJ/mol
# Density = 2.068927 g / cm^3
# Si number density = 20.736466 Si / 1000 Ang^3
#
#
#
# Elastic Constant Matrix: (Units=GPa)
#
#
# Indices 1 2 3 4 5 6 
#
# 1 113.4286 12.1525 71.4926 0.0000 -42.2372 0.0000
# 2 12.1525 31.5222 2.8281 0.0000 -6.9768 0.0000
# 3 71.4926 2.8281 160.4923 0.0000 -42.7327 0.0000
# 4 0.0000 0.0000 0.0000 -14.7343 0.0000 -3.6329
# 5 -42.2372 -6.9768 -42.7327 0.0000 39.7788 0.0000
# 6 0.0000 0.0000 0.0000 -3.6329 0.0000 10.8167
#
#
#
# Elastic Compliance Matrix: (Units=1/GPa)
#
#
# Indices 1 2 3 4 5 6 
#
# 1 0.016258 -0.003136 -0.003834 0.000000 0.012595 0.000000
# 2 -0.003136 0.033818 0.002092 0.000000 0.004849 0.000000
# 3 -0.003834 0.002092 0.009686 0.000000 0.006702 0.000000
# 4 0.000000 0.000000 0.000000 -0.062678 0.000000 -0.021051
# 5 0.012595 0.004849 0.006702 0.000000 0.046562 0.000000
# 6 0.000000 0.000000 0.000000 -0.021051 0.000000 0.085380
#
#
# Mechanical properties :
#
#
# Convention : Reuss Voigt Hill
#
# Bulk Modulus (GPa) = 19.99723 53.15441 36.57582
# Shear Modulus (GPa) = 32.16456 21.77021 26.96739
#
# Velocity S-wave (km/s) = 3.94269 3.24366 3.61013
# Velocity P-wave (km/s) = 5.51279 6.30217 5.92065
#
# Compressibility (1/GPa) = 0.05000694
#
# Stress axis : x y z
#
# Youngs Moduli (GPa) = 61.50691 29.56984 103.24069
#
# Poissons Ratio (x) = 0.09274 0.39579
# Poissons Ratio (y) = 0.19291 -0.21600
# Poissons Ratio (z) = 0.23580 -0.06187
#
# Static dielectric constant tensor:
#      x y z
#    x 1.740510 0.000000 0.003800 
#    y 0.000000 1.771640 0.000000 
#    z 0.003800 0.000000 1.804830 
# 
# From -- ./inp_files/251695.got.cif
#   From: 2010.05.17/outbox.cif.g08.bks.cpg/sg12_126_cif.got.tgz:251695.got - 2010.06.03 13:09:07.
