data_PCOD9213354
_publ_section_title
;
Structure prediction by ZEFSAII (Michael W. Deem and Ramdas Pophale) SiO2 
 PCOD9213354
Probable space group: C 2/M
;
_chemical_formula_sum "Si O2"
_cell_formula_units_Z 56
_cell_length_a 7.563407
_cell_length_b 25.280381
_cell_length_c 14.854974
_cell_angle_alpha 90.000000
_cell_angle_beta 78.993663
_cell_angle_gamma 90.000000
_cell_volume 2788.112022
_symmetry_space_group_name_H-M "C 2/M"
_symmetry_group_IT_number 12
_symmetry_cell_setting 'monoclinic'
loop_
_space_group_symop_operation_xyz
x,y,z
-x,y,-z
-x,-y,-z
x,-y,z
1/2+x,1/2+y,z
1/2-x,1/2+y,-z
1/2-x,1/2-y,-z
1/2+x,1/2-y,z
loop_
_atom_site_type_symbol
_atom_site_label
_atom_site_fract_x
_atom_site_fract_y
_atom_site_fract_z
Si Si1 0.214715 0.183244 0.082278
Si Si2 0.509866 0.170973 0.689637
Si Si3 0.375494 0.806835 0.891103
Si Si4 0.927811 0.440773 0.608621
Si Si5 0.916224 0.229119 0.425391
Si Si6 0.902360 0.156847 0.722233
Si Si7 0.007720 0.940414 0.604938
O O1 0.422925 0.180135 0.094472
O O2 0.150745 0.243896 0.097231
O O3 0.100531 0.153880 0.169749
O O4 0.229475 0.169217 0.975107
O O5 0.375759 0.177729 0.786972
O O6 0.493370 0.111664 0.653594
O O7 0.485430 0.216845 0.617736
O O8 0.713079 0.182365 0.707055
O O9 0.976032 0.500000 0.639559
O O10 0.712646 0.438564 0.619424
O O11 0.000000 0.437869 0.500000
O O12 0.750000 0.250000 0.500000
O O13 0.000000 0.195695 0.500000
O O14 0.936233 0.191290 0.337252
O O15 0.903242 0.100219 0.676379
O O16 0.000000 0.927327 0.500000
O O17 0.938251 0.000000 0.619988
#
# Coordination Sequence:
#
# PCOD9213354 Si02
#       7
#     8   8   8   8   8   8   8
#     4   9  18  33  52  75 105 138 179 222 262 318
#     4  11  22  35  54  79 108 145 180 218 268 319
#     4   9  18  33  52  76 105 138 178 221 266 313
#     4  10  22  38  56  79 105 140 183 223 265 315
#     4  12  24  34  46  76 115 145 178 213 262 321
#     4  11  22  35  53  78 108 145 181 218 268 319
#     4  10  22  38  57  79 106 140 180 223 265 314
#
# _framework density 20.085273999999998
#
# number of rings (size 3 to 8) (size 9 to 14) (size 15 to 20)
#    0.000    1.714    2.857    1.714    4.000    2.857 
#    0.000    0.000    0.000    0.857    0.000    6.000 
#    0.000    0.000    0.000    0.000    0.000    0.000 
#
# Total GULP energy -156061.619511 kJ/mol
# GULP energy per Si atom -5573.629268 kJ/mol
# Density = 2.003956 g / cm^3
# Si number density = 20.085274 Si / 1000 Ang^3
#
#
#
# Elastic Constant Matrix: (Units=GPa)
#
#
# Indices 1 2 3 4 5 6 
#
# 1 38.1751 0.1515 20.7285 0.0000 -6.3427 0.0000
# 2 0.1515 116.0375 73.7871 0.0000 -7.1913 0.0000
# 3 20.7285 73.7871 201.5952 0.0000 -25.0655 0.0000
# 4 0.0000 0.0000 0.0000 22.6896 0.0000 -3.7807
# 5 -6.3427 -7.1913 -25.0655 0.0000 24.8588 0.0000
# 6 0.0000 0.0000 0.0000 -3.7807 0.0000 25.5631
#
#
#
# Elastic Compliance Matrix: (Units=1/GPa)
#
#
# Indices 1 2 3 4 5 6 
#
# 1 0.028715 0.002292 -0.003199 0.000000 0.004764 0.000000
# 2 0.002292 0.011438 -0.004503 0.000000 -0.000646 0.000000
# 3 -0.003199 -0.004503 0.007631 0.000000 0.005575 0.000000
# 4 0.000000 0.000000 0.000000 0.045187 0.000000 0.006683
# 5 0.004764 -0.000646 0.005575 0.000000 0.046877 0.000000
# 6 0.000000 0.000000 0.000000 0.006683 0.000000 0.040107
#
#
# Mechanical properties :
#
#
# Convention : Reuss Voigt Hill
#
# Bulk Modulus (GPa) = 27.05339 60.57132 43.81236
# Shear Modulus (GPa) = 24.61905 32.03168 28.32537
#
# Velocity S-wave (km/s) = 3.50484 3.99781 3.75941
# Velocity P-wave (km/s) = 5.46599 7.17861 6.38003
#
# Compressibility (1/GPa) = 0.03696394
#
# Stress axis : x y z
#
# Youngs Moduli (GPa) = 34.82552 87.42819 131.05179
#
# Poissons Ratio (x) = -0.20039 0.41925
# Poissons Ratio (y) = -0.07982 0.59006
# Poissons Ratio (z) = 0.11141 0.39365
#
# Static dielectric constant tensor:
#      x y z
#    x 1.950850 0.000000 0.000260 
#    y 0.000000 1.680260 0.000000 
#    z 0.000260 0.000000 1.709610 
# 
# From -- ./inp_files/198387.got.cif
#   From: 2010.05.17/outbox.cif.g08.bks.cpg/sg12_100_cif.got.tgz:198387.got - 2010.06.03 13:09:07.
