data_PCOD9213548
_publ_section_title
;
Structure prediction by ZEFSAII (Michael W. Deem and Ramdas Pophale) SiO2 
 PCOD9213548
Probable space group: C 2/M
;
_chemical_formula_sum "Si O2"
_cell_formula_units_Z 56
_cell_length_a 8.834054
_cell_length_b 13.840422
_cell_length_c 23.235825
_cell_angle_alpha 90.000000
_cell_angle_beta 111.790891
_cell_angle_gamma 90.000000
_cell_volume 2637.973127
_symmetry_space_group_name_H-M "C 2/M"
_symmetry_group_IT_number 12
_symmetry_cell_setting 'monoclinic'
loop_
_space_group_symop_operation_xyz
x,y,z
-x,y,-z
-x,-y,-z
x,-y,z
1/2+x,1/2+y,z
1/2-x,1/2+y,-z
1/2-x,1/2-y,-z
1/2+x,1/2-y,z
loop_
_atom_site_type_symbol
_atom_site_label
_atom_site_fract_x
_atom_site_fract_y
_atom_site_fract_z
Si Si1 0.423747 0.291004 0.044658
Si Si2 0.928978 0.276895 0.546109
Si Si3 0.755917 0.293905 0.871665
Si Si4 0.645113 0.115689 0.786146
Si Si5 0.159271 0.384252 0.657155
Si Si6 0.772728 0.384923 0.750863
Si Si7 0.479419 0.615349 0.628447
O O1 0.373154 0.332447 0.099679
O O2 0.560552 0.209941 0.077655
O O3 0.500000 0.345985 0.000000
O O4 0.250000 0.250000 0.000000
O O5 0.750000 0.250000 0.500000
O O6 0.000921 0.171837 0.572208
O O7 0.000000 0.327974 0.500000
O O8 0.991009 0.338184 0.609686
O O9 0.720575 0.182982 0.846466
O O10 0.745691 0.352499 0.811948
O O11 0.706666 0.137953 0.730169
O O12 0.453934 0.142932 0.757741
O O13 0.662684 0.000000 0.799303
O O14 0.140425 0.500000 0.652899
O O15 0.308457 0.357630 0.635538
O O16 0.768297 0.500000 0.747904
O O17 0.627780 0.351776 0.689666
O O18 0.481452 0.500000 0.622152
#
# Coordination Sequence:
#
# PCOD9213548 Si02
#       7
#     8   8   8   8   8   8   8
#     4   9  20  36  58  86 119 160 203 232 282 342
#     4  12  25  40  61  87 113 152 203 244 280 349
#     4  11  19  36  64  86 114 161 193 242 292 339
#     4  10  22  38  60  91 120 149 192 243 297 353
#     4  10  23  42  61  83 119 156 187 240 302 349
#     4  10  22  38  60  91 120 149 192 243 297 353
#     4  10  23  42  60  84 120 153 188 242 301 349
#
# _framework density 21.228421000000001
#
# number of rings (size 3 to 8) (size 9 to 14) (size 15 to 20)
#    0.000    1.714    2.857    0.857    4.000    3.429 
#    0.000    0.000    0.000   17.143    0.000    0.000 
#    0.000    0.000    0.000    0.000    0.000    0.000 
#
# Total GULP energy -156035.124684 kJ/mol
# GULP energy per Si atom -5572.683024 kJ/mol
# Density = 2.118010 g / cm^3
# Si number density = 21.228421 Si / 1000 Ang^3
#
#
#
# Elastic Constant Matrix: (Units=GPa)
#
#
# Indices 1 2 3 4 5 6 
#
# 1 61.1814 11.2477 23.9644 0.0000 1.8626 0.0000
# 2 11.2477 31.3132 13.4563 0.0000 9.0345 0.0000
# 3 23.9644 13.4563 110.3693 0.0000 7.1384 0.0000
# 4 0.0000 0.0000 0.0000 4.0804 0.0000 -3.6131
# 5 1.8626 9.0345 7.1384 0.0000 47.8885 0.0000
# 6 0.0000 0.0000 0.0000 -3.6131 0.0000 18.6438
#
#
#
# Elastic Compliance Matrix: (Units=1/GPa)
#
#
# Indices 1 2 3 4 5 6 
#
# 1 0.018672 -0.005464 -0.003441 0.000000 0.000818 0.000000
# 2 -0.005464 0.036976 -0.002912 0.000000 -0.006329 0.000000
# 3 -0.003441 -0.002912 0.010217 0.000000 -0.000840 0.000000
# 4 0.000000 0.000000 0.000000 0.295840 0.000000 0.057333
# 5 0.000818 -0.006329 -0.000840 0.000000 0.022169 0.000000
# 6 0.000000 0.000000 0.000000 0.057333 0.000000 0.064748
#
#
# Mechanical properties :
#
#
# Convention : Reuss Voigt Hill
#
# Bulk Modulus (GPa) = 23.67984 33.35563 28.51773
# Shear Modulus (GPa) = 10.28100 24.40223 17.34162
#
# Velocity S-wave (km/s) = 2.20308 3.39412 2.86126
# Velocity P-wave (km/s) = 4.20124 5.57735 4.93747
#
# Compressibility (1/GPa) = 0.04223002
#
# Stress axis : x y z
#
# Youngs Moduli (GPa) = 53.55523 27.04471 97.87605
#
# Poissons Ratio (x) = 0.14778 0.33679
# Poissons Ratio (y) = 0.29264 0.28505
# Poissons Ratio (z) = 0.18428 0.07876
#
# Static dielectric constant tensor:
#      x y z
#    x 1.829810 0.000000 -0.019460 
#    y 0.000000 1.769020 0.000000 
#    z -0.019460 0.000000 1.805290 
# 
# From -- ./inp_files/300139.got.cif
#   From: 2010.05.17/outbox.cif.g08.bks.cpg/sg12_151_cif.got.tgz:300139.got - 2010.06.03 13:09:07.
