data_PCOD9213167
_publ_section_title
;
Structure prediction by ZEFSAII (Michael W. Deem and Ramdas Pophale) SiO2 
 PCOD9213167
Probable space group: C 2/M
;
_chemical_formula_sum "Si O2"
_cell_formula_units_Z 44
_cell_length_a 22.500282
_cell_length_b 16.376940
_cell_length_c 13.109712
_cell_angle_alpha 90.000000
_cell_angle_beta 30.895275
_cell_angle_gamma 90.000000
_cell_volume 2480.443608
_symmetry_space_group_name_H-M "C 2/M"
_symmetry_group_IT_number 12
_symmetry_cell_setting 'monoclinic'
loop_
_space_group_symop_operation_xyz
x,y,z
-x,y,-z
-x,-y,-z
x,-y,z
1/2+x,1/2+y,z
1/2-x,1/2+y,-z
1/2-x,1/2-y,-z
1/2+x,1/2-y,z
loop_
_atom_site_type_symbol
_atom_site_label
_atom_site_fract_x
_atom_site_fract_y
_atom_site_fract_z
Si Si1 0.542875 0.500000 0.553535
Si Si2 0.180965 0.336039 0.388426
Si Si3 0.292888 0.674169 0.999927
Si Si4 0.069436 0.163975 0.611458
Si Si5 0.380823 0.596488 0.238375
Si Si6 0.096432 0.500000 0.446406
Si Si7 0.710271 0.500000 0.000058
O O1 0.500000 0.500000 0.500000
O O2 0.603201 0.585899 0.490750
O O3 0.429173 0.500000 0.795657
O O4 0.124936 0.250002 0.499921
O O5 0.279504 0.361698 0.323086
O O6 0.093999 0.414099 0.509156
O O7 0.236708 0.325113 0.194395
O O8 0.431167 0.674915 0.805414
O O9 0.257964 0.587170 0.999913
O O10 0.250000 0.750000 0.000000
O O11 0.102571 0.138321 0.676916
O O12 0.355968 0.500000 0.288104
O O13 0.500000 0.603270 0.000000
O O14 0.000000 0.500000 0.500000
O O15 0.224834 0.500000 0.204289
#
# Coordination Sequence:
#
# PCOD9213167 Si02
#       7
#     4   8   8   8   8   4   4
#     4  10  22  37  56  89 120 152 193 235 291 357
#     4  11  23  38  61  87 117 157 194 247 295 346
#     4  10  22  37  56  89 120 152 193 235 291 357
#     4  11  23  38  61  87 117 157 194 247 295 346
#     4  11  21  40  66  86 113 149 204 256 296 339
#     4  10  22  37  56  89 120 152 193 235 291 357
#     4   8  20  36  56  73 120 149 192 232 272 326
#
# _framework density 17.738762000000001
#
# number of rings (size 3 to 8) (size 9 to 14) (size 15 to 20)
#    0.000    1.636    3.636    0.545   10.182    0.000 
#    0.000    0.000    0.000    0.000    0.000    2.545 
#    0.000    0.000    0.000    0.000    0.000    0.000 
#
# Total GULP energy -122664.103591 kJ/mol
# GULP energy per Si atom -5575.641072 kJ/mol
# Density = 1.769839 g / cm^3
# Si number density = 17.738762 Si / 1000 Ang^3
#
#
#
# Elastic Constant Matrix: (Units=GPa)
#
#
# Indices 1 2 3 4 5 6 
#
# 1 134.6008 93.5701 26.4313 0.0000 13.2337 0.0000
# 2 93.5701 244.4302 55.2620 0.0000 3.4141 0.0000
# 3 26.4313 55.2620 48.1383 0.0000 -5.2845 0.0000
# 4 0.0000 0.0000 0.0000 31.9687 0.0000 0.9127
# 5 13.2337 3.4141 -5.2845 0.0000 -15.1887 0.0000
# 6 0.0000 0.0000 0.0000 0.9127 0.0000 41.6721
#
#
#
# Elastic Compliance Matrix: (Units=1/GPa)
#
#
# Indices 1 2 3 4 5 6 
#
# 1 0.009250 -0.003613 -0.000130 0.000000 0.007292 0.000000
# 2 -0.003613 0.006768 -0.005745 0.000000 0.000372 0.000000
# 3 -0.000130 -0.005745 0.026282 0.000000 -0.010549 0.000000
# 4 0.000000 0.000000 0.000000 0.031300 0.000000 -0.000686
# 5 0.007292 0.000372 -0.010549 0.000000 -0.055731 0.000000
# 6 0.000000 0.000000 0.000000 -0.000686 0.000000 0.024012
#
#
# Mechanical properties :
#
#
# Convention : Reuss Voigt Hill
#
# Bulk Modulus (GPa) = 42.87605 86.41068 64.64336
# Shear Modulus (GPa) = 72.85260 28.48414 50.66837
#
# Velocity S-wave (km/s) = 6.41552 4.01154 5.35029
# Velocity P-wave (km/s) = 8.89392 8.38303 8.64225
#
# Compressibility (1/GPa) = 0.02332305
#
# Stress axis : x y z
#
# Youngs Moduli (GPa) = 108.10972 147.75471 38.04912
#
# Poissons Ratio (x) = 0.53389 0.00495
# Poissons Ratio (y) = 0.39064 0.21858
# Poissons Ratio (z) = 0.01408 0.84881
#
# Static dielectric constant tensor:
#      x y z
#    x 1.583380 0.000000 -0.003560 
#    y 0.000000 1.649280 0.000000 
#    z -0.003560 0.000000 1.621530 
# 
# From -- ./inp_files/167078.got.cif
#   From: 2010.05.17/outbox.cif.g08.bks.cpg/sg12_84_cif.got.tgz:167078.got - 2010.06.03 13:09:07.
