data_PCOD9213370
_publ_section_title
;
Structure prediction by ZEFSAII (Michael W. Deem and Ramdas Pophale) SiO2 
 PCOD9213370
Probable space group: C 2/M
;
_chemical_formula_sum "Si O2"
_cell_formula_units_Z 40
_cell_length_a 13.598701
_cell_length_b 18.080559
_cell_length_c 11.110665
_cell_angle_alpha 90.000000
_cell_angle_beta 126.766162
_cell_angle_gamma 90.000000
_cell_volume 2188.406189
_symmetry_space_group_name_H-M "C 2/M"
_symmetry_group_IT_number 12
_symmetry_cell_setting 'monoclinic'
loop_
_space_group_symop_operation_xyz
x,y,z
-x,y,-z
-x,-y,-z
x,-y,z
1/2+x,1/2+y,z
1/2-x,1/2+y,-z
1/2-x,1/2-y,-z
1/2+x,1/2-y,z
loop_
_atom_site_type_symbol
_atom_site_label
_atom_site_fract_x
_atom_site_fract_y
_atom_site_fract_z
Si Si1 0.009308 0.413182 0.649937
Si Si2 0.249635 0.169179 0.843745
Si Si3 0.071028 0.220733 0.898347
Si Si4 0.720959 0.582730 0.043079
Si Si5 0.665238 0.794772 0.346614
O O1 0.979837 0.500000 0.653103
O O2 0.917671 0.357316 0.650001
O O3 0.000000 0.401613 0.500000
O O4 0.149662 0.401885 0.796883
O O5 0.133642 0.215026 0.811433
O O6 0.260443 0.169211 0.709719
O O7 0.366308 0.211896 0.985590
O O8 0.242810 0.093593 0.914899
O O9 0.929341 0.235532 0.779702
O O10 0.120451 0.145665 0.995443
O O11 0.681855 0.500000 0.043138
O O12 0.750000 0.750000 0.500000
#
# Coordination Sequence:
#
# PCOD9213370 Si02
#       5
#     8   8   8   8   8
#     4  10  22  38  56  83 118 150 188 236 286 340
#     4   9  19  36  57  84 107 143 191 242 271 327
#     4   9  19  37  56  82 113 140 187 241 272 332
#     4   9  18  36  63  81 106 152 186 232 290 329
#     4  12  24  33  59  86 114 153 188 228 292 339
#
# _framework density 18.278141999999999
#
# number of rings (size 3 to 8) (size 9 to 14) (size 15 to 20)
#    1.200    1.000    2.000    0.600    5.600    0.800 
#    0.000    3.000    0.000    3.600    0.000    0.000 
#    0.000    0.000    0.000    0.000    0.000    0.000 
#
# Total GULP energy -111335.110742 kJ/mol
# GULP energy per Si atom -5566.755537 kJ/mol
# Density = 1.823654 g / cm^3
# Si number density = 18.278142 Si / 1000 Ang^3
#
#
#
# Elastic Constant Matrix: (Units=GPa)
#
#
# Indices 1 2 3 4 5 6 
#
# 1 56.5433 10.8584 29.1757 0.0000 -7.7189 0.0000
# 2 10.8584 91.5676 19.3023 0.0000 3.9909 0.0000
# 3 29.1757 19.3023 56.9886 0.0000 -17.5085 0.0000
# 4 0.0000 0.0000 0.0000 25.0472 0.0000 5.8357
# 5 -7.7189 3.9909 -17.5085 0.0000 26.3720 0.0000
# 6 0.0000 0.0000 0.0000 5.8357 0.0000 19.4904
#
#
#
# Elastic Compliance Matrix: (Units=1/GPa)
#
#
# Indices 1 2 3 4 5 6 
#
# 1 0.024078 -0.000116 -0.012709 0.000000 -0.001373 0.000000
# 2 -0.000116 0.012447 -0.005962 0.000000 -0.005876 0.000000
# 3 -0.012709 -0.005962 0.031667 0.000000 0.018206 0.000000
# 4 0.000000 0.000000 0.000000 0.042919 0.000000 -0.012850
# 5 -0.001373 -0.005876 0.018206 0.000000 0.050493 0.000000
# 6 0.000000 0.000000 0.000000 -0.012850 0.000000 0.055155
#
#
# Mechanical properties :
#
#
# Convention : Reuss Voigt Hill
#
# Bulk Modulus (GPa) = 32.66085 35.97472 34.31779
# Shear Modulus (GPa) = 18.90075 23.89947 21.40011
#
# Velocity S-wave (km/s) = 3.21917 3.61992 3.42541
# Velocity P-wave (km/s) = 5.63250 6.09888 5.87032
#
# Compressibility (1/GPa) = 0.03061769
#
# Stress axis : x y z
#
# Youngs Moduli (GPa) = 41.53097 80.33759 31.57905
#
# Poissons Ratio (x) = 0.00935 0.40135
# Poissons Ratio (y) = 0.00483 0.18826
# Poissons Ratio (z) = 0.52783 0.47894
#
# Static dielectric constant tensor:
#      x y z
#    x 1.658860 0.000000 -0.030640 
#    y 0.000000 1.628760 0.000000 
#    z -0.030640 0.000000 1.627190 
# 
# From -- ./inp_files/62922.got.cif
#   From: 2010.05.17/outbox.cif.g08.bks.cpg/sg12_32_cif.got.tgz:62922.got - 2010.06.03 13:09:07.
