data_PCOD9213104
_publ_section_title
;
Structure prediction by ZEFSAII (Michael W. Deem and Ramdas Pophale) SiO2 
 PCOD9213104
Probable space group: C 2/M
;
_chemical_formula_sum "Si O2"
_cell_formula_units_Z 56
_cell_length_a 19.940543
_cell_length_b 7.491586
_cell_length_c 16.638401
_cell_angle_alpha 90.000000
_cell_angle_beta 98.409893
_cell_angle_gamma 90.000000
_cell_volume 2458.822170
_symmetry_space_group_name_H-M "C 2/M"
_symmetry_group_IT_number 12
_symmetry_cell_setting 'monoclinic'
loop_
_space_group_symop_operation_xyz
x,y,z
-x,y,-z
-x,-y,-z
x,-y,z
1/2+x,1/2+y,z
1/2-x,1/2+y,-z
1/2-x,1/2-y,-z
1/2+x,1/2-y,z
loop_
_atom_site_type_symbol
_atom_site_label
_atom_site_fract_x
_atom_site_fract_y
_atom_site_fract_z
Si Si1 0.133400 0.206459 0.101574
Si Si2 0.073621 0.712524 0.470410
Si Si3 0.239275 0.280671 0.789423
Si Si4 0.507309 0.703829 0.880764
Si Si5 0.637704 0.782358 0.638729
Si Si6 0.994451 0.716947 0.696739
Si Si7 0.340818 0.798377 0.068535
O O1 0.184857 0.280360 0.176867
O O2 0.057745 0.283449 0.085185
O O3 0.122205 0.000000 0.120277
O O4 0.167804 0.213239 0.020279
O O5 0.085125 0.500000 0.465337
O O6 0.127243 0.781548 0.545229
O O7 0.061302 0.779480 0.378152
O O8 0.000000 0.733848 0.500000
O O9 0.238954 0.500000 0.788968
O O10 0.202402 0.223247 0.701407
O O11 0.194682 0.221945 0.858614
O O12 0.520668 0.500000 0.909832
O O13 0.486439 0.708661 0.783756
O O14 0.578909 0.798517 0.900647
O O15 0.569195 0.735442 0.675756
O O16 0.638799 0.000000 0.636461
O O17 0.992489 0.500000 0.700454
O O18 0.316360 0.000000 0.055635
#
# Coordination Sequence:
#
# PCOD9213104 Si02
#       7
#     8   8   8   8   8   8   8
#     4  10  22  37  50  69  99 133 163 194 239 295
#     4   7  11  19  39  72 101 120 146 196 248 279
#     4   9  17  31  52  75  98 124 160 203 241 284
#     4  11  22  34  49  70 100 135 164 192 236 294
#     4   8  12  23  46  75  99 119 153 202 245 277
#     4   9  15  27  48  74  99 123 159 204 242 276
#     4  11  21  35  56  77  93 118 162 212 251 280
#
# _framework density 22.775130999999998
#
# number of rings (size 3 to 8) (size 9 to 14) (size 15 to 20)
#    0.000    2.714    1.429    3.429    0.000    2.857 
#    0.000    0.714    0.000    4.714    0.000    0.000 
#    0.000    0.000    0.000    0.000    0.000    0.143 
#
# Total GULP energy -156238.518094 kJ/mol
# GULP energy per Si atom -5579.947075 kJ/mol
# Density = 2.272329 g / cm^3
# Si number density = 22.775131 Si / 1000 Ang^3
#
#
#
# Elastic Constant Matrix: (Units=GPa)
#
#
# Indices 1 2 3 4 5 6 
#
# 1 63.7106 4.1425 8.3463 0.0000 29.7295 0.0000
# 2 4.1425 63.8916 -1.2740 0.0000 0.7520 0.0000
# 3 8.3463 -1.2740 112.0690 0.0000 29.7844 0.0000
# 4 0.0000 0.0000 0.0000 16.7967 0.0000 -4.2992
# 5 29.7295 0.7520 29.7844 0.0000 35.2736 0.0000
# 6 0.0000 0.0000 0.0000 -4.2992 0.0000 12.6755
#
#
#
# Elastic Compliance Matrix: (Units=1/GPa)
#
#
# Indices 1 2 3 4 5 6 
#
# 1 0.028354 -0.001395 0.005435 0.000000 -0.028457 0.000000
# 2 -0.001395 0.015734 0.000077 0.000000 0.000776 0.000000
# 3 0.005435 0.000077 0.012554 0.000000 -0.015184 0.000000
# 4 0.000000 0.000000 0.000000 0.065195 0.000000 0.022113
# 5 -0.028457 0.000776 -0.015184 0.000000 0.065138 0.000000
# 6 0.000000 0.000000 0.000000 0.022113 0.000000 0.086392
#
#
# Mechanical properties :
#
#
# Convention : Reuss Voigt Hill
#
# Bulk Modulus (GPa) = 15.41388 29.12232 22.26810
# Shear Modulus (GPa) = 17.43621 28.17959 22.80790
#
# Velocity S-wave (km/s) = 2.76992 3.52134 3.16798
# Velocity P-wave (km/s) = 4.12462 5.41736 4.81457
#
# Compressibility (1/GPa) = 0.06487658
#
# Stress axis : x y z
#
# Youngs Moduli (GPa) = 35.26892 63.55517 79.65308
#
# Poissons Ratio (x) = 0.08866 -0.43295
# Poissons Ratio (y) = 0.04920 -0.00610
# Poissons Ratio (z) = -0.19170 -0.00487
#
# Static dielectric constant tensor:
#      x y z
#    x 1.851930 0.000000 0.034090 
#    y 0.000000 1.842290 0.000000 
#    z 0.034090 0.000000 1.869780 
# 
# From -- ./inp_files/280437.got.cif
#   From: 2010.05.17/outbox.cif.g08.bks.cpg/sg12_141_cif.got.tgz:280437.got - 2010.06.03 13:09:07.
