data_PCOD9213264
_publ_section_title
;
Structure prediction by ZEFSAII (Michael W. Deem and Ramdas Pophale) SiO2 
 PCOD9213264
Probable space group: C 2/M
;
_chemical_formula_sum "Si O2"
_cell_formula_units_Z 52
_cell_length_a 19.693638
_cell_length_b 7.707784
_cell_length_c 22.040176
_cell_angle_alpha 90.000000
_cell_angle_beta 44.971818
_cell_angle_gamma 90.000000
_cell_volume 2364.513651
_symmetry_space_group_name_H-M "C 2/M"
_symmetry_group_IT_number 12
_symmetry_cell_setting 'monoclinic'
loop_
_space_group_symop_operation_xyz
x,y,z
-x,y,-z
-x,-y,-z
x,-y,z
1/2+x,1/2+y,z
1/2-x,1/2+y,-z
1/2-x,1/2-y,-z
1/2+x,1/2-y,z
loop_
_atom_site_type_symbol
_atom_site_label
_atom_site_fract_x
_atom_site_fract_y
_atom_site_fract_z
Si Si1 0.330930 0.701712 0.704294
Si Si2 0.358937 0.697720 0.552054
Si Si3 0.647304 0.699192 0.671623
Si Si4 0.975103 0.302038 0.364111
Si Si5 0.643389 0.304690 0.890789
Si Si6 0.376862 0.000000 0.996698
Si Si7 0.000658 0.204899 0.128761
O O1 0.304348 0.500000 0.712611
O O2 0.362893 0.768613 0.617941
O O3 0.421542 0.717018 0.691130
O O4 0.239037 0.796375 0.789366
O O5 0.395764 0.500000 0.529005
O O6 0.246415 0.698505 0.606444
O O7 0.418314 0.794568 0.463429
O O8 0.674766 0.500000 0.665872
O O9 0.589281 0.712513 0.646017
O O10 0.576728 0.752300 0.770601
O O11 0.989492 0.500000 0.336364
O O12 0.634419 0.500000 0.922103
O O13 0.554501 0.275073 0.900956
O O14 0.648648 0.153241 0.936564
O O15 0.414770 0.844280 0.926364
O O16 0.025401 0.000000 0.121465
#
# Coordination Sequence:
#
# PCOD9213264 Si02
#       7
#     8   8   8   8   8   4   8
#     4  11  23  41  65  93 129 172 216 266 327 384
#     4  11  23  40  66  93 129 166 217 268 321 383
#     4  11  23  41  64  92 129 170 215 267 323 381
#     4  12  26  41  61  92 127 175 219 266 318 384
#     4  11  21  37  61  96 131 166 211 261 326 389
#     4  12  23  36  64  96 133 165 211 271 327 387
#     4  10  22  37  61  95 130 167 210 264 327 386
#
# _framework density 21.991838999999999
#
# number of rings (size 3 to 8) (size 9 to 14) (size 15 to 20)
#    0.000    0.923    2.308    5.538    2.154    4.923 
#    0.000    0.000    0.000    0.923    0.000    0.000 
#    0.000    0.000    0.000    0.000    0.000    0.000 
#
# Total GULP energy -144944.950503 kJ/mol
# GULP energy per Si atom -5574.805789 kJ/mol
# Density = 2.194178 g / cm^3
# Si number density = 21.991839 Si / 1000 Ang^3
#
#
#
# Elastic Constant Matrix: (Units=GPa)
#
#
# Indices 1 2 3 4 5 6 
#
# 1 61.8549 -9.9459 -4.4080 0.0014 2.9353 -0.0009
# 2 -9.9459 94.4508 15.5941 0.0016 3.5954 -0.0010
# 3 -4.4080 15.5941 76.7288 0.0005 9.2438 -0.0004
# 4 0.0014 0.0016 0.0005 92.9157 -0.0011 -29.0354
# 5 2.9353 3.5954 9.2438 -0.0011 -13.7997 0.0008
# 6 -0.0009 -0.0010 -0.0004 -29.0354 0.0008 12.5908
#
#
#
# Elastic Compliance Matrix: (Units=1/GPa)
#
#
# Indices 1 2 3 4 5 6 
#
# 1 0.016237 0.001535 0.000145 0.000000 0.003951 0.000002
# 2 0.001535 0.011077 -0.002360 0.000000 0.001632 0.000001
# 3 0.000145 -0.002360 0.012576 0.000000 0.007840 0.000000
# 4 0.000000 0.000000 0.000000 0.038524 0.000002 0.088840
# 5 0.003951 0.001632 0.007840 0.000002 -0.065948 0.000010
# 6 0.000002 0.000001 0.000000 0.088840 0.000010 0.284295
#
#
# Mechanical properties :
#
#
# Convention : Reuss Voigt Hill
#
# Bulk Modulus (GPa) = 25.95326 26.16833 26.06080
# Shear Modulus (GPa) = 16.07910 33.79432 24.93671
#
# Velocity S-wave (km/s) = 2.70689 3.92430 3.37101
# Velocity P-wave (km/s) = 4.64722 5.69723 5.19880
#
# Compressibility (1/GPa) = 0.03853080
#
# Stress axis : x y z
#
# Youngs Moduli (GPa) = 61.58927 90.27991 79.51500
#
# Poissons Ratio (x) = -0.13862 -0.01151
# Poissons Ratio (y) = -0.09457 0.18762
# Poissons Ratio (z) = -0.00892 0.21302
#
# Static dielectric constant tensor:
#      x y z
#    x 1.787750 0.000000 0.002820 
#    y 0.000000 1.782070 0.000000 
#    z 0.002820 0.000000 1.809890 
# 
# From -- ./inp_files/314685.got.cif
#   From: 2010.05.17/outbox.cif.g08.bks.cpg/sg12_158_cif.got.tgz:314685.got - 2010.06.03 13:09:07.
