data_PCOD9213877
_publ_section_title
;
Structure prediction by ZEFSAII (Michael W. Deem and Ramdas Pophale) SiO2 
 PCOD9213877
Probable space group: C 2/M
;
_chemical_formula_sum "Si O2"
_cell_formula_units_Z 56
_cell_length_a 16.624531
_cell_length_b 7.971989
_cell_length_c 23.060513
_cell_angle_alpha 90.000000
_cell_angle_beta 48.764449
_cell_angle_gamma 90.000000
_cell_volume 2298.298306
_symmetry_space_group_name_H-M "C 2/M"
_symmetry_group_IT_number 12
_symmetry_cell_setting 'monoclinic'
loop_
_space_group_symop_operation_xyz
x,y,z
-x,y,-z
-x,-y,-z
x,-y,z
1/2+x,1/2+y,z
1/2-x,1/2+y,-z
1/2-x,1/2-y,-z
1/2+x,1/2-y,z
loop_
_atom_site_type_symbol
_atom_site_label
_atom_site_fract_x
_atom_site_fract_y
_atom_site_fract_z
Si Si1 0.362042 0.697151 0.239800
Si Si2 0.405208 0.703239 0.463961
Si Si3 0.422135 0.302416 0.906177
Si Si4 0.153315 0.305501 0.184167
Si Si5 0.871351 0.195780 0.679163
Si Si6 0.379489 0.805662 0.047247
Si Si7 0.190567 0.201005 0.612684
O O1 0.386865 0.500000 0.232276
O O2 0.454988 0.764104 0.154568
O O3 0.240778 0.715515 0.277705
O O4 0.364570 0.770167 0.303575
O O5 0.406421 0.500000 0.464057
O O6 0.528051 0.758865 0.406071
O O7 0.317060 0.759745 0.551787
O O8 0.359080 0.764129 0.423694
O O9 0.415891 0.500000 0.923170
O O10 0.381466 0.273689 0.860330
O O11 0.362224 0.208092 0.986068
O O12 0.124287 0.500000 0.199167
O O13 0.104691 0.215934 0.263669
O O14 0.282488 0.287912 0.124222
O O15 0.856087 0.000000 0.673418
O O16 0.375774 0.000000 0.066737
O O17 0.500000 0.739355 0.000000
O O18 0.178856 0.000000 0.618074
#
# Coordination Sequence:
#
# PCOD9213877 Si02
#       7
#     8   8   8   8   8   8   8
#     4  10  22  39  59  85 118 155 194 239 292 346
#     4   9  19  36  57  82 112 149 192 238 291 345
#     4  11  23  41  64  88 119 156 195 240 289 342
#     4  12  25  41  63  89 118 153 196 241 288 345
#     4  11  23  39  59  84 118 155 193 241 294 347
#     4  11  24  42  64  91 123 156 193 237 286 341
#     4   9  18  35  58  82 111 149 193 239 287 343
#
# _framework density 24.365852
#
# number of rings (size 3 to 8) (size 9 to 14) (size 15 to 20)
#    0.000    1.571    0.000    4.714    0.000    9.143 
#    0.000    5.714    0.000    0.000    0.000    0.000 
#    0.000    0.000    0.000    0.000    0.000    0.000 
#
# Total GULP energy -156678.843609 kJ/mol
# GULP energy per Si atom -5595.672986 kJ/mol
# Density = 2.431039 g / cm^3
# Si number density = 24.365852 Si / 1000 Ang^3
#
#
#
# Elastic Constant Matrix: (Units=GPa)
#
#
# Indices 1 2 3 4 5 6 
#
# 1 54.4718 -10.9210 -13.6091 0.0000 -10.0806 0.0004
# 2 -10.9210 47.4230 0.9655 0.0001 -3.9583 0.0009
# 3 -13.6091 0.9655 100.2063 0.0000 -15.3829 0.0000
# 4 0.0000 0.0001 0.0000 23.3630 0.0000 -2.4329
# 5 -10.0806 -3.9583 -15.3829 0.0000 38.4673 0.0000
# 6 0.0004 0.0009 0.0000 -2.4329 0.0000 25.1600
#
#
#
# Elastic Compliance Matrix: (Units=1/GPa)
#
#
# Indices 1 2 3 4 5 6 
#
# 1 0.022016 0.005654 0.004166 0.000000 0.008017 -0.000001
# 2 0.005654 0.022724 0.001210 0.000000 0.004304 -0.000001
# 3 0.004166 0.001210 0.011421 0.000000 0.005784 0.000000
# 4 0.000000 0.000000 0.000000 0.043238 0.000000 0.004181
# 5 0.008017 0.004304 0.005784 0.000000 0.030853 0.000000
# 6 -0.000001 -0.000001 0.000000 0.004181 0.000000 0.040150
#
#
# Mechanical properties :
#
#
# Convention : Reuss Voigt Hill
#
# Bulk Modulus (GPa) = 12.78403 17.21910 15.00156
# Shear Modulus (GPa) = 28.66720 32.44245 30.55482
#
# Velocity S-wave (km/s) = 3.43378 3.65289 3.54503
# Velocity P-wave (km/s) = 4.58031 4.98736 4.78816
#
# Compressibility (1/GPa) = 0.07822261
#
# Stress axis : x y z
#
# Youngs Moduli (GPa) = 45.42066 44.00717 87.55436
#
# Poissons Ratio (x) = -0.24884 -0.36478
# Poissons Ratio (y) = -0.25683 -0.10591
# Poissons Ratio (z) = -0.18924 -0.05324
#
# Static dielectric constant tensor:
#      x y z
#    x 2.025680 0.000000 -0.016780 
#    y 0.000000 1.839500 0.000000 
#    z -0.016780 0.000000 1.926120 
# 
# From -- ./inp_files/362959.got.cif
#   From: 2010.05.17/outbox.cif.g08.bks.cpg/sg12_182_cif.got.tgz:362959.got - 2010.06.03 13:09:07.
