data_PCOD9213183
_publ_section_title
;
Structure prediction by ZEFSAII (Michael W. Deem and Ramdas Pophale) SiO2 
 PCOD9213183
Probable space group: C 2/M
;
_chemical_formula_sum "Si O2"
_cell_formula_units_Z 58
_cell_length_a 21.236338
_cell_length_b 19.676017
_cell_length_c 13.073785
_cell_angle_alpha 90.000000
_cell_angle_beta 148.351178
_cell_angle_gamma 90.000000
_cell_volume 2866.412702
_symmetry_space_group_name_H-M "C 2/M"
_symmetry_group_IT_number 12
_symmetry_cell_setting 'monoclinic'
loop_
_space_group_symop_operation_xyz
x,y,z
-x,y,-z
-x,-y,-z
x,-y,z
1/2+x,1/2+y,z
1/2-x,1/2+y,-z
1/2-x,1/2-y,-z
1/2+x,1/2-y,z
loop_
_atom_site_type_symbol
_atom_site_label
_atom_site_fract_x
_atom_site_fract_y
_atom_site_fract_z
Si Si1 0.224592 0.706532 0.068167
Si Si2 0.536088 0.657693 0.235885
Si Si3 0.000000 0.000000 0.500000
Si Si4 0.939712 0.135051 0.319798
Si Si5 0.052274 0.692839 0.272984
Si Si6 0.183638 0.078618 0.162664
Si Si7 0.234681 0.421472 0.486287
Si Si8 0.375570 0.815696 0.390436
O O1 0.299588 0.638407 0.150356
O O2 0.288837 0.753704 0.240224
O O3 0.250000 0.750000 0.000000
O O4 0.091348 0.688912 0.917025
O O5 0.471478 0.667025 0.256107
O O6 0.576450 0.732933 0.256768
O O7 0.651726 0.611076 0.413538
O O8 0.437647 0.620467 0.029165
O O9 0.011417 0.059813 0.602598
O O10 0.000000 0.172896 0.500000
O O11 0.122022 0.629549 0.319321
O O12 0.096163 0.691967 0.451062
O O13 0.219011 0.079496 0.331328
O O14 0.294081 0.117030 0.260726
O O15 0.168572 0.000000 0.110597
O O16 0.209968 0.500000 0.425292
O O17 0.500000 0.820084 0.500000
#
# Coordination Sequence:
#
# PCOD9213183 Si02
#       8
#     8   8   2   8   8   8   8   8
#     4  12  19  36  60  89 120 155 201 248 304 362
#     4  12  20  38  65  90 116 158 211 254 293 359
#     4   8  24  40  52  92 124 154 210 240 312 358
#     4  10  22  38  59  90 120 154 201 251 305 351
#     4  11  23  37  61  90 121 158 204 248 302 365
#     4  10  22  37  57  87 123 158 201 246 299 356
#     4  10  24  42  59  86 124 163 199 249 309 358
#     4  11  20  35  57  86 124 156 193 246 301 356
#
# _framework density 20.234352000000001
#
# number of rings (size 3 to 8) (size 9 to 14) (size 15 to 20)
#    0.414    0.828    4.138    2.483    1.931    1.379 
#    1.241    0.000    0.000    0.000    0.000    4.828 
#    0.000    0.000    0.000    0.000    0.000    0.000 
#
# Total GULP energy -161473.460496 kJ/mol
# GULP energy per Si atom -5568.050362 kJ/mol
# Density = 2.018830 g / cm^3
# Si number density = 20.234352 Si / 1000 Ang^3
#
#
#
# Elastic Constant Matrix: (Units=GPa)
#
#
# Indices 1 2 3 4 5 6 
#
# 1 40.8941 27.3922 23.5322 0.0000 25.8017 0.0000
# 2 27.3922 156.2795 44.2803 0.0000 32.3270 0.0000
# 3 23.5322 44.2803 82.9523 0.0000 34.6149 0.0000
# 4 0.0000 0.0000 0.0000 20.8411 0.0000 -0.6445
# 5 25.8017 32.3270 34.6149 0.0000 33.1280 0.0000
# 6 0.0000 0.0000 0.0000 -0.6445 0.0000 13.5534
#
#
#
# Elastic Compliance Matrix: (Units=1/GPa)
#
#
# Indices 1 2 3 4 5 6 
#
# 1 0.048841 -0.001191 0.003846 0.000000 -0.040896 0.000000
# 2 -0.001191 0.008201 -0.001928 0.000000 -0.005060 0.000000
# 3 0.003846 -0.001928 0.022090 0.000000 -0.024195 0.000000
# 4 0.000000 0.000000 0.000000 0.048053 0.000000 0.002285
# 5 -0.040896 -0.005060 -0.024195 0.000000 0.092256 0.000000
# 6 0.000000 0.000000 0.000000 0.002285 0.000000 0.073891
#
#
# Mechanical properties :
#
#
# Convention : Reuss Voigt Hill
#
# Bulk Modulus (GPa) = 12.40939 52.28171 32.34555
# Shear Modulus (GPa) = 15.68683 25.83257 20.75970
#
# Velocity S-wave (km/s) = 2.78736 3.57693 3.20654
# Velocity P-wave (km/s) = 4.06268 6.55388 5.45246
#
# Compressibility (1/GPa) = 0.08058415
#
# Stress axis : x y z
#
# Youngs Moduli (GPa) = 20.47464 121.94322 45.27031
#
# Poissons Ratio (x) = 0.14522 -0.17409
# Poissons Ratio (y) = 0.02438 0.08729
# Poissons Ratio (z) = -0.07874 0.23513
#
# Static dielectric constant tensor:
#      x y z
#    x 1.765570 0.000000 -0.029590 
#    y 0.000000 1.717200 0.000000 
#    z -0.029590 0.000000 1.762200 
# 
# From -- ./inp_files/241317.got.cif
#   From: 2010.05.17/outbox.cif.g08.bks.cpg/sg12_121_cif.got.tgz:241317.got - 2010.06.03 13:09:07.
