data_PCOD9213806
_publ_section_title
;
Structure prediction by ZEFSAII (Michael W. Deem and Ramdas Pophale) SiO2 
 PCOD9213806
Probable space group: C 2/M
;
_chemical_formula_sum "Si O2"
_cell_formula_units_Z 40
_cell_length_a 25.155413
_cell_length_b 11.432885
_cell_length_c 22.976068
_cell_angle_alpha 90.000000
_cell_angle_beta 163.377128
_cell_angle_gamma 90.000000
_cell_volume 1890.325861
_symmetry_space_group_name_H-M "C 2/M"
_symmetry_group_IT_number 12
_symmetry_cell_setting 'monoclinic'
loop_
_space_group_symop_operation_xyz
x,y,z
-x,y,-z
-x,-y,-z
x,-y,z
1/2+x,1/2+y,z
1/2-x,1/2+y,-z
1/2-x,1/2-y,-z
1/2+x,1/2-y,z
loop_
_atom_site_type_symbol
_atom_site_label
_atom_site_fract_x
_atom_site_fract_y
_atom_site_fract_z
Si Si1 0.305607 0.871116 0.695033
Si Si2 0.610728 0.805663 0.927603
Si Si3 0.305245 0.129976 0.219514
Si Si4 0.486439 0.626809 0.266701
Si Si5 0.249485 0.866305 0.296333
O O1 0.470628 0.874341 0.821289
O O2 0.328187 0.751705 0.755621
O O3 0.116575 0.858424 0.459382
O O4 0.299634 0.000000 0.718988
O O5 0.494210 0.729543 0.759286
O O6 0.722371 0.720341 0.087827
O O7 0.771462 0.871410 0.061125
O O8 0.528560 0.137423 0.458504
O O9 0.229098 0.143512 0.205259
O O10 0.257977 0.000000 0.149407
O O11 0.532644 0.500000 0.289358
O O12 0.187482 0.000000 0.248278
#
# Coordination Sequence:
#
# PCOD9213806 Si02
#       5
#     8   8   8   8   8
#     4  11  23  40  59  89 124 157 193 240 292 352
#     4  11  21  37  61  86 114 155 202 238 292 346
#     4   9  18  36  62  88 117 151 199 247 294 345
#     4  10  22  39  57  83 120 156 195 242 293 345
#     4   9  19  38  62  89 118 154 195 245 295 348
#
# _framework density 21.160373
#
# number of rings (size 3 to 8) (size 9 to 14) (size 15 to 20)
#    0.000    2.000    2.000    3.000    0.000    2.400 
#    0.000    8.000    0.000    0.000    0.000    0.000 
#    0.000    0.000    0.000    0.000    0.000    0.000 
#
# Total GULP energy -111623.943308 kJ/mol
# GULP energy per Si atom -5581.197165 kJ/mol
# Density = 2.111221 g / cm^3
# Si number density = 21.160373 Si / 1000 Ang^3
#
#
#
# Elastic Constant Matrix: (Units=GPa)
#
#
# Indices 1 2 3 4 5 6 
#
# 1 46.6012 45.4171 -7.8810 0.0007 7.4636 0.0030
# 2 45.4171 168.3747 20.5669 -0.0018 -7.4181 0.0029
# 3 -7.8810 20.5669 51.7722 -0.0015 3.7543 0.0018
# 4 0.0007 -0.0018 -0.0015 -136.9064 0.0001 57.2747
# 5 7.4636 -7.4181 3.7543 0.0001 24.4094 0.0042
# 6 0.0030 0.0029 0.0018 57.2747 0.0042 -3.4935
#
#
#
# Elastic Compliance Matrix: (Units=1/GPa)
#
#
# Indices 1 2 3 4 5 6 
#
# 1 0.038737 -0.012717 0.012224 -0.000001 -0.017589 -0.000002
# 2 -0.012717 0.010548 -0.006715 0.000000 0.008127 0.000000
# 3 0.012224 -0.006715 0.024537 0.000000 -0.009552 -0.000001
# 4 -0.000001 0.000000 0.000000 0.001247 -0.000003 0.020440
# 5 -0.017589 0.008127 -0.009552 -0.000003 0.050285 -0.000008
# 6 -0.000002 0.000000 -0.000001 0.020440 -0.000008 0.048858
#
#
# Mechanical properties :
#
#
# Convention : Reuss Voigt Hill
#
# Bulk Modulus (GPa) = 16.83361 42.55044 29.69203
# Shear Modulus (GPa) = 23.98897 -9.28843 7.35027
#
# Velocity S-wave (km/s) = 3.37066 -2.09740 1.86578
# Velocity P-wave (km/s) = 4.80843 3.77979 4.32480
#
# Compressibility (1/GPa) = 0.05940496
#
# Stress axis : x y z
#
# Youngs Moduli (GPa) = 25.81519 94.80745 40.75541
#
# Poissons Ratio (x) = 1.20566 -0.49820
# Poissons Ratio (y) = 0.32829 0.27368
# Poissons Ratio (z) = -0.31557 0.63666
#
# Static dielectric constant tensor:
#      x y z
#    x 1.746640 0.000000 0.037850 
#    y 0.000000 1.763100 0.000000 
#    z 0.037850 0.000000 1.753820 
# 
# From -- ./inp_files/93832.got.cif
#   From: 2010.05.17/outbox.cif.g08.bks.cpg/sg12_47_cif.got.tgz:93832.got - 2010.06.03 13:09:07.
