data_PCOD9213614
_publ_section_title
;
Structure prediction by ZEFSAII (Michael W. Deem and Ramdas Pophale) SiO2 
 PCOD9213614
Probable space group: C 2/M
;
_chemical_formula_sum "Si O2"
_cell_formula_units_Z 58
_cell_length_a 9.990422
_cell_length_b 13.860636
_cell_length_c 23.966091
_cell_angle_alpha 90.000000
_cell_angle_beta 101.227686
_cell_angle_gamma 90.000000
_cell_volume 3255.155535
_symmetry_space_group_name_H-M "C 2/M"
_symmetry_group_IT_number 12
_symmetry_cell_setting 'monoclinic'
loop_
_space_group_symop_operation_xyz
x,y,z
-x,y,-z
-x,-y,-z
x,-y,z
1/2+x,1/2+y,z
1/2-x,1/2+y,-z
1/2-x,1/2-y,-z
1/2+x,1/2-y,z
loop_
_atom_site_type_symbol
_atom_site_label
_atom_site_fract_x
_atom_site_fract_y
_atom_site_fract_z
Si Si1 0.500000 0.000000 0.500000
Si Si2 0.591653 0.735459 0.172372
Si Si3 0.239773 0.113093 0.276610
Si Si4 0.151792 0.388316 0.987691
Si Si5 0.008915 0.702669 0.562026
Si Si6 0.711980 0.234880 0.363929
Si Si7 0.807311 0.782662 0.094572
Si Si8 0.050383 0.613279 0.266927
O O1 0.474653 0.911940 0.450956
O O2 0.667903 0.656361 0.216164
O O3 0.692052 0.770651 0.131976
O O4 0.451850 0.696506 0.134787
O O5 0.558398 0.823671 0.211577
O O6 0.180686 0.169784 0.324926
O O7 0.402641 0.131570 0.283487
O O8 0.218534 0.000000 0.279551
O O9 0.163432 0.500000 0.973142
O O10 0.176323 0.317528 0.937996
O O11 0.257834 0.359728 0.044869
O O12 0.000000 0.371227 0.000000
O O13 0.133202 0.750409 0.605087
O O14 0.000000 0.749184 0.500000
O O15 0.875563 0.720728 0.587658
O O16 0.668705 0.149340 0.318443
O O17 0.061265 0.500000 0.256386
#
# Coordination Sequence:
#
# PCOD9213614 Si02
#       8
#     2   8   8   8   8   8   8   8
#     4   8  24  36  68  90 110 164 216 230 280 372
#     4  11  22  39  60  90 120 153 197 245 303 341
#     4  10  22  38  62  89 118 157 203 238 292 362
#     4  10  22  39  61  89 114 157 202 237 295 362
#     4  10  22  39  62  89 120 153 205 243 290 347
#     4  11  21  38  63  90 121 158 193 249 295 345
#     4  11  22  39  61  86 123 153 191 254 295 349
#     4  10  22  38  63  89 116 159 206 235 289 365
#
# _framework density 17.817888
#
# number of rings (size 3 to 8) (size 9 to 14) (size 15 to 20)
#    0.414    1.241    4.138    0.414    1.931    2.207 
#    0.000    2.759    0.000    1.655    0.000    0.000 
#    0.000    0.000    0.000    0.000    0.000    0.000 
#
# Total GULP energy -161467.716487 kJ/mol
# GULP energy per Si atom -5567.852293 kJ/mol
# Density = 1.777733 g / cm^3
# Si number density = 17.817888 Si / 1000 Ang^3
#
#
#
# Elastic Constant Matrix: (Units=GPa)
#
#
# Indices 1 2 3 4 5 6 
#
# 1 50.1149 22.9893 -0.9521 0.0000 4.2905 0.0000
# 2 22.9893 79.7099 19.8201 0.0000 0.7339 0.0000
# 3 -0.9521 19.8201 63.6629 0.0000 1.1705 0.0000
# 4 0.0000 0.0000 0.0000 6.5552 0.0000 -1.0598
# 5 4.2905 0.7339 1.1705 0.0000 36.1066 0.0000
# 6 0.0000 0.0000 0.0000 -1.0598 0.0000 22.3657
#
#
#
# Elastic Compliance Matrix: (Units=1/GPa)
#
#
# Indices 1 2 3 4 5 6 
#
# 1 0.023674 -0.007482 0.002734 0.000000 -0.002750 0.000000
# 2 -0.007482 0.015964 -0.005095 0.000000 0.000730 0.000000
# 3 0.002734 -0.005095 0.017349 0.000000 -0.000784 0.000000
# 4 0.000000 0.000000 0.000000 0.153729 0.000000 0.007284
# 5 -0.002750 0.000730 -0.000784 0.000000 0.028033 0.000000
# 6 0.000000 0.000000 0.000000 0.007284 0.000000 0.045056
#
#
# Mechanical properties :
#
#
# Convention : Reuss Voigt Hill
#
# Bulk Modulus (GPa) = 26.80977 30.80025 28.80501
# Shear Modulus (GPa) = 15.82651 23.11419 19.47035
#
# Velocity S-wave (km/s) = 2.98356 3.60564 3.30925
# Velocity P-wave (km/s) = 5.19115 5.88709 5.55004
#
# Compressibility (1/GPa) = 0.03729983
#
# Stress axis : x y z
#
# Youngs Moduli (GPa) = 42.24064 62.64197 57.63910
#
# Poissons Ratio (x) = 0.46871 -0.15759
# Poissons Ratio (y) = 0.31606 0.29369
# Poissons Ratio (z) = -0.11549 0.31918
#
# Static dielectric constant tensor:
#      x y z
#    x 1.601600 0.000000 0.011990 
#    y 0.000000 1.577170 0.000000 
#    z 0.011990 0.000000 1.619350 
# 
# From -- ./inp_files/332660.got.cif
#   From: 2010.05.17/outbox.cif.g08.bks.cpg/sg12_167_cif.got.tgz:332660.got - 2010.06.03 13:09:07.
