data_PCOD9213123
_publ_section_title
;
Structure prediction by ZEFSAII (Michael W. Deem and Ramdas Pophale) SiO2 
 PCOD9213123
Probable space group: C 2/M
;
_chemical_formula_sum "Si O2"
_cell_formula_units_Z 40
_cell_length_a 9.190002
_cell_length_b 12.879434
_cell_length_c 24.961635
_cell_angle_alpha 90.000000
_cell_angle_beta 42.897708
_cell_angle_gamma 90.000000
_cell_volume 2011.109794
_symmetry_space_group_name_H-M "C 2/M"
_symmetry_group_IT_number 12
_symmetry_cell_setting 'monoclinic'
loop_
_space_group_symop_operation_xyz
x,y,z
-x,y,-z
-x,-y,-z
x,-y,z
1/2+x,1/2+y,z
1/2-x,1/2+y,-z
1/2-x,1/2-y,-z
1/2+x,1/2-y,z
loop_
_atom_site_type_symbol
_atom_site_label
_atom_site_fract_x
_atom_site_fract_y
_atom_site_fract_z
Si Si1 0.088708 0.696733 0.707230
Si Si2 0.507395 0.384786 0.440124
Si Si3 0.241923 0.378386 0.412110
Si Si4 0.884945 0.243828 0.180483
Si Si5 0.808972 0.377977 0.094133
O O1 0.245592 0.612351 0.641071
O O2 0.191854 0.804740 0.655527
O O3 0.102363 0.693499 0.767494
O O4 0.843743 0.686822 0.756724
O O5 0.500000 0.333405 0.500000
O O6 0.412070 0.500000 0.471683
O O7 0.384682 0.336831 0.423340
O O8 0.297816 0.500000 0.385482
O O9 0.000000 0.380184 0.500000
O O10 0.870533 0.315831 0.131674
O O11 0.091901 0.169994 0.127613
O O12 0.779330 0.500000 0.113775
O O13 0.000000 0.366631 0.000000
#
# Coordination Sequence:
#
# PCOD9213123 Si02
#       5
#     8   8   8   8   8
#     4  11  21  37  58  85 121 161 196 254 315 359
#     4  10  22  37  53  77 113 158 205 254 305 355
#     4  10  22  38  57  80 111 161 216 261 305 361
#     4  10  23  38  62  98 126 156 206 256 306 374
#     4  10  22  44  71  95 127 167 201 246 309 376
#
# _framework density 19.889517000000001
#
# number of rings (size 3 to 8) (size 9 to 14) (size 15 to 20)
#    0.000    1.800    2.000    1.200    2.800    6.400 
#    0.000    3.000    0.000   10.800    0.000    0.000 
#    0.000    0.000    0.000    0.000    0.000    0.000 
#
# Total GULP energy -111514.061124 kJ/mol
# GULP energy per Si atom -5575.703056 kJ/mol
# Density = 1.984425 g / cm^3
# Si number density = 19.889517 Si / 1000 Ang^3
#
#
#
# Elastic Constant Matrix: (Units=GPa)
#
#
# Indices 1 2 3 4 5 6 
#
# 1 146.3410 41.7332 60.9940 -0.0004 -7.0785 -0.0001
# 2 41.7332 99.4182 37.4342 -0.0004 3.7104 -0.0001
# 3 60.9940 37.4342 99.9005 -0.0007 -9.5024 -0.0001
# 4 -0.0004 -0.0004 -0.0007 160.2373 0.0002 3.6825
# 5 -7.0785 3.7104 -9.5024 0.0002 39.9558 0.0000
# 6 -0.0001 -0.0001 -0.0001 3.6825 0.0000 19.4241
#
#
#
# Elastic Compliance Matrix: (Units=1/GPa)
#
#
# Indices 1 2 3 4 5 6 
#
# 1 0.009550 -0.002172 -0.004949 0.000000 0.000717 0.000000
# 2 -0.002172 0.012394 -0.003544 0.000000 -0.002379 0.000000
# 3 -0.004949 -0.003544 0.014638 0.000000 0.002934 0.000000
# 4 0.000000 0.000000 0.000000 0.006268 0.000000 -0.001188
# 5 0.000717 -0.002379 0.002934 0.000000 0.026073 0.000000
# 6 0.000000 0.000000 0.000000 -0.001188 0.000000 0.051708
#
#
# Mechanical properties :
#
#
# Convention : Reuss Voigt Hill
#
# Bulk Modulus (GPa) = 65.56439 69.55361 67.55900
# Shear Modulus (GPa) = 34.00322 57.62332 45.81327
#
# Velocity S-wave (km/s) = 4.13922 5.38838 4.80457
# Velocity P-wave (km/s) = 7.47530 8.58829 8.05105
#
# Compressibility (1/GPa) = 0.01525218
#
# Stress axis : x y z
#
# Youngs Moduli (GPa) = 104.71141 80.68674 68.31365
#
# Poissons Ratio (x) = 0.17528 0.33806
# Poissons Ratio (y) = 0.22746 0.24211
# Poissons Ratio (z) = 0.51817 0.28596
#
# Static dielectric constant tensor:
#      x y z
#    x 1.719220 0.000000 0.001090 
#    y 0.000000 1.724680 0.000000 
#    z 0.001090 0.000000 1.697720 
# 
# From -- ./inp_files/194562.got.cif
#   From: 2010.05.17/outbox.cif.g08.bks.cpg/sg12_98_cif.got.tgz:194562.got - 2010.06.03 13:09:07.
