data_PCOD9213730
_publ_section_title
;
Structure prediction by ZEFSAII (Michael W. Deem and Ramdas Pophale) SiO2 
 PCOD9213730
Probable space group: C 2/M
;
_chemical_formula_sum "Si O2"
_cell_formula_units_Z 40
_cell_length_a 5.112634
_cell_length_b 22.211336
_cell_length_c 16.309098
_cell_angle_alpha 90.000000
_cell_angle_beta 109.414453
_cell_angle_gamma 90.000000
_cell_volume 1746.726697
_symmetry_space_group_name_H-M "C 2/M"
_symmetry_group_IT_number 12
_symmetry_cell_setting 'monoclinic'
loop_
_space_group_symop_operation_xyz
x,y,z
-x,y,-z
-x,-y,-z
x,-y,z
1/2+x,1/2+y,z
1/2-x,1/2+y,-z
1/2-x,1/2-y,-z
1/2+x,1/2-y,z
loop_
_atom_site_type_symbol
_atom_site_label
_atom_site_fract_x
_atom_site_fract_y
_atom_site_fract_z
Si Si1 0.500000 0.793862 0.500000
Si Si2 0.251237 0.500000 0.587668
Si Si3 0.234139 0.899680 0.818174
Si Si4 0.543672 0.000000 0.750889
Si Si5 0.587927 0.373316 0.357335
Si Si6 0.358771 0.209520 0.746163
Si Si7 0.407374 0.500000 0.083380
O O1 0.250000 0.750000 0.500000
O O2 0.352382 0.837454 0.417950
O O3 0.418380 0.437684 0.598692
O O4 0.000000 0.500000 0.500000
O O5 0.114965 0.500000 0.663768
O O6 0.384781 0.835684 0.826593
O O7 0.934147 0.886281 0.743744
O O8 0.240436 0.938530 0.901453
O O9 0.372036 0.943271 0.765465
O O10 0.824415 0.000000 0.831577
O O11 0.316886 0.330711 0.337326
O O12 0.143323 0.262254 0.746710
O O13 0.500000 0.500000 0.000000
#
# Coordination Sequence:
#
# PCOD9213730 Si02
#       7
#     4   4   8   4   8   8   4
#     4  12  26  43  64  93 136 184 242 294 334 404
#     4  12  22  39  63  95 133 183 225 284 347 412
#     4   9  23  38  65 102 125 178 228 278 359 415
#     4  11  20  42  71  88 141 172 224 291 349 417
#     4  10  22  41  61  89 134 173 233 280 347 402
#     4  10  22  38  66  95 127 175 233 277 334 411
#     4  11  22  42  72 104 138 174 226 294 358 438
#
# _framework density 22.899977
#
# number of rings (size 3 to 8) (size 9 to 14) (size 15 to 20)
#    1.200    0.400    3.000    1.800    5.600    3.200 
#    0.000    1.000    0.000    1.200    0.000    0.000 
#    0.000    0.000    0.000    0.000    0.000    0.000 
#
# Total GULP energy -111594.917910 kJ/mol
# GULP energy per Si atom -5579.745896 kJ/mol
# Density = 2.284786 g / cm^3
# Si number density = 22.899977 Si / 1000 Ang^3
#
#
#
# Elastic Constant Matrix: (Units=GPa)
#
#
# Indices 1 2 3 4 5 6 
#
# 1 72.6500 27.1159 15.1101 0.0000 -9.0618 0.0000
# 2 27.1159 161.1348 16.6147 0.0000 -9.7228 0.0000
# 3 15.1101 16.6147 91.8976 0.0000 -15.1800 0.0000
# 4 0.0000 0.0000 0.0000 13.6182 0.0000 3.7656
# 5 -9.0618 -9.7228 -15.1800 0.0000 18.3426 0.0000
# 6 0.0000 0.0000 0.0000 3.7656 0.0000 18.3713
#
#
#
# Elastic Compliance Matrix: (Units=1/GPa)
#
#
# Indices 1 2 3 4 5 6 
#
# 1 0.015512 -0.002150 -0.001256 0.000000 0.005485 0.000000
# 2 -0.002150 0.006747 -0.000522 0.000000 0.002082 0.000000
# 3 -0.001256 -0.000522 0.012782 0.000000 0.009680 0.000000
# 4 0.000000 0.000000 0.000000 0.077843 0.000000 -0.015956
# 5 0.005485 0.002082 0.009680 0.000000 0.066342 0.000000
# 6 0.000000 0.000000 0.000000 -0.015956 0.000000 0.057703
#
#
# Mechanical properties :
#
#
# Convention : Reuss Voigt Hill
#
# Bulk Modulus (GPa) = 36.78551 49.26263 43.02407
# Shear Modulus (GPa) = 19.69676 27.85586 23.77631
#
# Velocity S-wave (km/s) = 2.93596 3.49150 3.22571
# Velocity P-wave (km/s) = 5.25277 6.14922 5.71859
#
# Compressibility (1/GPa) = 0.02718462
#
# Stress axis : x y z
#
# Youngs Moduli (GPa) = 64.46455 148.20780 78.23687
#
# Poissons Ratio (x) = 0.31865 0.09826
# Poissons Ratio (y) = 0.13860 0.04088
# Poissons Ratio (z) = 0.08096 0.07743
#
# Static dielectric constant tensor:
#      x y z
#    x 2.320180 0.000000 0.030460 
#    y 0.000000 1.976800 0.000000 
#    z 0.030460 0.000000 1.872250 
# 
# From -- ./inp_files/252847.got.cif
#   From: 2010.05.17/outbox.cif.g08.bks.cpg/sg12_127_cif.got.tgz:252847.got - 2010.06.03 13:09:07.
