data_PCOD9213861
_publ_section_title
;
Structure prediction by ZEFSAII (Michael W. Deem and Ramdas Pophale) SiO2 
 PCOD9213861
Probable space group: C 2/M
;
_chemical_formula_sum "Si O2"
_cell_formula_units_Z 64
_cell_length_a 14.576376
_cell_length_b 27.075403
_cell_length_c 9.226768
_cell_angle_alpha 90.000000
_cell_angle_beta 65.782776
_cell_angle_gamma 90.000000
_cell_volume 3320.988938
_symmetry_space_group_name_H-M "C 2/M"
_symmetry_group_IT_number 12
_symmetry_cell_setting 'monoclinic'
loop_
_space_group_symop_operation_xyz
x,y,z
-x,y,-z
-x,-y,-z
x,-y,z
1/2+x,1/2+y,z
1/2-x,1/2+y,-z
1/2-x,1/2-y,-z
1/2+x,1/2-y,z
loop_
_atom_site_type_symbol
_atom_site_label
_atom_site_fract_x
_atom_site_fract_y
_atom_site_fract_z
Si Si1 0.464942 0.915196 0.689066
Si Si2 0.165968 0.446277 0.656930
Si Si3 0.380724 0.322951 0.557751
Si Si4 0.389493 0.784562 0.643868
Si Si5 0.254495 0.388827 0.855469
Si Si6 0.269991 0.557719 0.135391
Si Si7 0.073955 0.677265 0.086143
Si Si8 0.263310 0.367369 0.376908
O O1 0.500000 0.909924 0.500000
O O2 0.547180 0.948562 0.712830
O O3 0.352067 0.936005 0.770150
O O4 0.471132 0.864853 0.777848
O O5 0.210266 0.500000 0.593397
O O6 0.194821 0.428561 0.797351
O O7 0.204108 0.403533 0.525067
O O8 0.500000 0.323794 0.500000
O O9 0.346749 0.267048 0.613121
O O10 0.333320 0.361226 0.702377
O O11 0.342586 0.338120 0.423483
O O12 0.500000 0.791415 0.500000
O O13 0.402027 0.781142 0.810261
O O14 0.314963 0.829502 0.648873
O O15 0.297580 0.418474 0.963532
O O16 0.175096 0.347493 0.959456
O O17 0.295358 0.500000 0.133368
O O18 0.310866 0.595167 0.230295
O O19 0.000000 0.688826 0.000000
#
# Coordination Sequence:
#
# PCOD9213861 Si02
#       8
#     8   8   8   8   8   8   8   8
#     4  11  19  31  49  82 132 171 200 226 270 356
#     4  11  20  31  53  83 121 170 205 231 281 355
#     4  10  25  46  65  85 109 155 214 267 312 352
#     4  11  22  40  64  91 125 158 200 245 301 369
#     4  10  22  39  59  81 124 162 196 255 293 352
#     4  11  22  35  57  92 128 161 193 238 302 360
#     4  11  20  34  56  90 129 166 193 230 291 357
#     4  11  21  37  62  90 120 160 196 252 296 360
#
# _framework density 19.271369
#
# number of rings (size 3 to 8) (size 9 to 14) (size 15 to 20)
#    0.000    1.250    5.000    2.625    1.750    1.000 
#    0.000    2.500    0.000   14.250    0.000    0.000 
#    0.000    0.000    0.000    0.000    0.000    0.000 
#
# Total GULP energy -178583.598228 kJ/mol
# GULP energy per Si atom -5580.737445 kJ/mol
# Density = 1.922751 g / cm^3
# Si number density = 19.271369 Si / 1000 Ang^3
#
#
#
# Elastic Constant Matrix: (Units=GPa)
#
#
# Indices 1 2 3 4 5 6 
#
# 1 57.3810 34.1149 26.6332 0.0000 26.0511 0.0000
# 2 34.1149 108.4299 28.7239 0.0000 24.6006 0.0000
# 3 26.6332 28.7239 85.6584 0.0000 29.7303 0.0000
# 4 0.0000 0.0000 0.0000 44.7067 0.0000 68.3513
# 5 26.0511 24.6006 29.7303 0.0000 35.3429 0.0000
# 6 0.0000 0.0000 0.0000 68.3513 0.0000 143.9881
#
#
#
# Elastic Compliance Matrix: (Units=1/GPa)
#
#
# Indices 1 2 3 4 5 6 
#
# 1 0.028410 -0.004835 -0.001571 0.000000 -0.016255 0.000000
# 2 -0.004835 0.011904 -0.001200 0.000000 -0.003713 0.000000
# 3 -0.001571 -0.001200 0.016769 0.000000 -0.012113 0.000000
# 4 0.000000 0.000000 0.000000 0.081564 0.000000 -0.038718
# 5 -0.016255 -0.003713 -0.012113 0.000000 0.053050 0.000000
# 6 0.000000 0.000000 0.000000 -0.038718 0.000000 0.025325
#
#
# Mechanical properties :
#
#
# Convention : Reuss Voigt Hill
#
# Bulk Modulus (GPa) = 23.88151 47.82368 35.85259
# Shear Modulus (GPa) = 20.30953 55.60738 37.95845
#
# Velocity S-wave (km/s) = 3.24986 5.37750 4.44292
# Velocity P-wave (km/s) = 5.14794 7.96408 6.70551
#
# Compressibility (1/GPa) = 0.04187340
#
# Stress axis : x y z
#
# Youngs Moduli (GPa) = 35.19826 84.00612 59.63292
#
# Poissons Ratio (x) = 0.40615 0.09365
# Poissons Ratio (y) = 0.17017 0.07155
# Poissons Ratio (z) = 0.05528 0.10080
#
# Static dielectric constant tensor:
#      x y z
#    x 1.674890 0.000000 0.021260 
#    y 0.000000 1.712770 0.000000 
#    z 0.021260 0.000000 1.686430 
# 
# From -- ./inp_files/66889.got.cif
#   From: 2010.05.17/outbox.cif.g08.bks.cpg/sg12_34_cif.got.tgz:66889.got - 2010.06.03 13:09:07.
