data_PCOD9213207
_publ_section_title
;
Structure prediction by ZEFSAII (Michael W. Deem and Ramdas Pophale) SiO2 
 PCOD9213207
Probable space group: C 2/M
;
_chemical_formula_sum "Si O2"
_cell_formula_units_Z 64
_cell_length_a 19.564831
_cell_length_b 18.380634
_cell_length_c 11.756485
_cell_angle_alpha 90.000000
_cell_angle_beta 46.109742
_cell_angle_gamma 90.000000
_cell_volume 3046.841929
_symmetry_space_group_name_H-M "C 2/M"
_symmetry_group_IT_number 12
_symmetry_cell_setting 'monoclinic'
loop_
_space_group_symop_operation_xyz
x,y,z
-x,y,-z
-x,-y,-z
x,-y,z
1/2+x,1/2+y,z
1/2-x,1/2+y,-z
1/2-x,1/2-y,-z
1/2+x,1/2-y,z
loop_
_atom_site_type_symbol
_atom_site_label
_atom_site_fract_x
_atom_site_fract_y
_atom_site_fract_z
Si Si1 0.282430 0.911926 0.291544
Si Si2 0.917223 0.079415 0.922407
Si Si3 0.669322 0.692621 0.572379
Si Si4 0.756740 0.324673 0.868903
Si Si5 0.662658 0.824170 0.974728
Si Si6 0.620802 0.577272 0.765843
Si Si7 0.098848 0.414624 0.455330
Si Si8 0.441646 0.168362 0.262553
O O1 0.193071 0.865687 0.446093
O O2 0.294235 0.891548 0.145202
O O3 0.371100 0.871305 0.253459
O O4 0.279865 0.000000 0.311575
O O5 0.029636 0.091433 0.789776
O O6 0.896576 0.000000 0.896969
O O7 0.840006 0.136590 0.975891
O O8 0.903990 0.075158 0.074396
O O9 0.750000 0.750000 0.500000
O O10 0.682660 0.644950 0.670058
O O11 0.580416 0.746985 0.679663
O O12 0.717904 0.247954 0.865903
O O13 0.819097 0.372188 0.709368
O O14 0.818786 0.319242 0.911663
O O15 0.549203 0.829296 0.092932
O O16 0.662595 0.500000 0.685804
O O17 0.125502 0.500000 0.436603
O O18 0.075639 0.377837 0.602826
O O19 0.000000 0.411385 0.500000
#
# Coordination Sequence:
#
# PCOD9213207 Si02
#       8
#     8   8   8   8   8   8   8   8
#     4  11  25  42  63  92 131 173 211 257 313 383
#     4   9  19  33  59  91 116 151 191 249 311 358
#     4  10  22  37  58  89 117 160 203 252 304 364
#     4  11  23  41  62  92 125 161 210 260 311 368
#     4  11  25  42  62  89 126 170 210 254 308 374
#     4   9  18  35  57  88 123 151 191 248 313 368
#     4  11  23  40  64  92 125 161 204 262 316 372
#     4  11  23  42  64  95 123 165 214 261 318 372
#
# _framework density 21.005355999999999
#
# number of rings (size 3 to 8) (size 9 to 14) (size 15 to 20)
#    0.000    1.625    1.250    3.750    7.000    2.500 
#    0.000    0.000    0.000    0.000    0.000    6.125 
#    0.000    0.000    0.000    0.000    0.000    0.000 
#
# Total GULP energy -178220.780906 kJ/mol
# GULP energy per Si atom -5569.399403 kJ/mol
# Density = 2.095755 g / cm^3
# Si number density = 21.005356 Si / 1000 Ang^3
#
#
#
# Elastic Constant Matrix: (Units=GPa)
#
#
# Indices 1 2 3 4 5 6 
#
# 1 44.3907 18.3581 10.9012 0.0000 -10.0541 0.0000
# 2 18.3581 172.1048 53.2418 0.0000 -1.1685 0.0000
# 3 10.9012 53.2418 95.9302 0.0000 0.5428 0.0000
# 4 0.0000 0.0000 0.0000 27.6809 0.0000 9.2956
# 5 -10.0541 -1.1685 0.5428 0.0000 22.1244 0.0000
# 6 0.0000 0.0000 0.0000 9.2956 0.0000 39.3821
#
#
#
# Elastic Compliance Matrix: (Units=1/GPa)
#
#
# Indices 1 2 3 4 5 6 
#
# 1 0.026613 -0.002174 -0.001886 0.000000 0.012025 0.000000
# 2 -0.002174 0.007197 -0.003745 0.000000 -0.000516 0.000000
# 3 -0.001886 -0.003745 0.012725 0.000000 -0.001367 0.000000
# 4 0.000000 0.000000 0.000000 0.039236 0.000000 -0.009261
# 5 0.012025 -0.000516 -0.001367 0.000000 0.050670 0.000000
# 6 0.000000 0.000000 0.000000 -0.009261 0.000000 0.027578
#
#
# Mechanical properties :
#
#
# Convention : Reuss Voigt Hill
#
# Bulk Modulus (GPa) = 32.33478 53.04756 42.69117
# Shear Modulus (GPa) = 26.32468 33.16579 29.74523
#
# Velocity S-wave (km/s) = 3.54395 3.97787 3.76716
# Velocity P-wave (km/s) = 5.67213 6.81228 6.26818
#
# Compressibility (1/GPa) = 0.03092645
#
# Stress axis : x y z
#
# Youngs Moduli (GPa) = 37.57575 138.94344 78.58844
#
# Poissons Ratio (x) = 0.30202 0.14820
# Poissons Ratio (y) = 0.08168 0.29428
# Poissons Ratio (z) = 0.07086 0.52028
#
# Static dielectric constant tensor:
#      x y z
#    x 1.815300 0.000000 -0.076360 
#    y 0.000000 1.713630 0.000000 
#    z -0.076360 0.000000 1.885270 
# 
# From -- ./inp_files/168768.got.cif
#   From: 2010.05.17/outbox.cif.g08.bks.cpg/sg12_85_cif.got.tgz:168768.got - 2010.06.03 13:09:07.
