data_PCOD9213528
_publ_section_title
;
Structure prediction by ZEFSAII (Michael W. Deem and Ramdas Pophale) SiO2 
 PCOD9213528
Probable space group: C 2/M
;
_chemical_formula_sum "Si O2"
_cell_formula_units_Z 56
_cell_length_a 24.406297
_cell_length_b 8.228850
_cell_length_c 15.987094
_cell_angle_alpha 90.000000
_cell_angle_beta 58.835379
_cell_angle_gamma 90.000000
_cell_volume 2747.413081
_symmetry_space_group_name_H-M "C 2/M"
_symmetry_group_IT_number 12
_symmetry_cell_setting 'monoclinic'
loop_
_space_group_symop_operation_xyz
x,y,z
-x,y,-z
-x,-y,-z
x,-y,z
1/2+x,1/2+y,z
1/2-x,1/2+y,-z
1/2-x,1/2-y,-z
1/2+x,1/2-y,z
loop_
_atom_site_type_symbol
_atom_site_label
_atom_site_fract_x
_atom_site_fract_y
_atom_site_fract_z
Si Si1 0.970613 0.803322 0.933942
Si Si2 0.200127 0.310189 0.163638
Si Si3 0.292762 0.691836 0.388595
Si Si4 0.561365 0.301346 0.710022
Si Si5 0.667223 0.807604 0.005672
Si Si6 0.812789 0.810562 0.645296
Si Si7 0.949298 0.198684 0.469850
O O1 0.015542 0.749431 0.821555
O O2 0.965684 0.000000 0.934526
O O3 0.900621 0.729720 0.979945
O O4 0.000000 0.759025 0.000000
O O5 0.186982 0.500000 0.188216
O O6 0.275301 0.283609 0.085969
O O7 0.180653 0.213796 0.261115
O O8 0.166847 0.256649 0.103623
O O9 0.298573 0.500000 0.391666
O O10 0.250000 0.750000 0.500000
O O11 0.365388 0.756489 0.334143
O O12 0.251745 0.730917 0.338602
O O13 0.561989 0.500000 0.710604
O O14 0.537655 0.252315 0.636194
O O15 0.681727 0.000000 0.992250
O O16 0.877391 0.747343 0.550426
O O17 0.807874 0.000000 0.628443
O O18 0.000000 0.253137 0.500000
O O19 0.949399 0.000000 0.471968
#
# Coordination Sequence:
#
# PCOD9213528 Si02
#       7
#     8   8   8   8   8   8   8
#     4  10  22  38  60  88 118 158 205 244 293 360
#     4  10  22  40  62  87 118 155 196 242 300 363
#     4  11  21  37  59  83 117 156 198 246 294 348
#     4   9  19  36  56  81 115 157 199 240 288 349
#     4  10  22  41  62  87 119 153 196 249 303 353
#     4  11  22  36  59  91 119 149 197 246 298 357
#     4   9  18  33  55  84 117 153 196 240 286 350
#
# _framework density 20.382809000000002
#
# number of rings (size 3 to 8) (size 9 to 14) (size 15 to 20)
#    0.000    2.000    1.429    1.714    4.000    2.000 
#    0.000    1.429    0.000    1.714    0.000    0.000 
#    0.000    0.000    0.000    0.000    0.000    0.000 
#
# Total GULP energy -156403.494888 kJ/mol
# GULP energy per Si atom -5585.839103 kJ/mol
# Density = 2.033642 g / cm^3
# Si number density = 20.382809 Si / 1000 Ang^3
#
#
#
# Elastic Constant Matrix: (Units=GPa)
#
#
# Indices 1 2 3 4 5 6 
#
# 1 105.4553 3.4209 19.3683 0.0000 10.6971 0.0001
# 2 3.4209 10.1084 -1.7698 0.0000 3.0246 0.0001
# 3 19.3683 -1.7698 75.5784 0.0000 27.2642 0.0000
# 4 0.0000 0.0000 0.0000 17.2398 0.0000 0.2736
# 5 10.6971 3.0246 27.2642 0.0000 17.9375 0.0000
# 6 0.0001 0.0001 0.0000 0.2736 0.0000 19.9618
#
#
#
# Elastic Compliance Matrix: (Units=1/GPa)
#
#
# Indices 1 2 3 4 5 6 
#
# 1 0.010181 -0.002660 -0.001423 0.000000 -0.003460 0.000000
# 2 -0.002660 0.119589 0.022546 0.000000 -0.052848 -0.000001
# 3 -0.001423 0.022546 0.033627 0.000000 -0.054065 0.000000
# 4 0.000000 0.000000 0.000000 0.058018 0.000000 -0.000795
# 5 -0.003460 -0.052848 -0.054065 0.000000 0.148900 0.000000
# 6 0.000000 -0.000001 0.000000 -0.000795 0.000000 0.050106
#
#
# Mechanical properties :
#
#
# Convention : Reuss Voigt Hill
#
# Bulk Modulus (GPa) = 4.99190 25.90899 15.45044
# Shear Modulus (GPa) = 11.10447 22.36934 16.73690
#
# Velocity S-wave (km/s) = 2.33662 3.31639 2.86864
# Velocity P-wave (km/s) = 3.11995 5.23482 4.30915
#
# Compressibility (1/GPa) = 0.20032448
#
# Stress axis : x y z
#
# Youngs Moduli (GPa) = 98.21893 8.36200 29.73768
#
# Poissons Ratio (x) = 0.02224 0.04233
# Poissons Ratio (y) = 0.26122 -0.67048
# Poissons Ratio (z) = 0.13980 -0.18853
#
# Static dielectric constant tensor:
#      x y z
#    x 1.719000 0.000000 0.011590 
#    y 0.000000 1.718990 0.000000 
#    z 0.011590 0.000000 1.705700 
# 
# From -- ./inp_files/238330.got.cif
#   From: 2010.05.17/outbox.cif.g08.bks.cpg/sg12_120_cif.got.tgz:238330.got - 2010.06.03 13:09:07.
