data_PCOD9213026
_publ_section_title
;
Structure prediction by ZEFSAII (Michael W. Deem and Ramdas Pophale) SiO2 
 PCOD9213026
Probable space group: C 2/M
;
_chemical_formula_sum "Si O2"
_cell_formula_units_Z 40
_cell_length_a 13.565806
_cell_length_b 15.002724
_cell_length_c 11.617607
_cell_angle_alpha 90.000000
_cell_angle_beta 125.581969
_cell_angle_gamma 90.000000
_cell_volume 1922.979197
_symmetry_space_group_name_H-M "C 2/M"
_symmetry_group_IT_number 12
_symmetry_cell_setting 'monoclinic'
loop_
_space_group_symop_operation_xyz
x,y,z
-x,y,-z
-x,-y,-z
x,-y,z
1/2+x,1/2+y,z
1/2-x,1/2+y,-z
1/2-x,1/2-y,-z
1/2+x,1/2-y,z
loop_
_atom_site_type_symbol
_atom_site_label
_atom_site_fract_x
_atom_site_fract_y
_atom_site_fract_z
Si Si1 0.836780 0.500000 0.723792
Si Si2 0.077142 0.000000 0.436323
Si Si3 0.766627 0.314511 0.777569
Si Si4 0.500000 0.297876 0.000000
Si Si5 0.601600 0.000000 0.468299
Si Si6 0.116499 0.701873 0.496492
Si Si7 0.979357 0.828041 0.244516
O O1 0.715774 0.500000 0.564320
O O2 0.822574 0.411053 0.787556
O O3 0.940152 0.500000 0.695187
O O4 0.000000 0.000000 0.500000
O O5 0.040822 0.087896 0.345381
O O6 0.876950 0.257787 0.900962
O O7 0.709400 0.268229 0.623814
O O8 0.655070 0.319584 0.792152
O O9 0.482047 0.344475 0.110548
O O10 0.500000 0.000000 0.500000
O O11 0.660404 0.099261 0.520919
O O12 0.000000 0.701287 0.500000
O O13 0.059820 0.742888 0.340803
#
# Coordination Sequence:
#
# PCOD9213026 Si02
#       7
#     4   4   8   4   4   8   8
#     4  12  22  37  73  98 118 164 226 274 312 369
#     4  12  20  41  73 105 116 159 224 290 311 353
#     4  11  23  43  65  96 126 172 222 268 314 380
#     4  12  28  38  60  92 142 184 196 252 340 406
#     4  10  22  36  56  98 132 159 197 267 335 374
#     4   9  19  39  67  89 124 167 219 273 309 366
#     4  11  22  43  66  95 132 164 219 271 325 377
#
# _framework density 20.801055999999999
#
# number of rings (size 3 to 8) (size 9 to 14) (size 15 to 20)
#    0.000    1.200    4.000    2.400    2.800    2.400 
#    0.000    2.000    0.000    4.800    0.000    0.000 
#    0.000    0.000    0.000    0.000    0.000    0.000 
#
# Total GULP energy -111613.610220 kJ/mol
# GULP energy per Si atom -5580.680511 kJ/mol
# Density = 2.075371 g / cm^3
# Si number density = 20.801056 Si / 1000 Ang^3
#
#
#
# Elastic Constant Matrix: (Units=GPa)
#
#
# Indices 1 2 3 4 5 6 
#
# 1 110.3740 -9.3364 7.6541 0.0000 -24.2070 0.0000
# 2 -9.3364 90.1439 0.4614 0.0000 -18.2220 0.0000
# 3 7.6541 0.4614 71.6807 0.0000 -21.3262 0.0000
# 4 0.0000 0.0000 0.0000 -1.4775 0.0000 9.9387
# 5 -24.2070 -18.2220 -21.3262 0.0000 44.7697 0.0000
# 6 0.0000 0.0000 0.0000 9.9387 0.0000 19.2323
#
#
#
# Elastic Compliance Matrix: (Units=1/GPa)
#
#
# Indices 1 2 3 4 5 6 
#
# 1 0.010836 0.002616 0.001032 0.000000 0.007416 0.000000
# 2 0.002616 0.012882 0.001886 0.000000 0.007556 0.000000
# 3 0.001032 0.001886 0.016571 0.000000 0.009220 0.000000
# 4 0.000000 0.000000 0.000000 -0.151204 0.000000 0.078138
# 5 0.007416 0.007556 0.009220 0.000000 0.033813 0.000000
# 6 0.000000 0.000000 0.000000 0.078138 0.000000 0.011616
#
#
# Mechanical properties :
#
#
# Convention : Reuss Voigt Hill
#
# Bulk Modulus (GPa) = 19.47114 29.97297 24.72206
# Shear Modulus (GPa) = -84.12713 30.73286 -26.69713
#
# Velocity S-wave (km/s) = -6.36643 3.84795 -3.58641
# Velocity P-wave (km/s) = 6.68289 5.84662 2.28889
#
# Compressibility (1/GPa) = 0.05135805
#
# Stress axis : x y z
#
# Youngs Moduli (GPa) = 92.28327 77.62729 60.34508
#
# Poissons Ratio (x) = -0.20308 -0.06230
# Poissons Ratio (y) = -0.24142 -0.11380
# Poissons Ratio (z) = -0.09527 -0.14639
#
# Static dielectric constant tensor:
#      x y z
#    x 1.989290 0.000000 -0.098690 
#    y 0.000000 1.755590 0.000000 
#    z -0.098690 0.000000 1.733660 
# 
# From -- ./inp_files/143388.got.cif
#   From: 2010.05.17/outbox.cif.g08.bks.cpg/sg12_72_cif.got.tgz:143388.got - 2010.06.03 13:09:07.
