data_PCOD9213003
_publ_section_title
;
Structure prediction by ZEFSAII (Michael W. Deem and Ramdas Pophale) SiO2 
 PCOD9213003
Probable space group: C 2/M
;
_chemical_formula_sum "Si O2"
_cell_formula_units_Z 52
_cell_length_a 17.297020
_cell_length_b 18.909867
_cell_length_c 9.815791
_cell_angle_alpha 90.000000
_cell_angle_beta 128.607307
_cell_angle_gamma 90.000000
_cell_volume 2508.887593
_symmetry_space_group_name_H-M "C 2/M"
_symmetry_group_IT_number 12
_symmetry_cell_setting 'monoclinic'
loop_
_space_group_symop_operation_xyz
x,y,z
-x,y,-z
-x,-y,-z
x,-y,z
1/2+x,1/2+y,z
1/2-x,1/2+y,-z
1/2-x,1/2-y,-z
1/2+x,1/2-y,z
loop_
_atom_site_type_symbol
_atom_site_label
_atom_site_fract_x
_atom_site_fract_y
_atom_site_fract_z
Si Si1 0.763654 0.414692 0.439800
Si Si2 0.753264 0.193074 0.815468
Si Si3 0.584760 0.244982 0.832606
Si Si4 0.976695 0.578847 0.617396
Si Si5 0.785364 0.848883 0.336047
Si Si6 0.581059 0.110617 0.983696
Si Si7 0.500000 0.677041 0.500000
O O1 0.747852 0.500000 0.424687
O O2 0.743248 0.375909 0.274112
O O3 0.879834 0.394477 0.587731
O O4 0.708714 0.376972 0.503877
O O5 0.662809 0.202491 0.822222
O O6 0.741264 0.265320 0.712200
O O7 0.850514 0.197921 0.015860
O O8 0.504349 0.276355 0.642726
O O9 0.549686 0.190525 0.907816
O O10 0.943747 0.500000 0.542810
O O11 0.000000 0.615788 0.500000
O O12 0.065571 0.574926 0.820292
O O13 0.692269 0.888360 0.162044
O O14 0.893112 0.860495 0.386364
O O15 0.500000 0.082296 0.000000
#
# Coordination Sequence:
#
# PCOD9213003 Si02
#       7
#     8   8   8   8   8   8   4
#     4  11  22  37  62  93 127 166 204 255 319 386
#     4   9  19  38  60  87 125 161 210 261 309 371
#     4   9  20  34  58  90 117 158 207 258 312 366
#     4  10  22  36  55  87 125 166 202 235 307 396
#     4  10  22  39  59  92 123 163 214 258 310 363
#     4  11  21  34  57  90 127 159 194 252 320 370
#     4  10  22  38  63  84 117 162 218 264 306 352
#
# _framework density 20.726317999999999
#
# number of rings (size 3 to 8) (size 9 to 14) (size 15 to 20)
#    0.000    2.000    1.538    2.308    5.385    3.385 
#    0.000    0.385    0.000   13.846    0.000    0.000 
#    0.000    0.000    0.000    0.000    0.000    0.000 
#
# Total GULP energy -144809.930959 kJ/mol
# GULP energy per Si atom -5569.612729 kJ/mol
# Density = 2.067914 g / cm^3
# Si number density = 20.726318 Si / 1000 Ang^3
#
#
#
# Elastic Constant Matrix: (Units=GPa)
#
#
# Indices 1 2 3 4 5 6 
#
# 1 82.7556 28.8073 29.1869 0.0000 -4.1916 0.0000
# 2 28.8073 63.3761 30.4884 0.0000 -5.7321 0.0000
# 3 29.1869 30.4884 121.8211 0.0000 0.3881 0.0000
# 4 0.0000 0.0000 0.0000 -13.2060 0.0000 9.9362
# 5 -4.1916 -5.7321 0.3881 0.0000 38.4326 0.0000
# 6 0.0000 0.0000 0.0000 9.9362 0.0000 -1.6693
#
#
#
# Elastic Compliance Matrix: (Units=1/GPa)
#
#
# Indices 1 2 3 4 5 6 
#
# 1 0.014846 -0.005643 -0.002147 0.000000 0.000799 0.000000
# 2 -0.005643 0.020373 -0.003755 0.000000 0.002461 0.000000
# 3 -0.002147 -0.003755 0.009666 0.000000 -0.000892 0.000000
# 4 0.000000 0.000000 0.000000 0.021769 0.000000 0.129574
# 5 0.000799 0.002461 -0.000892 0.000000 0.026483 0.000000
# 6 0.000000 0.000000 0.000000 0.129574 0.000000 0.172214
#
#
# Mechanical properties :
#
#
# Convention : Reuss Voigt Hill
#
# Bulk Modulus (GPa) = 45.88234 49.43533 47.65883
# Shear Modulus (GPa) = 16.90880 16.67614 16.79247
#
# Velocity S-wave (km/s) = 2.85934 2.83960 2.84949
# Velocity P-wave (km/s) = 5.75208 5.88680 5.81983
#
# Compressibility (1/GPa) = 0.02179488
#
# Stress axis : x y z
#
# Youngs Moduli (GPa) = 67.35905 49.08570 103.45868
#
# Poissons Ratio (x) = 0.27698 0.22214
# Poissons Ratio (y) = 0.38010 0.38844
# Poissons Ratio (z) = 0.14463 0.18429
#
# Static dielectric constant tensor:
#      x y z
#    x 1.807200 0.000000 0.005700 
#    y 0.000000 1.794730 0.000000 
#    z 0.005700 0.000000 1.766930 
# 
# From -- ./inp_files/78099.got.cif
#   From: 2010.05.17/outbox.cif.g08.bks.cpg/sg12_40_cif.got.tgz:78099.got - 2010.06.03 13:09:07.
