data_PCOD9213415
_publ_section_title
;
Structure prediction by ZEFSAII (Michael W. Deem and Ramdas Pophale) SiO2 
 PCOD9213415
Probable space group: C 2/M
;
_chemical_formula_sum "Si O2"
_cell_formula_units_Z 52
_cell_length_a 22.603626
_cell_length_b 20.845007
_cell_length_c 5.684909
_cell_angle_alpha 90.000000
_cell_angle_beta 69.175763
_cell_angle_gamma 90.000000
_cell_volume 2503.597315
_symmetry_space_group_name_H-M "C 2/M"
_symmetry_group_IT_number 12
_symmetry_cell_setting 'monoclinic'
loop_
_space_group_symop_operation_xyz
x,y,z
-x,y,-z
-x,-y,-z
x,-y,z
1/2+x,1/2+y,z
1/2-x,1/2+y,-z
1/2-x,1/2-y,-z
1/2+x,1/2-y,z
loop_
_atom_site_type_symbol
_atom_site_label
_atom_site_fract_x
_atom_site_fract_y
_atom_site_fract_z
Si Si1 0.230104 0.678297 0.095143
Si Si2 0.562257 0.769892 0.033081
Si Si3 0.500000 0.862697 0.500000
Si Si4 0.628728 0.426671 0.532299
Si Si5 0.869685 0.139875 0.979703
Si Si6 0.721005 0.930528 0.736462
Si Si7 0.377472 0.867064 0.425603
O O1 0.169369 0.674784 0.345781
O O2 0.250000 0.750000 0.000000
O O3 0.293571 0.645855 0.107594
O O4 0.212441 0.632343 0.905129
O O5 0.535799 0.816354 0.269170
O O6 0.604181 0.711958 0.064324
O O7 0.500000 0.740486 0.000000
O O8 0.597305 0.816279 0.800989
O O9 0.440884 0.896125 0.454786
O O10 0.605509 0.500000 0.558657
O O11 0.615432 0.393672 0.294921
O O12 0.705544 0.429068 0.439978
O O13 0.607451 0.393001 0.807431
O O14 0.668814 0.921364 0.609716
O O15 0.711092 0.000000 0.869859
#
# Coordination Sequence:
#
# PCOD9213415 Si02
#       7
#     8   8   4   8   8   8   8
#     4  11  23  36  61  95 131 162 212 273 330 386
#     4  10  24  39  63  89 123 162 208 266 323 389
#     4  10  22  40  59  86 121 162 210 262 332 374
#     4  10  22  39  61  92 131 169 213 260 319 389
#     4  11  22  38  64  95 125 170 210 262 327 390
#     4  10  22  38  57  89 130 175 210 256 321 393
#     4  11  21  39  60  89 123 162 211 264 322 383
#
# _framework density 20.770112000000001
#
# number of rings (size 3 to 8) (size 9 to 14) (size 15 to 20)
#    0.000    1.538    1.538    3.231    8.615    2.462 
#    0.000    0.385    0.000   11.538    0.000    0.000 
#    0.000    0.000    0.000    0.000    0.000    0.000 
#
# Total GULP energy -144952.072900 kJ/mol
# GULP energy per Si atom -5575.079727 kJ/mol
# Density = 2.072284 g / cm^3
# Si number density = 20.770112 Si / 1000 Ang^3
#
#
#
# Elastic Constant Matrix: (Units=GPa)
#
#
# Indices 1 2 3 4 5 6 
#
# 1 62.0782 -1.7681 -13.2687 0.0000 11.3663 0.0000
# 2 -1.7681 75.9093 23.5545 0.0000 15.2398 0.0000
# 3 -13.2687 23.5545 77.9980 0.0000 7.1845 0.0000
# 4 0.0000 0.0000 0.0000 58.6645 0.0000 -40.6572
# 5 11.3663 15.2398 7.1845 0.0000 25.7651 0.0000
# 6 0.0000 0.0000 0.0000 -40.6572 0.0000 59.3201
#
#
#
# Elastic Compliance Matrix: (Units=1/GPa)
#
#
# Indices 1 2 3 4 5 6 
#
# 1 0.018794 0.001308 0.003733 0.000000 -0.010106 0.000000
# 2 0.001308 0.016222 -0.003838 0.000000 -0.009102 0.000000
# 3 0.003733 -0.003838 0.014941 0.000000 -0.003543 0.000000
# 4 0.000000 0.000000 0.000000 0.032469 0.000000 0.022254
# 5 -0.010106 -0.009102 -0.003543 0.000000 0.049642 0.000000
# 6 0.000000 0.000000 0.000000 0.022254 0.000000 0.032110
#
#
# Mechanical properties :
#
#
# Convention : Reuss Voigt Hill
#
# Bulk Modulus (GPa) = 19.09689 25.89122 22.49406
# Shear Modulus (GPa) = 27.89748 42.58112 35.23930
#
# Velocity S-wave (km/s) = 3.66888 4.53273 4.12349
# Velocity P-wave (km/s) = 5.21172 6.31561 5.79003
#
# Compressibility (1/GPa) = 0.05236454
#
# Stress axis : x y z
#
# Youngs Moduli (GPa) = 53.20781 61.64300 66.92877
#
# Poissons Ratio (x) = -0.08065 -0.24984
# Poissons Ratio (y) = -0.06961 0.25687
# Poissons Ratio (z) = -0.19862 0.23659
#
# Static dielectric constant tensor:
#      x y z
#    x 1.810580 0.000000 0.058580 
#    y 0.000000 1.764470 0.000000 
#    z 0.058580 0.000000 1.803560 
# 
# From -- ./inp_files/25341.got.cif
#   From: 2010.05.17/outbox.cif.g08.bks.cpg/sg12_13_cif.got.tgz:25341.got - 2010.06.03 13:09:07.
