data_PCOD9214351
_publ_section_title
;
Structure prediction by ZEFSAII (Michael W. Deem and Ramdas Pophale) SiO2 
 PCOD9214351
Probable space group: C 2/M
;
_chemical_formula_sum "Si O2"
_cell_formula_units_Z 56
_cell_length_a 14.453240
_cell_length_b 29.186656
_cell_length_c 15.121964
_cell_angle_alpha 90.000000
_cell_angle_beta 27.387699
_cell_angle_gamma 90.000000
_cell_volume 2934.433280
_symmetry_space_group_name_H-M "C 2/M"
_symmetry_group_IT_number 12
_symmetry_cell_setting 'monoclinic'
loop_
_space_group_symop_operation_xyz
x,y,z
-x,y,-z
-x,-y,-z
x,-y,z
1/2+x,1/2+y,z
1/2-x,1/2+y,-z
1/2-x,1/2-y,-z
1/2+x,1/2-y,z
loop_
_atom_site_type_symbol
_atom_site_label
_atom_site_fract_x
_atom_site_fract_y
_atom_site_fract_z
Si Si1 0.783845 0.806311 0.397940
Si Si2 0.501413 0.881879 0.713089
Si Si3 0.029160 0.878531 0.075337
Si Si4 0.166351 0.223658 0.156698
Si Si5 0.977631 0.649225 0.921656
Si Si6 0.782421 0.768155 0.692792
Si Si7 0.818971 0.445549 0.584586
O O1 0.597966 0.833679 0.597714
O O2 0.932245 0.843001 0.225881
O O3 0.723126 0.773513 0.369581
O O4 0.927616 0.780847 0.346218
O O5 0.529848 0.882035 0.794411
O O6 0.616947 0.920983 0.560827
O O7 0.264869 0.884908 0.892888
O O8 0.889725 0.923682 0.204510
O O9 0.000000 0.861684 0.000000
O O10 0.233057 0.247177 0.191793
O O11 0.250000 0.250000 0.000000
O O12 0.262135 0.172942 0.085925
O O13 0.119688 0.694123 0.805748
O O14 0.000000 0.627871 0.000000
O O15 0.000000 0.791275 0.500000
O O16 0.804717 0.500000 0.588355
O O17 0.000000 0.434585 0.500000
#
# Coordination Sequence:
#
# PCOD9214351 Si02
#       7
#     8   8   8   8   8   8   8
#     4  11  25  36  58  83 117 159 207 256 294 350
#     4  11  23  41  62  88 119 158 196 244 302 352
#     4  11  23  36  58  89 124 159 191 237 297 354
#     4  11  22  38  54  77 112 161 208 257 300 341
#     4  10  22  40  59  81 114 157 211 254 296 342
#     4  11  25  36  52  79 113 161 210 252 297 338
#     4  10  22  41  63  95 127 154 189 227 291 377
#
# _framework density 19.083753000000002
#
# number of rings (size 3 to 8) (size 9 to 14) (size 15 to 20)
#    0.000    1.286    4.286    0.857    6.000    2.000 
#    0.000    0.000    0.000    0.429    0.000    1.000 
#    0.000    0.000    0.000    0.000    0.000    0.000 
#
# Total GULP energy -156491.076169 kJ/mol
# GULP energy per Si atom -5588.967006 kJ/mol
# Density = 1.904032 g / cm^3
# Si number density = 19.083753 Si / 1000 Ang^3
#
#
#
# Elastic Constant Matrix: (Units=GPa)
#
#
# Indices 1 2 3 4 5 6 
#
# 1 145.1161 40.1872 53.0218 -0.0007 16.8974 0.0005
# 2 40.1872 50.0214 24.3331 -0.0009 1.1521 0.0004
# 3 53.0218 24.3331 106.8426 -0.0015 -10.7931 0.0008
# 4 -0.0007 -0.0009 -0.0015 16.5890 0.0004 -0.7248
# 5 16.8974 1.1521 -10.7931 0.0004 48.7044 -0.0007
# 6 0.0005 0.0004 0.0008 -0.7248 -0.0007 19.0452
#
#
#
# Elastic Compliance Matrix: (Units=1/GPa)
#
#
# Indices 1 2 3 4 5 6 
#
# 1 0.010798 -0.006455 -0.004349 0.000000 -0.004557 0.000000
# 2 -0.006455 0.026480 -0.002726 0.000001 0.001009 0.000000
# 3 -0.004349 -0.002726 0.012579 0.000001 0.004361 0.000000
# 4 0.000000 0.000001 0.000001 0.060381 0.000000 0.002298
# 5 -0.004557 0.001009 0.004361 0.000000 0.023056 0.000001
# 6 0.000000 0.000000 0.000000 0.002298 0.000001 0.052594
#
#
# Mechanical properties :
#
#
# Convention : Reuss Voigt Hill
#
# Bulk Modulus (GPa) = 43.86265 59.67383 51.76824
# Shear Modulus (GPa) = 22.67096 29.16358 25.91727
#
# Velocity S-wave (km/s) = 3.45044 3.91345 3.68921
# Velocity P-wave (km/s) = 6.23764 7.19426 6.73296
#
# Compressibility (1/GPa) = 0.02279844
#
# Stress axis : x y z
#
# Youngs Moduli (GPa) = 92.60733 37.76463 79.49684
#
# Poissons Ratio (x) = 0.24376 0.34574
# Poissons Ratio (y) = 0.59776 0.21667
# Poissons Ratio (z) = 0.40276 0.10293
#
# Static dielectric constant tensor:
#      x y z
#    x 1.688200 0.000000 0.008700 
#    y 0.000000 1.648190 0.000000 
#    z 0.008700 0.000000 1.741200 
# 
# From -- ./inp_files/219342.got.cif
#   From: 2010.05.17/outbox.cif.g08.bks.cpg/sg12_110_cif.got.tgz:219342.got - 2010.06.03 13:09:07.
