data_PCOD9214855
_publ_section_title
;
Structure prediction by ZEFSAII (Michael W. Deem and Ramdas Pophale) SiO2 
 PCOD9214855
Probable space group: C 2/M
;
_chemical_formula_sum "Si O2"
_cell_formula_units_Z 30
_cell_length_a 10.752762
_cell_length_b 24.154181
_cell_length_c 7.644950
_cell_angle_alpha 90.000000
_cell_angle_beta 136.815343
_cell_angle_gamma 90.000000
_cell_volume 1358.834171
_symmetry_space_group_name_H-M "C 2/M"
_symmetry_group_IT_number 12
_symmetry_cell_setting 'monoclinic'
loop_
_space_group_symop_operation_xyz
x,y,z
-x,y,-z
-x,-y,-z
x,-y,z
1/2+x,1/2+y,z
1/2-x,1/2+y,-z
1/2-x,1/2-y,-z
1/2+x,1/2-y,z
loop_
_atom_site_type_symbol
_atom_site_label
_atom_site_fract_x
_atom_site_fract_y
_atom_site_fract_z
Si Si1 0.710674 0.560048 0.256437
Si Si2 0.622955 0.795199 0.280576
Si Si3 0.710831 0.412020 0.658955
Si Si4 0.500000 0.850449 0.500000
Si Si5 0.500000 0.000000 0.000000
O O1 0.772966 0.500000 0.256046
O O2 0.730262 0.561837 0.485487
O O3 0.826685 0.610055 0.304973
O O4 0.500000 0.566634 0.000000
O O5 0.750000 0.750000 0.500000
O O6 0.726416 0.848197 0.300574
O O7 0.511023 0.817098 0.332078
O O8 0.500000 0.770910 0.000000
O O9 0.500000 0.415437 0.500000
O O10 0.852416 0.450417 0.908902
#
# Coordination Sequence:
#
# PCOD9214855 Si02
#       5
#     8   8   8   4   2
#     4  10  22  40  65 105 143 187 234 293 369 436
#     4  11  27  50  76 110 144 200 255 309 380 440
#     4  11  25  44  73 109 144 192 243 303 369 448
#     4  10  25  46  70 102 148 189 240 308 362 444
#     4  12  22  44  70 108 154 184 242 290 382 436
#
# _framework density 22.077750999999999
#
# number of rings (size 3 to 8) (size 9 to 14) (size 15 to 20)
#    0.000    1.333    2.667    0.800    5.600    5.333 
#    9.600    0.000    0.000    0.000    0.000    0.000 
#    0.000    0.000    0.000    0.000    0.000    0.000 
#
# Total GULP energy -83603.730293 kJ/mol
# GULP energy per Si atom -5573.582020 kJ/mol
# Density = 2.202750 g / cm^3
# Si number density = 22.077751 Si / 1000 Ang^3
#
#
#
# Elastic Constant Matrix: (Units=GPa)
#
#
# Indices 1 2 3 4 5 6 
#
# 1 118.6209 43.8985 33.4401 0.0000 4.2477 0.0000
# 2 43.8985 125.8657 56.9719 0.0000 -3.8669 0.0000
# 3 33.4401 56.9719 116.9585 0.0000 -4.0006 0.0000
# 4 0.0000 0.0000 0.0000 37.1509 0.0000 -11.4919
# 5 4.2477 -3.8669 -4.0006 0.0000 33.4918 0.0000
# 6 0.0000 0.0000 0.0000 -11.4919 0.0000 11.2577
#
#
#
# Elastic Compliance Matrix: (Units=1/GPa)
#
#
# Indices 1 2 3 4 5 6 
#
# 1 0.009977 -0.002842 -0.001529 0.000000 -0.001776 0.000000
# 2 -0.002842 0.011013 -0.004515 0.000000 0.001093 0.000000
# 3 -0.001529 -0.004515 0.011221 0.000000 0.001013 0.000000
# 4 0.000000 0.000000 0.000000 0.039339 0.000000 0.040157
# 5 -0.001776 0.001093 0.001013 0.000000 0.030330 0.000000
# 6 0.000000 0.000000 0.000000 0.040157 0.000000 0.129820
#
#
# Mechanical properties :
#
#
# Convention : Reuss Voigt Hill
#
# Bulk Modulus (GPa) = 69.25394 70.00736 69.63065
# Shear Modulus (GPa) = 19.66295 31.52241 25.59268
#
# Velocity S-wave (km/s) = 2.98757 3.78271 3.40841
# Velocity P-wave (km/s) = 6.58309 7.13140 6.86272
#
# Compressibility (1/GPa) = 0.01443961
#
# Stress axis : x y z
#
# Youngs Moduli (GPa) = 100.23467 90.79870 89.11884
#
# Poissons Ratio (x) = 0.25806 0.13624
# Poissons Ratio (y) = 0.28488 0.40235
# Poissons Ratio (z) = 0.15323 0.40993
#
# Static dielectric constant tensor:
#      x y z
#    x 1.809790 0.000000 -0.051470 
#    y 0.000000 1.754670 0.000000 
#    z -0.051470 0.000000 1.955060 
# 
# From -- ./inp_files/51131.got.cif
#   From: 2010.05.17/outbox.cif.g08.bks.cpg/sg12_26_cif.got.tgz:51131.got - 2010.06.03 13:09:07.
