data_PCOD9214595
_publ_section_title
;
Structure prediction by ZEFSAII (Michael W. Deem and Ramdas Pophale) SiO2 
 PCOD9214595
Probable space group: C 2/M
;
_chemical_formula_sum "Si O2"
_cell_formula_units_Z 40
_cell_length_a 15.606282
_cell_length_b 13.482600
_cell_length_c 9.933603
_cell_angle_alpha 90.000000
_cell_angle_beta 109.967852
_cell_angle_gamma 90.000000
_cell_volume 1964.510390
_symmetry_space_group_name_H-M "C 2/M"
_symmetry_group_IT_number 12
_symmetry_cell_setting 'monoclinic'
loop_
_space_group_symop_operation_xyz
x,y,z
-x,y,-z
-x,-y,-z
x,-y,z
1/2+x,1/2+y,z
1/2-x,1/2+y,-z
1/2-x,1/2-y,-z
1/2+x,1/2-y,z
loop_
_atom_site_type_symbol
_atom_site_label
_atom_site_fract_x
_atom_site_fract_y
_atom_site_fract_z
Si Si1 0.751403 0.776480 0.158886
Si Si2 0.718862 0.384187 0.363560
Si Si3 0.572104 0.117775 0.433211
Si Si4 0.391330 0.617479 0.422343
Si Si5 0.924360 0.618177 0.860960
O O1 0.714434 0.684951 0.230258
O O2 0.844353 0.817159 0.278858
O O3 0.676253 0.860946 0.141846
O O4 0.750000 0.750000 0.000000
O O5 0.700335 0.500000 0.322277
O O6 0.823956 0.375139 0.466121
O O7 0.658243 0.357059 0.461715
O O8 0.500000 0.158732 0.500000
O O9 0.561743 0.160722 0.279865
O O10 0.552781 0.000000 0.412322
O O11 0.500000 0.626411 0.500000
O O12 0.371937 0.500000 0.386530
O O13 0.936276 0.500000 0.860561
O O14 0.000000 0.660728 0.000000
#
# Coordination Sequence:
#
# PCOD9214595 Si02
#       5
#     8   8   8   8   8
#     4  12  26  40  61  97 133 169 210 266 322 384
#     4  10  22  42  65  91 124 164 213 266 314 371
#     4   9  18  34  61  92 119 155 202 252 312 373
#     4  10  22  44  72  95 124 173 223 266 316 379
#     4  10  22  40  62  90 129 165 200 257 325 384
#
# _framework density 20.361308000000001
#
# number of rings (size 3 to 8) (size 9 to 14) (size 15 to 20)
#    0.000    1.800    2.000    1.200    2.800    4.000 
#    0.000    0.000    0.000    4.200    0.000    0.000 
#    0.000    0.000    0.000    0.000    0.000    0.000 
#
# Total GULP energy -111667.378560 kJ/mol
# GULP energy per Si atom -5583.368928 kJ/mol
# Density = 2.031496 g / cm^3
# Si number density = 20.361308 Si / 1000 Ang^3
#
#
#
# Elastic Constant Matrix: (Units=GPa)
#
#
# Indices 1 2 3 4 5 6 
#
# 1 139.0071 0.7027 70.9676 0.0000 -15.5021 0.0000
# 2 0.7027 86.4633 41.1556 0.0000 -8.4869 0.0000
# 3 70.9676 41.1556 163.0844 0.0000 -23.6638 0.0000
# 4 0.0000 0.0000 0.0000 21.7966 0.0000 8.9130
# 5 -15.5021 -8.4869 -23.6638 0.0000 37.1926 0.0000
# 6 0.0000 0.0000 0.0000 8.9130 0.0000 -11.6317
#
#
#
# Elastic Compliance Matrix: (Units=1/GPa)
#
#
# Indices 1 2 3 4 5 6 
#
# 1 0.009686 0.002246 -0.004541 0.000000 0.001661 0.000000
# 2 0.002246 0.013698 -0.004236 0.000000 0.001367 0.000000
# 3 -0.004541 -0.004236 0.009653 0.000000 0.003283 0.000000
# 4 0.000000 0.000000 0.000000 0.034933 0.000000 0.026768
# 5 0.001661 0.001367 0.003283 0.000000 0.029980 0.000000
# 6 0.000000 0.000000 0.000000 0.026768 0.000000 -0.065461
#
#
# Mechanical properties :
#
#
# Convention : Reuss Voigt Hill
#
# Bulk Modulus (GPa) = 50.06240 68.24518 59.15379
# Shear Modulus (GPa) = 95.77132 27.85342 61.81237
#
# Velocity S-wave (km/s) = 6.86572 3.70260 5.51577
# Velocity P-wave (km/s) = 9.35367 7.20201 8.34746
#
# Compressibility (1/GPa) = 0.01997507
#
# Stress axis : x y z
#
# Youngs Moduli (GPa) = 103.24350 73.00565 103.59626
#
# Poissons Ratio (x) = -0.16394 0.47039
# Poissons Ratio (y) = -0.23184 0.43879
# Poissons Ratio (z) = 0.46879 0.30922
#
# Static dielectric constant tensor:
#      x y z
#    x 1.727060 0.000000 -0.019180 
#    y 0.000000 1.782320 0.000000 
#    z -0.019180 0.000000 1.734460 
# 
# From -- ./inp_files/58907.got.cif
#   From: 2010.05.17/outbox.cif.g08.bks.cpg/sg12_30_cif.got.tgz:58907.got - 2010.06.03 13:09:07.
