data_PCOD9214267
_publ_section_title
;
Structure prediction by ZEFSAII (Michael W. Deem and Ramdas Pophale) SiO2 
 PCOD9214267
Probable space group: C 2/M
;
_chemical_formula_sum "Si O2"
_cell_formula_units_Z 56
_cell_length_a 11.779855
_cell_length_b 20.626010
_cell_length_c 10.883405
_cell_angle_alpha 90.000000
_cell_angle_beta 101.484591
_cell_angle_gamma 90.000000
_cell_volume 2591.411684
_symmetry_space_group_name_H-M "C 2/M"
_symmetry_group_IT_number 12
_symmetry_cell_setting 'monoclinic'
loop_
_space_group_symop_operation_xyz
x,y,z
-x,y,-z
-x,-y,-z
x,-y,z
1/2+x,1/2+y,z
1/2-x,1/2+y,-z
1/2-x,1/2-y,-z
1/2+x,1/2-y,z
loop_
_atom_site_type_symbol
_atom_site_label
_atom_site_fract_x
_atom_site_fract_y
_atom_site_fract_z
Si Si1 0.875887 0.714481 0.517036
Si Si2 0.685527 0.731599 0.864507
Si Si3 0.088089 0.073290 0.630887
Si Si4 0.348325 0.000000 0.349395
Si Si5 0.218994 0.640530 0.722860
Si Si6 0.312745 0.862279 0.714211
Si Si7 0.514108 0.632344 0.146575
Si Si8 0.380705 0.000000 0.642823
O O1 0.750000 0.750000 0.500000
O O2 0.840488 0.655335 0.420965
O O3 0.894939 0.683570 0.653857
O O4 0.000000 0.744307 0.500000
O O5 0.669513 0.798098 0.787019
O O6 0.771259 0.678263 0.821601
O O7 0.564579 0.696314 0.861628
O O8 0.750000 0.750000 0.000000
O O9 0.186882 0.125440 0.624840
O O10 0.035734 0.086617 0.754793
O O11 0.000000 0.077221 0.500000
O O12 0.135154 0.000000 0.642265
O O13 0.303271 0.935839 0.270186
O O14 0.320079 0.000000 0.491762
O O15 0.485281 0.000000 0.364385
O O16 0.355688 0.647021 0.781531
O O17 0.360616 0.935057 0.719619
O O18 0.500000 0.609670 0.000000
#
# Coordination Sequence:
#
# PCOD9214267 Si02
#       8
#     8   8   8   4   8   8   8   4
#     4  12  26  42  70 111 150 191 239 311 379 453
#     4  11  25  48  70 102 141 195 254 306 362 440
#     4  10  22  39  66 105 147 189 239 300 370 449
#     4  11  26  42  69 105 148 183 230 302 368 455
#     4  12  25  44  71 102 145 188 243 297 374 447
#     4  11  22  42  70 101 141 188 233 299 366 435
#     4  11  25  44  71 105 140 195 243 307 373 443
#     4  11  22  44  69 104 144 188 234 289 377 451
#
# _framework density 21.609843999999999
#
# number of rings (size 3 to 8) (size 9 to 14) (size 15 to 20)
#    0.000    0.857    5.000    1.714    3.000    2.000 
#    0.000    0.714    0.000    0.857    0.000    0.000 
#    0.000    0.000    0.000    0.000    0.000    0.000 
#
# Total GULP energy -155981.770911 kJ/mol
# GULP energy per Si atom -5570.777533 kJ/mol
# Density = 2.156066 g / cm^3
# Si number density = 21.609844 Si / 1000 Ang^3
#
#
#
# Elastic Constant Matrix: (Units=GPa)
#
#
# Indices 1 2 3 4 5 6 
#
# 1 124.7916 50.9404 43.3168 0.0000 3.9246 0.0000
# 2 50.9404 141.1400 35.4542 0.0000 -14.2386 0.0000
# 3 43.3168 35.4542 80.0613 0.0000 -10.6092 0.0000
# 4 0.0000 0.0000 0.0000 -5.5671 0.0000 -3.4786
# 5 3.9246 -14.2386 -10.6092 0.0000 28.4183 0.0000
# 6 0.0000 0.0000 0.0000 -3.4786 0.0000 -21.4394
#
#
#
# Elastic Compliance Matrix: (Units=1/GPa)
#
#
# Indices 1 2 3 4 5 6 
#
# 1 0.011394 -0.003283 -0.005405 0.000000 -0.005236 0.000000
# 2 -0.003283 0.009138 -0.001687 0.000000 0.004402 0.000000
# 3 -0.005405 -0.001687 0.016989 0.000000 0.006244 0.000000
# 4 0.000000 0.000000 0.000000 -0.199894 0.000000 0.032434
# 5 -0.005236 0.004402 0.006244 0.000000 0.040448 0.000000
# 6 0.000000 0.000000 0.000000 0.032434 0.000000 -0.051905
#
#
# Mechanical properties :
#
#
# Convention : Reuss Voigt Hill
#
# Bulk Modulus (GPa) = 59.62473 67.26843 63.44658
# Shear Modulus (GPa) = -33.90067 14.70112 -9.59977
#
# Velocity S-wave (km/s) = -3.96505 2.61108 -2.10997
# Velocity P-wave (km/s) = 2.58634 6.34717 4.84642
#
# Compressibility (1/GPa) = 0.01677156
#
# Stress axis : x y z
#
# Youngs Moduli (GPa) = 87.76360 109.43388 58.86109
#
# Poissons Ratio (x) = 0.35927 0.31813
# Poissons Ratio (y) = 0.28813 0.09930
# Poissons Ratio (z) = 0.47435 0.18462
#
# Static dielectric constant tensor:
#      x y z
#    x 1.832340 0.000000 -0.016320 
#    y 0.000000 1.856970 0.000000 
#    z -0.016320 0.000000 1.891370 
# 
# From -- ./inp_files/134005.got.cif
#   From: 2010.05.17/outbox.cif.g08.bks.cpg/sg12_68_cif.got.tgz:134005.got - 2010.06.03 13:09:07.
