data_PCOD9214503
_publ_section_title
;
Structure prediction by ZEFSAII (Michael W. Deem and Ramdas Pophale) SiO2 
 PCOD9214503
Probable space group: C 2/M
;
_chemical_formula_sum "Si O2"
_cell_formula_units_Z 64
_cell_length_a 8.903607
_cell_length_b 29.296051
_cell_length_c 21.785060
_cell_angle_alpha 90.000000
_cell_angle_beta 147.735189
_cell_angle_gamma 90.000000
_cell_volume 3033.467454
_symmetry_space_group_name_H-M "C 2/M"
_symmetry_group_IT_number 12
_symmetry_cell_setting 'monoclinic'
loop_
_space_group_symop_operation_xyz
x,y,z
-x,y,-z
-x,-y,-z
x,-y,z
1/2+x,1/2+y,z
1/2-x,1/2+y,-z
1/2-x,1/2-y,-z
1/2+x,1/2-y,z
loop_
_atom_site_type_symbol
_atom_site_label
_atom_site_fract_x
_atom_site_fract_y
_atom_site_fract_z
Si Si1 0.605987 0.102305 0.795377
Si Si2 0.829060 0.947159 0.700974
Si Si3 0.158208 0.399259 0.162645
Si Si4 0.692630 0.053278 0.407654
Si Si5 0.290917 0.200917 0.873020
Si Si6 0.378319 0.552141 0.064294
Si Si7 0.244827 0.252296 0.730955
Si Si8 0.709502 0.812877 0.368264
O O1 0.475888 0.107660 0.817007
O O2 0.469928 0.059501 0.712565
O O3 0.503634 0.145895 0.720910
O O4 0.934041 0.089970 0.906133
O O5 0.520080 0.928621 0.613240
O O6 0.026266 0.919085 0.723808
O O7 0.005731 0.946226 0.826083
O O8 0.804435 0.000000 0.673122
O O9 0.171038 0.351873 0.130777
O O10 0.944803 0.433924 0.055268
O O11 0.000000 0.072535 0.500000
O O12 0.275315 0.000000 0.566570
O O13 0.340250 0.230155 0.828472
O O14 0.977644 0.212184 0.787741
O O15 0.500000 0.213816 0.000000
O O16 0.417493 0.500000 0.055535
O O17 0.225385 0.213300 0.672810
O O18 0.954319 0.277766 0.644326
O O19 0.000000 0.827021 0.500000
#
# Coordination Sequence:
#
# PCOD9214503 Si02
#       8
#     8   8   8   8   8   8   8   8
#     4  11  23  38  58  91 124 160 211 262 309 380
#     4   9  19  35  58  86 117 158 206 255 309 369
#     4  12  23  36  58  90 132 159 212 255 311 376
#     4   9  19  38  62  84 114 160 210 254 314 380
#     4  11  23  41  63  94 128 170 203 252 316 384
#     4  10  22  40  61  88 126 176 214 251 314 381
#     4  10  24  44  66  94 125 163 215 259 322 385
#     4  11  23  44  70  93 123 163 214 273 323 373
#
# _framework density 21.097968000000002
#
# number of rings (size 3 to 8) (size 9 to 14) (size 15 to 20)
#    0.000    1.625    1.250    4.125    5.250    3.500 
#    0.000    0.625    0.000    2.250    0.000    0.000 
#    0.000    0.000    0.000    0.000    0.000    0.000 
#
# Total GULP energy -178661.903520 kJ/mol
# GULP energy per Si atom -5583.184485 kJ/mol
# Density = 2.104995 g / cm^3
# Si number density = 21.097968 Si / 1000 Ang^3
#
#
#
# Elastic Constant Matrix: (Units=GPa)
#
#
# Indices 1 2 3 4 5 6 
#
# 1 104.5749 39.3068 31.8815 0.0004 20.8570 -0.0001
# 2 39.3068 91.9244 22.1894 0.0000 15.9990 0.0000
# 3 31.8815 22.1894 72.0029 -0.0025 27.9300 0.0001
# 4 0.0004 0.0000 -0.0025 22.2412 0.0000 5.1637
# 5 20.8570 15.9990 27.9300 0.0000 30.5648 -0.0001
# 6 -0.0001 0.0000 0.0001 5.1637 -0.0001 26.0497
#
#
#
# Elastic Compliance Matrix: (Units=1/GPa)
#
#
# Indices 1 2 3 4 5 6 
#
# 1 0.012755 -0.004075 -0.002855 -0.000001 -0.003962 0.000000
# 2 -0.004075 0.013450 -0.001066 0.000000 -0.003285 0.000000
# 3 -0.002855 -0.001066 0.022476 0.000003 -0.018032 -0.000001
# 4 -0.000001 0.000000 0.000003 0.047131 -0.000002 -0.009343
# 5 -0.003962 -0.003285 -0.018032 -0.000002 0.053618 0.000001
# 6 0.000000 0.000000 -0.000001 -0.009343 0.000001 0.040240
#
#
# Mechanical properties :
#
#
# Convention : Reuss Voigt Hill
#
# Bulk Modulus (GPa) = 30.59248 50.58417 40.58832
# Shear Modulus (GPa) = 23.08850 27.44612 25.26731
#
# Velocity S-wave (km/s) = 3.31168 3.61070 3.46442
# Velocity P-wave (km/s) = 5.39950 6.43512 5.93992
#
# Compressibility (1/GPa) = 0.03268778
#
# Stress axis : x y z
#
# Youngs Moduli (GPa) = 78.40162 74.34812 44.49267
#
# Poissons Ratio (x) = 0.30299 0.12702
# Poissons Ratio (y) = 0.31951 0.04744
# Poissons Ratio (z) = 0.22383 0.07927
#
# Static dielectric constant tensor:
#      x y z
#    x 1.780720 0.000000 0.025440 
#    y 0.000000 1.755760 0.000000 
#    z 0.025440 0.000000 1.782790 
# 
# From -- ./inp_files/334373.got.cif
#   From: 2010.05.17/outbox.cif.g08.bks.cpg/sg12_168_cif.got.tgz:334373.got - 2010.06.03 13:09:07.
