data_PCOD9214851
_publ_section_title
;
Structure prediction by ZEFSAII (Michael W. Deem and Ramdas Pophale) SiO2 
 PCOD9214851
Probable space group: C 2/M
;
_chemical_formula_sum "Si O2"
_cell_formula_units_Z 52
_cell_length_a 7.014889
_cell_length_b 19.044544
_cell_length_c 25.517747
_cell_angle_alpha 90.000000
_cell_angle_beta 142.892798
_cell_angle_gamma 90.000000
_cell_volume 2056.709550
_symmetry_space_group_name_H-M "C 2/M"
_symmetry_group_IT_number 12
_symmetry_cell_setting 'monoclinic'
loop_
_space_group_symop_operation_xyz
x,y,z
-x,y,-z
-x,-y,-z
x,-y,z
1/2+x,1/2+y,z
1/2-x,1/2+y,-z
1/2-x,1/2-y,-z
1/2+x,1/2-y,z
loop_
_atom_site_type_symbol
_atom_site_label
_atom_site_fract_x
_atom_site_fract_y
_atom_site_fract_z
Si Si1 0.688873 0.651111 0.233339
Si Si2 0.387675 0.350402 0.613798
Si Si3 0.859935 0.305646 0.580026
Si Si4 0.179580 0.216550 0.929038
Si Si5 0.111922 0.345900 0.185637
Si Si6 0.325618 0.000000 0.783007
Si Si7 0.187558 0.500000 0.703568
Si Si8 0.424257 0.500000 0.384104
O O1 0.607008 0.671986 0.156709
O O2 0.383835 0.670082 0.201698
O O3 0.988483 0.683428 0.328790
O O4 0.728615 0.569356 0.247395
O O5 0.363001 0.279178 0.574324
O O6 0.702467 0.342297 0.718363
O O7 0.398429 0.425239 0.586011
O O8 0.099683 0.344733 0.592875
O O9 0.500000 0.331072 0.500000
O O10 0.139902 0.286336 0.883320
O O11 0.500000 0.169665 0.000000
O O12 0.250000 0.250000 0.000000
O O13 0.029159 0.428193 0.163046
O O14 0.315845 0.000000 0.718354
O O15 0.942695 0.000000 0.712116
O O16 0.805447 0.500000 0.615200
#
# Coordination Sequence:
#
# PCOD9214851 Si02
#       8
#     8   8   8   8   8   4   4   4
#     4  10  22  41  64  96 125 173 221 274 335 405
#     4  10  22  40  65  97 134 176 222 280 339 397
#     4  11  23  41  71  99 134 177 229 280 339 405
#     4  12  23  36  59  93 127 167 218 270 329 393
#     4   9  18  38  61  87 128 167 209 278 323 393
#     4   8  18  38  62  94 127 171 223 272 342 398
#     4  10  22  40  72  93 131 181 227 274 350 410
#     4  10  22  40  65 101 138 175 226 280 343 416
#
# _framework density 25.283100999999998
#
# number of rings (size 3 to 8) (size 9 to 14) (size 15 to 20)
#    0.000    1.846    3.077    1.385    2.154    2.462 
#    0.000    3.462    0.000    0.000    0.000    0.000 
#    0.000    0.000    0.000    0.000    0.000    0.000 
#
# Total GULP energy -145197.614598 kJ/mol
# GULP energy per Si atom -5584.523638 kJ/mol
# Density = 2.522556 g / cm^3
# Si number density = 25.283101 Si / 1000 Ang^3
#
#
#
# Elastic Constant Matrix: (Units=GPa)
#
#
# Indices 1 2 3 4 5 6 
#
# 1 93.9005 10.1490 24.7155 -0.0018 19.2279 -0.0011
# 2 10.1490 161.0850 41.1625 -0.0014 10.0736 -0.0015
# 3 24.7155 41.1625 151.9661 0.0002 20.6700 -0.0029
# 4 -0.0018 -0.0014 0.0002 8.1302 -0.0028 -1.2979
# 5 19.2279 10.0736 20.6700 -0.0028 42.3457 -0.0022
# 6 -0.0011 -0.0015 -0.0029 -1.2979 -0.0022 19.2911
#
#
#
# Elastic Compliance Matrix: (Units=1/GPa)
#
#
# Indices 1 2 3 4 5 6 
#
# 1 0.011977 -0.000133 -0.001260 0.000001 -0.004792 0.000000
# 2 -0.000133 0.006694 -0.001696 0.000001 -0.000704 0.000000
# 3 -0.001260 -0.001696 0.007618 -0.000002 -0.002743 0.000001
# 4 0.000001 0.000001 -0.000002 0.124334 0.000009 0.008365
# 5 -0.004792 -0.000704 -0.002743 0.000009 0.027297 0.000003
# 6 0.000000 0.000000 0.000001 0.008365 0.000003 0.052400
#
#
# Mechanical properties :
#
#
# Convention : Reuss Voigt Hill
#
# Bulk Modulus (GPa) = 49.72487 62.11174 55.91830
# Shear Modulus (GPa) = 20.55915 36.01504 28.28710
#
# Velocity S-wave (km/s) = 2.85469 3.77831 3.34850
# Velocity P-wave (km/s) = 5.52952 6.60712 6.09219
#
# Compressibility (1/GPa) = 0.02011066
#
# Stress axis : x y z
#
# Youngs Moduli (GPa) = 83.49490 149.39607 131.27263
#
# Poissons Ratio (x) = 0.01986 0.16542
# Poissons Ratio (y) = 0.01110 0.22259
# Poissons Ratio (z) = 0.10522 0.25332
#
# Static dielectric constant tensor:
#      x y z
#    x 2.314370 0.000000 0.088030 
#    y 0.000000 2.004110 0.000000 
#    z 0.088030 0.000000 2.001570 
# 
# From -- ./inp_files/373124.got.cif
#   From: 2010.05.17/outbox.cif.g08.bks.cpg/sg12_187_cif.got.tgz:373124.got - 2010.06.03 13:09:07.
