data_PCOD9214844
_publ_section_title
;
Structure prediction by ZEFSAII (Michael W. Deem and Ramdas Pophale) SiO2 
 PCOD9214844
Probable space group: C 2/M
;
_chemical_formula_sum "Si O2"
_cell_formula_units_Z 40
_cell_length_a 21.660317
_cell_length_b 13.256667
_cell_length_c 19.365710
_cell_angle_alpha 90.000000
_cell_angle_beta 161.269211
_cell_angle_gamma 90.000000
_cell_volume 1785.675609
_symmetry_space_group_name_H-M "C 2/M"
_symmetry_group_IT_number 12
_symmetry_cell_setting 'monoclinic'
loop_
_space_group_symop_operation_xyz
x,y,z
-x,y,-z
-x,-y,-z
x,-y,z
1/2+x,1/2+y,z
1/2-x,1/2+y,-z
1/2-x,1/2-y,-z
1/2+x,1/2-y,z
loop_
_atom_site_type_symbol
_atom_site_label
_atom_site_fract_x
_atom_site_fract_y
_atom_site_fract_z
Si Si1 0.658905 0.227196 0.521330
Si Si2 0.711610 0.280482 0.196358
Si Si3 0.028264 0.114048 0.878594
Si Si4 0.846788 0.385532 0.101311
Si Si5 0.117590 0.118541 0.722767
O O1 0.674705 0.180875 0.615874
O O2 0.862897 0.198503 0.704730
O O3 0.500937 0.181261 0.303664
O O4 0.583590 0.339265 0.459278
O O5 0.814502 0.186248 0.269244
O O6 0.500000 0.249433 0.000000
O O7 0.667971 0.362336 0.091201
O O8 0.948536 0.000000 0.801036
O O9 0.154309 0.118231 0.943572
O O10 0.919844 0.500000 0.179067
O O11 0.779684 0.361695 0.953117
O O12 0.107714 0.000000 0.698232
#
# Coordination Sequence:
#
# PCOD9214844 Si02
#       5
#     8   8   8   8   8
#     4  11  22  39  68  91 125 170 211 257 319 374
#     4  10  23  41  63  96 128 169 216 259 318 378
#     4  10  22  40  64  98 133 161 207 264 319 386
#     4  10  22  41  66  96 129 166 208 263 325 378
#     4  11  24  43  64  92 131 171 217 265 308 372
#
# _framework density 22.400485
#
# number of rings (size 3 to 8) (size 9 to 14) (size 15 to 20)
#    0.000    1.600    2.000    1.800    0.000    7.200 
#    3.600    5.000    0.000    0.000    0.000    0.000 
#    0.000    0.000    0.000    0.000    0.000    0.000 
#
# Total GULP energy -111746.747709 kJ/mol
# GULP energy per Si atom -5587.337385 kJ/mol
# Density = 2.234950 g / cm^3
# Si number density = 22.400485 Si / 1000 Ang^3
#
#
#
# Elastic Constant Matrix: (Units=GPa)
#
#
# Indices 1 2 3 4 5 6 
#
# 1 79.9184 12.5027 32.2326 0.0024 -18.9603 0.0008
# 2 12.5027 69.7088 26.4466 0.0054 -0.2898 0.0032
# 3 32.2326 26.4466 79.8525 0.0081 -11.3330 0.0035
# 4 0.0024 0.0054 0.0081 23.0996 0.0037 6.2118
# 5 -18.9603 -0.2898 -11.3330 0.0037 30.4798 0.0011
# 6 0.0008 0.0032 0.0035 6.2118 0.0011 13.6612
#
#
#
# Elastic Compliance Matrix: (Units=1/GPa)
#
#
# Indices 1 2 3 4 5 6 
#
# 1 0.016798 -0.000986 -0.005249 -0.000001 0.008488 0.000001
# 2 -0.000986 0.016577 -0.005444 -0.000001 -0.002480 -0.000002
# 3 -0.005249 -0.005444 0.016864 -0.000004 0.002953 -0.000001
# 4 -0.000001 -0.000001 -0.000004 0.049322 -0.000008 -0.022427
# 5 0.008488 -0.002480 0.002953 -0.000008 0.039163 0.000000
# 6 0.000001 -0.000002 -0.000001 -0.022427 0.000000 0.083398
#
#
# Mechanical properties :
#
#
# Convention : Reuss Voigt Hill
#
# Bulk Modulus (GPa) = 37.20183 41.31596 39.25889
# Shear Modulus (GPa) = 19.65086 24.00130 21.82608
#
# Velocity S-wave (km/s) = 2.96506 3.27687 3.12486
# Velocity P-wave (km/s) = 5.32595 5.72726 5.53024
#
# Compressibility (1/GPa) = 0.02688040
#
# Stress axis : x y z
#
# Youngs Moduli (GPa) = 59.53114 60.32303 59.29712
#
# Poissons Ratio (x) = 0.05948 0.31127
# Poissons Ratio (y) = 0.05870 0.32283
# Poissons Ratio (z) = 0.31250 0.32842
#
# Static dielectric constant tensor:
#      x y z
#    x 1.833180 0.000000 -0.000140 
#    y 0.000000 1.824600 0.000000 
#    z -0.000140 0.000000 1.857570 
# 
# From -- ./inp_files/284644.got.cif
#   From: 2010.05.17/outbox.cif.g08.bks.cpg/sg12_143_cif.got.tgz:284644.got - 2010.06.03 13:09:07.
