data_PCOD9214813
_publ_section_title
;
Structure prediction by ZEFSAII (Michael W. Deem and Ramdas Pophale) SiO2 
 PCOD9214813
Probable space group: C 2/M
;
_chemical_formula_sum "Si O2"
_cell_formula_units_Z 48
_cell_length_a 13.228087
_cell_length_b 19.259112
_cell_length_c 10.661268
_cell_angle_alpha 90.000000
_cell_angle_beta 51.326650
_cell_angle_gamma 90.000000
_cell_volume 2120.499148
_symmetry_space_group_name_H-M "C 2/M"
_symmetry_group_IT_number 12
_symmetry_cell_setting 'monoclinic'
loop_
_space_group_symop_operation_xyz
x,y,z
-x,y,-z
-x,-y,-z
x,-y,z
1/2+x,1/2+y,z
1/2-x,1/2+y,-z
1/2-x,1/2-y,-z
1/2+x,1/2-y,z
loop_
_atom_site_type_symbol
_atom_site_label
_atom_site_fract_x
_atom_site_fract_y
_atom_site_fract_z
Si Si1 0.234967 0.080729 0.938747
Si Si2 0.599371 0.719314 0.536440
Si Si3 0.348397 0.863384 0.590656
Si Si4 0.355161 0.124825 0.099396
Si Si5 0.357731 0.701486 0.855313
Si Si6 0.241716 0.925610 0.436622
O O1 0.281945 0.113490 0.771452
O O2 0.202773 0.000000 0.949527
O O3 0.337684 0.088861 0.975713
O O4 0.123167 0.131725 0.077734
O O5 0.500000 0.712195 0.500000
O O6 0.687097 0.786083 0.435419
O O7 0.494781 0.737133 0.727084
O O8 0.653644 0.642605 0.512904
O O9 0.500000 0.859883 0.500000
O O10 0.324617 0.917849 0.498560
O O11 0.230372 0.175940 0.194093
O O12 0.327245 0.079545 0.244186
O O13 0.500000 0.153996 0.000000
O O14 0.250000 0.750000 0.000000
O O15 0.172319 0.000000 0.488978
#
# Coordination Sequence:
#
# PCOD9214813 Si02
#       6
#     8   8   8   8   8   8
#     4  10  22  40  64  94 131 172 216 270 334 395
#     4  11  22  44  69  96 137 177 225 278 335 403
#     4  11  24  42  68  95 134 178 225 279 335 400
#     4  10  23  39  64  96 130 169 220 277 329 396
#     4  10  22  42  65  93 130 175 222 270 335 401
#     4  12  26  42  66 103 136 175 226 277 340 404
#
# _framework density 22.636178999999998
#
# number of rings (size 3 to 8) (size 9 to 14) (size 15 to 20)
#    1.000    0.333    1.667    4.500    2.333    5.000 
#    0.000    0.833    0.000    2.000    0.000    0.000 
#    0.000    0.000    0.000    0.000    0.000    0.000 
#
# Total GULP energy -133624.426199 kJ/mol
# GULP energy per Si atom -5567.684425 kJ/mol
# Density = 2.258466 g / cm^3
# Si number density = 22.636179 Si / 1000 Ang^3
#
#
#
# Elastic Constant Matrix: (Units=GPa)
#
#
# Indices 1 2 3 4 5 6 
#
# 1 26.1266 24.9894 31.8769 0.0000 24.1686 0.0000
# 2 24.9894 151.1116 49.5650 0.0000 4.4457 0.0000
# 3 31.8769 49.5650 112.1122 0.0000 18.5878 0.0000
# 4 0.0000 0.0000 0.0000 -3.2784 0.0000 -4.7657
# 5 24.1686 4.4457 18.5878 0.0000 33.4997 0.0000
# 6 0.0000 0.0000 0.0000 -4.7657 0.0000 10.2443
#
#
#
# Elastic Compliance Matrix: (Units=1/GPa)
#
#
# Indices 1 2 3 4 5 6 
#
# 1 0.251344 -0.025847 -0.033636 0.000000 -0.159241 0.000000
# 2 -0.025847 0.010426 -0.000135 0.000000 0.017339 0.000000
# 3 -0.033636 -0.000135 0.015988 0.000000 0.015414 0.000000
# 4 0.000000 0.000000 0.000000 -0.181969 0.000000 -0.084653
# 5 -0.159241 0.017339 0.015414 0.000000 0.133883 0.000000
# 6 0.000000 0.000000 0.000000 -0.084653 0.000000 0.058234
#
#
# Mechanical properties :
#
#
# Convention : Reuss Voigt Hill
#
# Bulk Modulus (GPa) = 6.30832 55.80144 31.05488
# Shear Modulus (GPa) = 10.86996 20.28772 15.57884
#
# Velocity S-wave (km/s) = 2.19373 2.99699 2.62626
# Velocity P-wave (km/s) = 3.03471 6.05648 4.79012
#
# Compressibility (1/GPa) = 0.15852087
#
# Stress axis : x y z
#
# Youngs Moduli (GPa) = 3.97861 95.91237 62.54880
#
# Poissons Ratio (x) = 2.47908 2.10390
# Poissons Ratio (y) = 0.10284 0.00844
# Poissons Ratio (z) = 0.13383 0.01295
#
# Static dielectric constant tensor:
#      x y z
#    x 1.883030 0.000000 0.028770 
#    y 0.000000 1.878270 0.000000 
#    z 0.028770 0.000000 2.062790 
# 
# From -- ./inp_files/146939.got.cif
#   From: 2010.05.17/outbox.cif.g08.bks.cpg/sg12_74_cif.got.tgz:146939.got - 2010.06.03 13:09:07.
