data_PCOD9214700
_publ_section_title
;
Structure prediction by ZEFSAII (Michael W. Deem and Ramdas Pophale) SiO2 
 PCOD9214700
Probable space group: C 2/M
;
_chemical_formula_sum "Si O2"
_cell_formula_units_Z 64
_cell_length_a 11.847128
_cell_length_b 18.395745
_cell_length_c 14.240287
_cell_angle_alpha 90.000000
_cell_angle_beta 95.112575
_cell_angle_gamma 90.000000
_cell_volume 3091.134701
_symmetry_space_group_name_H-M "C 2/M"
_symmetry_group_IT_number 12
_symmetry_cell_setting 'monoclinic'
loop_
_space_group_symop_operation_xyz
x,y,z
-x,y,-z
-x,-y,-z
x,-y,z
1/2+x,1/2+y,z
1/2-x,1/2+y,-z
1/2-x,1/2-y,-z
1/2+x,1/2-y,z
loop_
_atom_site_type_symbol
_atom_site_label
_atom_site_fract_x
_atom_site_fract_y
_atom_site_fract_z
Si Si1 0.577011 0.333075 0.252485
Si Si2 0.130510 0.287408 0.527668
Si Si3 0.682641 0.913565 0.390549
Si Si4 0.743427 0.195792 0.087944
Si Si5 0.930843 0.917785 0.090729
Si Si6 0.325100 0.190866 0.248256
Si Si7 0.560044 0.835871 0.212614
Si Si8 0.052251 0.918709 0.606081
O O1 0.503508 0.368224 0.165480
O O2 0.707440 0.351899 0.245072
O O3 0.569042 0.246216 0.254183
O O4 0.525260 0.365303 0.341753
O O5 0.250000 0.250000 0.500000
O O6 0.134726 0.364354 0.471772
O O7 0.143514 0.292591 0.641301
O O8 0.000000 0.258613 0.500000
O O9 0.624299 0.888582 0.289125
O O10 0.816578 0.897321 0.389582
O O11 0.669621 0.000000 0.405618
O O12 0.813684 0.124241 0.069936
O O13 0.798991 0.238393 0.181596
O O14 0.620214 0.172151 0.116544
O O15 0.750000 0.250000 0.000000
O O16 0.914996 0.000000 0.124005
O O17 0.000000 0.920167 0.000000
O O18 0.427068 0.148686 0.205840
O O19 0.000000 0.922569 0.500000
O O20 0.047523 0.000000 0.647682
#
# Coordination Sequence:
#
# PCOD9214700 Si02
#       8
#     8   8   8   8   8   8   8   8
#     4  11  22  39  63  95 136 169 221 282 344 400
#     4  12  26  43  71 102 141 186 235 298 354 424
#     4  11  25  45  68  98 137 187 235 284 354 430
#     4  11  24  42  71 101 140 181 229 290 354 424
#     4  11  23  42  70 103 135 170 219 281 351 418
#     4  11  24  41  63  99 134 177 235 281 344 410
#     4  11  23  42  63  96 133 171 233 283 335 421
#     4  10  22  40  63  92 128 171 221 279 342 405
#
# _framework density 20.704370999999998
#
# number of rings (size 3 to 8) (size 9 to 14) (size 15 to 20)
#    0.000    1.000    2.500    4.875    3.500    2.250 
#    0.000    1.875    0.000    1.500    0.000    3.500 
#    0.000    0.000    0.000    0.000    0.000    0.000 
#
# Total GULP energy -178802.021381 kJ/mol
# GULP energy per Si atom -5587.563168 kJ/mol
# Density = 2.065725 g / cm^3
# Si number density = 20.704371 Si / 1000 Ang^3
#
#
#
# Elastic Constant Matrix: (Units=GPa)
#
#
# Indices 1 2 3 4 5 6 
#
# 1 158.2887 47.7221 23.9260 0.0000 -22.8553 0.0000
# 2 47.7221 77.0095 35.2367 0.0000 -13.5757 0.0000
# 3 23.9260 35.2367 91.4650 0.0000 -24.3773 0.0000
# 4 0.0000 0.0000 0.0000 21.1561 0.0000 0.0769
# 5 -22.8553 -13.5757 -24.3773 0.0000 32.9310 0.0000
# 6 0.0000 0.0000 0.0000 0.0769 0.0000 30.5462
#
#
#
# Elastic Compliance Matrix: (Units=1/GPa)
#
#
# Indices 1 2 3 4 5 6 
#
# 1 0.008249 -0.004717 0.000831 0.000000 0.004395 0.000000
# 2 -0.004717 0.018628 -0.005940 0.000000 0.000008 0.000000
# 3 0.000831 -0.005940 0.015579 0.000000 0.009660 0.000000
# 4 0.000000 0.000000 0.000000 0.047268 0.000000 -0.000119
# 5 0.004395 0.000008 0.009660 0.000000 0.040572 0.000000
# 6 0.000000 0.000000 0.000000 -0.000119 0.000000 0.032738
#
#
# Mechanical properties :
#
#
# Convention : Reuss Voigt Hill
#
# Bulk Modulus (GPa) = 43.85405 60.05921 51.95663
# Shear Modulus (GPa) = 26.27616 31.58522 28.93069
#
# Velocity S-wave (km/s) = 3.56632 3.91005 3.74213
# Velocity P-wave (km/s) = 6.17942 7.03247 6.61970
#
# Compressibility (1/GPa) = 0.02280291
#
# Stress axis : x y z
#
# Youngs Moduli (GPa) = 121.23046 53.68261 64.18939
#
# Poissons Ratio (x) = 0.25322 -0.05334
# Poissons Ratio (y) = 0.57185 0.38130
# Poissons Ratio (z) = -0.10073 0.31889
#
# Static dielectric constant tensor:
#      x y z
#    x 1.790790 0.000000 -0.000260 
#    y 0.000000 1.746750 0.000000 
#    z -0.000260 0.000000 1.720540 
# 
# From -- ./inp_files/206678.got.cif
#   From: 2010.05.17/outbox.cif.g08.bks.cpg/sg12_104_cif.got.tgz:206678.got - 2010.06.03 13:09:07.
