data_PCOD9214186
_publ_section_title
;
Structure prediction by ZEFSAII (Michael W. Deem and Ramdas Pophale) SiO2 
 PCOD9214186
Probable space group: C 2/M
;
_chemical_formula_sum "Si O2"
_cell_formula_units_Z 56
_cell_length_a 8.179120
_cell_length_b 29.487540
_cell_length_c 9.931165
_cell_angle_alpha 90.000000
_cell_angle_beta 113.299683
_cell_angle_gamma 90.000000
_cell_volume 2199.885933
_symmetry_space_group_name_H-M "C 2/M"
_symmetry_group_IT_number 12
_symmetry_cell_setting 'monoclinic'
loop_
_space_group_symop_operation_xyz
x,y,z
-x,y,-z
-x,-y,-z
x,-y,z
1/2+x,1/2+y,z
1/2-x,1/2+y,-z
1/2-x,1/2-y,-z
1/2+x,1/2-y,z
loop_
_atom_site_type_symbol
_atom_site_label
_atom_site_fract_x
_atom_site_fract_y
_atom_site_fract_z
Si Si1 0.323721 0.812949 0.033840
Si Si2 0.999034 0.000000 0.664109
Si Si3 0.587087 0.299833 0.736074
Si Si4 0.869670 0.385293 0.569865
Si Si5 0.682033 0.903789 0.850851
Si Si6 0.078085 0.711715 0.340083
Si Si7 0.803850 0.000000 0.871709
Si Si8 0.540902 0.401763 0.310318
O O1 0.278016 0.866459 0.024969
O O2 0.388844 0.800389 0.205464
O O3 0.500000 0.806885 0.000000
O O4 0.147402 0.791151 0.911203
O O5 0.826713 0.000000 0.714036
O O6 0.067014 0.949137 0.727312
O O7 0.000000 0.000000 0.500000
O O8 0.765566 0.289822 0.715179
O O9 0.444443 0.264358 0.632351
O O10 0.546345 0.352592 0.703983
O O11 0.869095 0.330688 0.550036
O O12 0.678270 0.405311 0.480942
O O13 0.000000 0.405661 0.500000
O O14 0.978556 0.394250 0.740035
O O15 0.704820 0.955755 0.890500
O O16 0.827975 0.897205 0.777827
O O17 0.000000 0.000000 0.000000
#
# Coordination Sequence:
#
# PCOD9214186 Si02
#       8
#     8   4   8   8   8   8   4   8
#     4   9  20  40  61  88 127 171 212 266 332 406
#     4  10  24  43  65  94 133 171 224 269 336 401
#     4  11  24  38  62  93 130 168 219 267 340 393
#     4   9  20  40  61  85 124 165 215 262 325 395
#     4   9  20  39  63  88 129 169 210 272 336 396
#     4  10  23  40  59  90 128 168 215 269 324 407
#     4  10  22  39  64 106 133 168 228 287 339 405
#     4  10  23  40  64  95 120 171 219 276 329 391
#
# _framework density 25.455867000000001
#
# number of rings (size 3 to 8) (size 9 to 14) (size 15 to 20)
#    0.000    2.286    0.000    0.429   12.000    1.143 
#    0.000    3.214    0.000    0.000    0.000    0.000 
#    0.000    0.000    0.000    0.000    0.000    0.000 
#
# Total GULP energy -156214.787563 kJ/mol
# GULP energy per Si atom -5579.099556 kJ/mol
# Density = 2.539793 g / cm^3
# Si number density = 25.455867 Si / 1000 Ang^3
#
#
#
# Elastic Constant Matrix: (Units=GPa)
#
#
# Indices 1 2 3 4 5 6 
#
# 1 64.8452 32.5265 12.7184 0.0000 3.6884 0.0000
# 2 32.5265 181.3649 8.9375 0.0000 22.2753 0.0000
# 3 12.7184 8.9375 65.1261 0.0000 11.0699 0.0000
# 4 0.0000 0.0000 0.0000 23.7667 0.0000 -5.8154
# 5 3.6884 22.2753 11.0699 0.0000 24.1874 0.0000
# 6 0.0000 0.0000 0.0000 -5.8154 0.0000 36.6259
#
#
#
# Elastic Compliance Matrix: (Units=1/GPa)
#
#
# Indices 1 2 3 4 5 6 
#
# 1 0.017576 -0.003209 -0.003295 0.000000 0.001783 0.000000
# 2 -0.003209 0.006804 0.000732 0.000000 -0.006111 0.000000
# 3 -0.003295 0.000732 0.017271 0.000000 -0.008076 0.000000
# 4 0.000000 0.000000 0.000000 0.043776 0.000000 0.006951
# 5 0.001783 -0.006111 -0.008076 0.000000 0.050396 0.000000
# 6 0.000000 0.000000 0.000000 0.006951 0.000000 0.028407
#
#
# Mechanical properties :
#
#
# Convention : Reuss Voigt Hill
#
# Bulk Modulus (GPa) = 33.21596 46.63344 39.92470
# Shear Modulus (GPa) = 26.90941 34.05959 30.48450
#
# Velocity S-wave (km/s) = 3.25484 3.66182 3.46431
# Velocity P-wave (km/s) = 5.21556 6.01977 5.63204
#
# Compressibility (1/GPa) = 0.03010601
#
# Stress axis : x y z
#
# Youngs Moduli (GPa) = 56.89688 146.97773 57.90206
#
# Poissons Ratio (x) = 0.47160 0.19079
# Poissons Ratio (y) = 0.18256 -0.04237
# Poissons Ratio (z) = 0.18748 -0.10755
#
# Static dielectric constant tensor:
#      x y z
#    x 1.984330 0.000000 -0.047720 
#    y 0.000000 2.072360 0.000000 
#    z -0.047720 0.000000 2.126100 
# 
# From -- ./inp_files/125876.got.cif
#   From: 2010.05.17/outbox.cif.g08.bks.cpg/sg12_63_cif.got.tgz:125876.got - 2010.06.03 13:09:07.
