data_PCOD9214099
_publ_section_title
;
Structure prediction by ZEFSAII (Michael W. Deem and Ramdas Pophale) SiO2 
 PCOD9214099
Probable space group: C 2/M
;
_chemical_formula_sum "Si O2"
_cell_formula_units_Z 40
_cell_length_a 17.009842
_cell_length_b 20.674809
_cell_length_c 7.879814
_cell_angle_alpha 90.000000
_cell_angle_beta 138.795871
_cell_angle_gamma 90.000000
_cell_volume 1825.467957
_symmetry_space_group_name_H-M "C 2/M"
_symmetry_group_IT_number 12
_symmetry_cell_setting 'monoclinic'
loop_
_space_group_symop_operation_xyz
x,y,z
-x,y,-z
-x,-y,-z
x,-y,z
1/2+x,1/2+y,z
1/2-x,1/2+y,-z
1/2-x,1/2-y,-z
1/2+x,1/2-y,z
loop_
_atom_site_type_symbol
_atom_site_label
_atom_site_fract_x
_atom_site_fract_y
_atom_site_fract_z
Si Si1 0.202780 0.382818 0.539925
Si Si2 0.140566 0.265187 0.689006
Si Si3 0.128239 0.000000 0.619315
Si Si4 0.641058 0.500000 0.232590
Si Si5 0.732730 0.634716 0.745185
Si Si6 0.455087 0.927400 0.233465
O O1 0.187479 0.321855 0.639670
O O2 0.298354 0.437006 0.751802
O O3 0.238909 0.366478 0.408132
O O4 0.074342 0.417026 0.320757
O O5 0.142808 0.193958 0.611204
O O6 0.000000 0.277997 0.500000
O O7 0.250000 0.250000 0.000000
O O8 0.157822 0.000000 0.463673
O O9 0.177468 0.929086 0.740718
O O10 0.000000 0.000000 0.500000
O O11 0.500000 0.500000 0.000000
O O12 0.863122 0.630465 0.046826
O O13 0.500000 0.926891 0.500000
O O14 0.406265 0.000000 0.118802
#
# Coordination Sequence:
#
# PCOD9214099 Si02
#       6
#     8   8   4   4   8   8
#     4  11  23  43  67  98 134 180 233 289 357 425
#     4  12  27  47  69 101 142 189 242 294 359 431
#     4  10  22  39  62  93 127 172 224 276 347 412
#     4  10  24  41  64  97 131 170 222 290 355 420
#     4  11  23  42  67  98 135 180 232 291 352 421
#     4  11  22  38  66 103 137 178 232 291 351 421
#
# _framework density 21.912188
#
# number of rings (size 3 to 8) (size 9 to 14) (size 15 to 20)
#    0.000    1.000    2.000    4.800    0.000    7.200 
#    0.000    4.000    0.000    0.000    0.000    0.000 
#    0.000    0.000    0.000    0.000    0.000    0.000 
#
# Total GULP energy -111410.678005 kJ/mol
# GULP energy per Si atom -5570.533900 kJ/mol
# Density = 2.186232 g / cm^3
# Si number density = 21.912188 Si / 1000 Ang^3
#
#
#
# Elastic Constant Matrix: (Units=GPa)
#
#
# Indices 1 2 3 4 5 6 
#
# 1 123.2171 63.6546 43.7508 0.0000 29.6073 0.0000
# 2 63.6546 157.2751 59.6916 0.0000 29.4211 0.0000
# 3 43.7508 59.6916 90.8422 0.0000 17.5553 0.0000
# 4 0.0000 0.0000 0.0000 21.9786 0.0000 36.0293
# 5 29.6073 29.4211 17.5553 0.0000 39.7110 0.0000
# 6 0.0000 0.0000 0.0000 36.0293 0.0000 -16.2098
#
#
#
# Elastic Compliance Matrix: (Units=1/GPa)
#
#
# Indices 1 2 3 4 5 6 
#
# 1 0.011857 -0.002658 -0.002882 0.000000 -0.005597 0.000000
# 2 -0.002658 0.009750 -0.004498 0.000000 -0.003253 0.000000
# 3 -0.002882 -0.004498 0.015627 0.000000 -0.001427 0.000000
# 4 0.000000 0.000000 0.000000 0.009798 0.000000 0.021778
# 5 -0.005597 -0.003253 -0.001427 0.000000 0.032396 0.000000
# 6 0.000000 0.000000 0.000000 0.021778 0.000000 -0.013285
#
#
# Mechanical properties :
#
#
# Convention : Reuss Voigt Hill
#
# Bulk Modulus (GPa) = 58.28095 78.39207 68.33651
# Shear Modulus (GPa) = 54.38392 22.71178 38.54785
#
# Velocity S-wave (km/s) = 4.98727 3.22295 4.19883
# Velocity P-wave (km/s) = 7.73428 7.05004 7.40007
#
# Compressibility (1/GPa) = 0.01715827
#
# Stress axis : x y z
#
# Youngs Moduli (GPa) = 84.33683 102.56752 63.98995
#
# Poissons Ratio (x) = 0.27263 0.18445
# Poissons Ratio (y) = 0.22417 0.28780
# Poissons Ratio (z) = 0.24309 0.46130
#
# Static dielectric constant tensor:
#      x y z
#    x 1.761670 0.000000 -0.005430 
#    y 0.000000 1.930020 0.000000 
#    z -0.005430 0.000000 1.912300 
# 
# From -- ./inp_files/77803.got.cif
#   From: 2010.05.17/outbox.cif.g08.bks.cpg/sg12_39_cif.got.tgz:77803.got - 2010.06.03 13:09:07.
