data_PCOD9214478
_publ_section_title
;
Structure prediction by ZEFSAII (Michael W. Deem and Ramdas Pophale) SiO2 
 PCOD9214478
Probable space group: C 2/M
;
_chemical_formula_sum "Si O2"
_cell_formula_units_Z 56
_cell_length_a 30.287870
_cell_length_b 14.362427
_cell_length_c 12.195357
_cell_angle_alpha 90.000000
_cell_angle_beta 31.116439
_cell_angle_gamma 90.000000
_cell_volume 2741.548467
_symmetry_space_group_name_H-M "C 2/M"
_symmetry_group_IT_number 12
_symmetry_cell_setting 'monoclinic'
loop_
_space_group_symop_operation_xyz
x,y,z
-x,y,-z
-x,-y,-z
x,-y,z
1/2+x,1/2+y,z
1/2-x,1/2+y,-z
1/2-x,1/2-y,-z
1/2+x,1/2-y,z
loop_
_atom_site_type_symbol
_atom_site_label
_atom_site_fract_x
_atom_site_fract_y
_atom_site_fract_z
Si Si1 0.441346 0.108545 0.229792
Si Si2 0.050293 0.782672 0.649510
Si Si3 0.759661 0.888994 0.359630
Si Si4 0.318686 0.673117 0.817563
Si Si5 0.188652 0.602049 0.928525
Si Si6 0.872810 0.193283 0.934550
Si Si7 0.672151 0.390656 0.552643
O O1 0.464865 0.178372 0.276448
O O2 0.341676 0.124567 0.413871
O O3 0.451862 0.000000 0.236593
O O4 0.500000 0.127735 0.000000
O O5 0.111729 0.785923 0.413627
O O6 0.099397 0.835159 0.643246
O O7 0.961299 0.829190 0.805630
O O8 0.807970 0.857460 0.366995
O O9 0.773874 0.000000 0.317415
O O10 0.795566 0.837305 0.177187
O O11 0.262287 0.602739 0.865738
O O12 0.362710 0.645111 0.837772
O O13 0.250000 0.750000 0.000000
O O14 0.146659 0.500000 0.016474
O O15 0.240845 0.615226 0.704031
O O16 0.132858 0.694198 0.066812
O O17 0.649470 0.500000 0.604804
#
# Coordination Sequence:
#
# PCOD9214478 Si02
#       7
#     8   8   8   8   8   8   8
#     4  10  23  40  59  88 124 160 201 246 294 356
#     4  11  23  37  60  90 122 157 197 247 306 351
#     4  10  22  40  61  87 119 160 201 244 301 358
#     4   9  19  40  60  81 113 155 203 248 289 347
#     4   9  19  36  60  86 111 153 200 241 292 348
#     4  11  23  36  60  90 122 158 194 248 298 360
#     4   9  20  38  60  83 116 154 200 247 288 352
#
# _framework density 20.426411999999999
#
# number of rings (size 3 to 8) (size 9 to 14) (size 15 to 20)
#    0.000    2.143    0.000    3.000    4.000    2.857 
#    0.000    5.714    0.000    8.571    0.000    0.000 
#    0.000    0.000    0.000    0.000    0.000    0.000 
#
# Total GULP energy -156352.445830 kJ/mol
# GULP energy per Si atom -5584.015922 kJ/mol
# Density = 2.037992 g / cm^3
# Si number density = 20.426412 Si / 1000 Ang^3
#
#
#
# Elastic Constant Matrix: (Units=GPa)
#
#
# Indices 1 2 3 4 5 6 
#
# 1 110.0007 13.6241 23.9228 0.0000 21.7151 0.0000
# 2 13.6241 44.9377 20.1984 0.0000 13.0186 0.0000
# 3 23.9228 20.1984 85.0164 0.0000 9.1786 0.0000
# 4 0.0000 0.0000 0.0000 11.7590 0.0000 -10.8671
# 5 21.7151 13.0186 9.1786 0.0000 30.1392 0.0000
# 6 0.0000 0.0000 0.0000 -10.8671 0.0000 -3.1893
#
#
#
# Elastic Compliance Matrix: (Units=1/GPa)
#
#
# Indices 1 2 3 4 5 6 
#
# 1 0.011026 -0.000252 -0.002271 0.000000 -0.007144 0.000000
# 2 -0.000252 0.027700 -0.005416 0.000000 -0.010134 0.000000
# 3 -0.002271 -0.005416 0.013710 0.000000 -0.000199 0.000000
# 4 0.000000 0.000000 0.000000 0.020497 0.000000 -0.069842
# 5 -0.007144 -0.010134 -0.000199 0.000000 0.042764 0.000000
# 6 0.000000 0.000000 0.000000 -0.069842 0.000000 -0.075574
#
#
# Mechanical properties :
#
#
# Convention : Reuss Voigt Hill
#
# Bulk Modulus (GPa) = 27.35516 39.49393 33.42455
# Shear Modulus (GPa) = 73.32636 19.88908 46.60772
#
# Velocity S-wave (km/s) = 5.99798 3.12379 4.78194
# Velocity P-wave (km/s) = 7.83510 5.69100 6.84749
#
# Compressibility (1/GPa) = 0.03655617
#
# Stress axis : x y z
#
# Youngs Moduli (GPa) = 90.69201 36.10169 72.94034
#
# Poissons Ratio (x) = 0.00911 0.16568
# Poissons Ratio (y) = 0.02289 0.39503
# Poissons Ratio (z) = 0.20601 0.19552
#
# Static dielectric constant tensor:
#      x y z
#    x 1.753490 0.000000 -0.010390 
#    y 0.000000 1.749540 0.000000 
#    z -0.010390 0.000000 1.690750 
# 
# From -- ./inp_files/189613.got.cif
#   From: 2010.05.17/outbox.cif.g08.bks.cpg/sg12_95_cif.got.tgz:189613.got - 2010.06.03 13:09:07.
