data_PCOD9214946
_publ_section_title
;
Structure prediction by ZEFSAII (Michael W. Deem and Ramdas Pophale) SiO2 
 PCOD9214946
Probable space group: C 2/M
;
_chemical_formula_sum "Si O2"
_cell_formula_units_Z 56
_cell_length_a 23.907431
_cell_length_b 15.446125
_cell_length_c 8.945645
_cell_angle_alpha 90.000000
_cell_angle_beta 113.635112
_cell_angle_gamma 90.000000
_cell_volume 3026.322175
_symmetry_space_group_name_H-M "C 2/M"
_symmetry_group_IT_number 12
_symmetry_cell_setting 'monoclinic'
loop_
_space_group_symop_operation_xyz
x,y,z
-x,y,-z
-x,-y,-z
x,-y,z
1/2+x,1/2+y,z
1/2-x,1/2+y,-z
1/2-x,1/2-y,-z
1/2+x,1/2-y,z
loop_
_atom_site_type_symbol
_atom_site_label
_atom_site_fract_x
_atom_site_fract_y
_atom_site_fract_z
Si Si1 0.674492 0.594696 0.607244
Si Si2 0.984785 0.597819 0.311360
Si Si3 0.848847 0.853586 0.754000
Si Si4 0.931033 0.000000 0.998047
Si Si5 0.377476 0.099386 0.998185
Si Si6 0.568046 0.500000 0.639227
Si Si7 0.947437 0.709109 0.844631
Si Si8 0.734289 0.770936 0.153365
O O1 0.704916 0.500000 0.672007
O O2 0.668869 0.603781 0.422579
O O3 0.608344 0.580369 0.615992
O O4 0.710956 0.676684 0.708869
O O5 0.998399 0.500000 0.269261
O O6 0.000000 0.599324 0.500000
O O7 0.023965 0.670296 0.272249
O O8 0.914174 0.612799 0.192208
O O9 0.892282 0.773115 0.759398
O O10 0.791805 0.812304 0.783977
O O11 0.890534 0.918414 0.896873
O O12 0.000000 0.000000 0.000000
O O13 0.934274 0.000000 0.182769
O O14 0.425139 0.129110 0.922498
O O15 0.321041 0.161483 0.917328
O O16 0.360666 0.000000 0.966066
O O17 0.500000 0.500000 0.500000
O O18 0.000000 0.754394 0.000000
O O19 0.750000 0.750000 0.000000
#
# Coordination Sequence:
#
# PCOD9214946 Si02
#       8
#     8   8   8   4   8   4   8   8
#     4  10  22  42  63  87 124 158 206 255 319 382
#     4   9  17  31  53  83 118 150 188 243 298 356
#     4  11  22  39  61  86 121 159 209 260 312 377
#     4  12  22  40  64  92 126 166 213 263 324 387
#     4   9  18  34  55  78 111 153 197 231 290 365
#     4  10  22  40  66  94 122 162 206 257 318 387
#     4   9  18  32  53  82 112 150 190 235 295 360
#     4  11  23  39  60  88 119 158 207 258 314 371
#
# _framework density 18.50431
#
# number of rings (size 3 to 8) (size 9 to 14) (size 15 to 20)
#    0.429    1.571    0.714    3.429    0.000    2.857 
#    1.286    5.000    0.000    3.429    0.000    0.000 
#    0.000    0.000    0.000    0.000    0.000    0.000 
#
# Total GULP energy -155996.859431 kJ/mol
# GULP energy per Si atom -5571.316408 kJ/mol
# Density = 1.846219 g / cm^3
# Si number density = 18.504310 Si / 1000 Ang^3
#
#
#
# Elastic Constant Matrix: (Units=GPa)
#
#
# Indices 1 2 3 4 5 6 
#
# 1 103.0294 39.9192 45.6308 0.0000 -1.3183 0.0000
# 2 39.9192 74.7988 40.3929 0.0000 -0.8834 0.0000
# 3 45.6308 40.3929 113.6620 0.0000 -5.1058 0.0000
# 4 0.0000 0.0000 0.0000 30.3724 0.0000 6.7262
# 5 -1.3183 -0.8834 -5.1058 0.0000 25.3167 0.0000
# 6 0.0000 0.0000 0.0000 6.7262 0.0000 25.1310
#
#
#
# Elastic Compliance Matrix: (Units=1/GPa)
#
#
# Indices 1 2 3 4 5 6 
#
# 1 0.013261 -0.005197 -0.003485 0.000000 -0.000194 0.000000
# 2 -0.005197 0.018591 -0.004544 0.000000 -0.000538 0.000000
# 3 -0.003485 -0.004544 0.011905 0.000000 0.002061 0.000000
# 4 0.000000 0.000000 0.000000 0.034999 0.000000 -0.009367
# 5 -0.000194 -0.000538 0.002061 0.000000 0.039886 0.000000
# 6 0.000000 0.000000 0.000000 -0.009367 0.000000 0.042299
#
#
# Mechanical properties :
#
#
# Convention : Reuss Voigt Hill
#
# Bulk Modulus (GPa) = 57.79620 60.37511 59.08566
# Shear Modulus (GPa) = 25.88504 27.20052 26.54278
#
# Velocity S-wave (km/s) = 3.74420 3.83816 3.79147
# Velocity P-wave (km/s) = 7.07063 7.23467 7.15312
#
# Compressibility (1/GPa) = 0.01730217
#
# Stress axis : x y z
#
# Youngs Moduli (GPa) = 75.40999 53.79064 83.99957
#
# Poissons Ratio (x) = 0.27956 0.29277
# Poissons Ratio (y) = 0.39192 0.38173
# Poissons Ratio (z) = 0.26284 0.24445
#
# Static dielectric constant tensor:
#      x y z
#    x 1.680640 0.000000 0.006510 
#    y 0.000000 1.654290 0.000000 
#    z 0.006510 0.000000 1.636020 
# 
# From -- ./inp_files/97016.got.cif
#   From: 2010.05.17/outbox.cif.g08.bks.cpg/sg12_49_cif.got.tgz:97016.got - 2010.06.03 13:09:07.
