data_PCOD9214767
_publ_section_title
;
Structure prediction by ZEFSAII (Michael W. Deem and Ramdas Pophale) SiO2 
 PCOD9214767
Probable space group: C 2/M
;
_chemical_formula_sum "Si O2"
_cell_formula_units_Z 48
_cell_length_a 10.969851
_cell_length_b 29.505701
_cell_length_c 8.948088
_cell_angle_alpha 90.000000
_cell_angle_beta 52.628594
_cell_angle_gamma 90.000000
_cell_volume 2301.705547
_symmetry_space_group_name_H-M "C 2/M"
_symmetry_group_IT_number 12
_symmetry_cell_setting 'monoclinic'
loop_
_space_group_symop_operation_xyz
x,y,z
-x,y,-z
-x,-y,-z
x,-y,z
1/2+x,1/2+y,z
1/2-x,1/2+y,-z
1/2-x,1/2-y,-z
1/2+x,1/2-y,z
loop_
_atom_site_type_symbol
_atom_site_label
_atom_site_fract_x
_atom_site_fract_y
_atom_site_fract_z
Si Si1 0.019893 0.768815 0.660559
Si Si2 0.339209 0.313596 0.037378
Si Si3 0.863163 0.383300 0.000757
Si Si4 0.079927 0.417880 0.588577
Si Si5 0.800862 0.683476 0.547664
Si Si6 0.318875 0.552243 0.638850
O O1 0.102048 0.720223 0.616735
O O2 0.132769 0.811275 0.606281
O O3 0.000000 0.771799 0.500000
O O4 0.892329 0.775335 0.881054
O O5 0.500000 0.328528 0.000000
O O6 0.248506 0.350033 0.005909
O O7 0.225531 0.301716 0.259677
O O8 0.952713 0.413670 0.812677
O O9 0.763633 0.413896 0.185717
O O10 0.000000 0.361269 0.000000
O O11 0.131649 0.366257 0.512030
O O12 0.228952 0.441542 0.548460
O O13 0.000000 0.437334 0.500000
O O14 0.500000 0.562031 0.500000
O O15 0.300055 0.500000 0.700161
#
# Coordination Sequence:
#
# PCOD9214767 Si02
#       6
#     8   8   8   8   8   8
#     4  10  23  37  60  89 123 181 221 282 311 376
#     4  10  22  40  64  90 126 178 220 276 319 377
#     4  10  23  39  66  98 127 169 211 269 320 390
#     4  11  22  40  69  96 130 175 209 270 320 388
#     4  10  22  42  57  90 134 167 226 270 326 370
#     4  10  25  46  69  99 133 166 207 264 324 397
#
# _framework density 20.854101
#
# number of rings (size 3 to 8) (size 9 to 14) (size 15 to 20)
#    0.000    1.833    1.667    0.500    9.333    4.000 
#    0.000    4.167    0.000    2.500    0.000    0.000 
#    0.000    0.000    0.000    0.000    0.000    0.000 
#
# Total GULP energy -133888.563605 kJ/mol
# GULP energy per Si atom -5578.690150 kJ/mol
# Density = 2.080664 g / cm^3
# Si number density = 20.854101 Si / 1000 Ang^3
#
#
#
# Elastic Constant Matrix: (Units=GPa)
#
#
# Indices 1 2 3 4 5 6 
#
# 1 150.8514 34.1073 52.2335 0.0000 -1.1674 0.0000
# 2 34.1073 58.0514 40.0056 0.0000 -12.3312 0.0000
# 3 52.2335 40.0056 98.6983 0.0000 -0.5206 0.0000
# 4 0.0000 0.0000 0.0000 -3.3667 0.0000 19.7061
# 5 -1.1674 -12.3312 -0.5206 0.0000 36.7232 0.0000
# 6 0.0000 0.0000 0.0000 19.7061 0.0000 -8.0337
#
#
#
# Elastic Compliance Matrix: (Units=1/GPa)
#
#
# Indices 1 2 3 4 5 6 
#
# 1 0.008406 -0.002808 -0.003314 0.000000 -0.000723 0.000000
# 2 -0.002808 0.027369 -0.009560 0.000000 0.008965 0.000000
# 3 -0.003314 -0.009560 0.015744 0.000000 -0.003092 0.000000
# 4 0.000000 0.000000 0.000000 0.022237 0.000000 0.054545
# 5 -0.000723 0.008965 -0.003092 0.000000 0.030174 0.000000
# 6 0.000000 0.000000 0.000000 0.054545 0.000000 0.009319
#
#
# Mechanical properties :
#
#
# Convention : Reuss Voigt Hill
#
# Bulk Modulus (GPa) = 49.61730 62.25488 55.93609
# Shear Modulus (GPa) = 33.04006 17.14819 25.09413
#
# Velocity S-wave (km/s) = 3.98470 2.87068 3.47265
# Velocity P-wave (km/s) = 6.70930 6.39571 6.55438
#
# Compressibility (1/GPa) = 0.02015426
#
# Stress axis : x y z
#
# Youngs Moduli (GPa) = 118.96309 36.53813 63.51483
#
# Poissons Ratio (x) = 0.10262 0.21049
# Poissons Ratio (y) = 0.33411 0.60719
# Poissons Ratio (z) = 0.39425 0.34930
#
# Static dielectric constant tensor:
#      x y z
#    x 1.835820 0.000000 0.000460 
#    y 0.000000 1.715550 0.000000 
#    z 0.000460 0.000000 1.749570 
# 
# From -- ./inp_files/52412.got.cif
#   From: 2010.05.17/outbox.cif.g08.bks.cpg/sg12_27_cif.got.tgz:52412.got - 2010.06.03 13:09:07.
