data_PCOD9214021
_publ_section_title
;
Structure prediction by ZEFSAII (Michael W. Deem and Ramdas Pophale) SiO2 
 PCOD9214021
Probable space group: C 2/M
;
_chemical_formula_sum "Si O2"
_cell_formula_units_Z 56
_cell_length_a 10.371021
_cell_length_b 21.286784
_cell_length_c 11.979636
_cell_angle_alpha 90.000000
_cell_angle_beta 107.585880
_cell_angle_gamma 90.000000
_cell_volume 2521.093239
_symmetry_space_group_name_H-M "C 2/M"
_symmetry_group_IT_number 12
_symmetry_cell_setting 'monoclinic'
loop_
_space_group_symop_operation_xyz
x,y,z
-x,y,-z
-x,-y,-z
x,-y,z
1/2+x,1/2+y,z
1/2-x,1/2+y,-z
1/2-x,1/2-y,-z
1/2+x,1/2-y,z
loop_
_atom_site_type_symbol
_atom_site_label
_atom_site_fract_x
_atom_site_fract_y
_atom_site_fract_z
Si Si1 0.036120 0.356069 0.625601
Si Si2 0.002676 0.930122 0.879898
Si Si3 0.798103 0.429140 0.865066
Si Si4 0.990314 0.243361 0.766740
Si Si5 0.271885 0.928181 0.594952
Si Si6 0.209905 0.288440 0.100601
Si Si7 0.661070 0.364926 0.359469
O O1 0.190731 0.374271 0.654576
O O2 0.000000 0.321201 0.500000
O O3 0.014905 0.312361 0.725643
O O4 0.926603 0.411231 0.604138
O O5 0.934815 0.899162 0.754809
O O6 0.158894 0.936112 0.893440
O O7 0.941113 0.000000 0.877382
O O8 0.000000 0.896750 0.000000
O O9 0.865653 0.500000 0.889617
O O10 0.764959 0.418831 0.725467
O O11 0.845559 0.360327 0.922049
O O12 0.902871 0.250803 0.857371
O O13 0.890050 0.206069 0.658819
O O14 0.138292 0.210724 0.805690
O O15 0.174471 0.888369 0.489437
O O16 0.241995 0.000000 0.561921
O O17 0.250000 0.250000 0.000000
#
# Coordination Sequence:
#
# PCOD9214021 Si02
#       7
#     8   8   8   8   8   8   8
#     4  10  23  40  62  94 130 174 224 276 342 413
#     4  10  22  39  61  90 128 170 218 277 342 403
#     4  10  22  42  68  96 131 179 228 284 350 408
#     4  12  24  43  64 100 134 178 228 286 351 406
#     4  10  22  42  67  96 135 182 230 282 341 416
#     4  12  26  44  72  99 137 183 240 289 350 421
#     4  11  23  38  65  96 134 172 228 274 347 409
#
# _framework density 22.212585000000001
#
# number of rings (size 3 to 8) (size 9 to 14) (size 15 to 20)
#    0.000    1.286    4.286    0.857    2.000    7.143 
#    0.000    2.143    0.000    2.571    0.000    0.000 
#    0.000    0.000    0.000    0.000    0.000    0.000 
#
# Total GULP energy -156042.819997 kJ/mol
# GULP energy per Si atom -5572.957857 kJ/mol
# Density = 2.216203 g / cm^3
# Si number density = 22.212585 Si / 1000 Ang^3
#
#
#
# Elastic Constant Matrix: (Units=GPa)
#
#
# Indices 1 2 3 4 5 6 
#
# 1 73.8674 -2.4311 21.1962 0.0000 -11.9733 0.0000
# 2 -2.4311 95.7576 17.9444 0.0000 -3.5253 0.0000
# 3 21.1962 17.9444 66.7475 0.0000 -12.6873 0.0000
# 4 0.0000 0.0000 0.0000 28.9896 0.0000 -5.4782
# 5 -11.9733 -3.5253 -12.6873 0.0000 37.0950 0.0000
# 6 0.0000 0.0000 0.0000 -5.4782 0.0000 15.2199
#
#
#
# Elastic Compliance Matrix: (Units=1/GPa)
#
#
# Indices 1 2 3 4 5 6 
#
# 1 0.015483 0.001389 -0.004615 0.000000 0.003551 0.000000
# 2 0.001389 0.011122 -0.003364 0.000000 0.000355 0.000000
# 3 -0.004615 -0.003364 0.018190 0.000000 0.004412 0.000000
# 4 0.000000 0.000000 0.000000 0.037013 0.000000 0.013322
# 5 0.003551 0.000355 0.004412 0.000000 0.029647 0.000000
# 6 0.000000 0.000000 0.000000 0.013322 0.000000 0.070499
#
#
# Mechanical properties :
#
#
# Convention : Reuss Voigt Hill
#
# Bulk Modulus (GPa) = 31.63022 34.42129 33.02575
# Shear Modulus (GPa) = 24.31054 29.57175 26.94114
#
# Velocity S-wave (km/s) = 3.31183 3.65267 3.48642
# Velocity P-wave (km/s) = 5.37541 5.77228 5.57738
#
# Compressibility (1/GPa) = 0.03161534
#
# Stress axis : x y z
#
# Youngs Moduli (GPa) = 64.58519 89.91464 54.97426
#
# Poissons Ratio (x) = -0.12486 0.25372
# Poissons Ratio (y) = -0.08969 0.18491
# Poissons Ratio (z) = 0.29808 0.30243
#
# Static dielectric constant tensor:
#      x y z
#    x 1.803860 0.000000 0.008850 
#    y 0.000000 1.917820 0.000000 
#    z 0.008850 0.000000 1.888940 
# 
# From -- ./inp_files/133957.got.cif
#   From: 2010.05.17/outbox.cif.g08.bks.cpg/sg12_67_cif.got.tgz:133957.got - 2010.06.03 13:09:07.
