data_PCOD9214834
_publ_section_title
;
Structure prediction by ZEFSAII (Michael W. Deem and Ramdas Pophale) SiO2 
 PCOD9214834
Probable space group: C 2/M
;
_chemical_formula_sum "Si O2"
_cell_formula_units_Z 56
_cell_length_a 9.208777
_cell_length_b 21.820000
_cell_length_c 15.901135
_cell_angle_alpha 90.000000
_cell_angle_beta 60.752078
_cell_angle_gamma 90.000000
_cell_volume 2787.770999
_symmetry_space_group_name_H-M "C 2/M"
_symmetry_group_IT_number 12
_symmetry_cell_setting 'monoclinic'
loop_
_space_group_symop_operation_xyz
x,y,z
-x,y,-z
-x,-y,-z
x,-y,z
1/2+x,1/2+y,z
1/2-x,1/2+y,-z
1/2-x,1/2-y,-z
1/2+x,1/2-y,z
loop_
_atom_site_type_symbol
_atom_site_label
_atom_site_fract_x
_atom_site_fract_y
_atom_site_fract_z
Si Si1 0.312185 0.570192 0.062709
Si Si2 0.226806 0.381245 0.725640
Si Si3 0.884665 0.619941 0.724181
Si Si4 0.730371 0.756439 0.232387
Si Si5 0.161955 0.000000 0.396895
Si Si6 0.482418 0.000000 0.604952
Si Si7 0.100559 0.771541 0.102193
Si Si8 0.182273 0.384792 0.930071
O O1 0.322743 0.500000 0.087667
O O2 0.221492 0.606515 0.161627
O O3 0.500000 0.594061 0.000000
O O4 0.216963 0.572056 0.000175
O O5 0.287946 0.310600 0.721050
O O6 0.336220 0.436879 0.657853
O O7 0.176607 0.403779 0.834330
O O8 0.071876 0.375386 0.706297
O O9 0.809683 0.682049 0.704737
O O10 0.886377 0.560761 0.663915
O O11 0.603422 0.761665 0.191120
O O12 0.909127 0.762630 0.134161
O O13 0.000000 0.000000 0.500000
O O14 0.335056 0.000000 0.401622
O O15 0.500000 0.000000 0.500000
O O16 0.161048 0.839517 0.106931
O O17 0.250000 0.750000 0.000000
O O18 0.000000 0.356377 0.000000
#
# Coordination Sequence:
#
# PCOD9214834 Si02
#       8
#     8   8   8   8   4   4   8   8
#     4  11  23  37  54  90 131 174 218 259 307 361
#     4  10  22  40  64  97 125 166 212 258 317 375
#     4  11  20  42  66  87 133 172 202 265 317 366
#     4  11  21  36  59  88 129 164 215 251 311 369
#     4  10  24  50  74  91 122 156 200 277 331 386
#     4  10  24  48  72  96 116 156 216 256 331 402
#     4  11  20  33  50  84 124 176 214 255 289 352
#     4  11  21  34  56  89 129 168 223 250 293 373
#
# _framework density 20.087734000000001
#
# number of rings (size 3 to 8) (size 9 to 14) (size 15 to 20)
#    0.000    1.286    3.571    3.857    1.000    0.286 
#    7.714    0.714    0.000    3.429    0.000    0.000 
#    0.000    0.000    0.000    0.000    0.000    0.000 
#
# Total GULP energy -155946.821231 kJ/mol
# GULP energy per Si atom -5569.529330 kJ/mol
# Density = 2.004201 g / cm^3
# Si number density = 20.087734 Si / 1000 Ang^3
#
#
#
# Elastic Constant Matrix: (Units=GPa)
#
#
# Indices 1 2 3 4 5 6 
#
# 1 44.5122 24.4445 12.4626 0.0000 1.6141 0.0000
# 2 24.4445 153.4726 76.2974 0.0000 -7.2590 0.0000
# 3 12.4626 76.2974 93.7647 0.0000 -1.1953 0.0000
# 4 0.0000 0.0000 0.0000 14.9502 0.0000 -4.1183
# 5 1.6141 -7.2590 -1.1953 0.0000 30.2234 0.0000
# 6 0.0000 0.0000 0.0000 -4.1183 0.0000 22.5457
#
#
#
# Elastic Compliance Matrix: (Units=1/GPa)
#
#
# Indices 1 2 3 4 5 6 
#
# 1 0.024776 -0.004036 -0.000039 0.000000 -0.002294 0.000000
# 2 -0.004036 0.011759 -0.008997 0.000000 0.002684 0.000000
# 3 -0.000039 -0.008997 0.017973 0.000000 -0.001448 0.000000
# 4 0.000000 0.000000 0.000000 0.070433 0.000000 0.012866
# 5 -0.002294 0.002684 -0.001448 0.000000 0.033797 0.000000
# 6 0.000000 0.000000 0.000000 0.012866 0.000000 0.046704
#
#
# Mechanical properties :
#
#
# Convention : Reuss Voigt Hill
#
# Bulk Modulus (GPa) = 35.25548 57.57315 46.41432
# Shear Modulus (GPa) = 20.74352 25.44688 23.09520
#
# Velocity S-wave (km/s) = 3.21697 3.56306 3.39443
# Velocity P-wave (km/s) = 5.60244 6.75650 6.20635
#
# Compressibility (1/GPa) = 0.02836438
#
# Stress axis : x y z
#
# Youngs Moduli (GPa) = 40.36178 85.04464 55.63903
#
# Poissons Ratio (x) = 0.34320 0.00214
# Poissons Ratio (y) = 0.16288 0.50061
# Poissons Ratio (z) = 0.00155 0.76519
#
# Static dielectric constant tensor:
#      x y z
#    x 1.776070 0.000000 0.046740 
#    y 0.000000 1.817100 0.000000 
#    z 0.046740 0.000000 1.700160 
# 
# From -- ./inp_files/198816.got.cif
#   From: 2010.05.17/outbox.cif.g08.bks.cpg/sg12_100_cif.got.tgz:198816.got - 2010.06.03 13:09:07.
