data_PCOD9214872
_publ_section_title
;
Structure prediction by ZEFSAII (Michael W. Deem and Ramdas Pophale) SiO2 
 PCOD9214872
Probable space group: C 2/M
;
_chemical_formula_sum "Si O2"
_cell_formula_units_Z 48
_cell_length_a 22.204629
_cell_length_b 13.559260
_cell_length_c 12.231978
_cell_angle_alpha 90.000000
_cell_angle_beta 140.065157
_cell_angle_gamma 90.000000
_cell_volume 2364.037887
_symmetry_space_group_name_H-M "C 2/M"
_symmetry_group_IT_number 12
_symmetry_cell_setting 'monoclinic'
loop_
_space_group_symop_operation_xyz
x,y,z
-x,y,-z
-x,-y,-z
x,-y,z
1/2+x,1/2+y,z
1/2-x,1/2+y,-z
1/2-x,1/2-y,-z
1/2+x,1/2-y,z
loop_
_atom_site_type_symbol
_atom_site_label
_atom_site_fract_x
_atom_site_fract_y
_atom_site_fract_z
Si Si1 0.256738 0.618566 0.508470
Si Si2 0.390718 0.788889 0.338346
Si Si3 0.540446 0.116167 0.178230
Si Si4 0.281978 0.383571 0.792823
Si Si5 0.079702 0.229422 0.853929
Si Si6 0.597281 0.383164 0.478015
O O1 0.257803 0.500000 0.511043
O O2 0.149508 0.646179 0.335060
O O3 0.285540 0.647906 0.670917
O O4 0.328742 0.645844 0.513501
O O5 0.500000 0.819056 0.500000
O O6 0.321598 0.862483 0.304046
O O7 0.368951 0.773444 0.180818
O O8 0.382371 0.683722 0.388430
O O9 0.480479 0.183959 0.174688
O O10 0.533938 0.000000 0.198653
O O11 0.500000 0.127229 0.000000
O O12 0.303572 0.500000 0.829957
O O13 0.352155 0.319929 0.963848
O O14 0.005374 0.148510 0.706785
O O15 0.602906 0.500000 0.506476
#
# Coordination Sequence:
#
# PCOD9214872 Si02
#       6
#     8   8   8   8   8   8
#     4   9  20  39  62  91 118 157 208 245 304 365
#     4  10  23  41  61  90 118 163 218 248 300 368
#     4  10  23  42  64  93 125 160 207 259 305 359
#     4  11  24  41  62  90 128 162 199 256 314 370
#     4  11  24  39  61  95 125 162 208 247 307 376
#     4  10  22  40  65  92 126 165 206 257 301 358
#
# _framework density 20.304243
#
# number of rings (size 3 to 8) (size 9 to 14) (size 15 to 20)
#    0.000    1.833    0.000    3.000    4.667    6.000 
#    0.000    2.500    0.000    0.000    0.000    0.000 
#    0.000    0.000    0.000    0.000    0.000    0.000 
#
# Total GULP energy -134191.789140 kJ/mol
# GULP energy per Si atom -5591.324548 kJ/mol
# Density = 2.025803 g / cm^3
# Si number density = 20.304243 Si / 1000 Ang^3
#
#
#
# Elastic Constant Matrix: (Units=GPa)
#
#
# Indices 1 2 3 4 5 6 
#
# 1 100.1216 -2.2501 5.5029 0.0000 -4.7677 0.0000
# 2 -2.2501 49.6530 -12.4707 0.0000 -3.0372 0.0000
# 3 5.5029 -12.4707 54.0291 0.0000 -8.9985 0.0000
# 4 0.0000 0.0000 0.0000 10.9798 0.0000 12.4958
# 5 -4.7677 -3.0372 -8.9985 0.0000 23.4807 0.0000
# 6 0.0000 0.0000 0.0000 12.4958 0.0000 29.7272
#
#
#
# Elastic Compliance Matrix: (Units=1/GPa)
#
#
# Indices 1 2 3 4 5 6 
#
# 1 0.010121 0.000416 -0.000623 0.000000 0.001870 0.000000
# 2 0.000416 0.021954 0.005888 0.000000 0.005181 0.000000
# 3 -0.000623 0.005888 0.021403 0.000000 0.008837 0.000000
# 4 0.000000 0.000000 0.000000 0.174607 0.000000 -0.073396
# 5 0.001870 0.005181 0.008837 0.000000 0.047025 0.000000
# 6 0.000000 0.000000 0.000000 -0.073396 0.000000 0.064491
#
#
# Mechanical properties :
#
#
# Convention : Reuss Voigt Hill
#
# Bulk Modulus (GPa) = 15.42261 20.59643 18.00952
# Shear Modulus (GPa) = 14.29180 27.03898 20.66539
#
# Velocity S-wave (km/s) = 2.65596 3.65319 3.19374
# Velocity P-wave (km/s) = 4.12525 5.28775 4.74226
#
# Compressibility (1/GPa) = 0.06483986
#
# Stress axis : x y z
#
# Youngs Moduli (GPa) = 98.80923 45.54913 46.72275
#
# Poissons Ratio (x) = -0.01897 0.02912
# Poissons Ratio (y) = -0.04115 -0.27509
# Poissons Ratio (z) = 0.06158 -0.26818
#
# Static dielectric constant tensor:
#      x y z
#    x 1.701810 0.000000 0.003930 
#    y 0.000000 1.713990 0.000000 
#    z 0.003930 0.000000 1.702210 
# 
# From -- ./inp_files/155471.got.cif
#   From: 2010.05.17/outbox.cif.g08.bks.cpg/sg12_78_cif.got.tgz:155471.got - 2010.06.03 13:09:07.
