data_PCOD9214501
_publ_section_title
;
Structure prediction by ZEFSAII (Michael W. Deem and Ramdas Pophale) SiO2 
 PCOD9214501
Probable space group: C 2/M
;
_chemical_formula_sum "Si O2"
_cell_formula_units_Z 56
_cell_length_a 22.433955
_cell_length_b 16.931842
_cell_length_c 8.469962
_cell_angle_alpha 90.000000
_cell_angle_beta 53.129889
_cell_angle_gamma 90.000000
_cell_volume 2573.832542
_symmetry_space_group_name_H-M "C 2/M"
_symmetry_group_IT_number 12
_symmetry_cell_setting 'monoclinic'
loop_
_space_group_symop_operation_xyz
x,y,z
-x,y,-z
-x,-y,-z
x,-y,z
1/2+x,1/2+y,z
1/2-x,1/2+y,-z
1/2-x,1/2-y,-z
1/2+x,1/2-y,z
loop_
_atom_site_type_symbol
_atom_site_label
_atom_site_fract_x
_atom_site_fract_y
_atom_site_fract_z
Si Si1 0.917047 0.586509 0.188155
Si Si2 0.771625 0.661993 0.420089
Si Si3 0.364057 0.592113 0.518388
Si Si4 0.613789 0.593350 0.151027
Si Si5 0.985242 0.197719 0.202003
Si Si6 0.722179 0.906882 0.242308
Si Si7 0.067661 0.347619 0.507717
O O1 0.890524 0.500000 0.177708
O O2 0.857022 0.651199 0.233549
O O3 0.924245 0.589707 0.364919
O O4 0.000000 0.598805 0.000000
O O5 0.750000 0.750000 0.500000
O O6 0.716286 0.630522 0.376502
O O7 0.764832 0.610736 0.591857
O O8 0.358798 0.500000 0.494635
O O9 0.393925 0.602776 0.648156
O O10 0.419212 0.633692 0.308980
O O11 0.598363 0.500000 0.138000
O O12 0.557422 0.653191 0.156597
O O13 0.699443 0.609868 0.967616
O O14 0.955300 0.267020 0.364760
O O15 0.000000 0.224080 0.000000
O O16 0.651291 0.852726 0.303250
O O17 0.706107 0.000000 0.242504
O O18 0.000000 0.366107 0.500000
#
# Coordination Sequence:
#
# PCOD9214501 Si02
#       7
#     8   8   8   8   8   8   8
#     4  10  22  40  61  88 124 165 211 260 308 364
#     4  11  22  38  60  88 123 163 207 252 304 365
#     4  11  22  39  65  94 125 161 205 257 311 368
#     4  10  23  42  65  95 127 160 203 258 312 366
#     4  12  25  42  63  91 128 166 206 252 311 378
#     4  10  22  42  64  89 124 165 210 255 304 366
#     4  11  23  40  62  91 125 164 209 258 312 367
#
# _framework density 21.757438
#
# number of rings (size 3 to 8) (size 9 to 14) (size 15 to 20)
#    0.000    1.286    0.000    7.286    0.000    6.857 
#    0.000    7.857    0.000    0.000    0.000    0.000 
#    0.000    0.000    0.000    0.000    0.000    0.000 
#
# Total GULP energy -156494.833143 kJ/mol
# GULP energy per Si atom -5589.101184 kJ/mol
# Density = 2.170792 g / cm^3
# Si number density = 21.757438 Si / 1000 Ang^3
#
#
#
# Elastic Constant Matrix: (Units=GPa)
#
#
# Indices 1 2 3 4 5 6 
#
# 1 116.7709 56.6704 10.5858 0.0000 -27.6174 0.0000
# 2 56.6704 121.2039 38.7661 0.0000 -25.3345 0.0000
# 3 10.5858 38.7661 62.7150 0.0000 -31.2704 0.0000
# 4 0.0000 0.0000 0.0000 33.3071 0.0000 -7.7578
# 5 -27.6174 -25.3345 -31.2704 0.0000 34.2526 0.0000
# 6 0.0000 0.0000 0.0000 -7.7578 0.0000 28.4467
#
#
#
# Elastic Compliance Matrix: (Units=1/GPa)
#
#
# Indices 1 2 3 4 5 6 
#
# 1 0.014514 -0.006539 0.009206 0.000000 0.015271 0.000000
# 2 -0.006539 0.013438 -0.008950 0.000000 -0.003503 0.000000
# 3 0.009206 -0.008950 0.037305 0.000000 0.034861 0.000000
# 4 0.000000 0.000000 0.000000 0.032060 0.000000 0.008743
# 5 0.015271 -0.003503 0.034861 0.000000 0.070742 0.000000
# 6 0.000000 0.000000 0.000000 0.008743 0.000000 0.037538
#
#
# Mechanical properties :
#
#
# Convention : Reuss Voigt Hill
#
# Bulk Modulus (GPa) = 18.97779 56.97048 37.97414
# Shear Modulus (GPa) = 21.21105 32.17910 26.69508
#
# Velocity S-wave (km/s) = 3.12571 3.84994 3.50657
# Velocity P-wave (km/s) = 4.66563 6.78262 5.82117
#
# Compressibility (1/GPa) = 0.05269317
#
# Stress axis : x y z
#
# Youngs Moduli (GPa) = 68.89741 74.41538 26.80603
#
# Poissons Ratio (x) = 0.48660 -0.24678
# Poissons Ratio (y) = 0.45051 0.23990
# Poissons Ratio (z) = -0.63429 0.66598
#
# Static dielectric constant tensor:
#      x y z
#    x 1.805930 0.000000 -0.074040 
#    y 0.000000 1.817690 0.000000 
#    z -0.074040 0.000000 1.884820 
# 
# From -- ./inp_files/98064.got.cif
#   From: 2010.05.17/outbox.cif.g08.bks.cpg/sg12_50_cif.got.tgz:98064.got - 2010.06.03 13:09:07.
