data_PCOD9214943
_publ_section_title
;
Structure prediction by ZEFSAII (Michael W. Deem and Ramdas Pophale) SiO2 
 PCOD9214943
Probable space group: C 2/M
;
_chemical_formula_sum "Si O2"
_cell_formula_units_Z 32
_cell_length_a 11.194203
_cell_length_b 22.599178
_cell_length_c 5.476933
_cell_angle_alpha 90.000000
_cell_angle_beta 94.437219
_cell_angle_gamma 90.000000
_cell_volume 1381.400428
_symmetry_space_group_name_H-M "C 2/M"
_symmetry_group_IT_number 12
_symmetry_cell_setting 'monoclinic'
loop_
_space_group_symop_operation_xyz
x,y,z
-x,y,-z
-x,-y,-z
x,-y,z
1/2+x,1/2+y,z
1/2-x,1/2+y,-z
1/2-x,1/2-y,-z
1/2+x,1/2-y,z
loop_
_atom_site_type_symbol
_atom_site_label
_atom_site_fract_x
_atom_site_fract_y
_atom_site_fract_z
Si Si1 0.629170 0.616731 0.087894
Si Si2 0.381123 0.742962 0.649195
Si Si3 0.856641 0.631361 0.848945
Si Si4 0.148147 0.431874 0.658423
O O1 0.618015 0.681048 0.209807
O O2 0.708878 0.575710 0.276112
O O3 0.500000 0.593311 0.000000
O O4 0.712138 0.625807 0.863036
O O5 0.500000 0.744891 0.500000
O O6 0.250000 0.750000 0.500000
O O7 0.387406 0.800461 0.821117
O O8 0.883510 0.595016 0.607879
O O9 0.898370 0.605932 0.117451
O O10 0.114348 0.500000 0.675482
#
# Coordination Sequence:
#
# PCOD9214943 Si02
#       4
#     8   8   8   8
#     4  10  23  37  65  98 138 175 222 281 342 405
#     4  12  23  43  71 103 139 177 222 282 346 412
#     4  10  22  41  63  92 134 174 225 271 345 392
#     4  10  22  40  66  92 135 181 231 278 332 397
#
# _framework density 23.164897
#
# number of rings (size 3 to 8) (size 9 to 14) (size 15 to 20)
#    1.500    0.000    2.500    3.000    0.000    2.500 
#    0.000    1.250    0.000    4.500    0.000    0.000 
#    0.000    0.000    0.000    0.000    0.000    0.000 
#
# Total GULP energy -89448.837651 kJ/mol
# GULP energy per Si atom -5590.552353 kJ/mol
# Density = 2.311217 g / cm^3
# Si number density = 23.164897 Si / 1000 Ang^3
#
#
#
# Elastic Constant Matrix: (Units=GPa)
#
#
# Indices 1 2 3 4 5 6 
#
# 1 155.2425 16.6696 76.8535 0.0000 8.5529 0.0000
# 2 16.6696 100.3065 37.9386 0.0000 9.3861 0.0000
# 3 76.8535 37.9386 145.9852 0.0000 2.9051 0.0000
# 4 0.0000 0.0000 0.0000 7.7750 0.0000 -6.1377
# 5 8.5529 9.3861 2.9051 0.0000 60.0055 0.0000
# 6 0.0000 0.0000 0.0000 -6.1377 0.0000 3.4305
#
#
#
# Elastic Compliance Matrix: (Units=1/GPa)
#
#
# Indices 1 2 3 4 5 6 
#
# 1 0.008791 0.000425 -0.004717 0.000000 -0.001091 0.000000
# 2 0.000425 0.011231 -0.003109 0.000000 -0.001667 0.000000
# 3 -0.004717 -0.003109 0.010128 0.000000 0.000668 0.000000
# 4 0.000000 0.000000 0.000000 -0.311891 0.000000 -0.558023
# 5 -0.001091 -0.001667 0.000668 0.000000 0.017049 0.000000
# 6 0.000000 0.000000 0.000000 -0.558023 0.000000 -0.706890
#
#
# Mechanical properties :
#
#
# Convention : Reuss Voigt Hill
#
# Bulk Modulus (GPa) = 65.15568 73.82861 69.49215
# Shear Modulus (GPa) = -5.25395 32.24703 13.49654
#
# Velocity S-wave (km/s) = -1.50764 3.73509 2.41639
# Velocity P-wave (km/s) = 5.01571 7.10924 6.15218
#
# Compressibility (1/GPa) = 0.01534786
#
# Stress axis : x y z
#
# Youngs Moduli (GPa) = 113.75159 89.04098 98.73695
#
# Poissons Ratio (x) = -0.03786 0.46572
# Poissons Ratio (y) = -0.04836 0.30700
# Poissons Ratio (z) = 0.53655 0.27686
#
# Static dielectric constant tensor:
#      x y z
#    x 1.999560 0.000000 0.030340 
#    y 0.000000 1.768840 0.000000 
#    z 0.030340 0.000000 1.860790 
# 
# From -- ./inp_files/6590.got.cif
#   From: 2010.05.17/outbox.cif.g08.bks.cpg/sg12_4_cif.got.tgz:6590.got - 2010.06.03 13:09:07.
