data_PCOD9214766
_publ_section_title
;
Structure prediction by ZEFSAII (Michael W. Deem and Ramdas Pophale) SiO2 
 PCOD9214766
Probable space group: C 2/M
;
_chemical_formula_sum "Si O2"
_cell_formula_units_Z 42
_cell_length_a 15.339110
_cell_length_b 7.652430
_cell_length_c 15.977375
_cell_angle_alpha 90.000000
_cell_angle_beta 110.648235
_cell_angle_gamma 90.000000
_cell_volume 1754.974565
_symmetry_space_group_name_H-M "C 2/M"
_symmetry_group_IT_number 12
_symmetry_cell_setting 'monoclinic'
loop_
_space_group_symop_operation_xyz
x,y,z
-x,y,-z
-x,-y,-z
x,-y,z
1/2+x,1/2+y,z
1/2-x,1/2+y,-z
1/2-x,1/2-y,-z
1/2+x,1/2-y,z
loop_
_atom_site_type_symbol
_atom_site_label
_atom_site_fract_x
_atom_site_fract_y
_atom_site_fract_z
Si Si1 0.179815 0.706280 0.902071
Si Si2 0.032679 0.288579 0.132756
Si Si3 0.024318 0.790562 0.415810
Si Si4 0.500000 0.500000 0.000000
Si Si5 0.666015 0.707053 0.713161
Si Si6 0.167497 0.707608 0.333627
O O1 0.173212 0.500000 0.893505
O O2 0.074674 0.768427 0.886187
O O3 0.207151 0.772491 0.819603
O O4 0.250000 0.750000 0.000000
O O5 0.037866 0.500000 0.116901
O O6 0.060343 0.157229 0.068346
O O7 0.093160 0.250102 0.235451
O O8 0.939128 0.723508 0.328998
O O9 0.000000 0.724828 0.500000
O O10 0.122948 0.752137 0.407262
O O11 0.021616 0.000000 0.418529
O O12 0.658794 0.500000 0.696421
O O13 0.734252 0.781249 0.665232
O O14 0.176757 0.500000 0.336327
#
# Coordination Sequence:
#
# PCOD9214766 Si02
#       6
#     8   8   8   2   8   8
#     4  11  24  39  60  89 128 168 217 270 321 390
#     4  10  24  42  60  93 132 168 225 278 320 390
#     4  10  22  41  66  95 127 162 210 269 326 397
#     4  12  26  36  68  86 122 184 218 264 338 386
#     4  10  22  40  64  90 125 168 214 259 324 390
#     4  10  22  41  63  90 126 167 210 269 324 385
#
# _framework density 23.93197
#
# number of rings (size 3 to 8) (size 9 to 14) (size 15 to 20)
#    0.000    1.714    1.905    0.857    6.667    1.905 
#    0.000    0.000    0.000    0.000    0.000    0.000 
#    0.000    0.000    0.000    0.000    0.000    0.000 
#
# Total GULP energy -117095.590064 kJ/mol
# GULP energy per Si atom -5575.980479 kJ/mol
# Density = 2.387750 g / cm^3
# Si number density = 23.931970 Si / 1000 Ang^3
#
#
#
# Elastic Constant Matrix: (Units=GPa)
#
#
# Indices 1 2 3 4 5 6 
#
# 1 110.0824 -6.9462 2.1418 0.0000 -22.7002 0.0000
# 2 -6.9462 46.8354 -11.8868 0.0000 2.9346 0.0000
# 3 2.1418 -11.8868 37.2288 0.0000 -25.3870 0.0000
# 4 0.0000 0.0000 0.0000 18.7428 0.0000 -7.9596
# 5 -22.7002 2.9346 -25.3870 0.0000 34.1242 0.0000
# 6 0.0000 0.0000 0.0000 -7.9596 0.0000 9.8526
#
#
#
# Elastic Compliance Matrix: (Units=1/GPa)
#
#
# Indices 1 2 3 4 5 6 
#
# 1 0.012630 0.003899 0.012217 0.000000 0.017155 0.000000
# 2 0.003899 0.025329 0.016535 0.000000 0.012717 0.000000
# 3 0.012217 0.016535 0.073089 0.000000 0.061080 0.000000
# 4 0.000000 0.000000 0.000000 0.081219 0.000000 0.065614
# 5 0.017155 0.012717 0.061080 0.000000 0.085064 0.000000
# 6 0.000000 0.000000 0.000000 0.065614 0.000000 0.154504
#
#
# Mechanical properties :
#
#
# Convention : Reuss Voigt Hill
#
# Bulk Modulus (GPa) = 5.67056 17.86267 11.76662
# Shear Modulus (GPa) = 11.75592 26.59976 19.17784
#
# Velocity S-wave (km/s) = 2.21876 3.33749 2.83388
# Velocity P-wave (km/s) = 2.98972 4.72567 3.95414
#
# Compressibility (1/GPa) = 0.17634930
#
# Stress axis : x y z
#
# Youngs Moduli (GPa) = 79.17637 39.47984 13.68193
#
# Poissons Ratio (x) = -0.15393 -0.16715
# Poissons Ratio (y) = -0.30870 -0.22623
# Poissons Ratio (z) = -0.96728 -0.65279
#
# Static dielectric constant tensor:
#      x y z
#    x 1.991350 0.000000 -0.063290 
#    y 0.000000 1.886280 0.000000 
#    z -0.063290 0.000000 1.915380 
# 
# From -- ./inp_files/267322.got.cif
#   From: 2010.05.17/outbox.cif.g08.bks.cpg/sg12_134_cif.got.tgz:267322.got - 2010.06.03 13:09:07.
