data_PCOD9214150
_publ_section_title
;
Structure prediction by ZEFSAII (Michael W. Deem and Ramdas Pophale) SiO2 
 PCOD9214150
Probable space group: C 2/M
;
_chemical_formula_sum "Si O2"
_cell_formula_units_Z 56
_cell_length_a 23.259414
_cell_length_b 23.417050
_cell_length_c 18.429944
_cell_angle_alpha 90.000000
_cell_angle_beta 16.778913
_cell_angle_gamma 90.000000
_cell_volume 2897.816184
_symmetry_space_group_name_H-M "C 2/M"
_symmetry_group_IT_number 12
_symmetry_cell_setting 'monoclinic'
loop_
_space_group_symop_operation_xyz
x,y,z
-x,y,-z
-x,-y,-z
x,-y,z
1/2+x,1/2+y,z
1/2-x,1/2+y,-z
1/2-x,1/2-y,-z
1/2+x,1/2-y,z
loop_
_atom_site_type_symbol
_atom_site_label
_atom_site_fract_x
_atom_site_fract_y
_atom_site_fract_z
Si Si1 0.572135 0.765144 0.659283
Si Si2 0.694379 0.684957 0.310755
Si Si3 0.765062 0.191866 0.276324
Si Si4 0.396915 0.064909 0.545981
Si Si5 0.496031 0.132608 0.841510
Si Si6 0.926959 0.853762 0.383438
Si Si7 0.701663 0.065196 0.042771
O O1 0.750000 0.750000 0.500000
O O2 0.658742 0.791731 0.480799
O O3 0.446953 0.812998 0.849644
O O4 0.472255 0.704333 0.768055
O O5 0.500000 0.668986 0.500000
O O6 0.714089 0.754232 0.285599
O O7 0.661519 0.665426 0.432583
O O8 0.880233 0.650157 0.053845
O O9 0.719698 0.125659 0.312397
O O10 0.000000 0.196379 0.000000
O O11 0.500000 0.062794 0.500000
O O12 0.304075 0.000000 0.648576
O O13 0.551434 0.071580 0.292451
O O14 0.733287 0.128475 0.569721
O O15 0.408584 0.081924 0.899004
O O16 0.099280 0.899044 0.184363
O O17 0.761463 0.000000 0.966701
#
# Coordination Sequence:
#
# PCOD9214150 Si02
#       7
#     8   8   8   8   8   8   8
#     4   9  19  34  57  89 123 161 198 256 318 368
#     4  11  21  37  62  95 129 165 197 254 321 380
#     4  11  21  35  59  92 126 162 210 253 311 381
#     4  10  23  43  61  85 126 168 212 263 312 370
#     4  11  21  40  63  92 129 161 206 264 310 372
#     4  10  22  39  63  91 127 163 206 255 319 373
#     4  11  24  43  65  90 123 169 217 259 308 369
#
# _framework density 19.324898999999998
#
# number of rings (size 3 to 8) (size 9 to 14) (size 15 to 20)
#    0.000    1.571    2.857    3.429    0.000    6.000 
#    0.000    1.429    0.000    1.714    0.000    0.000 
#    0.000    0.000    0.000    0.000    0.000    0.000 
#
# Total GULP energy -156039.252465 kJ/mol
# GULP energy per Si atom -5572.830445 kJ/mol
# Density = 1.928091 g / cm^3
# Si number density = 19.324899 Si / 1000 Ang^3
#
#
#
# Elastic Constant Matrix: (Units=GPa)
#
#
# Indices 1 2 3 4 5 6 
#
# 1 56.9521 15.5312 -0.8027 -0.0856 -7.7316 0.0242
# 2 15.5312 99.0731 15.7149 -0.0749 -15.1970 0.0186
# 3 -0.8027 15.7149 31.8339 -0.1379 -17.8026 0.0244
# 4 -0.0856 -0.0749 -0.1379 1.6503 -0.0018 15.8860
# 5 -7.7316 -15.1970 -17.8026 -0.0018 31.7465 0.0052
# 6 0.0242 0.0186 0.0244 15.8860 0.0052 28.9259
#
#
#
# Elastic Compliance Matrix: (Units=1/GPa)
#
#
# Indices 1 2 3 4 5 6 
#
# 1 0.019298 -0.002918 0.005496 -0.000356 0.006385 0.000176
# 2 -0.002918 0.011623 -0.004512 -0.000004 0.002323 0.000001
# 3 0.005496 -0.004512 0.048536 -0.001078 0.026396 0.000544
# 4 -0.000356 -0.000004 -0.001078 -0.141331 -0.000714 0.077619
# 5 0.006385 0.002323 0.026396 -0.000714 0.048969 0.000354
# 6 0.000176 0.000001 0.000544 0.077619 0.000354 -0.008058
#
#
# Mechanical properties :
#
#
# Convention : Reuss Voigt Hill
#
# Bulk Modulus (GPa) = 13.22951 27.63843 20.43397
# Shear Modulus (GPa) = 617.20752 22.95893 320.08322
#
# Velocity S-wave (km/s) = 17.89072 3.45055 12.88379
# Velocity P-wave (km/s) = 20.82382 5.49619 15.22891
#
# Compressibility (1/GPa) = 0.07558858
#
# Stress axis : x y z
#
# Youngs Moduli (GPa) = 51.81878 86.03599 20.60345
#
# Poissons Ratio (x) = 0.25105 -0.11324
# Poissons Ratio (y) = 0.15120 0.09297
# Poissons Ratio (z) = -0.28481 0.38822
#
# Static dielectric constant tensor:
#      x y z
#    x 1.668230 0.000190 0.006900 
#    y 0.000190 1.740920 0.000000 
#    z 0.006900 0.000000 1.659210 
# 
# From -- ./inp_files/285984.got.cif
#   From: 2010.05.17/outbox.cif.g08.bks.cpg/sg12_143_cif.got.tgz:285984.got - 2010.06.03 13:09:07.
