data_PCOD9214079
_publ_section_title
;
Structure prediction by ZEFSAII (Michael W. Deem and Ramdas Pophale) SiO2 
 PCOD9214079
Probable space group: C 2/M
;
_chemical_formula_sum "Si O2"
_cell_formula_units_Z 56
_cell_length_a 20.631596
_cell_length_b 8.526394
_cell_length_c 16.750512
_cell_angle_alpha 90.000000
_cell_angle_beta 91.900719
_cell_angle_gamma 90.000000
_cell_volume 2945.013527
_symmetry_space_group_name_H-M "C 2/M"
_symmetry_group_IT_number 12
_symmetry_cell_setting 'monoclinic'
loop_
_space_group_symop_operation_xyz
x,y,z
-x,y,-z
-x,-y,-z
x,-y,z
1/2+x,1/2+y,z
1/2-x,1/2+y,-z
1/2-x,1/2-y,-z
1/2+x,1/2-y,z
loop_
_atom_site_type_symbol
_atom_site_label
_atom_site_fract_x
_atom_site_fract_y
_atom_site_fract_z
Si Si1 0.677073 0.686549 0.483380
Si Si2 0.630091 0.189512 0.311234
Si Si3 0.871110 0.311668 0.356050
Si Si4 0.261571 0.311828 0.234637
Si Si5 0.511013 0.191306 0.753206
Si Si6 0.302706 0.812139 0.063974
Si Si7 0.950347 0.308424 0.066444
O O1 0.679991 0.500000 0.483370
O O2 0.750000 0.750000 0.500000
O O3 0.648878 0.746468 0.398649
O O4 0.633532 0.745037 0.555340
O O5 0.687886 0.232524 0.253066
O O6 0.560029 0.242934 0.277598
O O7 0.628862 0.000000 0.316165
O O8 0.870447 0.500000 0.359449
O O9 0.808273 0.253455 0.305290
O O10 0.933751 0.260822 0.307504
O O11 0.266014 0.500000 0.233564
O O12 0.284520 0.244754 0.151499
O O13 0.528635 0.242051 0.843754
O O14 0.511082 0.000000 0.754298
O O15 0.376216 0.759805 0.047737
O O16 0.302216 0.000000 0.062488
O O17 0.250000 0.750000 0.000000
O O18 0.951265 0.500000 0.066473
O O19 0.000000 0.256069 0.000000
#
# Coordination Sequence:
#
# PCOD9214079 Si02
#       7
#     8   8   8   8   8   8   8
#     4  12  24  39  60  88 122 158 202 249 302 357
#     4  10  22  39  62  90 120 156 204 250 296 354
#     4  11  21  38  64  89 119 157 201 248 298 354
#     4  11  22  37  61  90 121 159 201 244 296 355
#     4   9  19  37  60  88 118 157 202 244 293 357
#     4  11  23  39  61  90 122 155 199 249 302 355
#     4   9  18  34  60  88 115 151 198 246 289 346
#
# _framework density 19.015193
#
# number of rings (size 3 to 8) (size 9 to 14) (size 15 to 20)
#    0.000    1.571    2.857    2.571    2.000    1.143 
#    0.000    4.286    0.000    1.714    0.000    0.000 
#    0.000    0.000    0.000    0.000    0.000    0.000 
#
# Total GULP energy -156462.423138 kJ/mol
# GULP energy per Si atom -5587.943683 kJ/mol
# Density = 1.897191 g / cm^3
# Si number density = 19.015193 Si / 1000 Ang^3
#
#
#
# Elastic Constant Matrix: (Units=GPa)
#
#
# Indices 1 2 3 4 5 6 
#
# 1 183.5239 33.1771 80.7339 0.0000 -8.7726 0.0000
# 2 33.1771 32.7481 20.0392 0.0000 -4.2396 0.0000
# 3 80.7339 20.0392 126.9816 0.0000 -15.7912 0.0000
# 4 0.0000 0.0000 0.0000 31.4461 0.0000 3.3245
# 5 -8.7726 -4.2396 -15.7912 0.0000 39.4797 0.0000
# 6 0.0000 0.0000 0.0000 3.3245 0.0000 22.1474
#
#
#
# Elastic Compliance Matrix: (Units=1/GPa)
#
#
# Indices 1 2 3 4 5 6 
#
# 1 0.008481 -0.005891 -0.004532 0.000000 -0.000561 0.000000
# 2 -0.005891 0.037986 -0.002004 0.000000 0.001968 0.000000
# 3 -0.004532 -0.002004 0.011493 0.000000 0.003375 0.000000
# 4 0.000000 0.000000 0.000000 0.032313 0.000000 -0.004850
# 5 -0.000561 0.001968 0.003375 0.000000 0.026766 0.000000
# 6 0.000000 0.000000 0.000000 -0.004850 0.000000 0.045880
#
#
# Mechanical properties :
#
#
# Convention : Reuss Voigt Hill
#
# Bulk Modulus (GPa) = 30.20773 67.90601 49.05687
# Shear Modulus (GPa) = 25.14988 32.56820 28.85904
#
# Velocity S-wave (km/s) = 3.64073 4.14302 3.89997
# Velocity P-wave (km/s) = 5.79602 7.65997 6.79224
#
# Compressibility (1/GPa) = 0.03310411
#
# Stress axis : x y z
#
# Youngs Moduli (GPa) = 117.91384 26.32562 87.01292
#
# Poissons Ratio (x) = 0.15509 0.39435
# Poissons Ratio (y) = 0.69466 0.17439
# Poissons Ratio (z) = 0.53439 0.05276
#
# Static dielectric constant tensor:
#      x y z
#    x 1.654020 0.000000 -0.011830 
#    y 0.000000 1.655230 0.000000 
#    z -0.011830 0.000000 1.631770 
# 
# From -- ./inp_files/230854.got.cif
#   From: 2010.05.17/outbox.cif.g08.bks.cpg/sg12_116_cif.got.tgz:230854.got - 2010.06.03 13:09:07.
