data_PCOD9214751
_publ_section_title
;
Structure prediction by ZEFSAII (Michael W. Deem and Ramdas Pophale) SiO2 
 PCOD9214751
Probable space group: C 2/M
;
_chemical_formula_sum "Si O2"
_cell_formula_units_Z 56
_cell_length_a 9.888540
_cell_length_b 14.787132
_cell_length_c 21.939040
_cell_angle_alpha 90.000000
_cell_angle_beta 58.418317
_cell_angle_gamma 90.000000
_cell_volume 2732.873378
_symmetry_space_group_name_H-M "C 2/M"
_symmetry_group_IT_number 12
_symmetry_cell_setting 'monoclinic'
loop_
_space_group_symop_operation_xyz
x,y,z
-x,y,-z
-x,-y,-z
x,-y,z
1/2+x,1/2+y,z
1/2-x,1/2+y,-z
1/2-x,1/2-y,-z
1/2+x,1/2-y,z
loop_
_atom_site_type_symbol
_atom_site_label
_atom_site_fract_x
_atom_site_fract_y
_atom_site_fract_z
Si Si1 0.194195 0.656298 0.856195
Si Si2 0.949013 0.102763 0.698135
Si Si3 0.814403 0.500000 0.047805
Si Si4 0.386918 0.832066 0.846494
Si Si5 0.310963 0.500000 0.058646
Si Si6 0.826692 0.229059 0.547256
Si Si7 0.191558 0.598732 0.365470
Si Si8 0.515573 0.190046 0.681431
O O1 0.298697 0.614341 0.776805
O O2 0.222123 0.587693 0.904443
O O3 0.270533 0.748065 0.862656
O O4 0.016682 0.669412 0.870863
O O5 0.966604 0.207499 0.669001
O O6 0.119902 0.100397 0.691617
O O7 0.939657 0.000000 0.670866
O O8 0.751751 0.500000 0.995212
O O9 0.000000 0.500000 0.000000
O O10 0.488593 0.827087 0.759286
O O11 0.268480 0.915306 0.887374
O O12 0.500000 0.500000 0.000000
O O13 0.750000 0.250000 0.500000
O O14 0.847642 0.324318 0.576748
O O15 0.696738 0.176467 0.617958
O O16 0.000000 0.185523 0.500000
O O17 0.150315 0.500000 0.398965
O O18 0.097000 0.621877 0.327422
#
# Coordination Sequence:
#
# PCOD9214751 Si02
#       8
#     8   8   4   8   4   8   8   8
#     4  11  24  43  70  99 138 184 234 288 356 423
#     4   9  20  37  64  95 130 172 230 280 341 409
#     4  12  24  48  72  94 138 186 228 280 369 423
#     4  11  27  45  69 106 139 186 236 292 354 423
#     4  12  30  50  72 106 145 183 238 300 355 433
#     4  11  22  41  67  98 135 186 232 289 350 416
#     4  10  22  40  64 101 133 187 235 285 348 423
#     4  10  23  39  70  98 143 176 236 293 351 409
#
# _framework density 20.491253
#
# number of rings (size 3 to 8) (size 9 to 14) (size 15 to 20)
#    0.000    1.429    3.571    0.000   15.000    1.429 
#    0.000    0.000    0.000    2.571    0.000    0.000 
#    0.000    0.000    0.000    0.000    0.000    0.000 
#
# Total GULP energy -155943.607238 kJ/mol
# GULP energy per Si atom -5569.414544 kJ/mol
# Density = 2.044461 g / cm^3
# Si number density = 20.491253 Si / 1000 Ang^3
#
#
#
# Elastic Constant Matrix: (Units=GPa)
#
#
# Indices 1 2 3 4 5 6 
#
# 1 82.6920 41.3796 32.7250 0.0000 -6.8406 0.0000
# 2 41.3796 91.6657 43.2744 0.0000 -6.6218 0.0000
# 3 32.7250 43.2744 85.9681 0.0000 -12.2475 0.0000
# 4 0.0000 0.0000 0.0000 21.7022 0.0000 3.7656
# 5 -6.8406 -6.6218 -12.2475 0.0000 43.1771 0.0000
# 6 0.0000 0.0000 0.0000 3.7656 0.0000 25.0397
#
#
#
# Elastic Compliance Matrix: (Units=1/GPa)
#
#
# Indices 1 2 3 4 5 6 
#
# 1 0.016324 -0.005813 -0.003175 0.000000 0.000794 0.000000
# 2 -0.005813 0.016381 -0.006051 0.000000 -0.000125 0.000000
# 3 -0.003175 -0.006051 0.016343 0.000000 0.003205 0.000000
# 4 0.000000 0.000000 0.000000 0.047313 0.000000 -0.007115
# 5 0.000794 -0.000125 0.003205 0.000000 0.024176 0.000000
# 6 0.000000 0.000000 0.000000 -0.007115 0.000000 0.041007
#
#
# Mechanical properties :
#
#
# Convention : Reuss Voigt Hill
#
# Bulk Modulus (GPa) = 52.71166 55.00930 53.86048
# Shear Modulus (GPa) = 25.25972 27.51359 26.38665
#
# Velocity S-wave (km/s) = 3.51480 3.66826 3.59235
# Velocity P-wave (km/s) = 6.50012 6.69665 6.59912
#
# Compressibility (1/GPa) = 0.01897113
#
# Stress axis : x y z
#
# Youngs Moduli (GPa) = 61.25983 61.04761 61.18768
#
# Poissons Ratio (x) = 0.35486 0.19426
# Poissons Ratio (y) = 0.35609 0.37023
# Poissons Ratio (z) = 0.19449 0.36938
#
# Static dielectric constant tensor:
#      x y z
#    x 1.726780 0.000000 -0.030060 
#    y 0.000000 1.761270 0.000000 
#    z -0.030060 0.000000 1.765470 
# 
# From -- ./inp_files/332880.got.cif
#   From: 2010.05.17/outbox.cif.g08.bks.cpg/sg12_167_cif.got.tgz:332880.got - 2010.06.03 13:09:07.
