data_PCOD9214269
_publ_section_title
;
Structure prediction by ZEFSAII (Michael W. Deem and Ramdas Pophale) SiO2 
 PCOD9214269
Probable space group: C 2/M
;
_chemical_formula_sum "Si O2"
_cell_formula_units_Z 32
_cell_length_a 11.230306
_cell_length_b 14.350003
_cell_length_c 16.219236
_cell_angle_alpha 90.000000
_cell_angle_beta 31.738898
_cell_angle_gamma 90.000000
_cell_volume 1374.992386
_symmetry_space_group_name_H-M "C 2/M"
_symmetry_group_IT_number 12
_symmetry_cell_setting 'monoclinic'
loop_
_space_group_symop_operation_xyz
x,y,z
-x,y,-z
-x,-y,-z
x,-y,z
1/2+x,1/2+y,z
1/2-x,1/2+y,-z
1/2-x,1/2-y,-z
1/2+x,1/2-y,z
loop_
_atom_site_type_symbol
_atom_site_label
_atom_site_fract_x
_atom_site_fract_y
_atom_site_fract_z
Si Si1 0.559658 0.000000 0.104471
Si Si2 0.560321 0.291306 0.275772
Si Si3 0.148529 0.000000 0.235342
Si Si4 0.141983 0.150013 0.992315
Si Si5 0.769574 0.300987 0.657398
O O1 0.646519 0.088915 0.104020
O O2 0.302085 0.000000 0.227352
O O3 0.694091 0.000000 0.938791
O O4 0.523633 0.401894 0.303722
O O5 0.761702 0.249346 0.097568
O O6 0.334243 0.253627 0.363534
O O7 0.645566 0.260955 0.315802
O O8 0.000000 0.109223 0.000000
O O9 0.953491 0.151129 0.174325
O O10 0.000000 0.355903 0.500000
#
# Coordination Sequence:
#
# PCOD9214269 Si02
#       5
#     4   8   4   8   8
#     4  11  21  36  60  98 122 153 206 260 307 357
#     4  11  23  43  65  93 124 163 208 256 306 364
#     4  11  24  34  65  94 123 156 207 260 305 360
#     4  10  22  39  66  92 123 159 207 258 305 362
#     4  11  23  40  63  91 123 166 206 252 309 367
#
# _framework density 23.272856000000001
#
# number of rings (size 3 to 8) (size 9 to 14) (size 15 to 20)
#    0.000    1.250    2.500    3.375   10.500    0.000 
#    0.000    3.125    0.000    6.000    0.000    0.000 
#    0.000    0.000    0.000    0.000    0.000    0.000 
#
# Total GULP energy -89120.457928 kJ/mol
# GULP energy per Si atom -5570.028620 kJ/mol
# Density = 2.321989 g / cm^3
# Si number density = 23.272856 Si / 1000 Ang^3
#
#
#
# Elastic Constant Matrix: (Units=GPa)
#
#
# Indices 1 2 3 4 5 6 
#
# 1 213.9698 33.6170 37.0556 -0.0003 -15.0233 -0.0005
# 2 33.6170 101.1009 25.3618 -0.0025 -2.7743 0.0004
# 3 37.0556 25.3618 71.9554 -0.0071 -22.0046 0.0017
# 4 -0.0003 -0.0025 -0.0071 5.5980 0.0032 -6.8261
# 5 -15.0233 -2.7743 -22.0046 0.0032 36.7279 0.0002
# 6 -0.0005 0.0004 0.0017 -6.8261 0.0002 26.3206
#
#
#
# Elastic Compliance Matrix: (Units=1/GPa)
#
#
# Indices 1 2 3 4 5 6 
#
# 1 0.005276 -0.001223 -0.002026 -0.000004 0.000852 -0.000001
# 2 -0.001223 0.011232 -0.003946 0.000002 -0.002016 0.000001
# 3 -0.002026 -0.003946 0.019573 0.000023 0.010600 0.000005
# 4 -0.000004 0.000002 0.000023 0.261255 -0.000011 0.067755
# 5 0.000852 -0.002016 0.010600 -0.000011 0.033774 -0.000004
# 6 -0.000001 0.000001 0.000005 0.067755 -0.000004 0.055565
#
#
# Mechanical properties :
#
#
# Convention : Reuss Voigt Hill
#
# Bulk Modulus (GPa) = 46.09713 64.34388 55.22051
# Shear Modulus (GPa) = 12.24605 33.12874 22.68739
#
# Velocity S-wave (km/s) = 2.29638 3.77701 3.12564
# Velocity P-wave (km/s) = 5.18473 6.83584 6.06672
#
# Compressibility (1/GPa) = 0.02169332
#
# Stress axis : x y z
#
# Youngs Moduli (GPa) = 189.52609 89.02971 51.09112
#
# Poissons Ratio (x) = 0.10888 0.10349
# Poissons Ratio (y) = 0.23178 0.20158
# Poissons Ratio (z) = 0.38389 0.35128
#
# Static dielectric constant tensor:
#      x y z
#    x 1.972610 0.000000 0.066710 
#    y 0.000000 1.889940 0.000000 
#    z 0.066710 0.000000 1.937090 
# 
# From -- ./inp_files/263190.got.cif
#   From: 2010.05.17/outbox.cif.g08.bks.cpg/sg12_132_cif.got.tgz:263190.got - 2010.06.03 13:09:07.
