data_PCOD9214054
_publ_section_title
;
Structure prediction by ZEFSAII (Michael W. Deem and Ramdas Pophale) SiO2 
 PCOD9214054
Probable space group: C 2/M
;
_chemical_formula_sum "Si O2"
_cell_formula_units_Z 48
_cell_length_a 16.159066
_cell_length_b 17.166608
_cell_length_c 9.329209
_cell_angle_alpha 90.000000
_cell_angle_beta 86.292333
_cell_angle_gamma 90.000000
_cell_volume 2582.472023
_symmetry_space_group_name_H-M "C 2/M"
_symmetry_group_IT_number 12
_symmetry_cell_setting 'monoclinic'
loop_
_space_group_symop_operation_xyz
x,y,z
-x,y,-z
-x,-y,-z
x,-y,z
1/2+x,1/2+y,z
1/2-x,1/2+y,-z
1/2-x,1/2-y,-z
1/2+x,1/2-y,z
loop_
_atom_site_type_symbol
_atom_site_label
_atom_site_fract_x
_atom_site_fract_y
_atom_site_fract_z
Si Si1 0.852628 0.140634 0.890061
Si Si2 0.587431 0.500000 0.573472
Si Si3 0.207656 0.303189 0.697178
Si Si4 0.905702 0.700688 0.018524
Si Si5 0.028534 0.000000 0.159865
Si Si6 0.223069 0.871586 0.579343
Si Si7 0.786836 0.415056 0.878415
O O1 0.791999 0.180085 0.778809
O O2 0.897885 0.209637 0.970462
O O3 0.915559 0.076865 0.820105
O O4 0.793461 0.098693 0.012728
O O5 0.500000 0.500000 0.500000
O O6 0.555067 0.500000 0.739507
O O7 0.644640 0.424184 0.542671
O O8 0.201460 0.216076 0.633911
O O9 0.214895 0.361054 0.561545
O O10 0.134537 0.311869 0.820564
O O11 0.850246 0.651593 0.915156
O O12 0.000000 0.675923 0.000000
O O13 0.000000 0.000000 0.000000
O O14 0.262615 0.909644 0.715523
O O15 0.821517 0.500000 0.907784
#
# Coordination Sequence:
#
# PCOD9214054 Si02
#       7
#     8   4   8   8   4   8   8
#     4  11  20  39  61  90 124 164 205 246 307 379
#     4  12  26  40  58  98 135 159 188 253 325 372
#     4  10  22  39  62  86 116 168 214 240 293 374
#     4  11  23  39  63  91 124 155 206 269 307 347
#     4  12  24  34  60  98 131 159 192 251 325 378
#     4  11  21  40  62  85 123 165 204 241 293 380
#     4  11  20  40  66  87 117 165 212 245 299 371
#
# _framework density 18.586842999999998
#
# number of rings (size 3 to 8) (size 9 to 14) (size 15 to 20)
#    0.000    1.000    5.000    3.500    2.333    0.333 
#    1.500    0.833    0.000    1.000    0.000    0.000 
#    0.000    0.000    0.000    0.000    0.000    0.000 
#
# Total GULP energy -133987.714866 kJ/mol
# GULP energy per Si atom -5582.821453 kJ/mol
# Density = 1.854454 g / cm^3
# Si number density = 18.586843 Si / 1000 Ang^3
#
#
#
# Elastic Constant Matrix: (Units=GPa)
#
#
# Indices 1 2 3 4 5 6 
#
# 1 77.0841 40.0415 17.9938 0.0000 -10.7617 0.0000
# 2 40.0415 114.7174 24.7059 0.0000 -7.9673 0.0000
# 3 17.9938 24.7059 87.6535 0.0000 -4.1551 0.0000
# 4 0.0000 0.0000 0.0000 16.9690 0.0000 -8.5897
# 5 -10.7617 -7.9673 -4.1551 0.0000 23.2258 0.0000
# 6 0.0000 0.0000 0.0000 -8.5897 0.0000 9.4811
#
#
#
# Elastic Compliance Matrix: (Units=1/GPa)
#
#
# Indices 1 2 3 4 5 6 
#
# 1 0.016831 -0.005100 -0.001746 0.000000 0.005737 0.000000
# 2 -0.005100 0.011002 -0.002004 0.000000 0.001052 0.000000
# 3 -0.001746 -0.002004 0.012366 0.000000 0.000716 0.000000
# 4 0.000000 0.000000 0.000000 0.108850 0.000000 0.098617
# 5 0.005737 0.001052 0.000716 0.000000 0.046203 0.000000
# 6 0.000000 0.000000 0.000000 0.098617 0.000000 0.194818
#
#
# Mechanical properties :
#
#
# Convention : Reuss Voigt Hill
#
# Bulk Modulus (GPa) = 44.44763 49.43749 46.94256
# Shear Modulus (GPa) = 12.04039 23.04945 17.54492
#
# Velocity S-wave (km/s) = 2.54794 3.52532 3.07570
# Velocity P-wave (km/s) = 5.71151 6.57467 6.15823
#
# Compressibility (1/GPa) = 0.02249839
#
# Stress axis : x y z
#
# Youngs Moduli (GPa) = 59.41579 90.89263 80.86880
#
# Poissons Ratio (x) = 0.46358 0.14116
# Poissons Ratio (y) = 0.30304 0.16207
# Poissons Ratio (z) = 0.10371 0.18216
#
# Static dielectric constant tensor:
#      x y z
#    x 1.608580 0.000000 0.006850 
#    y 0.000000 1.217390 0.000000 
#    z 0.006850 0.000000 1.674920 
# 
# From -- ./inp_files/61761.got.cif
#   From: 2010.05.17/outbox.cif.g08.bks.cpg/sg12_31_cif.got.tgz:61761.got - 2010.06.03 13:09:07.
