data_PCOD9214454
_publ_section_title
;
Structure prediction by ZEFSAII (Michael W. Deem and Ramdas Pophale) SiO2 
 PCOD9214454
Probable space group: C 2/M
;
_chemical_formula_sum "Si O2"
_cell_formula_units_Z 48
_cell_length_a 25.952542
_cell_length_b 8.733078
_cell_length_c 14.789761
_cell_angle_alpha 90.000000
_cell_angle_beta 40.797459
_cell_angle_gamma 90.000000
_cell_volume 2190.175457
_symmetry_space_group_name_H-M "C 2/M"
_symmetry_group_IT_number 12
_symmetry_cell_setting 'monoclinic'
loop_
_space_group_symop_operation_xyz
x,y,z
-x,y,-z
-x,-y,-z
x,-y,z
1/2+x,1/2+y,z
1/2-x,1/2+y,-z
1/2-x,1/2-y,-z
1/2+x,1/2-y,z
loop_
_atom_site_type_symbol
_atom_site_label
_atom_site_fract_x
_atom_site_fract_y
_atom_site_fract_z
Si Si1 0.924630 0.180694 0.730389
Si Si2 0.584134 0.317309 0.935595
Si Si3 0.917242 0.679563 0.400541
Si Si4 0.669566 0.682252 0.645225
Si Si5 0.830536 0.817142 0.678600
Si Si6 0.334971 0.818837 0.007093
O O1 0.897773 0.214343 0.664188
O O2 0.000540 0.270955 0.664084
O O3 0.940775 0.000000 0.715314
O O4 0.853605 0.225903 0.891904
O O5 0.591999 0.500000 0.943463
O O6 0.648039 0.268399 0.775233
O O7 0.598635 0.225368 0.007650
O O8 0.500000 0.293836 0.000000
O O9 0.915422 0.500000 0.385869
O O10 0.899162 0.767641 0.332086
O O11 0.850316 0.726790 0.561850
O O12 0.674640 0.500000 0.639087
O O13 0.750000 0.750000 0.500000
O O14 0.747712 0.778568 0.835624
O O15 0.830987 0.000000 0.659022
O O16 0.335503 0.000000 0.987469
#
# Coordination Sequence:
#
# PCOD9214454 Si02
#       6
#     8   8   8   8   8   8
#     4  11  23  41  64  88 121 163 203 247 303 365
#     4  10  22  40  61  85 115 156 202 244 293 354
#     4  12  25  40  62  92 124 159 203 254 304 358
#     4  11  23  40  63  90 122 160 202 249 301 359
#     4  10  23  42  63  89 122 161 202 248 305 364
#     4  11  23  39  62  92 123 155 198 251 302 359
#
# _framework density 21.916051
#
# number of rings (size 3 to 8) (size 9 to 14) (size 15 to 20)
#    0.000    1.167    0.000    6.000    0.000   10.333 
#    0.000    0.000    0.000    0.000    0.000    0.000 
#    0.000    0.000    0.000    0.000    0.000    0.000 
#
# Total GULP energy -134414.945532 kJ/mol
# GULP energy per Si atom -5600.622730 kJ/mol
# Density = 2.186617 g / cm^3
# Si number density = 21.916051 Si / 1000 Ang^3
#
#
#
# Elastic Constant Matrix: (Units=GPa)
#
#
# Indices 1 2 3 4 5 6 
#
# 1 45.8914 -2.8474 -10.5802 -0.0001 3.8479 0.0000
# 2 -2.8474 22.8245 5.8604 -0.0016 9.9888 0.0005
# 3 -10.5802 5.8604 62.6329 -0.0006 3.6063 0.0002
# 4 -0.0001 -0.0016 -0.0006 33.7661 0.0001 -6.5059
# 5 3.8479 9.9888 3.6063 0.0001 41.5360 0.0000
# 6 0.0000 0.0005 0.0002 -6.5059 0.0000 23.8095
#
#
#
# Elastic Compliance Matrix: (Units=1/GPa)
#
#
# Indices 1 2 3 4 5 6 
#
# 1 0.023146 0.003350 0.003785 0.000000 -0.003279 0.000000
# 2 0.003350 0.050429 -0.003454 0.000002 -0.012138 0.000000
# 3 0.003785 -0.003454 0.016986 0.000000 -0.000995 0.000000
# 4 0.000000 0.000002 0.000000 0.031261 -0.000001 0.008542
# 5 -0.003279 -0.012138 -0.000995 -0.000001 0.027385 0.000000
# 6 0.000000 0.000000 0.000000 0.008542 0.000000 0.044334
#
#
# Mechanical properties :
#
#
# Convention : Reuss Voigt Hill
#
# Bulk Modulus (GPa) = 10.21185 12.91269 11.56227
# Shear Modulus (GPa) = 22.84991 29.08338 25.96665
#
# Velocity S-wave (km/s) = 3.23245 3.64680 3.44586
# Velocity P-wave (km/s) = 4.31292 4.86178 4.59555
#
# Compressibility (1/GPa) = 0.09792549
#
# Stress axis : x y z
#
# Youngs Moduli (GPa) = 43.20389 19.82972 58.87232
#
# Poissons Ratio (x) = -0.06644 -0.22285
# Poissons Ratio (y) = -0.14475 0.20332
# Poissons Ratio (z) = -0.16354 0.06848
#
# Static dielectric constant tensor:
#      x y z
#    x 1.806430 0.000000 -0.029180 
#    y 0.000000 1.726710 0.000000 
#    z -0.029180 0.000000 1.834990 
# 
# From -- ./inp_files/244690.got.cif
#   From: 2010.05.17/outbox.cif.g08.bks.cpg/sg12_123_cif.got.tgz:244690.got - 2010.06.03 13:09:07.
