data_PCOD9214248
_publ_section_title
;
Structure prediction by ZEFSAII (Michael W. Deem and Ramdas Pophale) SiO2 
 PCOD9214248
Probable space group: C 2/M
;
_chemical_formula_sum "Si O2"
_cell_formula_units_Z 44
_cell_length_a 17.138980
_cell_length_b 20.497076
_cell_length_c 9.462446
_cell_angle_alpha 90.000000
_cell_angle_beta 144.970666
_cell_angle_gamma 90.000000
_cell_volume 1908.046575
_symmetry_space_group_name_H-M "C 2/M"
_symmetry_group_IT_number 12
_symmetry_cell_setting 'monoclinic'
loop_
_space_group_symop_operation_xyz
x,y,z
-x,y,-z
-x,-y,-z
x,-y,z
1/2+x,1/2+y,z
1/2-x,1/2+y,-z
1/2-x,1/2-y,-z
1/2+x,1/2-y,z
loop_
_atom_site_type_symbol
_atom_site_label
_atom_site_fract_x
_atom_site_fract_y
_atom_site_fract_z
Si Si1 0.257526 0.640746 0.219191
Si Si2 0.000000 0.378828 0.000000
Si Si3 0.904791 0.072116 0.651440
Si Si4 0.817525 0.633514 0.499155
Si Si5 0.523110 0.250014 0.377465
Si Si6 0.816362 0.142159 0.992122
O O1 0.316784 0.575466 0.377434
O O2 0.374349 0.692461 0.425897
O O3 0.240568 0.634764 0.028224
O O4 0.123454 0.657680 0.106856
O O5 0.079853 0.410545 0.252882
O O6 0.827973 0.123365 0.640106
O O7 0.055661 0.094115 0.837148
O O8 0.901104 0.000000 0.708298
O O9 0.895522 0.702959 0.607412
O O10 0.781118 0.625618 0.281826
O O11 0.500000 0.218775 0.500000
O O12 0.389928 0.285725 0.113140
#
# Coordination Sequence:
#
# PCOD9214248 Si02
#       6
#     8   4   8   8   8   8
#     4   9  21  41  61  97 126 162 206 248 312 379
#     4  10  24  38  55  88 134 168 201 246 304 368
#     4  10  22  44  67  93 126 157 202 269 318 355
#     4  11  24  39  61  93 127 171 206 253 308 374
#     4   9  21  39  62  91 129 164 203 260 308 359
#     4  10  22  39  65  95 125 159 215 258 300 372
#
# _framework density 23.060234999999999
#
# number of rings (size 3 to 8) (size 9 to 14) (size 15 to 20)
#    0.000    2.182    0.000    2.182    5.091   10.909 
#    0.000    7.273    0.000    0.545    0.000    0.000 
#    0.000    0.000    0.000    0.000    0.000    0.000 
#
# Total GULP energy -122527.793176 kJ/mol
# GULP energy per Si atom -5569.445144 kJ/mol
# Density = 2.300775 g / cm^3
# Si number density = 23.060235 Si / 1000 Ang^3
#
#
#
# Elastic Constant Matrix: (Units=GPa)
#
#
# Indices 1 2 3 4 5 6 
#
# 1 158.6001 34.2099 42.0018 0.0000 -13.8767 0.0000
# 2 34.2099 62.3095 8.3964 0.0000 -7.0740 0.0000
# 3 42.0018 8.3964 168.0934 0.0000 -33.0591 0.0000
# 4 0.0000 0.0000 0.0000 -1.7251 0.0000 -1.5282
# 5 -13.8767 -7.0740 -33.0591 0.0000 38.9762 0.0000
# 6 0.0000 0.0000 0.0000 -1.5282 0.0000 0.0545
#
#
#
# Elastic Compliance Matrix: (Units=1/GPa)
#
#
# Indices 1 2 3 4 5 6 
#
# 1 0.007622 -0.003896 -0.001579 0.000000 0.000668 0.000000
# 2 -0.003896 0.018389 0.000526 0.000000 0.002397 0.000000
# 3 -0.001579 0.000526 0.007472 0.000000 0.005871 0.000000
# 4 0.000000 0.000000 0.000000 -0.022421 0.000000 -0.629042
# 5 0.000668 0.002397 0.005871 0.000000 0.031309 0.000000
# 6 0.000000 0.000000 0.000000 -0.629042 0.000000 0.710088
#
#
# Mechanical properties :
#
#
# Convention : Reuss Voigt Hill
#
# Bulk Modulus (GPa) = 42.39756 62.02438 52.21097
# Shear Modulus (GPa) = 6.49166 27.75411 17.12288
#
# Velocity S-wave (km/s) = 1.67964 3.47298 2.72789
# Velocity P-wave (km/s) = 4.71032 6.56028 5.71071
#
# Compressibility (1/GPa) = 0.02358626
#
# Stress axis : x y z
#
# Youngs Moduli (GPa) = 131.19819 54.37958 133.83468
#
# Poissons Ratio (x) = 0.21188 0.21128
# Poissons Ratio (y) = 0.51118 -0.07045
# Poissons Ratio (z) = 0.20711 -0.02863
#
# Static dielectric constant tensor:
#      x y z
#    x 1.878640 0.000000 -0.025940 
#    y 0.000000 1.876810 0.000000 
#    z -0.025940 0.000000 1.969030 
# 
# From -- ./inp_files/79203.got.cif
#   From: 2010.05.17/outbox.cif.g08.bks.cpg/sg12_40_cif.got.tgz:79203.got - 2010.06.03 13:09:07.
