data_PCOD9214916
_publ_section_title
;
Structure prediction by ZEFSAII (Michael W. Deem and Ramdas Pophale) SiO2 
 PCOD9214916
Probable space group: C 2/M
;
_chemical_formula_sum "Si O2"
_cell_formula_units_Z 44
_cell_length_a 9.327124
_cell_length_b 9.554290
_cell_length_c 23.934595
_cell_angle_alpha 90.000000
_cell_angle_beta 66.986637
_cell_angle_gamma 90.000000
_cell_volume 1963.158328
_symmetry_space_group_name_H-M "C 2/M"
_symmetry_group_IT_number 12
_symmetry_cell_setting 'monoclinic'
loop_
_space_group_symop_operation_xyz
x,y,z
-x,y,-z
-x,-y,-z
x,-y,z
1/2+x,1/2+y,z
1/2-x,1/2+y,-z
1/2-x,1/2-y,-z
1/2+x,1/2-y,z
loop_
_atom_site_type_symbol
_atom_site_label
_atom_site_fract_x
_atom_site_fract_y
_atom_site_fract_z
Si Si1 0.807098 0.000000 0.003818
Si Si2 0.249897 0.840216 0.178459
Si Si3 0.544455 0.785777 0.055375
Si Si4 0.645546 0.660785 0.437038
Si Si5 0.966715 0.337170 0.248071
Si Si6 0.070844 0.837208 0.633345
O O1 0.694620 0.876996 0.048366
O O2 0.912583 0.876473 0.957647
O O3 0.395892 0.812144 0.116245
O O4 0.316705 0.828372 0.231100
O O5 0.110248 0.732600 0.193196
O O6 0.196149 0.000000 0.177482
O O7 0.500000 0.838754 0.000000
O O8 0.500000 0.684784 0.500000
O O9 0.699622 0.500000 0.437532
O O10 0.783344 0.770646 0.421734
O O11 0.577296 0.671635 0.384758
O O12 0.996647 0.500000 0.255179
O O13 0.948111 0.251203 0.307649
O O14 0.098064 0.000000 0.642020
#
# Coordination Sequence:
#
# PCOD9214916 Si02
#       6
#     4   8   8   8   8   8
#     4  10  24  40  62  90 122 154 200 240 324 374
#     4  11  26  43  64  92 126 157 211 262 309 375
#     4  11  24  40  64  89 121 158 197 254 315 376
#     4  10  22  40  65  97 132 168 206 255 309 363
#     4  11  26  44  64  91 123 170 211 257 311 366
#     4  11  23  41  65  93 130 166 212 258 305 365
#
# _framework density 22.412865
#
# number of rings (size 3 to 8) (size 9 to 14) (size 15 to 20)
#    0.000    1.273    0.909    3.273    6.364    7.636 
#    0.000    0.000    0.000    0.000    0.000    0.000 
#    0.000    0.000    0.000    0.000    0.000    0.000 
#
# Total GULP energy -122711.922733 kJ/mol
# GULP energy per Si atom -5577.814670 kJ/mol
# Density = 2.236185 g / cm^3
# Si number density = 22.412865 Si / 1000 Ang^3
#
#
#
# Elastic Constant Matrix: (Units=GPa)
#
#
# Indices 1 2 3 4 5 6 
#
# 1 44.9882 38.0321 4.8394 0.0000 -7.6909 0.0000
# 2 38.0321 175.0546 20.0625 0.0000 -11.1865 0.0000
# 3 4.8394 20.0625 78.1334 0.0000 3.4425 0.0000
# 4 0.0000 0.0000 0.0000 34.5178 0.0000 -5.6464
# 5 -7.6909 -11.1865 3.4425 0.0000 32.1039 0.0000
# 6 0.0000 0.0000 0.0000 -5.6464 0.0000 9.9828
#
#
#
# Elastic Compliance Matrix: (Units=1/GPa)
#
#
# Indices 1 2 3 4 5 6 
#
# 1 0.027916 -0.005707 -0.000473 0.000000 0.004750 0.000000
# 2 -0.005707 0.007215 -0.001557 0.000000 0.001314 0.000000
# 3 -0.000473 -0.001557 0.013320 0.000000 -0.002084 0.000000
# 4 0.000000 0.000000 0.000000 0.031924 0.000000 0.018057
# 5 0.004750 0.001314 -0.002084 0.000000 0.032968 0.000000
# 6 0.000000 0.000000 0.000000 0.018057 0.000000 0.110385
#
#
# Mechanical properties :
#
#
# Convention : Reuss Voigt Hill
#
# Bulk Modulus (GPa) = 30.32513 47.11602 38.72058
# Shear Modulus (GPa) = 19.98454 31.00373 25.49414
#
# Velocity S-wave (km/s) = 2.98930 3.72331 3.37631
# Velocity P-wave (km/s) = 5.04719 6.28900 5.70200
#
# Compressibility (1/GPa) = 0.03297595
#
# Stress axis : x y z
#
# Youngs Moduli (GPa) = 35.82227 138.60337 75.07781
#
# Poissons Ratio (x) = 0.79104 0.03550
# Poissons Ratio (y) = 0.20444 0.11689
# Poissons Ratio (z) = 0.01694 0.21580
#
# Static dielectric constant tensor:
#      x y z
#    x 1.905740 0.000000 0.029650 
#    y 0.000000 1.777210 0.000000 
#    z 0.029650 0.000000 1.852740 
# 
# From -- ./inp_files/303653.got.cif
#   From: 2010.05.17/outbox.cif.g08.bks.cpg/sg12_152_cif.got.tgz:303653.got - 2010.06.03 13:09:07.
