data_PCOD9214599
_publ_section_title
;
Structure prediction by ZEFSAII (Michael W. Deem and Ramdas Pophale) SiO2 
 PCOD9214599
Probable space group: C 2/M
;
_chemical_formula_sum "Si O2"
_cell_formula_units_Z 58
_cell_length_a 8.129338
_cell_length_b 13.618192
_cell_length_c 22.717999
_cell_angle_alpha 90.000000
_cell_angle_beta 60.308082
_cell_angle_gamma 90.000000
_cell_volume 2184.817815
_symmetry_space_group_name_H-M "C 2/M"
_symmetry_group_IT_number 12
_symmetry_cell_setting 'monoclinic'
loop_
_space_group_symop_operation_xyz
x,y,z
-x,y,-z
-x,-y,-z
x,-y,z
1/2+x,1/2+y,z
1/2-x,1/2+y,-z
1/2-x,1/2-y,-z
1/2+x,1/2-y,z
loop_
_atom_site_type_symbol
_atom_site_label
_atom_site_fract_x
_atom_site_fract_y
_atom_site_fract_z
Si Si1 0.000000 0.000000 0.000000
Si Si2 0.998314 0.891111 0.802642
Si Si3 0.490503 0.882879 0.232475
Si Si4 0.948073 0.117847 0.685725
Si Si5 0.610096 0.289546 0.419592
Si Si6 0.435911 0.699113 0.938080
Si Si7 0.972000 0.617491 0.645619
Si Si8 0.446237 0.892826 0.112456
O O1 0.054543 0.090082 0.036552
O O2 0.046009 0.850976 0.729508
O O3 0.004853 0.825782 0.859124
O O4 0.772257 0.905810 0.834161
O O5 0.081594 0.000000 0.797816
O O6 0.272893 0.849191 0.273088
O O7 0.591701 0.853995 0.275470
O O8 0.562827 0.870284 0.152355
O O9 0.478148 0.000000 0.239249
O O10 0.007828 0.155754 0.611416
O O11 0.957807 0.000000 0.684800
O O12 0.500000 0.287859 0.500000
O O13 0.806195 0.349254 0.393193
O O14 0.619993 0.180157 0.390276
O O15 0.562617 0.797008 0.925841
O O16 0.250000 0.750000 0.000000
O O17 0.952770 0.500000 0.641560
O O18 0.516911 0.000000 0.077562
#
# Coordination Sequence:
#
# PCOD9214599 Si02
#       8
#     2   8   8   8   8   8   8   8
#     4  12  28  48  58  94 132 156 210 254 306 394
#     4   9  18  38  61  86 114 155 207 249 311 377
#     4   7  13  31  57  87 117 151 202 260 314 369
#     4   8  16  32  59  89 118 156 207 259 309 377
#     4  11  22  38  62  96 130 173 223 268 326 398
#     4  12  25  40  63  87 123 168 193 257 325 369
#     4  10  22  40  62  90 131 174 215 272 329 382
#     4   9  19  36  63  92 115 152 213 259 309 387
#
# _framework density 26.546837
#
# number of rings (size 3 to 8) (size 9 to 14) (size 15 to 20)
#    0.000    2.483    0.690    4.138    2.897    1.379 
#    0.000    3.103    0.000    0.000    0.000    0.000 
#    0.000    0.000    0.000    0.000    0.000    0.000 
#
# Total GULP energy -161436.822339 kJ/mol
# GULP energy per Si atom -5566.786977 kJ/mol
# Density = 2.648641 g / cm^3
# Si number density = 26.546837 Si / 1000 Ang^3
#
#
#
# Elastic Constant Matrix: (Units=GPa)
#
#
# Indices 1 2 3 4 5 6 
#
# 1 77.6839 37.4440 46.8767 0.0001 17.7840 0.0002
# 2 37.4440 261.8134 81.4006 0.0000 11.7851 0.0001
# 3 46.8767 81.4006 178.8825 0.0000 29.4731 0.0000
# 4 0.0001 0.0000 0.0000 -33.7845 -0.0001 -99.2615
# 5 17.7840 11.7851 29.4731 -0.0001 36.2065 -0.0002
# 6 0.0002 0.0001 0.0000 -99.2615 -0.0002 -121.1945
#
#
#
# Elastic Compliance Matrix: (Units=1/GPa)
#
#
# Indices 1 2 3 4 5 6 
#
# 1 0.016410 -0.001215 -0.002869 0.000000 -0.005329 0.000000
# 2 -0.001215 0.004541 -0.001851 0.000000 0.000625 0.000000
# 3 -0.002869 -0.001851 0.007914 0.000000 -0.004431 0.000000
# 4 0.000000 0.000000 0.000000 0.021047 0.000000 -0.017238
# 5 -0.005329 0.000625 -0.004431 0.000000 0.033640 0.000000
# 6 0.000000 0.000000 0.000000 -0.017238 0.000000 0.005867
#
#
# Mechanical properties :
#
#
# Convention : Reuss Voigt Hill
#
# Bulk Modulus (GPa) = 58.84272 94.42473 76.63372
# Shear Modulus (GPa) = 46.74926 -0.24392 23.25267
#
# Velocity S-wave (km/s) = 4.20099 -0.30345 2.96279
# Velocity P-wave (km/s) = 6.76349 5.96016 6.37450
#
# Compressibility (1/GPa) = 0.01699446
#
# Stress axis : x y z
#
# Youngs Moduli (GPa) = 60.93969 220.23678 126.35119
#
# Poissons Ratio (x) = 0.26756 0.36255
# Poissons Ratio (y) = 0.07403 0.23386
# Poissons Ratio (z) = 0.17486 0.40763
#
# Static dielectric constant tensor:
#      x y z
#    x 2.033760 0.000000 0.107870 
#    y 0.000000 2.080000 0.000000 
#    z 0.107870 0.000000 2.086950 
# 
# From -- ./inp_files/335150.got.cif
#   From: 2010.05.17/outbox.cif.g08.bks.cpg/sg12_168_cif.got.tgz:335150.got - 2010.06.03 13:09:07.
