data_PCOD9214694
_publ_section_title
;
Structure prediction by ZEFSAII (Michael W. Deem and Ramdas Pophale) SiO2 
 PCOD9214694
Probable space group: C 2/M
;
_chemical_formula_sum "Si O2"
_cell_formula_units_Z 48
_cell_length_a 16.282548
_cell_length_b 8.604496
_cell_length_c 17.138663
_cell_angle_alpha 90.000000
_cell_angle_beta 91.091110
_cell_angle_gamma 90.000000
_cell_volume 2400.744759
_symmetry_space_group_name_H-M "C 2/M"
_symmetry_group_IT_number 12
_symmetry_cell_setting 'monoclinic'
loop_
_space_group_symop_operation_xyz
x,y,z
-x,y,-z
-x,-y,-z
x,-y,z
1/2+x,1/2+y,z
1/2-x,1/2+y,-z
1/2-x,1/2-y,-z
1/2+x,1/2-y,z
loop_
_atom_site_type_symbol
_atom_site_label
_atom_site_fract_x
_atom_site_fract_y
_atom_site_fract_z
Si Si1 0.504738 0.187300 0.410695
Si Si2 0.841578 0.185941 0.993208
Si Si3 0.596671 0.817156 0.168242
Si Si4 0.162798 0.184191 0.325029
Si Si5 0.581595 0.314894 0.837732
Si Si6 0.343785 0.188292 0.310888
O O1 0.500000 0.241273 0.500000
O O2 0.589109 0.239382 0.371925
O O3 0.423541 0.238289 0.361825
O O4 0.503540 0.000000 0.410367
O O5 0.882019 0.261204 0.918058
O O6 0.840676 0.000000 0.983771
O O7 0.750000 0.250000 0.000000
O O8 0.889327 0.221149 0.074186
O O9 0.648462 0.727627 0.234354
O O10 0.501797 0.776318 0.181629
O O11 0.611053 0.000000 0.176307
O O12 0.256158 0.232235 0.346614
O O13 0.156251 0.000000 0.334682
O O14 0.567202 0.500000 0.832123
O O15 0.647030 0.262694 0.774407
O O16 0.345058 0.000000 0.303757
#
# Coordination Sequence:
#
# PCOD9214694 Si02
#       6
#     8   8   8   8   8   8
#     4  10  22  42  66  93 127 166 207 255 313 376
#     4  11  24  40  58  86 123 162 210 260 310 365
#     4  12  24  39  61  88 121 164 210 257 316 370
#     4  11  23  40  64  94 127 165 212 260 311 370
#     4  11  23  39  61  89 121 161 209 260 309 365
#     4  10  22  40  63  92 127 167 207 254 311 372
#
# _framework density 19.993797000000001
#
# number of rings (size 3 to 8) (size 9 to 14) (size 15 to 20)
#    0.000    1.167    1.667    4.500    0.000    9.667 
#    0.000    0.000    0.000    0.000    0.000    0.000 
#    0.000    0.000    0.000    0.000    0.000    0.000 
#
# Total GULP energy -134212.367766 kJ/mol
# GULP energy per Si atom -5592.181990 kJ/mol
# Density = 1.994829 g / cm^3
# Si number density = 19.993797 Si / 1000 Ang^3
#
#
#
# Elastic Constant Matrix: (Units=GPa)
#
#
# Indices 1 2 3 4 5 6 
#
# 1 123.7711 5.7212 35.1904 0.0000 -16.5148 0.0000
# 2 5.7212 5.7317 2.5742 0.0000 -3.4523 0.0000
# 3 35.1904 2.5742 103.4917 0.0000 -15.0036 0.0000
# 4 0.0000 0.0000 0.0000 23.2359 0.0000 -5.1830
# 5 -16.5148 -3.4523 -15.0036 0.0000 12.4193 0.0000
# 6 0.0000 0.0000 0.0000 -5.1830 0.0000 29.4348
#
#
#
# Elastic Compliance Matrix: (Units=1/GPa)
#
#
# Indices 1 2 3 4 5 6 
#
# 1 0.010135 -0.003025 -0.001866 0.000000 0.010382 0.000000
# 2 -0.003025 0.211777 0.004500 0.000000 0.060283 0.000000
# 3 -0.001866 0.004500 0.012131 0.000000 0.013426 0.000000
# 4 0.000000 0.000000 0.000000 0.044796 0.000000 0.007888
# 5 0.010382 0.060283 0.013426 0.000000 0.127302 0.000000
# 6 0.000000 0.000000 0.000000 0.007888 0.000000 0.035362
#
#
# Mechanical properties :
#
#
# Convention : Reuss Voigt Hill
#
# Bulk Modulus (GPa) = 4.28701 35.55180 19.91941
# Shear Modulus (GPa) = 9.61463 25.65191 17.63327
#
# Velocity S-wave (km/s) = 2.19528 3.58578 2.97296
# Velocity P-wave (km/s) = 2.92822 5.91301 4.66574
#
# Compressibility (1/GPa) = 0.23326270
#
# Stress axis : x y z
#
# Youngs Moduli (GPa) = 98.66734 4.72194 82.43014
#
# Poissons Ratio (x) = 0.01428 0.15380
# Poissons Ratio (y) = 0.29849 -0.37097
# Poissons Ratio (z) = 0.18410 -0.02125
#
# Static dielectric constant tensor:
#      x y z
#    x 1.715270 0.000000 0.000930 
#    y 0.000000 1.673410 0.000000 
#    z 0.000930 0.000000 1.700330 
# 
# From -- ./inp_files/267670.got.cif
#   From: 2010.05.17/outbox.cif.g08.bks.cpg/sg12_134_cif.got.tgz:267670.got - 2010.06.03 13:09:07.
