data_PCOD9214358
_publ_section_title
;
Structure prediction by ZEFSAII (Michael W. Deem and Ramdas Pophale) SiO2 
 PCOD9214358
Probable space group: C 2/M
;
_chemical_formula_sum "Si O2"
_cell_formula_units_Z 56
_cell_length_a 16.283137
_cell_length_b 8.934309
_cell_length_c 23.011133
_cell_angle_alpha 90.000000
_cell_angle_beta 58.609438
_cell_angle_gamma 90.000000
_cell_volume 2857.656869
_symmetry_space_group_name_H-M "C 2/M"
_symmetry_group_IT_number 12
_symmetry_cell_setting 'monoclinic'
loop_
_space_group_symop_operation_xyz
x,y,z
-x,y,-z
-x,-y,-z
x,-y,z
1/2+x,1/2+y,z
1/2-x,1/2+y,-z
1/2-x,1/2-y,-z
1/2+x,1/2-y,z
loop_
_atom_site_type_symbol
_atom_site_label
_atom_site_fract_x
_atom_site_fract_y
_atom_site_fract_z
Si Si1 0.209095 0.679407 0.339782
Si Si2 0.099627 0.673025 0.929094
Si Si3 0.561219 0.321541 0.205575
Si Si4 0.730384 0.824225 0.069366
Si Si5 0.966159 0.179792 0.652040
Si Si6 0.191095 0.819568 0.574496
Si Si7 0.880235 0.676599 0.214326
O O1 0.211142 0.500000 0.333995
O O2 0.101430 0.739686 0.369787
O O3 0.257923 0.722131 0.383363
O O4 0.276444 0.754658 0.266119
O O5 0.132486 0.500000 0.926318
O O6 0.177723 0.785359 0.925317
O O7 0.090022 0.694349 0.863816
O O8 0.000000 0.691070 0.000000
O O9 0.565861 0.500000 0.197429
O O10 0.639040 0.245619 0.135517
O O11 0.574679 0.285799 0.268506
O O12 0.456997 0.263203 0.225099
O O13 0.716135 0.000000 0.067350
O O14 0.750000 0.750000 0.000000
O O15 0.078584 0.224361 0.611573
O O16 0.961404 0.000000 0.645611
O O17 0.250000 0.750000 0.500000
O O18 0.193637 0.000000 0.570441
O O19 0.880307 0.500000 0.227536
#
# Coordination Sequence:
#
# PCOD9214358 Si02
#       7
#     8   8   8   8   8   8   8
#     4  11  23  41  64  94 130 168 214 267 320 378
#     4  10  22  40  59  83 119 159 202 259 318 375
#     4  11  22  40  64  89 125 165 206 262 318 372
#     4  12  25  40  59  86 119 159 209 260 316 381
#     4  10  22  42  65  93 130 170 212 261 322 384
#     4  10  23  44  66  93 131 171 212 264 325 384
#     4  11  22  37  62  93 124 164 211 257 316 380
#
# _framework density 19.596474000000001
#
# number of rings (size 3 to 8) (size 9 to 14) (size 15 to 20)
#    0.000    1.286    1.429    4.286    0.000    9.429 
#    0.000    2.857    0.000    0.000    0.000    0.000 
#    0.000    0.000    0.000    0.000    0.000    0.000 
#
# Total GULP energy -156560.507873 kJ/mol
# GULP energy per Si atom -5591.446710 kJ/mol
# Density = 1.955187 g / cm^3
# Si number density = 19.596474 Si / 1000 Ang^3
#
#
#
# Elastic Constant Matrix: (Units=GPa)
#
#
# Indices 1 2 3 4 5 6 
#
# 1 128.2813 44.9811 47.3553 0.0000 -9.0745 0.0002
# 2 44.9811 64.4600 41.8709 0.0000 -1.1386 0.0005
# 3 47.3553 41.8709 115.1867 0.0000 -7.9443 0.0000
# 4 0.0000 0.0000 0.0000 33.1734 0.0000 -3.4501
# 5 -9.0745 -1.1386 -7.9443 0.0000 21.6405 0.0000
# 6 0.0002 0.0005 0.0000 -3.4501 0.0000 -207.2791
#
#
#
# Elastic Compliance Matrix: (Units=1/GPa)
#
#
# Indices 1 2 3 4 5 6 
#
# 1 0.010994 -0.006326 -0.001975 0.000000 0.003552 0.000000
# 2 -0.006326 0.024009 -0.006384 0.000000 -0.003733 0.000000
# 3 -0.001975 -0.006384 0.012039 0.000000 0.003255 0.000000
# 4 0.000000 0.000000 0.000000 0.030093 0.000000 -0.000501
# 5 0.003552 -0.003733 0.003255 0.000000 0.048698 0.000000
# 6 0.000000 0.000000 0.000000 -0.000501 0.000000 -0.004816
#
#
# Mechanical properties :
#
#
# Convention : Reuss Voigt Hill
#
# Bulk Modulus (GPa) = 56.59018 64.03806 60.31412
# Shear Modulus (GPa) = 31.99455 -18.91166 6.54145
#
# Velocity S-wave (km/s) = 4.04501 -3.10990 1.82902
# Velocity P-wave (km/s) = 7.12437 4.45578 5.94183
#
# Compressibility (1/GPa) = 0.01767091
#
# Stress axis : x y z
#
# Youngs Moduli (GPa) = 90.95885 41.65157 83.06481
#
# Poissons Ratio (x) = 0.26348 0.16408
# Poissons Ratio (y) = 0.57540 0.53029
# Poissons Ratio (z) = 0.17968 0.26591
#
# Static dielectric constant tensor:
#      x y z
#    x 1.702160 0.000000 -0.010220 
#    y 0.000000 1.636050 0.000000 
#    z -0.010220 0.000000 1.715230 
# 
# From -- ./inp_files/338533.got.cif
#   From: 2010.05.17/outbox.cif.g08.bks.cpg/sg12_170_cif.got.tgz:338533.got - 2010.06.03 13:09:07.
