data_PCOD9214056
_publ_section_title
;
Structure prediction by ZEFSAII (Michael W. Deem and Ramdas Pophale) SiO2 
 PCOD9214056
Probable space group: C 2/M
;
_chemical_formula_sum "Si O2"
_cell_formula_units_Z 64
_cell_length_a 28.609871
_cell_length_b 18.783029
_cell_length_c 8.966011
_cell_angle_alpha 90.000000
_cell_angle_beta 42.440577
_cell_angle_gamma 90.000000
_cell_volume 3251.412599
_symmetry_space_group_name_H-M "C 2/M"
_symmetry_group_IT_number 12
_symmetry_cell_setting 'monoclinic'
loop_
_space_group_symop_operation_xyz
x,y,z
-x,y,-z
-x,-y,-z
x,-y,z
1/2+x,1/2+y,z
1/2-x,1/2+y,-z
1/2-x,1/2-y,-z
1/2+x,1/2-y,z
loop_
_atom_site_type_symbol
_atom_site_label
_atom_site_fract_x
_atom_site_fract_y
_atom_site_fract_z
Si Si1 0.309794 0.275464 0.751605
Si Si2 0.003312 0.868695 0.310177
Si Si3 0.775555 0.686151 0.542866
Si Si4 0.359946 0.580949 0.507992
Si Si5 0.648380 0.582892 0.830591
Si Si6 0.533910 0.077862 0.694829
Si Si7 0.611687 0.078489 0.829186
Si Si8 0.047159 0.725123 0.528518
O O1 0.307890 0.224104 0.611674
O O2 0.312005 0.357134 0.690982
O O3 0.380969 0.263658 0.672739
O O4 0.250000 0.250000 0.000000
O O5 0.937271 0.908550 0.393728
O O6 0.993888 0.785695 0.282012
O O7 0.000000 0.871707 0.500000
O O8 0.076171 0.898044 0.080873
O O9 0.750000 0.750000 0.500000
O O10 0.710805 0.634641 0.732714
O O11 0.831438 0.638853 0.321850
O O12 0.336975 0.500000 0.592793
O O13 0.361309 0.591217 0.325750
O O14 0.665280 0.500000 0.819981
O O15 0.570740 0.075012 0.768710
O O16 0.563040 0.148235 0.554280
O O17 0.544955 0.000000 0.597954
O O18 0.451171 0.089558 0.907586
O O19 0.643057 0.000000 0.782446
O O20 0.000000 0.711739 0.500000
#
# Coordination Sequence:
#
# PCOD9214056 Si02
#       8
#     8   8   8   8   8   8   8   8
#     4  11  25  44  62  91 130 169 212 258 313 376
#     4  10  23  40  64  95 123 160 209 261 318 379
#     4  12  24  39  63  91 123 167 209 254 304 376
#     4  10  22  44  65  89 127 165 207 263 323 376
#     4  11  24  41  63  94 127 164 209 262 317 381
#     4   9  18  35  61  87 115 149 195 249 308 363
#     4   9  19  37  59  87 118 150 190 252 309 355
#     4  10  22  39  62  86 121 160 203 254 305 369
#
# _framework density 19.683751999999998
#
# number of rings (size 3 to 8) (size 9 to 14) (size 15 to 20)
#    0.000    1.750    2.500    1.875    7.000    2.250 
#    2.250    1.250    0.000    0.000    0.000    0.000 
#    0.000    0.000    0.000    0.000    0.000    0.000 
#
# Total GULP energy -178445.342445 kJ/mol
# GULP energy per Si atom -5576.416951 kJ/mol
# Density = 1.963895 g / cm^3
# Si number density = 19.683752 Si / 1000 Ang^3
#
#
#
# Elastic Constant Matrix: (Units=GPa)
#
#
# Indices 1 2 3 4 5 6 
#
# 1 60.6515 17.7955 2.8882 0.0000 -10.2312 0.0000
# 2 17.7955 155.8016 51.0270 0.0000 -12.5227 0.0000
# 3 2.8882 51.0270 63.2687 0.0000 -13.4194 0.0000
# 4 0.0000 0.0000 0.0000 22.0678 0.0000 -8.8498
# 5 -10.2312 -12.5227 -13.4194 0.0000 21.9901 0.0000
# 6 0.0000 0.0000 0.0000 -8.8498 0.0000 29.8022
#
#
#
# Elastic Compliance Matrix: (Units=1/GPa)
#
#
# Indices 1 2 3 4 5 6 
#
# 1 0.018580 -0.002371 0.003000 0.000000 0.009125 0.000000
# 2 -0.002371 0.009036 -0.007262 0.000000 -0.000389 0.000000
# 3 0.003000 -0.007262 0.024059 0.000000 0.011942 0.000000
# 4 0.000000 0.000000 0.000000 0.051441 0.000000 0.015275
# 5 0.009125 -0.000389 0.011942 0.000000 0.056786 0.000000
# 6 0.000000 0.000000 0.000000 0.015275 0.000000 0.038091
#
#
# Mechanical properties :
#
#
# Convention : Reuss Voigt Hill
#
# Bulk Modulus (GPa) = 26.03685 47.01594 36.52639
# Shear Modulus (GPa) = 22.31520 28.63942 25.47731
#
# Velocity S-wave (km/s) = 3.37068 3.81856 3.60159
# Velocity P-wave (km/s) = 5.32963 6.58630 5.99100
#
# Compressibility (1/GPa) = 0.03840710
#
# Stress axis : x y z
#
# Youngs Moduli (GPa) = 53.82204 110.66254 41.56508
#
# Poissons Ratio (x) = 0.26240 -0.12468
# Poissons Ratio (y) = 0.12762 0.30186
# Poissons Ratio (z) = -0.16144 0.80367
#
# Static dielectric constant tensor:
#      x y z
#    x 1.701500 0.000000 0.010410 
#    y 0.000000 1.739040 0.000000 
#    z 0.010410 0.000000 1.719510 
# 
# From -- ./inp_files/112841.got.cif
#   From: 2010.05.17/outbox.cif.g08.bks.cpg/sg12_57_cif.got.tgz:112841.got - 2010.06.03 13:09:07.
