data_PCOD9214294
_publ_section_title
;
Structure prediction by ZEFSAII (Michael W. Deem and Ramdas Pophale) SiO2 
 PCOD9214294
Probable space group: C 2/M
;
_chemical_formula_sum "Si O2"
_cell_formula_units_Z 36
_cell_length_a 15.353442
_cell_length_b 13.950725
_cell_length_c 18.400666
_cell_angle_alpha 90.000000
_cell_angle_beta 24.457532
_cell_angle_gamma 90.000000
_cell_volume 1631.758892
_symmetry_space_group_name_H-M "C 2/M"
_symmetry_group_IT_number 12
_symmetry_cell_setting 'monoclinic'
loop_
_space_group_symop_operation_xyz
x,y,z
-x,y,-z
-x,-y,-z
x,-y,z
1/2+x,1/2+y,z
1/2-x,1/2+y,-z
1/2-x,1/2-y,-z
1/2+x,1/2-y,z
loop_
_atom_site_type_symbol
_atom_site_label
_atom_site_fract_x
_atom_site_fract_y
_atom_site_fract_z
Si Si1 0.081778 0.695212 0.746601
Si Si2 0.736321 0.295864 0.110052
Si Si3 0.002707 0.708956 0.410615
Si Si4 0.163741 0.000000 0.442620
Si Si5 0.437299 0.000000 0.462757
Si Si6 0.473128 0.500000 0.748465
O O1 0.262281 0.763380 0.577763
O O2 0.188646 0.592716 0.670629
O O3 0.890845 0.713679 0.836877
O O4 0.977682 0.717290 0.903873
O O5 0.661708 0.278998 0.248942
O O6 0.659683 0.401583 0.141852
O O7 0.000000 0.717325 0.500000
O O8 0.032722 0.599627 0.362979
O O9 0.000000 0.000000 0.500000
O O10 0.046743 0.000000 0.608684
O O11 0.500000 0.000000 0.500000
O O12 0.186708 0.000000 0.635136
#
# Coordination Sequence:
#
# PCOD9214294 Si02
#       6
#     8   8   8   4   4   4
#     4  11  23  42  64  94 132 170 222 264 324 396
#     4  11  24  40  67  97 124 178 215 271 329 386
#     4  11  22  42  64  94 130 167 218 269 325 390
#     4  12  25  42  67 101 135 181 216 271 339 398
#     4  10  22  39  68  93 123 169 215 274 325 379
#     4  12  21  41  66  94 133 165 219 270 325 393
#
# _framework density 22.062083000000001
#
# number of rings (size 3 to 8) (size 9 to 14) (size 15 to 20)
#    0.000    0.889    4.444    3.333    0.000    0.889 
#    0.000    3.333    0.000    4.000    0.000    0.000 
#    0.000    0.000    0.000    0.000    0.000    0.000 
#
# Total GULP energy -100477.357738 kJ/mol
# GULP energy per Si atom -5582.075430 kJ/mol
# Density = 2.201187 g / cm^3
# Si number density = 22.062083 Si / 1000 Ang^3
#
#
#
# Elastic Constant Matrix: (Units=GPa)
#
#
# Indices 1 2 3 4 5 6 
#
# 1 96.4267 34.3369 37.6461 -0.0049 -2.1584 0.0009
# 2 34.3369 135.1374 17.8693 0.0040 3.2738 -0.0085
# 3 37.6461 17.8693 96.2734 0.0067 29.8383 -0.0103
# 4 -0.0049 0.0040 0.0067 22.0536 -0.0078 9.0129
# 5 -2.1584 3.2738 29.8383 -0.0078 27.4498 0.0044
# 6 0.0009 -0.0085 -0.0103 9.0129 0.0044 25.5816
#
#
#
# Elastic Compliance Matrix: (Units=1/GPa)
#
#
# Indices 1 2 3 4 5 6 
#
# 1 0.015104 -0.002943 -0.008802 0.000016 0.011107 -0.000012
# 2 -0.002943 0.008176 0.000011 -0.000004 -0.001218 0.000005
# 3 -0.008802 0.000011 0.021176 -0.000026 -0.023712 0.000022
# 4 0.000016 -0.000004 -0.000026 0.052971 0.000048 -0.018663
# 5 0.011107 -0.001218 -0.023712 0.000048 0.063225 -0.000038
# 6 -0.000012 0.000005 0.000022 -0.018663 -0.000038 0.045666
#
#
# Mechanical properties :
#
#
# Convention : Reuss Voigt Hill
#
# Bulk Modulus (GPa) = 47.64782 56.39357 52.02070
# Shear Modulus (GPa) = 21.11653 30.88266 25.99960
#
# Velocity S-wave (km/s) = 3.09713 3.74546 3.43662
# Velocity P-wave (km/s) = 5.86802 6.65743 6.27515
#
# Compressibility (1/GPa) = 0.02098732
#
# Stress axis : x y z
#
# Youngs Moduli (GPa) = 66.20964 122.31387 47.22274
#
# Poissons Ratio (x) = 0.35994 0.41566
# Poissons Ratio (y) = 0.19484 -0.00051
# Poissons Ratio (z) = 0.58278 -0.00132
#
# Static dielectric constant tensor:
#      x y z
#    x 2.466620 -0.000060 -0.178840 
#    y -0.000060 1.836760 0.000040 
#    z -0.178840 0.000040 1.924330 
# 
# From -- ./inp_files/270105.got.cif
#   From: 2010.05.17/outbox.cif.g08.bks.cpg/sg12_136_cif.got.tgz:270105.got - 2010.06.03 13:09:07.
