data_PCOD9214197
_publ_section_title
;
Structure prediction by ZEFSAII (Michael W. Deem and Ramdas Pophale) SiO2 
 PCOD9214197
Probable space group: C 2/M
;
_chemical_formula_sum "Si O2"
_cell_formula_units_Z 32
_cell_length_a 9.674853
_cell_length_b 10.639777
_cell_length_c 30.850106
_cell_angle_alpha 90.000000
_cell_angle_beta 151.338335
_cell_angle_gamma 90.000000
_cell_volume 1523.160964
_symmetry_space_group_name_H-M "C 2/M"
_symmetry_group_IT_number 12
_symmetry_cell_setting 'monoclinic'
loop_
_space_group_symop_operation_xyz
x,y,z
-x,y,-z
-x,-y,-z
x,-y,z
1/2+x,1/2+y,z
1/2-x,1/2+y,-z
1/2-x,1/2-y,-z
1/2+x,1/2-y,z
loop_
_atom_site_type_symbol
_atom_site_label
_atom_site_fract_x
_atom_site_fract_y
_atom_site_fract_z
Si Si1 0.702422 0.356034 0.319855
Si Si2 0.267469 0.357945 0.040622
Si Si3 0.771299 0.292377 0.244045
Si Si4 0.582503 0.636895 0.572877
O O1 0.789254 0.500000 0.341355
O O2 0.633243 0.301895 0.253292
O O3 0.414175 0.339965 0.269449
O O4 0.948101 0.264504 0.407351
O O5 0.262805 0.500000 0.020971
O O6 0.553130 0.339704 0.148083
O O7 0.250000 0.250000 0.000000
O O8 0.000000 0.346440 0.000000
O O9 0.067954 0.369960 0.328918
O O10 0.500000 0.654259 0.500000
O O11 0.470098 0.500000 0.557065
#
# Coordination Sequence:
#
# PCOD9214197 Si02
#       4
#     8   8   8   8
#     4  10  22  39  64  91 122 163 207 247 300 362
#     4  11  24  42  65  91 122 161 206 252 307 365
#     4  10  22  41  63  88 126 162 198 252 307 357
#     4   9  20  38  62  92 125 162 202 246 304 365
#
# _framework density 21.008942000000001
#
# number of rings (size 3 to 8) (size 9 to 14) (size 15 to 20)
#    1.500    0.500    0.000    3.750    0.000    6.000 
#    0.000    0.000    0.000    0.000    0.000    0.000 
#    0.000    0.000    0.000    0.000    0.000    0.000 
#
# Total GULP energy -89097.009557 kJ/mol
# GULP energy per Si atom -5568.563097 kJ/mol
# Density = 2.096112 g / cm^3
# Si number density = 21.008942 Si / 1000 Ang^3
#
#
#
# Elastic Constant Matrix: (Units=GPa)
#
#
# Indices 1 2 3 4 5 6 
#
# 1 50.3364 63.9023 29.6484 0.0000 -8.4548 0.0000
# 2 63.9023 163.0858 62.7851 0.0000 -36.4320 0.0000
# 3 29.6484 62.7851 148.2652 0.0000 -9.6240 0.0000
# 4 0.0000 0.0000 0.0000 25.0855 0.0000 -9.2529
# 5 -8.4548 -36.4320 -9.6240 0.0000 38.2626 0.0000
# 6 0.0000 0.0000 0.0000 -9.2529 0.0000 31.2275
#
#
#
# Elastic Compliance Matrix: (Units=1/GPa)
#
#
# Indices 1 2 3 4 5 6 
#
# 1 0.041614 -0.017511 -0.001415 0.000000 -0.007834 0.000000
# 2 -0.017511 0.016570 -0.002788 0.000000 0.011207 0.000000
# 3 -0.001415 -0.002788 0.008148 0.000000 -0.000917 0.000000
# 4 0.000000 0.000000 0.000000 0.044755 0.000000 0.013261
# 5 -0.007834 0.011207 -0.000917 0.000000 0.034844 0.000000
# 6 0.000000 0.000000 0.000000 0.013261 0.000000 0.035953
#
#
# Mechanical properties :
#
#
# Convention : Reuss Voigt Hill
#
# Bulk Modulus (GPa) = 43.65741 74.92879 59.29310
# Shear Modulus (GPa) = 21.46413 32.60520 27.03467
#
# Velocity S-wave (km/s) = 3.19982 3.94378 3.59111
# Velocity P-wave (km/s) = 5.87174 7.51535 6.74380
#
# Compressibility (1/GPa) = 0.02290562
#
# Stress axis : x y z
#
# Youngs Moduli (GPa) = 24.03010 60.35053 122.72231
#
# Poissons Ratio (x) = 1.05682 0.17361
# Poissons Ratio (y) = 0.42080 0.34210
# Poissons Ratio (z) = 0.03400 0.16823
#
# Static dielectric constant tensor:
#      x y z
#    x 1.786810 0.000000 0.002730 
#    y 0.000000 1.827730 0.000000 
#    z 0.002730 0.000000 1.717350 
# 
# From -- ./inp_files/254364.got.cif
#   From: 2010.05.17/outbox.cif.g08.bks.cpg/sg12_128_cif.got.tgz:254364.got - 2010.06.03 13:09:07.
