data_PCOD9214625
_publ_section_title
;
Structure prediction by ZEFSAII (Michael W. Deem and Ramdas Pophale) SiO2 
 PCOD9214625
Probable space group: C 2/M
;
_chemical_formula_sum "Si O2"
_cell_formula_units_Z 56
_cell_length_a 8.849977
_cell_length_b 26.973069
_cell_length_c 12.777573
_cell_angle_alpha 90.000000
_cell_angle_beta 69.203496
_cell_angle_gamma 90.000000
_cell_volume 2851.422511
_symmetry_space_group_name_H-M "C 2/M"
_symmetry_group_IT_number 12
_symmetry_cell_setting 'monoclinic'
loop_
_space_group_symop_operation_xyz
x,y,z
-x,y,-z
-x,-y,-z
x,-y,z
1/2+x,1/2+y,z
1/2-x,1/2+y,-z
1/2-x,1/2-y,-z
1/2+x,1/2-y,z
loop_
_atom_site_type_symbol
_atom_site_label
_atom_site_fract_x
_atom_site_fract_y
_atom_site_fract_z
Si Si1 0.297847 0.712181 0.277044
Si Si2 0.323957 0.783097 0.075364
Si Si3 0.965709 0.556300 0.634024
Si Si4 0.248754 0.123313 0.429371
Si Si5 0.909849 0.141574 0.749728
Si Si6 0.939744 0.283738 0.411072
Si Si7 0.384189 0.558963 0.347042
O O1 0.343832 0.743649 0.164035
O O2 0.418603 0.667428 0.268919
O O3 0.338554 0.749366 0.361435
O O4 0.108156 0.700245 0.315604
O O5 0.213357 0.828266 0.145894
O O6 0.500000 0.802119 0.000000
O O7 0.250000 0.750000 0.000000
O O8 0.994156 0.500000 0.660925
O O9 0.775272 0.567061 0.685636
O O10 0.000000 0.558582 0.500000
O O11 0.098480 0.591790 0.651345
O O12 0.152272 0.145874 0.355027
O O13 0.334358 0.168729 0.468042
O O14 0.153429 0.088248 0.534369
O O15 0.957269 0.083473 0.743328
O O16 0.000000 0.256619 0.500000
O O17 0.397423 0.500000 0.362924
#
# Coordination Sequence:
#
# PCOD9214625 Si02
#       7
#     8   8   8   8   8   8   8
#     4  12  23  42  58  90 124 168 220 261 312 390
#     4  12  24  46  69  87 118 161 213 287 343 385
#     4   8  15  31  54  81 119 172 219 250 284 340
#     4  11  20  34  54  90 132 176 215 246 295 370
#     4  12  24  38  62  94 126 163 216 268 324 384
#     4  12  22  34  54  83 132 176 203 246 301 373
#     4  10  22  40  62  92 136 180 218 255 302 374
#
# _framework density 19.639320999999999
#
# number of rings (size 3 to 8) (size 9 to 14) (size 15 to 20)
#    0.000    1.000    4.286    5.143    0.000    2.857 
#    0.000    0.000    0.000    0.429    0.000    2.000 
#    0.000    0.000    0.000    0.000    0.000    0.000 
#
# Total GULP energy -156229.754131 kJ/mol
# GULP energy per Si atom -5579.634076 kJ/mol
# Density = 1.959462 g / cm^3
# Si number density = 19.639321 Si / 1000 Ang^3
#
#
#
# Elastic Constant Matrix: (Units=GPa)
#
#
# Indices 1 2 3 4 5 6 
#
# 1 105.3642 51.1804 36.4936 0.0000 -15.6375 0.0000
# 2 51.1804 115.3197 44.9327 0.0000 -10.0176 0.0000
# 3 36.4936 44.9327 69.4400 0.0000 -3.3243 0.0000
# 4 0.0000 0.0000 0.0000 22.6356 0.0000 -10.7228
# 5 -15.6375 -10.0176 -3.3243 0.0000 37.4683 0.0000
# 6 0.0000 0.0000 0.0000 -10.7228 0.0000 39.9767
#
#
#
# Elastic Compliance Matrix: (Units=1/GPa)
#
#
# Indices 1 2 3 4 5 6 
#
# 1 0.013543 -0.003945 -0.004363 0.000000 0.004210 0.000000
# 2 -0.003945 0.012971 -0.006260 0.000000 0.001266 0.000000
# 3 -0.004363 -0.006260 0.020665 0.000000 -0.001661 0.000000
# 4 0.000000 0.000000 0.000000 0.050609 0.000000 0.013575
# 5 0.004210 0.001266 -0.001661 0.000000 0.028638 0.000000
# 6 0.000000 0.000000 0.000000 0.013575 0.000000 0.028656
#
#
# Mechanical properties :
#
#
# Convention : Reuss Voigt Hill
#
# Bulk Modulus (GPa) = 55.42033 61.70414 58.56224
# Shear Modulus (GPa) = 26.28374 30.51727 28.40050
#
# Velocity S-wave (km/s) = 3.66228 3.94621 3.80689
# Velocity P-wave (km/s) = 6.79436 7.22844 7.01476
#
# Compressibility (1/GPa) = 0.01804392
#
# Stress axis : x y z
#
# Youngs Moduli (GPa) = 73.83759 77.09358 48.39110
#
# Poissons Ratio (x) = 0.30412 0.21115
# Poissons Ratio (y) = 0.29127 0.30291
# Poissons Ratio (z) = 0.32218 0.48257
#
# Static dielectric constant tensor:
#      x y z
#    x 1.755870 0.000000 -0.029820 
#    y 0.000000 1.729670 0.000000 
#    z -0.029820 0.000000 1.714220 
# 
# From -- ./inp_files/124227.got.cif
#   From: 2010.05.17/outbox.cif.g08.bks.cpg/sg12_63_cif.got.tgz:124227.got - 2010.06.03 13:09:07.
