data_PCOD9214268
_publ_section_title
;
Structure prediction by ZEFSAII (Michael W. Deem and Ramdas Pophale) SiO2 
 PCOD9214268
Probable space group: C 2/M
;
_chemical_formula_sum "Si O2"
_cell_formula_units_Z 52
_cell_length_a 16.193385
_cell_length_b 23.399701
_cell_length_c 8.913621
_cell_angle_alpha 90.000000
_cell_angle_beta 47.911120
_cell_angle_gamma 90.000000
_cell_volume 2506.501817
_symmetry_space_group_name_H-M "C 2/M"
_symmetry_group_IT_number 12
_symmetry_cell_setting 'monoclinic'
loop_
_space_group_symop_operation_xyz
x,y,z
-x,y,-z
-x,-y,-z
x,-y,z
1/2+x,1/2+y,z
1/2-x,1/2+y,-z
1/2-x,1/2-y,-z
1/2+x,1/2-y,z
loop_
_atom_site_type_symbol
_atom_site_label
_atom_site_fract_x
_atom_site_fract_y
_atom_site_fract_z
Si Si1 0.279624 0.096010 0.733899
Si Si2 0.888442 0.707775 0.225546
Si Si3 0.209993 0.788593 0.911398
Si Si4 0.805577 0.500000 0.921835
Si Si5 0.482464 0.296322 0.345762
Si Si6 0.700089 0.616668 0.523787
Si Si7 0.430543 0.000000 0.396521
Si Si8 0.717314 0.000000 0.699047
O O1 0.253541 0.055544 0.905974
O O2 0.187764 0.105609 0.716612
O O3 0.373716 0.057467 0.535264
O O4 0.296176 0.160432 0.771755
O O5 0.928837 0.743126 0.320968
O O6 0.810659 0.655379 0.365756
O O7 0.819814 0.750478 0.198252
O O8 0.000000 0.689885 0.000000
O O9 0.093997 0.812269 0.118854
O O10 0.250000 0.750000 0.000000
O O11 0.939210 0.500000 0.733421
O O12 0.796668 0.500000 0.108549
O O13 0.500000 0.283878 0.500000
O O14 0.398187 0.348234 0.429499
O O15 0.717314 0.556278 0.427255
O O16 0.394686 0.000000 0.265935
#
# Coordination Sequence:
#
# PCOD9214268 Si02
#       8
#     8   8   8   4   8   8   4   4
#     4  10  22  39  66  88 133 175 207 276 323 396
#     4  10  23  43  64  98 135 173 216 272 331 401
#     4  11  24  42  63  98 134 171 224 268 338 393
#     4  11  23  43  66  99 130 168 234 275 337 388
#     4  11  24  41  68  96 134 172 222 277 329 396
#     4  11  23  45  67  94 137 176 225 267 338 393
#     4   9  21  47  62  98 128 171 227 271 344 394
#     4  10  25  42  69  93 132 179 215 290 322 392
#
# _framework density 20.746044999999999
#
# number of rings (size 3 to 8) (size 9 to 14) (size 15 to 20)
#    0.000    1.538    1.538    3.000    6.462    2.462 
#   11.077    1.923    0.000    5.538    0.000    0.000 
#    0.000    0.000    0.000    0.000    0.000    0.000 
#
# Total GULP energy -145216.093929 kJ/mol
# GULP energy per Si atom -5585.234382 kJ/mol
# Density = 2.069883 g / cm^3
# Si number density = 20.746045 Si / 1000 Ang^3
#
#
#
# Elastic Constant Matrix: (Units=GPa)
#
#
# Indices 1 2 3 4 5 6 
#
# 1 118.8058 61.0748 51.5190 0.0000 32.9783 0.0000
# 2 61.0748 147.7561 54.9661 0.0000 6.3923 0.0000
# 3 51.5190 54.9661 84.6225 0.0000 28.1269 0.0000
# 4 0.0000 0.0000 0.0000 16.3430 0.0000 8.5577
# 5 32.9783 6.3923 28.1269 0.0000 51.9846 0.0000
# 6 0.0000 0.0000 0.0000 8.5577 0.0000 20.7575
#
#
#
# Elastic Compliance Matrix: (Units=1/GPa)
#
#
# Indices 1 2 3 4 5 6 
#
# 1 0.013867 -0.004084 -0.003698 0.000000 -0.006294 0.000000
# 2 -0.004084 0.010399 -0.005736 0.000000 0.004416 0.000000
# 3 -0.003698 -0.005736 0.020459 0.000000 -0.008019 0.000000
# 4 0.000000 0.000000 0.000000 0.078034 0.000000 -0.032171
# 5 -0.006294 0.004416 -0.008019 0.000000 0.027025 0.000000
# 6 0.000000 0.000000 0.000000 -0.032171 0.000000 0.061438
#
#
# Mechanical properties :
#
#
# Convention : Reuss Voigt Hill
#
# Bulk Modulus (GPa) = 56.52775 76.25603 66.39189
# Shear Modulus (GPa) = 20.47884 30.05865 25.26875
#
# Velocity S-wave (km/s) = 3.14526 3.81055 3.49378
# Velocity P-wave (km/s) = 6.36371 7.49647 6.95320
#
# Compressibility (1/GPa) = 0.01769043
#
# Stress axis : x y z
#
# Youngs Moduli (GPa) = 72.11216 96.16522 48.87805
#
# Poissons Ratio (x) = 0.39276 0.18073
# Poissons Ratio (y) = 0.29452 0.28035
# Poissons Ratio (z) = 0.26664 0.55157
#
# Static dielectric constant tensor:
#      x y z
#    x 1.757740 0.000000 -0.000840 
#    y 0.000000 1.747640 0.000000 
#    z -0.000840 0.000000 1.790090 
# 
# From -- ./inp_files/77971.got.cif
#   From: 2010.05.17/outbox.cif.g08.bks.cpg/sg12_39_cif.got.tgz:77971.got - 2010.06.03 13:09:07.
