data_PCOD9214420
_publ_section_title
;
Structure prediction by ZEFSAII (Michael W. Deem and Ramdas Pophale) SiO2 
 PCOD9214420
Probable space group: C 2/M
;
_chemical_formula_sum "Si O2"
_cell_formula_units_Z 64
_cell_length_a 23.557085
_cell_length_b 20.499427
_cell_length_c 9.334258
_cell_angle_alpha 90.000000
_cell_angle_beta 142.243899
_cell_angle_gamma 90.000000
_cell_volume 2759.995503
_symmetry_space_group_name_H-M "C 2/M"
_symmetry_group_IT_number 12
_symmetry_cell_setting 'monoclinic'
loop_
_space_group_symop_operation_xyz
x,y,z
-x,y,-z
-x,-y,-z
x,-y,z
1/2+x,1/2+y,z
1/2-x,1/2+y,-z
1/2-x,1/2-y,-z
1/2+x,1/2-y,z
loop_
_atom_site_type_symbol
_atom_site_label
_atom_site_fract_x
_atom_site_fract_y
_atom_site_fract_z
Si Si1 0.559525 0.288819 0.300943
Si Si2 0.155027 0.760335 0.042251
Si Si3 0.651517 0.927818 0.078723
Si Si4 0.399977 0.785119 0.356691
Si Si5 0.237991 0.893194 0.277204
Si Si6 0.130707 0.430737 0.694006
Si Si7 0.365146 0.178735 0.754455
Si Si8 0.642150 0.426373 0.371338
O O1 0.451988 0.276434 0.127721
O O2 0.620443 0.265455 0.558597
O O3 0.584029 0.234509 0.232243
O O4 0.582639 0.362589 0.297777
O O5 0.161722 0.721853 0.907622
O O6 0.200708 0.829800 0.123013
O O7 0.197711 0.720714 0.260702
O O8 0.592899 0.871844 0.044003
O O9 0.758559 0.921754 0.346746
O O10 0.619799 0.000000 0.060421
O O11 0.648265 0.925895 0.899836
O O12 0.500000 0.764684 0.500000
O O13 0.410878 0.860092 0.427425
O O14 0.280862 0.933751 0.234114
O O15 0.317249 0.867232 0.543163
O O16 0.164919 0.921369 0.246092
O O17 0.080139 0.500000 0.566559
O O18 0.605054 0.500000 0.326179
#
# Coordination Sequence:
#
# PCOD9214420 Si02
#       8
#     8   8   8   8   8   8   8   8
#     4  11  23  40  62  89 117 158 200 240 299 352
#     4  11  23  39  60  88 122 152 198 253 289 347
#     4   9  21  37  59  87 119 156 196 244 297 350
#     4  10  23  41  61  87 119 156 200 245 295 349
#     4  11  23  36  61  93 117 154 196 251 291 350
#     4  11  22  39  60  86 120 160 201 243 296 348
#     4  11  20  37  63  88 119 152 197 243 295 349
#     4  10  22  40  60  86 123 155 193 244 297 356
#
# _framework density 23.188442999999999
#
# number of rings (size 3 to 8) (size 9 to 14) (size 15 to 20)
#    0.000    1.500    3.750    1.125    3.500    1.250 
#    0.000    1.875    0.000    4.875    0.000    0.000 
#    0.000    0.000    0.000    0.000    0.000    0.000 
#
# Total GULP energy -178466.551468 kJ/mol
# GULP energy per Si atom -5577.079733 kJ/mol
# Density = 2.313567 g / cm^3
# Si number density = 23.188443 Si / 1000 Ang^3
#
#
#
# Elastic Constant Matrix: (Units=GPa)
#
#
# Indices 1 2 3 4 5 6 
#
# 1 100.9799 64.4048 19.0311 0.0000 -26.8666 0.0000
# 2 64.4048 200.6260 17.2897 0.0000 -19.8298 0.0000
# 3 19.0311 17.2897 65.1882 0.0000 -24.1966 0.0000
# 4 0.0000 0.0000 0.0000 40.7602 0.0000 -49.7458
# 5 -26.8666 -19.8298 -24.1966 0.0000 26.7041 0.0000
# 6 0.0000 0.0000 0.0000 -49.7458 0.0000 61.0498
#
#
#
# Elastic Compliance Matrix: (Units=1/GPa)
#
#
# Indices 1 2 3 4 5 6 
#
# 1 0.015947 -0.003807 0.001899 0.000000 0.014938 0.000000
# 2 -0.003807 0.006288 -0.000369 0.000000 0.000505 0.000000
# 3 0.001899 -0.000369 0.023341 0.000000 0.022786 0.000000
# 4 0.000000 0.000000 0.000000 4.437072 0.000000 3.615501
# 5 0.014938 0.000505 0.022786 0.000000 0.073498 0.000000
# 6 0.000000 0.000000 0.000000 3.615501 0.000000 2.962433
#
#
# Mechanical properties :
#
#
# Convention : Reuss Voigt Hill
#
# Bulk Modulus (GPa) = 24.37638 63.13837 43.75738
# Shear Modulus (GPa) = 0.66341 43.44074 22.05207
#
# Velocity S-wave (km/s) = 0.53546 4.33295 3.08716
# Velocity P-wave (km/s) = 3.30415 7.23326 5.62306
#
# Compressibility (1/GPa) = 0.04102332
#
# Stress axis : x y z
#
# Youngs Moduli (GPa) = 62.70629 159.02988 42.84227
#
# Poissons Ratio (x) = 0.60536 -0.08134
# Poissons Ratio (y) = 0.23870 0.01580
# Poissons Ratio (z) = -0.11906 0.05866
#
# Static dielectric constant tensor:
#      x y z
#    x 1.938560 0.000000 0.044000 
#    y 0.000000 1.892320 0.000000 
#    z 0.044000 0.000000 1.951480 
# 
# From -- ./inp_files/99136.got.cif
#   From: 2010.05.17/outbox.cif.g08.bks.cpg/sg12_50_cif.got.tgz:99136.got - 2010.06.03 13:09:07.
