data_PCOD9214975
_publ_section_title
;
Structure prediction by ZEFSAII (Michael W. Deem and Ramdas Pophale) SiO2 
 PCOD9214975
Probable space group: C 2/M
;
_chemical_formula_sum "Si O2"
_cell_formula_units_Z 40
_cell_length_a 14.230837
_cell_length_b 24.145232
_cell_length_c 9.578315
_cell_angle_alpha 90.000000
_cell_angle_beta 145.003410
_cell_angle_gamma 90.000000
_cell_volume 1887.579828
_symmetry_space_group_name_H-M "C 2/M"
_symmetry_group_IT_number 12
_symmetry_cell_setting 'monoclinic'
loop_
_space_group_symop_operation_xyz
x,y,z
-x,y,-z
-x,-y,-z
x,-y,z
1/2+x,1/2+y,z
1/2-x,1/2+y,-z
1/2-x,1/2-y,-z
1/2+x,1/2-y,z
loop_
_atom_site_type_symbol
_atom_site_label
_atom_site_fract_x
_atom_site_fract_y
_atom_site_fract_z
Si Si1 0.125149 0.143221 0.032989
Si Si2 0.194100 0.250501 0.268669
Si Si3 0.877135 0.563281 0.721174
Si Si4 0.397242 0.645894 0.504935
Si Si5 0.887350 0.561799 0.228791
O O1 0.773061 0.191729 0.766677
O O2 0.015288 0.166224 0.772849
O O3 0.235377 0.097466 0.093811
O O4 0.000000 0.121465 0.000000
O O5 0.250000 0.250000 0.500000
O O6 0.292011 0.302012 0.324333
O O7 0.000000 0.258942 0.000000
O O8 0.828064 0.500000 0.622715
O O9 0.723953 0.600701 0.575625
O O10 0.991841 0.587550 0.739048
O O11 0.000000 0.560321 0.000000
O O12 0.500000 0.622918 0.500000
O O13 0.837886 0.500000 0.118455
O O14 0.000000 0.555847 0.500000
#
# Coordination Sequence:
#
# PCOD9214975 Si02
#       5
#     8   8   8   8   8
#     4  11  23  42  67  96 136 177 225 284 336 401
#     4  11  23  46  70  94 134 182 224 277 340 406
#     4  10  22  43  68  96 135 180 221 271 335 408
#     4  12  25  42  66 102 135 174 231 282 341 399
#     4  10  22  40  66  98 131 175 224 270 341 408
#
# _framework density 21.191157
#
# number of rings (size 3 to 8) (size 9 to 14) (size 15 to 20)
#    0.000    1.200    4.000    3.000    0.000    3.200 
#    0.000    0.000    0.000    0.000    0.000    0.000 
#    0.000    0.000    0.000    0.000    0.000    0.000 
#
# Total GULP energy -111660.920292 kJ/mol
# GULP energy per Si atom -5583.046015 kJ/mol
# Density = 2.114292 g / cm^3
# Si number density = 21.191157 Si / 1000 Ang^3
#
#
#
# Elastic Constant Matrix: (Units=GPa)
#
#
# Indices 1 2 3 4 5 6 
#
# 1 169.7616 48.2561 34.2632 0.0000 21.8364 0.0000
# 2 48.2561 98.6803 35.2164 0.0000 33.1347 0.0000
# 3 34.2632 35.2164 81.0910 0.0000 -5.4092 0.0000
# 4 0.0000 0.0000 0.0000 35.1925 0.0000 0.6528
# 5 21.8364 33.1347 -5.4092 0.0000 45.5070 0.0000
# 6 0.0000 0.0000 0.0000 0.6528 0.0000 25.4937
#
#
#
# Elastic Compliance Matrix: (Units=1/GPa)
#
#
# Indices 1 2 3 4 5 6 
#
# 1 0.007212 -0.001874 -0.002393 0.000000 -0.002381 0.000000
# 2 -0.001874 0.018506 -0.008149 0.000000 -0.013544 0.000000
# 3 -0.002393 -0.008149 0.017493 0.000000 0.009160 0.000000
# 4 0.000000 0.000000 0.000000 0.028429 0.000000 -0.000728
# 5 -0.002381 -0.013544 0.009160 0.000000 0.034068 0.000000
# 6 0.000000 0.000000 0.000000 -0.000728 0.000000 0.039244
#
#
# Mechanical properties :
#
#
# Convention : Reuss Voigt Hill
#
# Bulk Modulus (GPa) = 54.40325 65.00048 59.70186
# Shear Modulus (GPa) = 28.42403 36.69177 32.55790
#
# Velocity S-wave (km/s) = 3.66637 4.16560 3.92393
# Velocity P-wave (km/s) = 6.60692 7.34005 6.98311
#
# Compressibility (1/GPa) = 0.01838126
#
# Stress axis : x y z
#
# Youngs Moduli (GPa) = 138.65076 54.03733 57.16717
#
# Poissons Ratio (x) = 0.10125 0.13678
# Poissons Ratio (y) = 0.25978 0.46583
# Poissons Ratio (z) = 0.33173 0.44032
#
# Static dielectric constant tensor:
#      x y z
#    x 1.764140 0.000000 0.016960 
#    y 0.000000 1.843680 0.000000 
#    z 0.016960 0.000000 1.770810 
# 
# From -- ./inp_files/148979.got.cif
#   From: 2010.05.17/outbox.cif.g08.bks.cpg/sg12_75_cif.got.tgz:148979.got - 2010.06.03 13:09:07.
