data_PCOD9214785
_publ_section_title
;
Structure prediction by ZEFSAII (Michael W. Deem and Ramdas Pophale) SiO2 
 PCOD9214785
Probable space group: C 2/M
;
_chemical_formula_sum "Si O2"
_cell_formula_units_Z 48
_cell_length_a 30.123324
_cell_length_b 8.853541
_cell_length_c 16.493241
_cell_angle_alpha 90.000000
_cell_angle_beta 34.640913
_cell_angle_gamma 90.000000
_cell_volume 2500.368054
_symmetry_space_group_name_H-M "C 2/M"
_symmetry_group_IT_number 12
_symmetry_cell_setting 'monoclinic'
loop_
_space_group_symop_operation_xyz
x,y,z
-x,y,-z
-x,-y,-z
x,-y,z
1/2+x,1/2+y,z
1/2-x,1/2+y,-z
1/2-x,1/2-y,-z
1/2+x,1/2-y,z
loop_
_atom_site_type_symbol
_atom_site_label
_atom_site_fract_x
_atom_site_fract_y
_atom_site_fract_z
Si Si1 0.092780 0.673062 0.854416
Si Si2 0.985541 0.821752 0.617599
Si Si3 0.169266 0.822724 0.593189
Si Si4 0.673016 0.818094 0.073255
Si Si5 0.797257 0.680874 0.158361
Si Si6 0.639008 0.820001 0.465773
O O1 0.118052 0.500000 0.795543
O O2 0.113390 0.786773 0.751991
O O3 0.138259 0.713800 0.869038
O O4 0.000000 0.670808 0.000000
O O5 0.904844 0.746933 0.768096
O O6 0.000000 0.805488 0.500000
O O7 0.059744 0.744972 0.547830
O O8 0.983157 0.000000 0.640350
O O9 0.250000 0.750000 0.500000
O O10 0.143923 0.739692 0.549921
O O11 0.176913 0.000000 0.566424
O O12 0.673887 0.000000 0.079248
O O13 0.750000 0.750000 0.000000
O O14 0.675559 0.779371 0.973344
O O15 0.784372 0.500000 0.179017
O O16 0.715904 0.759662 0.303761
O O17 0.638579 0.000000 0.464308
#
# Coordination Sequence:
#
# PCOD9214785 Si02
#       6
#     8   8   8   8   8   8
#     4  10  22  40  64  92 127 168 211 262 319 377
#     4  11  25  45  68  96 130 167 209 263 322 378
#     4  12  24  41  64  94 129 169 216 264 315 374
#     4  11  24  42  66  96 130 169 211 259 318 380
#     4  10  22  41  63  91 128 167 208 261 321 377
#     4  12  25  41  66  96 128 168 215 264 316 378
#
# _framework density 19.197175000000001
#
# number of rings (size 3 to 8) (size 9 to 14) (size 15 to 20)
#    0.000    1.000    1.667    5.000    2.333    7.000 
#    0.000    0.000    0.000    0.000    0.000    0.000 
#    0.000    0.000    0.000    0.000    0.000    0.000 
#
# Total GULP energy -134209.086596 kJ/mol
# GULP energy per Si atom -5592.045275 kJ/mol
# Density = 1.915348 g / cm^3
# Si number density = 19.197175 Si / 1000 Ang^3
#
#
#
# Elastic Constant Matrix: (Units=GPa)
#
#
# Indices 1 2 3 4 5 6 
#
# 1 127.9013 83.7148 81.5118 0.0009 -13.3732 -0.0003
# 2 83.7148 105.7705 80.3113 0.0017 1.0509 -0.0015
# 3 81.5118 80.3113 148.0322 0.0012 -8.7113 -0.0006
# 4 0.0009 0.0017 0.0012 36.9226 -0.0009 1.2040
# 5 -13.3732 1.0509 -8.7113 -0.0009 38.0608 0.0004
# 6 -0.0003 -0.0015 -0.0006 1.2040 0.0004 31.2151
#
#
#
# Elastic Compliance Matrix: (Units=1/GPa)
#
#
# Indices 1 2 3 4 5 6 
#
# 1 0.018556 -0.012352 -0.003155 0.000000 0.006139 -0.000001
# 2 -0.012352 0.024532 -0.006896 -0.000001 -0.006596 0.000001
# 3 -0.003155 -0.006896 0.012346 0.000000 0.001908 0.000000
# 4 0.000000 -0.000001 0.000000 0.027118 0.000001 -0.001046
# 5 0.006139 -0.006596 0.001908 0.000001 0.029049 -0.000001
# 6 -0.000001 0.000001 0.000000 -0.001046 -0.000001 0.032076
#
#
# Mechanical properties :
#
#
# Convention : Reuss Voigt Hill
#
# Bulk Modulus (GPa) = 94.08949 96.97552 95.53251
# Shear Modulus (GPa) = 26.03810 30.31743 28.17776
#
# Velocity S-wave (km/s) = 3.68686 3.97831 3.83535
# Velocity P-wave (km/s) = 8.20015 8.46922 8.33577
#
# Compressibility (1/GPa) = 0.01062818
#
# Stress axis : x y z
#
# Youngs Moduli (GPa) = 53.89212 40.76243 80.99640
#
# Poissons Ratio (x) = 0.50349 0.25554
# Poissons Ratio (y) = 0.66566 0.55858
# Poissons Ratio (z) = 0.17003 0.28111
#
# Static dielectric constant tensor:
#      x y z
#    x 1.463750 -0.000010 0.184690 
#    y -0.000010 1.678040 0.000010 
#    z 0.184690 0.000010 1.474060 
# 
# From -- ./inp_files/244718.got.cif
#   From: 2010.05.17/outbox.cif.g08.bks.cpg/sg12_123_cif.got.tgz:244718.got - 2010.06.03 13:09:07.
