data_PCOD9214657
_publ_section_title
;
Structure prediction by ZEFSAII (Michael W. Deem and Ramdas Pophale) SiO2 
 PCOD9214657
Probable space group: C 2/M
;
_chemical_formula_sum "Si O2"
_cell_formula_units_Z 60
_cell_length_a 15.153084
_cell_length_b 18.713753
_cell_length_c 15.397922
_cell_angle_alpha 90.000000
_cell_angle_beta 41.796739
_cell_angle_gamma 90.000000
_cell_volume 2910.165601
_symmetry_space_group_name_H-M "C 2/M"
_symmetry_group_IT_number 12
_symmetry_cell_setting 'monoclinic'
loop_
_space_group_symop_operation_xyz
x,y,z
-x,y,-z
-x,-y,-z
x,-y,z
1/2+x,1/2+y,z
1/2-x,1/2+y,-z
1/2-x,1/2-y,-z
1/2+x,1/2-y,z
loop_
_atom_site_type_symbol
_atom_site_label
_atom_site_fract_x
_atom_site_fract_y
_atom_site_fract_z
Si Si1 0.176629 0.219554 0.637402
Si Si2 0.235792 0.743086 0.869257
Si Si3 0.148865 0.415449 0.652567
Si Si4 0.405332 0.420588 0.238906
Si Si5 0.342855 0.687325 0.620378
Si Si6 0.391044 0.918118 0.517977
Si Si7 0.000000 0.847625 0.000000
Si Si8 0.570930 0.819789 0.146719
O O1 0.250000 0.250000 0.500000
O O2 0.103447 0.143188 0.684854
O O3 0.292950 0.234934 0.621683
O O4 0.056025 0.267923 0.759553
O O5 0.296480 0.690397 0.753763
O O6 0.345176 0.794995 0.831623
O O7 0.163779 0.697103 0.997157
O O8 0.125337 0.795554 0.911490
O O9 0.176455 0.500000 0.634638
O O10 0.261488 0.371751 0.623413
O O11 0.136410 0.391081 0.559921
O O12 0.002724 0.395772 0.796638
O O13 0.442407 0.500000 0.241742
O O14 0.249151 0.422618 0.330043
O O15 0.488529 0.395142 0.095172
O O16 0.500000 0.678814 0.500000
O O17 0.500000 0.884142 0.500000
O O18 0.436207 0.000000 0.468072
#
# Coordination Sequence:
#
# PCOD9214657 Si02
#       8
#     8   8   8   8   8   8   4   8
#     4  11  21  38  61  90 124 166 223 270 318 388
#     4  11  22  41  64  86 128 169 223 276 326 387
#     4  10  22  42  67  99 133 169 219 282 342 400
#     4  11  22  36  58  90 128 166 204 261 334 403
#     4  11  23  40  65  96 125 173 222 274 332 401
#     4   9  20  37  58  87 127 167 206 259 323 393
#     4  12  21  40  56  90 127 168 206 266 329 406
#     4  10  22  40  63  89 121 171 221 279 324 386
#
# _framework density 20.617384000000001
#
# number of rings (size 3 to 8) (size 9 to 14) (size 15 to 20)
#    0.000    1.467    2.667    3.400    1.867    0.800 
#    0.000    2.000    0.000    2.400    0.000    0.000 
#    0.000    0.000    0.000    0.000    0.000    0.000 
#
# Total GULP energy -167166.464072 kJ/mol
# GULP energy per Si atom -5572.215469 kJ/mol
# Density = 2.057046 g / cm^3
# Si number density = 20.617384 Si / 1000 Ang^3
#
#
#
# Elastic Constant Matrix: (Units=GPa)
#
#
# Indices 1 2 3 4 5 6 
#
# 1 114.5651 34.6710 49.2393 0.0000 -11.3801 0.0000
# 2 34.6710 118.2241 33.4032 0.0000 5.2384 0.0000
# 3 49.2393 33.4032 132.2607 0.0000 8.4185 0.0001
# 4 0.0000 0.0000 0.0000 17.4237 0.0000 -2.7680
# 5 -11.3801 5.2384 8.4185 0.0000 37.5266 0.0000
# 6 0.0000 0.0000 0.0001 -2.7680 0.0000 24.0765
#
#
#
# Elastic Compliance Matrix: (Units=1/GPa)
#
#
# Indices 1 2 3 4 5 6 
#
# 1 0.011694 -0.002504 -0.004026 0.000000 0.004799 0.000000
# 2 -0.002504 0.009667 -0.001395 0.000000 -0.001796 0.000000
# 3 -0.004026 -0.001395 0.009615 0.000000 -0.003183 0.000000
# 4 0.000000 0.000000 0.000000 0.058461 0.000000 0.006721
# 5 0.004799 -0.001796 -0.003183 0.000000 0.029068 0.000000
# 6 0.000000 0.000000 0.000000 0.006721 0.000000 0.042307
#
#
# Mechanical properties :
#
#
# Convention : Reuss Voigt Hill
#
# Bulk Modulus (GPa) = 66.11989 66.63078 66.37533
# Shear Modulus (GPa) = 27.51741 32.32112 29.91926
#
# Velocity S-wave (km/s) = 3.65728 3.96367 3.81355
# Velocity P-wave (km/s) = 7.06922 7.30311 7.18712
#
# Compressibility (1/GPa) = 0.01512404
#
# Stress axis : x y z
#
# Youngs Moduli (GPa) = 85.51527 103.44904 104.00757
#
# Poissons Ratio (x) = 0.25908 0.41878
# Poissons Ratio (y) = 0.21416 0.14506
# Poissons Ratio (z) = 0.34432 0.14428
#
# Static dielectric constant tensor:
#      x y z
#    x 1.797280 0.000000 0.036210 
#    y 0.000000 1.859440 0.000000 
#    z 0.036210 0.000000 1.773920 
# 
# From -- ./inp_files/217896.got.cif
#   From: 2010.05.17/outbox.cif.g08.bks.cpg/sg12_109_cif.got.tgz:217896.got - 2010.06.03 13:09:07.
