data_PCOD9214203
_publ_section_title
;
Structure prediction by ZEFSAII (Michael W. Deem and Ramdas Pophale) SiO2 
 PCOD9214203
Probable space group: C 2/M
;
_chemical_formula_sum "Si O2"
_cell_formula_units_Z 56
_cell_length_a 9.145358
_cell_length_b 27.442518
_cell_length_c 11.634143
_cell_angle_alpha 90.000000
_cell_angle_beta 69.359048
_cell_angle_gamma 90.000000
_cell_volume 2732.409179
_symmetry_space_group_name_H-M "C 2/M"
_symmetry_group_IT_number 12
_symmetry_cell_setting 'monoclinic'
loop_
_space_group_symop_operation_xyz
x,y,z
-x,y,-z
-x,-y,-z
x,-y,z
1/2+x,1/2+y,z
1/2-x,1/2+y,-z
1/2-x,1/2-y,-z
1/2+x,1/2-y,z
loop_
_atom_site_type_symbol
_atom_site_label
_atom_site_fract_x
_atom_site_fract_y
_atom_site_fract_z
Si Si1 0.679118 0.056933 0.598075
Si Si2 0.741683 0.697521 0.804550
Si Si3 0.165114 0.124280 0.634107
Si Si4 0.664642 0.608608 0.985294
Si Si5 0.676921 0.056280 0.237914
Si Si6 0.559899 0.200953 0.852629
Si Si7 0.191459 0.881533 0.248694
O O1 0.748634 0.099011 0.496778
O O2 0.492498 0.063017 0.658536
O O3 0.752870 0.070070 0.700994
O O4 0.710744 0.000000 0.556118
O O5 0.733984 0.671527 0.681391
O O6 0.665407 0.659983 0.917243
O O7 0.649225 0.747753 0.831806
O O8 0.914681 0.704558 0.806250
O O9 0.192565 0.082814 0.722941
O O10 0.982534 0.132185 0.660861
O O11 0.810713 0.580431 0.890083
O O12 0.500000 0.583750 0.000000
O O13 0.677971 0.613016 0.116136
O O14 0.708233 0.000000 0.221783
O O15 0.678649 0.160196 0.772991
O O16 0.500000 0.189746 0.000000
#
# Coordination Sequence:
#
# PCOD9214203 Si02
#       7
#     8   8   8   8   8   8   8
#     4  11  26  46  68  95 129 179 233 277 330 391
#     4  11  23  40  66 103 132 177 221 266 328 395
#     4  11  23  43  66  91 132 171 230 279 322 388
#     4  11  21  40  62  97 138 171 216 274 337 401
#     4  10  22  39  64  93 125 171 220 275 338 399
#     4  12  24  38  68 103 143 175 215 264 332 409
#     4  12  24  40  65  99 135 173 218 278 331 393
#
# _framework density 20.494734999999999
#
# number of rings (size 3 to 8) (size 9 to 14) (size 15 to 20)
#    0.000    0.857    4.286    4.714    0.000    3.714 
#    0.000    2.143    0.000    3.429    0.000    0.000 
#    0.000    0.000    0.000    0.000    0.000    0.000 
#
# Total GULP energy -156363.213203 kJ/mol
# GULP energy per Si atom -5584.400472 kJ/mol
# Density = 2.044809 g / cm^3
# Si number density = 20.494735 Si / 1000 Ang^3
#
#
#
# Elastic Constant Matrix: (Units=GPa)
#
#
# Indices 1 2 3 4 5 6 
#
# 1 129.9212 43.0743 19.1722 0.0000 -12.9743 0.0000
# 2 43.0743 67.1833 26.4049 0.0000 -14.2904 0.0000
# 3 19.1722 26.4049 75.7315 0.0000 -8.4966 0.0000
# 4 0.0000 0.0000 0.0000 18.1762 0.0000 -12.6237
# 5 -12.9743 -14.2904 -8.4966 0.0000 27.7390 0.0000
# 6 0.0000 0.0000 0.0000 -12.6237 0.0000 27.0117
#
#
#
# Elastic Compliance Matrix: (Units=1/GPa)
#
#
# Indices 1 2 3 4 5 6 
#
# 1 0.009836 -0.005883 -0.000272 0.000000 0.001486 0.000000
# 2 -0.005883 0.022321 -0.005501 0.000000 0.007062 0.000000
# 3 -0.000272 -0.005501 0.015388 0.000000 0.001752 0.000000
# 4 0.000000 0.000000 0.000000 0.081456 0.000000 0.038068
# 5 0.001486 0.007062 0.001752 0.000000 0.040921 0.000000
# 6 0.000000 0.000000 0.000000 0.038068 0.000000 0.054812
#
#
# Mechanical properties :
#
#
# Convention : Reuss Voigt Hill
#
# Bulk Modulus (GPa) = 41.26640 50.01542 45.64091
# Shear Modulus (GPa) = 19.52188 26.86435 23.19312
#
# Velocity S-wave (km/s) = 3.08966 3.62442 3.36767
# Velocity P-wave (km/s) = 5.73645 6.47860 6.11878
#
# Compressibility (1/GPa) = 0.02423279
#
# Stress axis : x y z
#
# Youngs Moduli (GPa) = 101.66625 44.80107 64.98606
#
# Poissons Ratio (x) = 0.26358 0.01768
# Poissons Ratio (y) = 0.59813 0.35747
# Poissons Ratio (z) = 0.02766 0.24644
#
# Static dielectric constant tensor:
#      x y z
#    x 1.744690 0.000000 0.000420 
#    y 0.000000 1.716130 0.000000 
#    z 0.000420 0.000000 1.798050 
# 
# From -- ./inp_files/124223.got.cif
#   From: 2010.05.17/outbox.cif.g08.bks.cpg/sg12_63_cif.got.tgz:124223.got - 2010.06.03 13:09:07.
