data_PCOD9214314
_publ_section_title
;
Structure prediction by ZEFSAII (Michael W. Deem and Ramdas Pophale) SiO2 
 PCOD9214314
Probable space group: C 2/M
;
_chemical_formula_sum "Si O2"
_cell_formula_units_Z 32
_cell_length_a 11.992308
_cell_length_b 28.405304
_cell_length_c 4.979315
_cell_angle_alpha 90.000000
_cell_angle_beta 80.942664
_cell_angle_gamma 90.000000
_cell_volume 1675.030376
_symmetry_space_group_name_H-M "C 2/M"
_symmetry_group_IT_number 12
_symmetry_cell_setting 'monoclinic'
loop_
_space_group_symop_operation_xyz
x,y,z
-x,y,-z
-x,-y,-z
x,-y,z
1/2+x,1/2+y,z
1/2-x,1/2+y,-z
1/2-x,1/2-y,-z
1/2+x,1/2-y,z
loop_
_atom_site_type_symbol
_atom_site_label
_atom_site_fract_x
_atom_site_fract_y
_atom_site_fract_z
Si Si1 0.500000 0.748681 0.000000
Si Si2 0.692568 0.887592 0.523536
Si Si3 0.424470 0.659020 0.262358
Si Si4 0.000000 0.687493 0.500000
Si Si5 0.369060 0.945379 0.962253
O O1 0.593094 0.711694 0.852222
O O2 0.463327 0.780574 0.765338
O O3 0.810802 0.867311 0.377295
O O4 0.601576 0.845667 0.559311
O O5 0.699407 0.911994 0.809855
O O6 0.647661 0.926336 0.330331
O O7 0.500000 0.663857 0.500000
O O8 0.500000 0.635066 0.000000
O O9 0.337056 0.000000 0.996115
O O10 0.500000 0.940993 0.000000
#
# Coordination Sequence:
#
# PCOD9214314 Si02
#       5
#     4   8   8   4   8
#     4  10  22  40  54  88 122 162 204 242 296 342
#     4  12  23  39  65  91 123 157 199 250 298 361
#     4  10  22  43  59  84 118 175 205 236 294 347
#     4  12  22  36  59  94 122 148 207 250 302 348
#     4  11  22  40  63  94 126 150 189 244 318 373
#
# _framework density 19.104132
#
# number of rings (size 3 to 8) (size 9 to 14) (size 15 to 20)
#    0.750    0.250    3.750    3.750    0.000    4.000 
#    0.000    0.000    0.000   15.000    0.000    0.000 
#    0.000    0.000    0.000    0.000    0.000    0.000 
#
# Total GULP energy -89330.803838 kJ/mol
# GULP energy per Si atom -5583.175240 kJ/mol
# Density = 1.906065 g / cm^3
# Si number density = 19.104132 Si / 1000 Ang^3
#
#
#
# Elastic Constant Matrix: (Units=GPa)
#
#
# Indices 1 2 3 4 5 6 
#
# 1 53.3538 22.4006 8.6059 0.0000 -13.6599 0.0000
# 2 22.4006 83.1411 18.0423 0.0000 -13.4432 0.0000
# 3 8.6059 18.0423 91.7116 0.0000 -0.0085 0.0000
# 4 0.0000 0.0000 0.0000 137.4695 0.0000 -25.2390
# 5 -13.6599 -13.4432 -0.0085 0.0000 34.1562 0.0000
# 6 0.0000 0.0000 0.0000 -25.2390 0.0000 11.1019
#
#
#
# Elastic Compliance Matrix: (Units=1/GPa)
#
#
# Indices 1 2 3 4 5 6 
#
# 1 0.022769 -0.004698 -0.001212 0.000000 0.007256 0.000000
# 2 -0.004698 0.014428 -0.002397 0.000000 0.003799 0.000000
# 3 -0.001212 -0.002397 0.011489 0.000000 -0.001425 0.000000
# 4 0.000000 0.000000 0.000000 0.012486 0.000000 0.028385
# 5 0.007256 0.003799 -0.001425 0.000000 0.033674 0.000000
# 6 0.000000 0.000000 0.000000 0.028385 0.000000 0.154604
#
#
# Mechanical properties :
#
#
# Convention : Reuss Voigt Hill
#
# Bulk Modulus (GPa) = 31.18039 36.25599 33.71819
# Shear Modulus (GPa) = 18.06657 48.48938 33.27797
#
# Velocity S-wave (km/s) = 3.07854 5.04348 4.17817
# Velocity P-wave (km/s) = 5.38454 7.27564 6.40032
#
# Compressibility (1/GPa) = 0.03207144
#
# Stress axis : x y z
#
# Youngs Moduli (GPa) = 43.92020 69.30932 87.04060
#
# Poissons Ratio (x) = 0.32564 0.10545
# Poissons Ratio (y) = 0.20635 0.20865
# Poissons Ratio (z) = 0.05321 0.16615
#
# Static dielectric constant tensor:
#      x y z
#    x 1.638680 0.000000 -0.004820 
#    y 0.000000 1.665630 0.000000 
#    z -0.004820 0.000000 1.671720 
# 
# From -- ./inp_files/7933.got.cif
#   From: 2010.05.17/outbox.cif.g08.bks.cpg/sg12_4_cif.got.tgz:7933.got - 2010.06.03 13:09:07.
