data_PCOD9214022
_publ_section_title
;
Structure prediction by ZEFSAII (Michael W. Deem and Ramdas Pophale) SiO2 
 PCOD9214022
Probable space group: C 2/M
;
_chemical_formula_sum "Si O2"
_cell_formula_units_Z 40
_cell_length_a 13.282051
_cell_length_b 13.848120
_cell_length_c 12.049921
_cell_angle_alpha 90.000000
_cell_angle_beta 53.142949
_cell_angle_gamma 90.000000
_cell_volume 1773.385541
_symmetry_space_group_name_H-M "C 2/M"
_symmetry_group_IT_number 12
_symmetry_cell_setting 'monoclinic'
loop_
_space_group_symop_operation_xyz
x,y,z
-x,y,-z
-x,-y,-z
x,-y,z
1/2+x,1/2+y,z
1/2-x,1/2+y,-z
1/2-x,1/2-y,-z
1/2+x,1/2-y,z
loop_
_atom_site_type_symbol
_atom_site_label
_atom_site_fract_x
_atom_site_fract_y
_atom_site_fract_z
Si Si1 0.165234 0.777223 0.660246
Si Si2 0.411095 0.613426 0.794550
Si Si3 0.379106 0.116730 0.651288
Si Si4 0.172558 0.617272 0.069682
Si Si5 0.663237 0.887522 0.831571
O O1 0.250000 0.750000 0.500000
O O2 0.251809 0.844315 0.681177
O O3 0.132589 0.682222 0.752210
O O4 0.040240 0.831454 0.705543
O O5 0.436877 0.500000 0.792836
O O6 0.381925 0.849895 0.777733
O O7 0.319158 0.646835 0.956380
O O8 0.500000 0.148892 0.500000
O O9 0.315389 0.379164 0.753542
O O10 0.378546 0.000000 0.650564
O O11 0.172632 0.500000 0.072129
O O12 0.113819 0.639221 0.987942
O O13 0.634528 0.000000 0.827809
#
# Coordination Sequence:
#
# PCOD9214022 Si02
#       5
#     8   8   8   8   8
#     4  12  25  35  59  93 130 160 212 258 313 382
#     4   8  18  40  66  92 118 158 215 264 304 358
#     4  10  22  39  61  90 129 165 195 252 326 380
#     4   7  15  38  66  88 114 158 215 259 302 371
#     4   8  19  41  66  90 120 164 213 262 310 363
#
# _framework density 22.555726
#
# number of rings (size 3 to 8) (size 9 to 14) (size 15 to 20)
#    1.200    1.800    0.000    0.600    2.800    3.200 
#    0.000    7.000    0.000    0.000    0.000    8.400 
#    0.000    0.000    0.000    0.000    0.000    0.000 
#
# Total GULP energy -111738.198931 kJ/mol
# GULP energy per Si atom -5586.909947 kJ/mol
# Density = 2.250439 g / cm^3
# Si number density = 22.555726 Si / 1000 Ang^3
#
#
#
# Elastic Constant Matrix: (Units=GPa)
#
#
# Indices 1 2 3 4 5 6 
#
# 1 92.1543 35.8338 63.3473 0.0000 -4.5551 0.0000
# 2 35.8338 83.6507 44.6075 0.0000 -7.0710 0.0000
# 3 63.3473 44.6075 161.2439 0.0000 6.8924 0.0000
# 4 0.0000 0.0000 0.0000 33.9873 0.0000 -2.6506
# 5 -4.5551 -7.0710 6.8924 0.0000 40.0041 0.0000
# 6 0.0000 0.0000 0.0000 -2.6506 0.0000 38.0201
#
#
#
# Elastic Compliance Matrix: (Units=1/GPa)
#
#
# Indices 1 2 3 4 5 6 
#
# 1 0.016147 -0.003885 -0.005358 0.000000 0.002075 0.000000
# 2 -0.003885 0.015369 -0.002844 0.000000 0.002764 0.000000
# 3 -0.005358 -0.002844 0.009209 0.000000 -0.002699 0.000000
# 4 0.000000 0.000000 0.000000 0.029584 0.000000 0.002062
# 5 0.002075 0.002764 -0.002699 0.000000 0.026187 0.000000
# 6 0.000000 0.000000 0.000000 0.002062 0.000000 0.026446
#
#
# Mechanical properties :
#
#
# Convention : Reuss Voigt Hill
#
# Bulk Modulus (GPa) = 60.41360 69.40292 64.90826
# Shear Modulus (GPa) = 32.75868 35.28632 34.02250
#
# Velocity S-wave (km/s) = 3.81510 3.95955 3.88799
# Velocity P-wave (km/s) = 6.80066 7.19308 6.99962
#
# Compressibility (1/GPa) = 0.01655256
#
# Stress axis : x y z
#
# Youngs Moduli (GPa) = 61.92928 65.06767 108.59212
#
# Poissons Ratio (x) = 0.25276 0.58182
# Poissons Ratio (y) = 0.24057 0.30880
# Poissons Ratio (z) = 0.33181 0.18503
#
# Static dielectric constant tensor:
#      x y z
#    x 1.839810 0.000000 -0.043770 
#    y 0.000000 1.849140 0.000000 
#    z -0.043770 0.000000 1.854110 
# 
# From -- ./inp_files/187930.got.cif
#   From: 2010.05.17/outbox.cif.g08.bks.cpg/sg12_94_cif.got.tgz:187930.got - 2010.06.03 13:09:07.
