data_PCOD9214962
_publ_section_title
;
Structure prediction by ZEFSAII (Michael W. Deem and Ramdas Pophale) SiO2 
 PCOD9214962
Probable space group: C 2/M
;
_chemical_formula_sum "Si O2"
_cell_formula_units_Z 48
_cell_length_a 9.632216
_cell_length_b 29.288142
_cell_length_c 13.671191
_cell_angle_alpha 90.000000
_cell_angle_beta 140.559290
_cell_angle_gamma 90.000000
_cell_volume 2450.130164
_symmetry_space_group_name_H-M "C 2/M"
_symmetry_group_IT_number 12
_symmetry_cell_setting 'monoclinic'
loop_
_space_group_symop_operation_xyz
x,y,z
-x,y,-z
-x,-y,-z
x,-y,z
1/2+x,1/2+y,z
1/2-x,1/2+y,-z
1/2-x,1/2-y,-z
1/2+x,1/2-y,z
loop_
_atom_site_type_symbol
_atom_site_label
_atom_site_fract_x
_atom_site_fract_y
_atom_site_fract_z
Si Si1 0.222306 0.710347 0.680883
Si Si2 0.083249 0.446598 0.651872
Si Si3 0.467277 0.376814 0.872828
Si Si4 0.742904 0.946385 0.346192
Si Si5 0.552686 0.873288 0.918724
Si Si6 0.595005 0.776847 0.837004
O O1 0.360701 0.663558 0.752408
O O2 0.367813 0.750056 0.714465
O O3 0.183015 0.721766 0.774153
O O4 0.000000 0.704985 0.500000
O O5 0.140194 0.500000 0.680598
O O6 0.294586 0.417195 0.790878
O O7 0.000000 0.432831 0.500000
O O8 0.890188 0.440623 0.624992
O O9 0.500000 0.357891 0.000000
O O10 0.699641 0.391908 0.956455
O O11 0.621824 0.911317 0.208580
O O12 0.000000 0.936775 0.500000
O O13 0.722558 0.000000 0.305620
O O14 0.554771 0.828285 0.852452
O O15 0.500000 0.858963 0.000000
O O16 0.750000 0.750000 0.000000
#
# Coordination Sequence:
#
# PCOD9214962 Si02
#       6
#     8   8   8   8   8   8
#     4  12  25  42  66  97 130 170 215 268 327 389
#     4  10  22  40  66  96 126 168 216 266 325 391
#     4  12  22  43  65  92 129 170 216 272 328 382
#     4  10  23  44  65  92 134 172 210 269 331 388
#     4  12  26  42  65  96 126 172 222 265 328 390
#     4  12  23  45  67  93 131 172 214 268 325 389
#
# _framework density 19.590796000000001
#
# number of rings (size 3 to 8) (size 9 to 14) (size 15 to 20)
#    0.000    0.667    5.000    2.500    2.333    2.000 
#    0.000    0.000    0.000    0.000    0.000    0.000 
#    0.000    0.000    0.000    0.000    0.000    0.000 
#
# Total GULP energy -134148.060391 kJ/mol
# GULP energy per Si atom -5589.502516 kJ/mol
# Density = 1.954621 g / cm^3
# Si number density = 19.590796 Si / 1000 Ang^3
#
#
#
# Elastic Constant Matrix: (Units=GPa)
#
#
# Indices 1 2 3 4 5 6 
#
# 1 65.0878 11.5986 8.8853 0.0000 17.8016 0.0000
# 2 11.5986 70.6592 46.8587 0.0000 21.2508 0.0000
# 3 8.8853 46.8587 113.7135 0.0000 28.9041 0.0000
# 4 0.0000 0.0000 0.0000 32.8028 0.0000 10.2844
# 5 17.8016 21.2508 28.9041 0.0000 40.7209 0.0000
# 6 0.0000 0.0000 0.0000 10.2844 0.0000 27.6560
#
#
#
# Elastic Compliance Matrix: (Units=1/GPa)
#
#
# Indices 1 2 3 4 5 6 
#
# 1 0.017578 -0.001294 0.001148 0.000000 -0.007824 0.000000
# 2 -0.001294 0.020614 -0.007080 0.000000 -0.005166 0.000000
# 3 0.001148 -0.007080 0.013190 0.000000 -0.006170 0.000000
# 4 0.000000 0.000000 0.000000 0.034509 0.000000 -0.012833
# 5 -0.007824 -0.005166 -0.006170 0.000000 0.035053 0.000000
# 6 0.000000 0.000000 0.000000 -0.012833 0.000000 0.040931
#
#
# Mechanical properties :
#
#
# Convention : Reuss Voigt Hill
#
# Bulk Modulus (GPa) = 27.07786 42.68287 34.88036
# Shear Modulus (GPa) = 26.50615 32.37713 29.44164
#
# Velocity S-wave (km/s) = 3.68229 4.06972 3.88084
# Velocity P-wave (km/s) = 5.65073 6.62706 6.15827
#
# Compressibility (1/GPa) = 0.03693055
#
# Stress axis : x y z
#
# Youngs Moduli (GPa) = 56.89066 48.51069 75.81442
#
# Poissons Ratio (x) = 0.06276 -0.08707
# Poissons Ratio (y) = 0.07361 0.53678
# Poissons Ratio (z) = -0.06534 0.34347
#
# Static dielectric constant tensor:
#      x y z
#    x 1.688580 0.000000 0.002870 
#    y 0.000000 1.669410 0.000000 
#    z 0.002870 0.000000 1.698860 
# 
# From -- ./inp_files/200200.got.cif
#   From: 2010.05.17/outbox.cif.g08.bks.cpg/sg12_101_cif.got.tgz:200200.got - 2010.06.03 13:09:07.
