data_PCOD9214829
_publ_section_title
;
Structure prediction by ZEFSAII (Michael W. Deem and Ramdas Pophale) SiO2 
 PCOD9214829
Probable space group: C 2/M
;
_chemical_formula_sum "Si O2"
_cell_formula_units_Z 48
_cell_length_a 9.026569
_cell_length_b 23.767058
_cell_length_c 16.704183
_cell_angle_alpha 90.000000
_cell_angle_beta 43.501154
_cell_angle_gamma 90.000000
_cell_volume 2466.861645
_symmetry_space_group_name_H-M "C 2/M"
_symmetry_group_IT_number 12
_symmetry_cell_setting 'monoclinic'
loop_
_space_group_symop_operation_xyz
x,y,z
-x,y,-z
-x,-y,-z
x,-y,z
1/2+x,1/2+y,z
1/2-x,1/2+y,-z
1/2-x,1/2-y,-z
1/2+x,1/2-y,z
loop_
_atom_site_type_symbol
_atom_site_label
_atom_site_fract_x
_atom_site_fract_y
_atom_site_fract_z
Si Si1 0.750556 0.566453 0.601132
Si Si2 0.515457 0.848098 0.226918
Si Si3 0.763868 0.250315 0.590974
Si Si4 0.689045 0.188593 0.991517
Si Si5 0.346103 0.649141 0.243391
Si Si6 0.125660 0.935404 0.367822
O O1 0.756374 0.500000 0.584473
O O2 0.673979 0.585852 0.717339
O O3 0.559984 0.588867 0.618358
O O4 0.000000 0.586032 0.500000
O O5 0.394025 0.791070 0.300539
O O6 0.703922 0.849464 0.219104
O O7 0.337236 0.897561 0.296402
O O8 0.608981 0.844467 0.101129
O O9 0.750000 0.250000 0.500000
O O10 0.743672 0.308676 0.650431
O O11 0.000000 0.225080 0.500000
O O12 0.907712 0.164290 0.869041
O O13 0.500000 0.191316 0.000000
O O14 0.750000 0.250000 0.000000
O O15 0.000000 0.938634 0.500000
O O16 0.182127 0.000000 0.321397
#
# Coordination Sequence:
#
# PCOD9214829 Si02
#       6
#     8   8   8   8   8   8
#     4  10  22  40  65  96 131 169 211 262 319 378
#     4  12  25  42  66  93 129 170 214 264 317 380
#     4  12  26  39  59  95 132 166 205 261 320 380
#     4  12  26  44  65  90 126 172 217 264 315 379
#     4  12  25  42  65  93 128 169 216 262 319 379
#     4  10  22  40  64  96 131 169 211 261 321 379
#
# _framework density 19.457923000000001
#
# number of rings (size 3 to 8) (size 9 to 14) (size 15 to 20)
#    0.000    0.667    3.333    4.500    7.000    2.000 
#    0.000    0.833    0.000    5.000    0.000    0.000 
#    0.000    0.000    0.000    0.000    0.000    0.000 
#
# Total GULP energy -133771.082562 kJ/mol
# GULP energy per Si atom -5573.795107 kJ/mol
# Density = 1.941364 g / cm^3
# Si number density = 19.457923 Si / 1000 Ang^3
#
#
#
# Elastic Constant Matrix: (Units=GPa)
#
#
# Indices 1 2 3 4 5 6 
#
# 1 185.3562 32.8872 47.4971 0.0000 -8.8613 0.0000
# 2 32.8872 39.5418 21.7631 0.0000 -8.8912 0.0000
# 3 47.4971 21.7631 114.8474 0.0000 -7.5076 0.0000
# 4 0.0000 0.0000 0.0000 1.7462 0.0000 17.8030
# 5 -8.8613 -8.8912 -7.5076 0.0000 41.5305 0.0000
# 6 0.0000 0.0000 0.0000 17.8030 0.0000 10.4494
#
#
#
# Elastic Compliance Matrix: (Units=1/GPa)
#
#
# Indices 1 2 3 4 5 6 
#
# 1 0.006685 -0.004483 -0.001907 0.000000 0.000122 0.000000
# 2 -0.004483 0.032367 -0.003936 0.000000 0.005261 0.000000
# 3 -0.001907 -0.003936 0.010282 0.000000 0.000609 0.000000
# 4 0.000000 0.000000 0.000000 -0.034983 0.000000 0.059602
# 5 0.000122 0.005261 0.000609 0.000000 0.025341 0.000000
# 6 0.000000 0.000000 0.000000 0.059602 0.000000 -0.005846
#
#
# Mechanical properties :
#
#
# Convention : Reuss Voigt Hill
#
# Bulk Modulus (GPa) = 34.86445 60.44892 47.65668
# Shear Modulus (GPa) = 78.05426 26.58508 52.31967
#
# Velocity S-wave (km/s) = 6.34046 3.70034 5.19105
# Velocity P-wave (km/s) = 8.45924 7.02785 7.77655
#
# Compressibility (1/GPa) = 0.02868251
#
# Stress axis : x y z
#
# Youngs Moduli (GPa) = 149.58992 30.89546 97.26147
#
# Poissons Ratio (x) = 0.13850 0.18550
# Poissons Ratio (y) = 0.67058 0.38278
# Poissons Ratio (z) = 0.28530 0.12159
#
# Static dielectric constant tensor:
#      x y z
#    x 1.888710 0.000000 -0.026680 
#    y 0.000000 1.727100 0.000000 
#    z -0.026680 0.000000 1.661520 
# 
# From -- ./inp_files/170713.got.cif
#   From: 2010.05.17/outbox.cif.g08.bks.cpg/sg12_86_cif.got.tgz:170713.got - 2010.06.03 13:09:07.
