data_PCOD9214744
_publ_section_title
;
Structure prediction by ZEFSAII (Michael W. Deem and Ramdas Pophale) SiO2 
 PCOD9214744
Probable space group: C 2/M
;
_chemical_formula_sum "Si O2"
_cell_formula_units_Z 42
_cell_length_a 14.686341
_cell_length_b 16.616164
_cell_length_c 10.424181
_cell_angle_alpha 90.000000
_cell_angle_beta 60.263593
_cell_angle_gamma 90.000000
_cell_volume 2208.840629
_symmetry_space_group_name_H-M "C 2/M"
_symmetry_group_IT_number 12
_symmetry_cell_setting 'monoclinic'
loop_
_space_group_symop_operation_xyz
x,y,z
-x,y,-z
-x,-y,-z
x,-y,z
1/2+x,1/2+y,z
1/2-x,1/2+y,-z
1/2-x,1/2-y,-z
1/2+x,1/2-y,z
loop_
_atom_site_type_symbol
_atom_site_label
_atom_site_fract_x
_atom_site_fract_y
_atom_site_fract_z
Si Si1 0.500000 0.500000 0.000000
Si Si2 0.579159 0.776865 0.135879
Si Si3 0.229844 0.093614 0.444117
Si Si4 0.761527 0.278266 0.197683
Si Si5 0.536833 0.906010 0.616060
Si Si6 0.102292 0.146209 0.770521
O O1 0.569619 0.570603 0.878434
O O2 0.661946 0.741219 0.179635
O O3 0.520696 0.851813 0.239566
O O4 0.494660 0.707913 0.166722
O O5 0.643958 0.801505 0.964559
O O6 0.237674 0.153512 0.318530
O O7 0.338960 0.101464 0.446822
O O8 0.136750 0.118433 0.604793
O O9 0.219400 0.000000 0.412948
O O10 0.801582 0.197037 0.237924
O O11 0.500000 0.880272 0.500000
O O12 0.508944 0.000000 0.649661
#
# Coordination Sequence:
#
# PCOD9214744 Si02
#       6
#     2   8   8   8   8   8
#     4  12  24  44  72  94 132 176 220 268 322 396
#     4  11  24  41  66  93 128 173 219 259 339 384
#     4  11  24  41  66  95 130 168 218 269 333 380
#     4  11  24  43  63  97 128 172 215 272 323 392
#     4  10  22  40  63  97 127 168 217 272 322 390
#     4  12  23  45  66  94 131 170 218 271 322 391
#
# _framework density 19.014500000000002
#
# number of rings (size 3 to 8) (size 9 to 14) (size 15 to 20)
#    0.000    0.952    4.762    1.714    2.667    0.762 
#    3.429    2.857    0.000    0.000    0.000    0.000 
#    0.000    0.000    0.000    0.000    0.000    0.000 
#
# Total GULP energy -117125.993894 kJ/mol
# GULP energy per Si atom -5577.428281 kJ/mol
# Density = 1.897122 g / cm^3
# Si number density = 19.014500 Si / 1000 Ang^3
#
#
#
# Elastic Constant Matrix: (Units=GPa)
#
#
# Indices 1 2 3 4 5 6 
#
# 1 52.0466 16.1647 13.0503 0.0000 5.4747 0.0000
# 2 16.1647 91.5204 74.8484 0.0000 8.8533 0.0000
# 3 13.0503 74.8484 133.9148 0.0000 -1.5747 0.0000
# 4 0.0000 0.0000 0.0000 34.8160 0.0000 0.3138
# 5 5.4747 8.8533 -1.5747 0.0000 25.1792 0.0000
# 6 0.0000 0.0000 0.0000 0.3138 0.0000 14.8547
#
#
#
# Elastic Compliance Matrix: (Units=1/GPa)
#
#
# Indices 1 2 3 4 5 6 
#
# 1 0.020601 -0.003003 -0.000370 0.000000 -0.003447 0.000000
# 2 -0.003003 0.022215 -0.012217 0.000000 -0.007922 0.000000
# 3 -0.000370 -0.012217 0.014394 0.000000 0.005276 0.000000
# 4 0.000000 0.000000 0.000000 0.028728 0.000000 -0.000607
# 5 -0.003447 -0.007922 0.005276 0.000000 0.043580 0.000000
# 6 0.000000 0.000000 0.000000 -0.000607 0.000000 0.067332
#
#
# Mechanical properties :
#
#
# Convention : Reuss Voigt Hill
#
# Bulk Modulus (GPa) = 38.41595 53.95652 46.18624
# Shear Modulus (GPa) = 21.12332 26.53122 23.82727
#
# Velocity S-wave (km/s) = 3.33664 3.73944 3.54377
# Velocity P-wave (km/s) = 5.92382 6.86168 6.40993
#
# Compressibility (1/GPa) = 0.02603085
#
# Stress axis : x y z
#
# Youngs Moduli (GPa) = 48.54028 45.01558 69.47449
#
# Poissons Ratio (x) = 0.13518 0.02569
# Poissons Ratio (y) = 0.14576 0.84875
# Poissons Ratio (z) = 0.01795 0.54995
#
# Static dielectric constant tensor:
#      x y z
#    x 1.660490 0.000000 0.007660 
#    y 0.000000 1.621250 0.000000 
#    z 0.007660 0.000000 1.659510 
# 
# From -- ./inp_files/142621.got.cif
#   From: 2010.05.17/outbox.cif.g08.bks.cpg/sg12_72_cif.got.tgz:142621.got - 2010.06.03 13:09:07.
