data_PCOD9214422
_publ_section_title
;
Structure prediction by ZEFSAII (Michael W. Deem and Ramdas Pophale) SiO2 
 PCOD9214422
Probable space group: C 2/M
;
_chemical_formula_sum "Si O2"
_cell_formula_units_Z 56
_cell_length_a 26.150345
_cell_length_b 14.471186
_cell_length_c 25.634044
_cell_angle_alpha 90.000000
_cell_angle_beta 16.735711
_cell_angle_gamma 90.000000
_cell_volume 2793.360537
_symmetry_space_group_name_H-M "C 2/M"
_symmetry_group_IT_number 12
_symmetry_cell_setting 'monoclinic'
loop_
_space_group_symop_operation_xyz
x,y,z
-x,y,-z
-x,-y,-z
x,-y,z
1/2+x,1/2+y,z
1/2-x,1/2+y,-z
1/2-x,1/2-y,-z
1/2+x,1/2-y,z
loop_
_atom_site_type_symbol
_atom_site_label
_atom_site_fract_x
_atom_site_fract_y
_atom_site_fract_z
Si Si1 0.801719 0.730782 0.508337
Si Si2 0.222936 0.256101 0.089009
Si Si3 0.805275 0.103488 0.801580
Si Si4 0.529829 0.394492 0.821765
Si Si5 0.273160 0.604454 0.613405
Si Si6 0.789470 0.699846 0.214098
Si Si7 0.179992 0.101213 0.791101
O O1 0.750000 0.750000 0.500000
O O2 0.695593 0.638726 0.625835
O O3 0.724551 0.812788 0.621032
O O4 0.015021 0.723272 0.304107
O O5 0.264470 0.163273 0.081633
O O6 0.250000 0.250000 0.000000
O O7 0.358856 0.332076 0.977862
O O8 0.779767 0.153859 0.771100
O O9 0.016419 0.096563 0.601472
O O10 0.729720 0.000000 0.873387
O O11 0.482660 0.500000 0.858034
O O12 0.606268 0.384703 0.805108
O O13 0.199219 0.500000 0.678346
O O14 0.243743 0.640120 0.701322
O O15 0.721285 0.804990 0.288736
O O16 0.000000 0.706111 0.000000
O O17 0.270046 0.000000 0.706964
O O18 0.000000 0.095574 0.000000
#
# Coordination Sequence:
#
# PCOD9214422 Si02
#       7
#     8   8   8   8   8   8   8
#     4  11  23  42  65  92 128 166 213 266 319 376
#     4  11  23  42  66  91 129 168 214 264 317 377
#     4  10  23  40  60  89 125 166 207 255 314 381
#     4  11  23  42  66  93 126 167 213 262 316 376
#     4  10  22  40  60  86 125 168 206 251 317 382
#     4  11  20  34  59  91 126 159 203 254 313 374
#     4   9  18  34  60  87 118 162 208 254 312 372
#
# _framework density 20.047536999999998
#
# number of rings (size 3 to 8) (size 9 to 14) (size 15 to 20)
#    0.000    1.571    2.857    2.571    0.000    4.000 
#    0.000    0.000    0.000    2.571    0.000    0.000 
#    0.000    0.000    0.000    0.000    0.000    0.000 
#
# Total GULP energy -156210.009141 kJ/mol
# GULP energy per Si atom -5578.928898 kJ/mol
# Density = 2.000191 g / cm^3
# Si number density = 20.047537 Si / 1000 Ang^3
#
#
#
# Elastic Constant Matrix: (Units=GPa)
#
#
# Indices 1 2 3 4 5 6 
#
# 1 109.4136 64.1717 9.6068 -0.0023 28.2665 -0.0088
# 2 64.1717 179.6942 31.0441 -0.0570 4.9283 0.0376
# 3 9.6068 31.0441 78.9870 -0.0421 4.3456 0.0356
# 4 -0.0023 -0.0570 -0.0421 37.3139 0.0128 6.4654
# 5 28.2665 4.9283 4.3456 0.0128 36.6189 -0.0145
# 6 -0.0088 0.0376 0.0356 6.4654 -0.0145 55.7525
#
#
#
# Elastic Compliance Matrix: (Units=1/GPa)
#
#
# Indices 1 2 3 4 5 6 
#
# 1 0.014921 -0.005170 0.000818 -0.000003 -0.010919 0.000003
# 2 -0.005170 0.007772 -0.002605 0.000008 0.003254 -0.000005
# 3 0.000818 -0.002605 0.013689 0.000014 -0.001905 -0.000009
# 4 -0.000003 0.000008 0.000014 0.027349 -0.000011 -0.003172
# 5 -0.010919 0.003254 -0.001905 -0.000011 0.035525 0.000008
# 6 0.000003 -0.000005 -0.000009 -0.003172 0.000008 0.018304
#
#
# Mechanical properties :
#
#
# Convention : Reuss Voigt Hill
#
# Bulk Modulus (GPa) = 44.50710 64.19335 54.35023
# Shear Modulus (GPa) = 35.98021 43.48854 39.73438
#
# Velocity S-wave (km/s) = 4.24104 4.66260 4.45680
# Velocity P-wave (km/s) = 6.79933 7.81514 7.32487
#
# Compressibility (1/GPa) = 0.02246832
#
# Stress axis : x y z
#
# Youngs Moduli (GPa) = 67.01882 128.66312 73.04898
#
# Poissons Ratio (x) = 0.66525 -0.05976
# Poissons Ratio (y) = 0.34652 0.19028
# Poissons Ratio (z) = -0.05483 0.33515
#
# Static dielectric constant tensor:
#      x y z
#    x 1.684360 -0.000010 -0.027600 
#    y -0.000010 1.749720 -0.000030 
#    z -0.027600 -0.000030 1.702740 
# 
# From -- ./inp_files/349742.got.cif
#   From: 2010.05.17/outbox.cif.g08.bks.cpg/sg12_175_cif.got.tgz:349742.got - 2010.06.03 13:09:07.
