data_PCOD9214861
_publ_section_title
;
Structure prediction by ZEFSAII (Michael W. Deem and Ramdas Pophale) SiO2 
 PCOD9214861
Probable space group: C 2/M
;
_chemical_formula_sum "Si O2"
_cell_formula_units_Z 40
_cell_length_a 16.727695
_cell_length_b 25.822353
_cell_length_c 8.714743
_cell_angle_alpha 90.000000
_cell_angle_beta 34.198554
_cell_angle_gamma 90.000000
_cell_volume 2115.782951
_symmetry_space_group_name_H-M "C 2/M"
_symmetry_group_IT_number 12
_symmetry_cell_setting 'monoclinic'
loop_
_space_group_symop_operation_xyz
x,y,z
-x,y,-z
-x,-y,-z
x,-y,z
1/2+x,1/2+y,z
1/2-x,1/2+y,-z
1/2-x,1/2-y,-z
1/2+x,1/2-y,z
loop_
_atom_site_type_symbol
_atom_site_label
_atom_site_fract_x
_atom_site_fract_y
_atom_site_fract_z
Si Si1 0.213519 0.703674 0.774523
Si Si2 0.854439 0.596887 0.646436
Si Si3 0.805591 0.500000 0.161183
Si Si4 0.144697 0.500000 0.562508
Si Si5 0.830701 0.896483 0.762116
Si Si6 0.402519 0.797690 0.386862
O O1 0.280514 0.652512 0.741530
O O2 0.321268 0.751712 0.602603
O O3 0.169270 0.695173 0.666848
O O4 0.067219 0.715633 0.096036
O O5 0.811924 0.550981 0.599764
O O6 0.889447 0.648912 0.498429
O O7 0.000000 0.580291 0.500000
O O8 0.736759 0.607706 0.961512
O O9 0.795510 0.500000 0.360998
O O10 0.733209 0.448815 0.208706
O O11 0.972738 0.500000 0.852481
O O12 0.000000 0.898807 0.500000
#
# Coordination Sequence:
#
# PCOD9214861 Si02
#       6
#     8   8   4   4   8   8
#     4  10  22  42  62  90 124 163 207 248 303 357
#     4  12  22  40  63  95 122 157 208 250 302 359
#     4  11  22  43  66  93 122 159 204 246 307 363
#     4  11  22  40  72  92 116 160 207 252 295 367
#     4  12  26  41  61  92 130 161 196 254 311 359
#     4  10  22  40  65  90 122 162 207 254 295 363
#
# _framework density 18.905532000000001
#
# number of rings (size 3 to 8) (size 9 to 14) (size 15 to 20)
#    0.000    1.000    4.000    2.400    2.800    4.800 
#    0.000    4.000    0.000    0.000    0.000    0.000 
#    0.000    0.000    0.000    0.000    0.000    0.000 
#
# Total GULP energy -111868.864867 kJ/mol
# GULP energy per Si atom -5593.443243 kJ/mol
# Density = 1.886250 g / cm^3
# Si number density = 18.905532 Si / 1000 Ang^3
#
#
#
# Elastic Constant Matrix: (Units=GPa)
#
#
# Indices 1 2 3 4 5 6 
#
# 1 52.2904 45.6644 44.1889 0.0000 2.7215 0.0000
# 2 45.6644 143.9105 55.6136 0.0000 20.6936 0.0000
# 3 44.1889 55.6136 138.6100 0.0000 9.1526 0.0000
# 4 0.0000 0.0000 0.0000 38.5043 0.0000 14.3011
# 5 2.7215 20.6936 9.1526 0.0000 29.8937 0.0000
# 6 0.0000 0.0000 0.0000 14.3011 0.0000 29.1158
#
#
#
# Elastic Compliance Matrix: (Units=1/GPa)
#
#
# Indices 1 2 3 4 5 6 
#
# 1 0.032094 -0.008059 -0.007322 0.000000 0.004898 0.000000
# 2 -0.008059 0.010976 -0.001410 0.000000 -0.006432 0.000000
# 3 -0.007322 -0.001410 0.010212 0.000000 -0.001484 0.000000
# 4 0.000000 0.000000 0.000000 0.031766 0.000000 -0.015603
# 5 0.004898 -0.006432 -0.001484 0.000000 0.037913 0.000000
# 6 0.000000 0.000000 0.000000 -0.015603 0.000000 0.042009
#
#
# Mechanical properties :
#
#
# Convention : Reuss Voigt Hill
#
# Bulk Modulus (GPa) = 50.75765 69.52720 60.14243
# Shear Modulus (GPa) = 24.37618 32.12568 28.25093
#
# Velocity S-wave (km/s) = 3.59467 4.12670 3.86984
# Velocity P-wave (km/s) = 6.64343 7.71765 7.20060
#
# Compressibility (1/GPa) = 0.01970146
#
# Stress axis : x y z
#
# Youngs Moduli (GPa) = 31.15860 91.11070 97.92118
#
# Poissons Ratio (x) = 0.73423 0.71694
# Poissons Ratio (y) = 0.25110 0.13805
# Poissons Ratio (z) = 0.22813 0.12845
#
# Static dielectric constant tensor:
#      x y z
#    x 1.647720 0.000000 0.006580 
#    y 0.000000 1.612090 0.000000 
#    z 0.006580 0.000000 1.635560 
# 
# From -- ./inp_files/79282.got.cif
#   From: 2010.05.17/outbox.cif.g08.bks.cpg/sg12_40_cif.got.tgz:79282.got - 2010.06.03 13:09:07.
