data_PCOD9214819
_publ_section_title
;
Structure prediction by ZEFSAII (Michael W. Deem and Ramdas Pophale) SiO2 
 PCOD9214819
Probable space group: C 2/M
;
_chemical_formula_sum "Si O2"
_cell_formula_units_Z 56
_cell_length_a 25.777474
_cell_length_b 18.382558
_cell_length_c 7.766311
_cell_angle_alpha 90.000000
_cell_angle_beta 133.313203
_cell_angle_gamma 90.000000
_cell_volume 2677.703865
_symmetry_space_group_name_H-M "C 2/M"
_symmetry_group_IT_number 12
_symmetry_cell_setting 'monoclinic'
loop_
_space_group_symop_operation_xyz
x,y,z
-x,y,-z
-x,-y,-z
x,-y,z
1/2+x,1/2+y,z
1/2-x,1/2+y,-z
1/2-x,1/2-y,-z
1/2+x,1/2-y,z
loop_
_atom_site_type_symbol
_atom_site_label
_atom_site_fract_x
_atom_site_fract_y
_atom_site_fract_z
Si Si1 0.208661 0.417956 0.694801
Si Si2 0.322748 0.799559 0.659919
Si Si3 0.314620 0.155154 0.010349
Si Si4 0.378273 0.578030 0.138937
Si Si5 0.676304 0.420390 0.609777
Si Si6 0.077620 0.821745 0.240799
Si Si7 0.076395 0.776037 0.638688
O O1 0.189957 0.500000 0.600090
O O2 0.183531 0.354909 0.511948
O O3 0.177749 0.401984 0.816053
O O4 0.295374 0.413985 0.896039
O O5 0.250000 0.750000 0.500000
O O6 0.338489 0.847117 0.866364
O O7 0.386587 0.743477 0.780846
O O8 0.230345 0.144367 0.782506
O O9 0.353486 0.227803 0.164659
O O10 0.406609 0.500000 0.137396
O O11 0.371602 0.570944 0.330850
O O12 0.420112 0.653693 0.224880
O O13 0.710231 0.500000 0.654790
O O14 0.629038 0.391872 0.346647
O O15 0.076750 0.797154 0.438670
O O16 0.000000 0.839104 0.000000
O O17 0.000000 0.738433 0.500000
#
# Coordination Sequence:
#
# PCOD9214819 Si02
#       7
#     8   8   8   8   8   8   8
#     4  10  22  40  64  95 129 169 214 275 333 388
#     4  12  23  38  64 101 130 171 221 275 330 394
#     4  11  21  39  66  92 129 167 226 274 329 380
#     4   8  17  33  56  86 124 166 213 264 324 389
#     4   9  19  36  61  91 125 171 216 265 327 392
#     4  11  23  40  60  93 135 172 217 272 328 396
#     4  11  22  37  62  90 128 176 225 270 335 393
#
# _framework density 20.913440999999999
#
# number of rings (size 3 to 8) (size 9 to 14) (size 15 to 20)
#    0.000    1.714    2.857    3.000    0.000    4.000 
#    0.000    0.000    0.000    2.143    0.000    0.000 
#    0.000    0.000    0.000    0.000    0.000    0.000 
#
# Total GULP energy -155921.105646 kJ/mol
# GULP energy per Si atom -5568.610916 kJ/mol
# Density = 2.086584 g / cm^3
# Si number density = 20.913441 Si / 1000 Ang^3
#
#
#
# Elastic Constant Matrix: (Units=GPa)
#
#
# Indices 1 2 3 4 5 6 
#
# 1 52.3087 21.8077 10.7480 0.0000 -7.1499 0.0000
# 2 21.8077 90.9981 52.5168 0.0000 11.7899 0.0000
# 3 10.7480 52.5168 90.7636 0.0000 3.4497 0.0000
# 4 0.0000 0.0000 0.0000 21.4518 0.0000 -8.3385
# 5 -7.1499 11.7899 3.4497 0.0000 29.4653 0.0000
# 6 0.0000 0.0000 0.0000 -8.3385 0.0000 23.9868
#
#
#
# Elastic Compliance Matrix: (Units=1/GPa)
#
#
# Indices 1 2 3 4 5 6 
#
# 1 0.023059 -0.007284 0.001166 0.000000 0.008373 0.000000
# 2 -0.007284 0.019740 -0.010237 0.000000 -0.008467 0.000000
# 3 0.001166 -0.010237 0.016711 0.000000 0.002423 0.000000
# 4 0.000000 0.000000 0.000000 0.053899 0.000000 0.018737
# 5 0.008373 -0.008467 0.002423 0.000000 0.039074 0.000000
# 6 0.000000 0.000000 0.000000 0.018737 0.000000 0.048203
#
#
# Mechanical properties :
#
#
# Convention : Reuss Voigt Hill
#
# Bulk Modulus (GPa) = 37.31493 44.91284 41.11388
# Shear Modulus (GPa) = 20.63294 24.91398 22.77346
#
# Velocity S-wave (km/s) = 3.14441 3.45525 3.30349
# Velocity P-wave (km/s) = 5.57354 6.11887 5.85256
#
# Compressibility (1/GPa) = 0.02679893
#
# Stress axis : x y z
#
# Youngs Moduli (GPa) = 43.36728 50.65843 59.84064
#
# Poissons Ratio (x) = 0.36897 -0.06975
# Poissons Ratio (y) = 0.31587 0.61262
# Poissons Ratio (z) = -0.05055 0.51861
#
# Static dielectric constant tensor:
#      x y z
#    x 1.812720 0.000000 -0.016180 
#    y 0.000000 1.811880 0.000000 
#    z -0.016180 0.000000 1.776000 
# 
# From -- ./inp_files/106026.got.cif
#   From: 2010.05.17/outbox.cif.g08.bks.cpg/sg12_54_cif.got.tgz:106026.got - 2010.06.03 13:09:07.
