data_PCOD9214259
_publ_section_title
;
Structure prediction by ZEFSAII (Michael W. Deem and Ramdas Pophale) SiO2 
 PCOD9214259
Probable space group: C 2/M
;
_chemical_formula_sum "Si O2"
_cell_formula_units_Z 40
_cell_length_a 16.551354
_cell_length_b 18.847973
_cell_length_c 10.803264
_cell_angle_alpha 90.000000
_cell_angle_beta 34.048736
_cell_angle_gamma 90.000000
_cell_volume 1886.956955
_symmetry_space_group_name_H-M "C 2/M"
_symmetry_group_IT_number 12
_symmetry_cell_setting 'monoclinic'
loop_
_space_group_symop_operation_xyz
x,y,z
-x,y,-z
-x,-y,-z
x,-y,z
1/2+x,1/2+y,z
1/2-x,1/2+y,-z
1/2-x,1/2-y,-z
1/2+x,1/2-y,z
loop_
_atom_site_type_symbol
_atom_site_label
_atom_site_fract_x
_atom_site_fract_y
_atom_site_fract_z
Si Si1 0.657622 0.919603 0.341679
Si Si2 0.420353 0.580176 0.834923
Si Si3 0.159561 0.848834 0.678773
Si Si4 0.144635 0.214830 0.243107
Si Si5 0.152151 0.308680 0.781417
O O1 0.500000 0.897555 0.500000
O O2 0.737451 0.873015 0.341854
O O3 0.648102 0.000000 0.403070
O O4 0.759261 0.920641 0.093211
O O5 0.457981 0.500000 0.746128
O O6 0.521810 0.603364 0.821705
O O7 0.420145 0.643244 0.736104
O O8 0.118114 0.767477 0.759734
O O9 0.251606 0.850625 0.437117
O O10 0.258260 0.202427 0.208253
O O11 0.000000 0.245918 0.500000
O O12 0.250000 0.250000 0.000000
O O13 0.000000 0.344463 0.000000
#
# Coordination Sequence:
#
# PCOD9214259 Si02
#       5
#     8   8   8   8   8
#     4  10  22  39  65  98 129 176 231 285 347 410
#     4  11  24  45  71 100 141 186 235 291 353 429
#     4  11  22  42  65  95 132 175 231 288 346 414
#     4  12  26  46  72 108 143 190 239 292 358 421
#     4  11  25  40  63  98 135 177 232 288 352 414
#
# _framework density 21.198152
#
# number of rings (size 3 to 8) (size 9 to 14) (size 15 to 20)
#    0.000    1.000    2.000    4.800    5.600    3.600 
#    0.000    0.000    0.000    3.000    0.000    0.000 
#    0.000    0.000    0.000    0.000    0.000    0.000 
#
# Total GULP energy -111605.036229 kJ/mol
# GULP energy per Si atom -5580.251811 kJ/mol
# Density = 2.114990 g / cm^3
# Si number density = 21.198152 Si / 1000 Ang^3
#
#
#
# Elastic Constant Matrix: (Units=GPa)
#
#
# Indices 1 2 3 4 5 6 
#
# 1 47.5762 -4.0608 36.1511 0.0004 -3.9214 -0.0004
# 2 -4.0608 84.5413 0.9470 0.0001 -1.5220 -0.0001
# 3 36.1511 0.9470 143.5247 0.0001 -10.8511 -0.0001
# 4 0.0004 0.0001 0.0001 13.7076 -0.0002 -4.0124
# 5 -3.9214 -1.5220 -10.8511 -0.0002 45.1594 0.0002
# 6 -0.0004 -0.0001 -0.0001 -4.0124 0.0002 23.4613
#
#
#
# Elastic Compliance Matrix: (Units=1/GPa)
#
#
# Indices 1 2 3 4 5 6 
#
# 1 0.026167 0.001344 -0.006544 -0.000001 0.000745 0.000000
# 2 0.001344 0.011905 -0.000385 0.000000 0.000425 0.000000
# 3 -0.006544 -0.000385 0.008733 0.000000 0.001517 0.000000
# 4 -0.000001 0.000000 0.000000 0.076797 0.000000 0.013134
# 5 0.000745 0.000425 0.001517 0.000000 0.022587 0.000000
# 6 0.000000 0.000000 0.000000 0.013134 0.000000 0.044870
#
#
# Mechanical properties :
#
#
# Convention : Reuss Voigt Hill
#
# Bulk Modulus (GPa) = 28.06184 37.96852 33.01518
# Shear Modulus (GPa) = 23.35286 32.63933 27.99609
#
# Velocity S-wave (km/s) = 3.32271 3.92819 3.63807
# Velocity P-wave (km/s) = 5.29028 6.20680 5.76678
#
# Compressibility (1/GPa) = 0.03563558
#
# Stress axis : x y z
#
# Youngs Moduli (GPa) = 38.21591 83.99800 114.50983
#
# Poissons Ratio (x) = -0.11286 0.74930
# Poissons Ratio (y) = -0.05135 0.04406
# Poissons Ratio (z) = 0.25007 0.03232
#
# Static dielectric constant tensor:
#      x y z
#    x 1.671690 0.000000 -0.069640 
#    y 0.000000 1.824000 0.000000 
#    z -0.069640 0.000000 1.690650 
# 
# From -- ./inp_files/158436.got.cif
#   From: 2010.05.17/outbox.cif.g08.bks.cpg/sg12_80_cif.got.tgz:158436.got - 2010.06.03 13:09:07.
