data_PCOD9214399
_publ_section_title
;
Structure prediction by ZEFSAII (Michael W. Deem and Ramdas Pophale) SiO2 
 PCOD9214399
Probable space group: C 2/M
;
_chemical_formula_sum "Si O2"
_cell_formula_units_Z 38
_cell_length_a 5.086299
_cell_length_b 12.924289
_cell_length_c 28.365347
_cell_angle_alpha 90.000000
_cell_angle_beta 100.693384
_cell_angle_gamma 90.000000
_cell_volume 1832.266058
_symmetry_space_group_name_H-M "C 2/M"
_symmetry_group_IT_number 12
_symmetry_cell_setting 'monoclinic'
loop_
_space_group_symop_operation_xyz
x,y,z
-x,y,-z
-x,-y,-z
x,-y,z
1/2+x,1/2+y,z
1/2-x,1/2+y,-z
1/2-x,1/2-y,-z
1/2+x,1/2-y,z
loop_
_atom_site_type_symbol
_atom_site_label
_atom_site_fract_x
_atom_site_fract_y
_atom_site_fract_z
Si Si1 0.000000 0.500000 0.000000
Si Si2 0.506693 0.816939 0.828049
Si Si3 0.505769 0.500000 0.693032
Si Si4 0.714624 0.500000 0.465725
Si Si5 0.802057 0.319601 0.062142
Si Si6 0.928399 0.500000 0.243426
Si Si7 0.884229 0.823874 0.614339
O O1 0.852805 0.409693 0.027192
O O2 0.702301 0.720856 0.822741
O O3 0.605549 0.855414 0.882530
O O4 0.544320 0.901074 0.789217
O O5 0.822416 0.500000 0.712371
O O6 0.423949 0.399230 0.660331
O O7 0.345561 0.500000 0.736620
O O8 0.500000 0.500000 0.500000
O O9 0.677184 0.399847 0.431362
O O10 0.000000 0.500000 0.500000
O O11 0.502641 0.275556 0.056475
O O12 0.647855 0.742903 0.614272
#
# Coordination Sequence:
#
# PCOD9214399 Si02
#       7
#     2   8   4   4   8   4   8
#     4  12  22  38  64  84 114 158 190 234 296 348
#     4  10  22  40  60  85 118 152 191 244 297 351
#     4  11  26  40  60  93 124 153 205 255 284 353
#     4  11  24  41  64  98 127 154 208 260 290 347
#     4  10  23  40  58  86 118 149 193 240 288 353
#     4  12  23  39  62  90 116 154 202 245 300 351
#     4  11  24  43  64  88 126 169 200 242 305 354
#
# _framework density 20.739348
#
# number of rings (size 3 to 8) (size 9 to 14) (size 15 to 20)
#    0.000    1.263    0.000    5.053    0.000   12.632 
#    0.000    6.316    0.000    0.000    0.000    0.000 
#    0.000    0.000    0.000    0.000    0.000    0.000 
#
# Total GULP energy -106105.308951 kJ/mol
# GULP energy per Si atom -5584.489945 kJ/mol
# Density = 2.069214 g / cm^3
# Si number density = 20.739348 Si / 1000 Ang^3
#
#
#
# Elastic Constant Matrix: (Units=GPa)
#
#
# Indices 1 2 3 4 5 6 
#
# 1 235.0597 178.4561 29.8724 0.0000 -11.2680 0.0000
# 2 178.4561 289.0343 70.7177 0.0000 -7.1508 0.0000
# 3 29.8724 70.7177 87.1188 0.0000 -12.6431 0.0000
# 4 0.0000 0.0000 0.0000 16.1655 0.0000 -0.4543
# 5 -11.2680 -7.1508 -12.6431 0.0000 37.4612 0.0000
# 6 0.0000 0.0000 0.0000 -0.4543 0.0000 31.4041
#
#
#
# Elastic Compliance Matrix: (Units=1/GPa)
#
#
# Indices 1 2 3 4 5 6 
#
# 1 0.008342 -0.005582 0.001977 0.000000 0.002111 0.000000
# 2 -0.005582 0.008058 -0.004886 0.000000 -0.001790 0.000000
# 3 0.001977 -0.004886 0.015476 0.000000 0.004885 0.000000
# 4 0.000000 0.000000 0.000000 0.061885 0.000000 0.000895
# 5 0.002111 -0.001790 0.004885 0.000000 0.028636 0.000000
# 6 0.000000 0.000000 0.000000 0.000895 0.000000 0.031856
#
#
# Mechanical properties :
#
#
# Convention : Reuss Voigt Hill
#
# Bulk Modulus (GPa) = 67.14571 129.92281 98.53426
# Shear Modulus (GPa) = 28.37680 39.15059 33.76369
#
# Velocity S-wave (km/s) = 3.70301 4.34953 4.03923
# Velocity P-wave (km/s) = 7.12245 9.38116 8.32873
#
# Compressibility (1/GPa) = 0.01489298
#
# Stress axis : x y z
#
# Youngs Moduli (GPa) = 119.87459 124.10739 64.61606
#
# Poissons Ratio (x) = 0.69278 -0.12775
# Poissons Ratio (y) = 0.66915 0.31574
# Poissons Ratio (z) = -0.23700 0.60643
#
# Static dielectric constant tensor:
#      x y z
#    x 1.589060 0.000000 0.023370 
#    y 0.000000 1.693390 0.000000 
#    z 0.023370 0.000000 1.741590 
# 
# From -- ./inp_files/354706.got.cif
#   From: 2010.05.17/outbox.cif.g08.bks.cpg/sg12_178_cif.got.tgz:354706.got - 2010.06.03 13:09:07.
