data_PCOD9214229
_publ_section_title
;
Structure prediction by ZEFSAII (Michael W. Deem and Ramdas Pophale) SiO2 
 PCOD9214229
Probable space group: C 2/M
;
_chemical_formula_sum "Si O2"
_cell_formula_units_Z 56
_cell_length_a 14.507205
_cell_length_b 11.889824
_cell_length_c 17.802831
_cell_angle_alpha 90.000000
_cell_angle_beta 121.769145
_cell_angle_gamma 90.000000
_cell_volume 2610.701756
_symmetry_space_group_name_H-M "C 2/M"
_symmetry_group_IT_number 12
_symmetry_cell_setting 'monoclinic'
loop_
_space_group_symop_operation_xyz
x,y,z
-x,y,-z
-x,-y,-z
x,-y,z
1/2+x,1/2+y,z
1/2-x,1/2+y,-z
1/2-x,1/2-y,-z
1/2+x,1/2-y,z
loop_
_atom_site_type_symbol
_atom_site_label
_atom_site_fract_x
_atom_site_fract_y
_atom_site_fract_z
Si Si1 0.481537 0.000000 0.366989
Si Si2 0.908469 0.720978 0.902016
Si Si3 0.818877 0.500000 0.437132
Si Si4 0.441219 0.744597 0.307572
Si Si5 0.766708 0.369690 0.712680
Si Si6 0.242652 0.876499 0.060332
Si Si7 0.086299 0.203701 0.875192
Si Si8 0.678320 0.285496 0.399823
O O1 0.403313 0.000000 0.405549
O O2 0.604884 0.000000 0.454433
O O3 0.454058 0.118623 0.313928
O O4 0.844265 0.638949 0.819225
O O5 0.820886 0.792441 0.911496
O O6 0.976172 0.801690 0.874635
O O7 0.000000 0.677621 0.000000
O O8 0.739407 0.394602 0.396387
O O9 0.342252 0.700486 0.315052
O O10 0.424998 0.692677 0.217729
O O11 0.558204 0.697969 0.380406
O O12 0.744064 0.500000 0.686642
O O13 0.823075 0.307729 0.666574
O O14 0.360609 0.827934 0.093645
O O15 0.246046 0.000000 0.094166
O O16 0.174069 0.873544 0.953984
O O17 0.750000 0.250000 0.500000
#
# Coordination Sequence:
#
# PCOD9214229 Si02
#       8
#     4   8   4   8   8   8   8   8
#     4  11  24  44  78  99 135 179 236 292 343 405
#     4  10  22  44  68 100 136 180 234 281 336 408
#     4  11  24  48  72 106 133 182 228 294 346 414
#     4  12  25  45  70 105 137 183 230 288 345 420
#     4  12  28  47  67 104 147 182 227 292 354 412
#     4  10  22  42  66  95 136 179 226 284 340 404
#     4  10  22  39  64  99 131 171 231 274 337 403
#     4  12  27  48  74 102 139 180 236 282 352 420
#
# _framework density 21.450171999999998
#
# number of rings (size 3 to 8) (size 9 to 14) (size 15 to 20)
#    0.000    1.000    5.714    0.000    4.000    4.571 
#    1.286    0.714    0.000    0.000    0.000    0.000 
#    0.000    0.000    0.000    0.000    0.000    0.000 
#
# Total GULP energy -156330.465509 kJ/mol
# GULP energy per Si atom -5583.230911 kJ/mol
# Density = 2.140135 g / cm^3
# Si number density = 21.450172 Si / 1000 Ang^3
#
#
#
# Elastic Constant Matrix: (Units=GPa)
#
#
# Indices 1 2 3 4 5 6 
#
# 1 84.7512 15.0242 5.1487 0.0000 1.8049 0.0000
# 2 15.0242 102.2564 16.0495 0.0000 0.7525 0.0000
# 3 5.1487 16.0495 74.9060 0.0000 -2.0155 0.0000
# 4 0.0000 0.0000 0.0000 -14.1012 0.0000 -6.0649
# 5 1.8049 0.7525 -2.0155 0.0000 36.2455 0.0000
# 6 0.0000 0.0000 0.0000 -6.0649 0.0000 12.0907
#
#
#
# Elastic Compliance Matrix: (Units=1/GPa)
#
#
# Indices 1 2 3 4 5 6 
#
# 1 0.012143 -0.001704 -0.000486 0.000000 -0.000596 0.000000
# 2 -0.001704 0.010363 -0.002110 0.000000 -0.000248 0.000000
# 3 -0.000486 -0.002110 0.013858 0.000000 0.000839 0.000000
# 4 0.000000 0.000000 0.000000 -0.058331 0.000000 -0.029260
# 5 -0.000596 -0.000248 0.000839 0.000000 0.027671 0.000000
# 6 0.000000 0.000000 0.000000 -0.029260 0.000000 0.068031
#
#
# Mechanical properties :
#
#
# Convention : Reuss Voigt Hill
#
# Bulk Modulus (GPa) = 36.01555 37.15095 36.58325
# Shear Modulus (GPa) = 54.59204 21.89307 38.24256
#
# Velocity S-wave (km/s) = 5.05033 3.19822 4.22697
# Velocity P-wave (km/s) = 7.12984 5.56735 6.39649
#
# Compressibility (1/GPa) = 0.02776579
#
# Stress axis : x y z
#
# Youngs Moduli (GPa) = 82.34887 96.50074 72.16005
#
# Poissons Ratio (x) = 0.16440 0.03505
# Poissons Ratio (y) = 0.14029 0.15225
# Poissons Ratio (z) = 0.04000 0.20361
#
# Static dielectric constant tensor:
#      x y z
#    x 1.800320 0.000000 0.016190 
#    y 0.000000 1.788410 0.000000 
#    z 0.016190 0.000000 1.809390 
# 
# From -- ./inp_files/269406.got.cif
#   From: 2010.05.17/outbox.cif.g08.bks.cpg/sg12_135_cif.got.tgz:269406.got - 2010.06.03 13:09:07.
