data_PCOD9214901
_publ_section_title
;
Structure prediction by ZEFSAII (Michael W. Deem and Ramdas Pophale) SiO2 
 PCOD9214901
Probable space group: C 2/M
;
_chemical_formula_sum "Si O2"
_cell_formula_units_Z 40
_cell_length_a 19.790568
_cell_length_b 14.721380
_cell_length_c 13.545575
_cell_angle_alpha 90.000000
_cell_angle_beta 28.819592
_cell_angle_gamma 90.000000
_cell_volume 1902.388810
_symmetry_space_group_name_H-M "C 2/M"
_symmetry_group_IT_number 12
_symmetry_cell_setting 'monoclinic'
loop_
_space_group_symop_operation_xyz
x,y,z
-x,y,-z
-x,-y,-z
x,-y,z
1/2+x,1/2+y,z
1/2-x,1/2+y,-z
1/2-x,1/2-y,-z
1/2+x,1/2-y,z
loop_
_atom_site_type_symbol
_atom_site_label
_atom_site_fract_x
_atom_site_fract_y
_atom_site_fract_z
Si Si1 0.845718 0.892196 0.647835
Si Si2 0.655786 0.829323 0.071084
Si Si3 0.854768 0.397955 0.710337
Si Si4 0.559110 0.608893 0.027181
Si Si5 0.876841 0.783865 0.406963
O O1 0.729885 0.864596 0.877725
O O2 0.835523 0.827710 0.564720
O O3 0.000000 0.881146 0.500000
O O4 0.830904 0.000000 0.641956
O O5 0.750000 0.750000 0.000000
O O6 0.657998 0.902064 0.156094
O O7 0.497007 0.793620 0.262304
O O8 0.862601 0.500000 0.657677
O O9 0.000000 0.349218 0.500000
O O10 0.715175 0.354807 0.845691
O O11 0.566404 0.500000 0.014648
O O12 0.458481 0.637582 0.243322
O O13 0.500000 0.643731 0.000000
O O14 0.750000 0.750000 0.500000
#
# Coordination Sequence:
#
# PCOD9214901 Si02
#       5
#     8   8   8   8   8
#     4  11  24  47  74 100 135 185 232 276 340 416
#     4  12  24  40  68 100 131 168 225 280 331 387
#     4  10  22  40  65  96 129 166 214 270 328 394
#     4  10  22  42  65  91 128 173 217 262 325 401
#     4  12  28  42  66 100 138 175 221 278 338 395
#
# _framework density 21.026195999999999
#
# number of rings (size 3 to 8) (size 9 to 14) (size 15 to 20)
#    0.000    1.000    4.000    1.200    8.400    3.200 
#    0.000    4.000    0.000    0.000    0.000    0.000 
#    0.000    0.000    0.000    0.000    0.000    0.000 
#
# Total GULP energy -111732.571314 kJ/mol
# GULP energy per Si atom -5586.628566 kJ/mol
# Density = 2.097834 g / cm^3
# Si number density = 21.026196 Si / 1000 Ang^3
#
#
#
# Elastic Constant Matrix: (Units=GPa)
#
#
# Indices 1 2 3 4 5 6 
#
# 1 169.8096 40.1957 94.2481 0.0000 -14.4806 0.0000
# 2 40.1957 78.3609 32.5102 0.0000 -7.6595 0.0000
# 3 94.2481 32.5102 158.3336 0.0000 -0.1644 0.0000
# 4 0.0000 0.0000 0.0000 30.2166 0.0000 8.7801
# 5 -14.4806 -7.6595 -0.1644 0.0000 52.5215 0.0000
# 6 0.0000 0.0000 0.0000 8.7801 0.0000 30.1279
#
#
#
# Elastic Compliance Matrix: (Units=1/GPa)
#
#
# Indices 1 2 3 4 5 6 
#
# 1 0.009543 -0.002536 -0.005158 0.000000 0.002245 0.000000
# 2 -0.002536 0.014843 -0.001536 0.000000 0.001461 0.000000
# 3 -0.005158 -0.001536 0.009700 0.000000 -0.001616 0.000000
# 4 0.000000 0.000000 0.000000 0.036156 0.000000 -0.010537
# 5 0.002245 0.001461 -0.001616 0.000000 0.019867 0.000000
# 6 0.000000 0.000000 0.000000 -0.010537 0.000000 0.036263
#
#
# Mechanical properties :
#
#
# Convention : Reuss Voigt Hill
#
# Bulk Modulus (GPa) = 63.99901 82.26802 73.13351
# Shear Modulus (GPa) = 33.32450 38.54320 35.93385
#
# Velocity S-wave (km/s) = 3.98540 4.28612 4.13849
# Velocity P-wave (km/s) = 7.18900 7.98159 7.59564
#
# Compressibility (1/GPa) = 0.01562524
#
# Stress axis : x y z
#
# Youngs Moduli (GPa) = 104.78545 67.37377 103.09652
#
# Poissons Ratio (x) = 0.17086 0.53173
# Poissons Ratio (y) = 0.26574 0.15840
# Poissons Ratio (z) = 0.54044 0.10352
#
# Static dielectric constant tensor:
#      x y z
#    x 2.503670 0.000000 -0.442960 
#    y 0.000000 1.821230 0.000000 
#    z -0.442960 0.000000 2.011960 
# 
# From -- ./inp_files/98282.got.cif
#   From: 2010.05.17/outbox.cif.g08.bks.cpg/sg12_50_cif.got.tgz:98282.got - 2010.06.03 13:09:07.
