data_PCOD9214390
_publ_section_title
;
Structure prediction by ZEFSAII (Michael W. Deem and Ramdas Pophale) SiO2 
 PCOD9214390
Probable space group: C 2/M
;
_chemical_formula_sum "Si O2"
_cell_formula_units_Z 48
_cell_length_a 16.297693
_cell_length_b 8.962275
_cell_length_c 15.495618
_cell_angle_alpha 90.000000
_cell_angle_beta 69.386256
_cell_angle_gamma 90.000000
_cell_volume 2118.446984
_symmetry_space_group_name_H-M "C 2/M"
_symmetry_group_IT_number 12
_symmetry_cell_setting 'monoclinic'
loop_
_space_group_symop_operation_xyz
x,y,z
-x,y,-z
-x,-y,-z
x,-y,z
1/2+x,1/2+y,z
1/2-x,1/2+y,-z
1/2-x,1/2-y,-z
1/2+x,1/2-y,z
loop_
_atom_site_type_symbol
_atom_site_label
_atom_site_fract_x
_atom_site_fract_y
_atom_site_fract_z
Si Si1 0.208452 0.175550 0.377108
Si Si2 0.472209 0.172994 0.879196
Si Si3 0.577251 0.171100 0.544505
Si Si4 0.308547 0.822834 0.052621
Si Si5 0.655261 0.676157 0.783991
Si Si6 0.580289 0.175890 0.288727
O O1 0.157718 0.232444 0.480854
O O2 0.299253 0.252785 0.317006
O O3 0.143027 0.224691 0.323586
O O4 0.219669 0.000000 0.375674
O O5 0.554635 0.278435 0.835296
O O6 0.412095 0.190435 0.816115
O O7 0.503357 0.000000 0.868912
O O8 0.409347 0.197121 0.983642
O O9 0.500000 0.176398 0.500000
O O10 0.520582 0.212812 0.648940
O O11 0.606759 0.000000 0.541354
O O12 0.298084 0.744245 0.148273
O O13 0.291746 0.000000 0.065164
O O14 0.250000 0.750000 0.000000
O O15 0.666657 0.500000 0.777380
O O16 0.594241 0.000000 0.306347
#
# Coordination Sequence:
#
# PCOD9214390 Si02
#       6
#     8   8   8   8   8   8
#     4  11  21  34  56  84 114 148 192 241 284 333
#     4  10  22  40  60  84 115 149 185 229 282 336
#     4   8  15  30  53  81 113 148 186 230 282 336
#     4  11  23  40  64  91 118 148 186 231 277 331
#     4  12  25  40  58  81 114 153 192 234 283 338
#     4   9  18  35  59  85 115 150 187 231 284 340
#
# _framework density 22.658107999999999
#
# number of rings (size 3 to 8) (size 9 to 14) (size 15 to 20)
#    0.000    1.833    0.000    6.000    0.000    8.333 
#    0.000    0.833    0.000    0.000    0.000    0.000 
#    0.000    0.000    0.000    0.000    0.000    0.000 
#
# Total GULP energy -134271.567622 kJ/mol
# GULP energy per Si atom -5594.648651 kJ/mol
# Density = 2.260654 g / cm^3
# Si number density = 22.658108 Si / 1000 Ang^3
#
#
#
# Elastic Constant Matrix: (Units=GPa)
#
#
# Indices 1 2 3 4 5 6 
#
# 1 74.2165 31.3059 -2.2140 0.0000 -13.0830 0.0000
# 2 31.3059 126.0045 41.1583 0.0000 -31.5866 0.0000
# 3 -2.2140 41.1583 107.6163 0.0000 -21.5859 0.0000
# 4 0.0000 0.0000 0.0000 30.0078 0.0000 -7.3038
# 5 -13.0830 -31.5866 -21.5859 0.0000 33.8651 0.0000
# 6 0.0000 0.0000 0.0000 -7.3038 0.0000 25.2370
#
#
#
# Elastic Compliance Matrix: (Units=1/GPa)
#
#
# Indices 1 2 3 4 5 6 
#
# 1 0.015884 -0.003713 0.002618 0.000000 0.004342 0.000000
# 2 -0.003713 0.011757 -0.003051 0.000000 0.007587 0.000000
# 3 0.002618 -0.003051 0.011632 0.000000 0.005580 0.000000
# 4 0.000000 0.000000 0.000000 0.035850 0.000000 0.010375
# 5 0.004342 0.007587 0.005580 0.000000 0.041839 0.000000
# 6 0.000000 0.000000 0.000000 0.010375 0.000000 0.042627
#
#
# Mechanical properties :
#
#
# Convention : Reuss Voigt Hill
#
# Bulk Modulus (GPa) = 32.27859 49.81528 41.04694
# Shear Modulus (GPa) = 28.05689 33.66113 30.85901
#
# Velocity S-wave (km/s) = 3.52273 3.85854 3.69445
# Velocity P-wave (km/s) = 5.55185 6.47182 6.02941
#
# Compressibility (1/GPa) = 0.03098028
#
# Stress axis : x y z
#
# Youngs Moduli (GPa) = 62.95735 85.05396 85.96755
#
# Poissons Ratio (x) = 0.31581 -0.22504
# Poissons Ratio (y) = 0.23376 0.26230
# Poissons Ratio (z) = -0.16480 0.25952
#
# Static dielectric constant tensor:
#      x y z
#    x 1.896250 0.000000 -0.010310 
#    y 0.000000 1.755970 0.000000 
#    z -0.010310 0.000000 1.840970 
# 
# From -- ./inp_files/274112.got.cif
#   From: 2010.05.17/outbox.cif.g08.bks.cpg/sg12_138_cif.got.tgz:274112.got - 2010.06.03 13:09:07.
