data_PCOD9214598
_publ_section_title
;
Structure prediction by ZEFSAII (Michael W. Deem and Ramdas Pophale) SiO2 
 PCOD9214598
Probable space group: C 2/M
;
_chemical_formula_sum "Si O2"
_cell_formula_units_Z 28
_cell_length_a 27.739500
_cell_length_b 8.262898
_cell_length_c 27.259701
_cell_angle_alpha 90.000000
_cell_angle_beta 10.561659
_cell_angle_gamma 90.000000
_cell_volume 1145.247351
_symmetry_space_group_name_H-M "C 2/M"
_symmetry_group_IT_number 12
_symmetry_cell_setting 'monoclinic'
loop_
_space_group_symop_operation_xyz
x,y,z
-x,y,-z
-x,-y,-z
x,-y,z
1/2+x,1/2+y,z
1/2-x,1/2+y,-z
1/2-x,1/2-y,-z
1/2+x,1/2-y,z
loop_
_atom_site_type_symbol
_atom_site_label
_atom_site_fract_x
_atom_site_fract_y
_atom_site_fract_z
Si Si1 0.245075 0.500000 0.290285
Si Si2 0.551359 0.823536 0.890365
Si Si3 0.322496 0.191961 0.813825
Si Si4 0.825498 0.692036 0.370314
O O1 0.267476 0.665884 0.297710
O O2 0.000000 0.500000 0.500000
O O3 0.500000 0.500000 0.000000
O O4 0.653743 0.000000 0.772734
O O5 0.500000 0.832299 0.000000
O O6 0.287976 0.784199 0.123721
O O7 0.580609 0.264701 0.580369
O O8 0.345989 0.000000 0.780392
O O9 0.083802 0.219509 0.091378
O O10 0.873747 0.500000 0.322195
O O11 0.750000 0.750000 0.500000
#
# Coordination Sequence:
#
# PCOD9214598 Si02
#       4
#     4   8   8   8
#     4  10  22  40  62  90 130 174 220 274 332 394
#     4  10  22  43  69 101 139 184 234 285 347 414
#     4  12  25  45  72 104 141 186 235 291 354 421
#     4  12  26  47  72 103 140 182 234 293 358 423
#
# _framework density 24.448867
#
# number of rings (size 3 to 8) (size 9 to 14) (size 15 to 20)
#    0.000    0.857    1.429    6.000    0.000    5.143 
#    0.000    5.714    0.000    0.000    0.000    0.000 
#    0.000    0.000    0.000    0.000    0.000    0.000 
#
# Total GULP energy -78510.049523 kJ/mol
# GULP energy per Si atom -5607.860680 kJ/mol
# Density = 2.439322 g / cm^3
# Si number density = 24.448867 Si / 1000 Ang^3
#
#
#
# Elastic Constant Matrix: (Units=GPa)
#
#
# Indices 1 2 3 4 5 6 
#
# 1 152.6059 31.3144 9.6536 0.2405 2.5991 -0.0061
# 2 31.3144 253.1117 29.9862 -0.0346 -19.1328 0.0427
# 3 9.6536 29.9862 100.1077 -0.2377 -5.9664 -0.0285
# 4 0.2405 -0.0346 -0.2377 41.9221 -0.0586 -5.5129
# 5 2.5991 -19.1328 -5.9664 -0.0586 45.1095 -0.0370
# 6 -0.0061 0.0427 -0.0285 -5.5129 -0.0370 36.0815
#
#
#
# Elastic Compliance Matrix: (Units=1/GPa)
#
#
# Indices 1 2 3 4 5 6 
#
# 1 0.006768 -0.000845 -0.000448 -0.000044 -0.000808 -0.000006
# 2 -0.000845 0.004318 -0.001108 0.000004 0.001733 -0.000004
# 3 -0.000448 -0.001108 0.010420 0.000065 0.000934 0.000020
# 4 -0.000044 0.000004 0.000065 0.024344 0.000047 0.003720
# 5 -0.000808 0.001733 0.000934 0.000047 0.023074 0.000029
# 6 -0.000006 -0.000004 0.000020 0.003720 0.000029 0.028283
#
#
# Mechanical properties :
#
#
# Convention : Reuss Voigt Hill
#
# Bulk Modulus (GPa) = 59.86856 71.97044 65.91950
# Shear Modulus (GPa) = 46.47781 53.61401 50.04591
#
# Velocity S-wave (km/s) = 4.36480 4.68793 4.52925
# Velocity P-wave (km/s) = 7.06699 7.66833 7.37379
#
# Compressibility (1/GPa) = 0.01670326
#
# Stress axis : x y z
#
# Youngs Moduli (GPa) = 147.74429 231.60085 95.96671
#
# Poissons Ratio (x) = 0.19580 0.04297
# Poissons Ratio (y) = 0.12490 0.10638
# Poissons Ratio (z) = 0.06615 0.25673
#
# Static dielectric constant tensor:
#      x y z
#    x 1.909090 -0.000320 0.050930 
#    y -0.000320 1.947270 0.000180 
#    z 0.050930 0.000180 1.910610 
# 
# From -- ./inp_files/26956.got.cif
#   From: 2010.05.17/outbox.cif.g08.bks.cpg/sg12_14_cif.got.tgz:26956.got - 2010.06.03 13:09:07.
