data_PCOD9214230
_publ_section_title
;
Structure prediction by ZEFSAII (Michael W. Deem and Ramdas Pophale) SiO2 
 PCOD9214230
Probable space group: C 2/M
;
_chemical_formula_sum "Si O2"
_cell_formula_units_Z 50
_cell_length_a 17.038340
_cell_length_b 24.962252
_cell_length_c 6.933434
_cell_angle_alpha 90.000000
_cell_angle_beta 51.366373
_cell_angle_gamma 90.000000
_cell_volume 2303.542299
_symmetry_space_group_name_H-M "C 2/M"
_symmetry_group_IT_number 12
_symmetry_cell_setting 'monoclinic'
loop_
_space_group_symop_operation_xyz
x,y,z
-x,y,-z
-x,-y,-z
x,-y,z
1/2+x,1/2+y,z
1/2-x,1/2+y,-z
1/2-x,1/2-y,-z
1/2+x,1/2-y,z
loop_
_atom_site_type_symbol
_atom_site_label
_atom_site_fract_x
_atom_site_fract_y
_atom_site_fract_z
Si Si1 0.919153 0.577956 0.292208
Si Si2 0.500000 0.000000 0.500000
Si Si3 0.700457 0.440615 0.461852
Si Si4 0.895504 0.939812 0.778340
Si Si5 0.111349 0.853928 0.873545
Si Si6 0.601949 0.201495 0.731723
Si Si7 0.750074 0.746621 0.770388
O O1 0.951290 0.546411 0.431904
O O2 0.811583 0.560207 0.375917
O O3 0.911550 0.641992 0.330185
O O4 0.000000 0.567801 0.000000
O O5 0.655297 0.500000 0.570145
O O6 0.692807 0.434154 0.243649
O O7 0.643415 0.391808 0.647998
O O8 0.000000 0.936201 0.500000
O O9 0.889312 0.000000 0.871441
O O10 0.890339 0.894268 0.943575
O O11 0.187223 0.806138 0.803674
O O12 0.000000 0.833746 0.000000
O O13 0.689679 0.205335 0.759598
O O14 0.641638 0.239447 0.498011
O O15 0.500000 0.215371 0.000000
O O16 0.750000 0.750000 0.000000
#
# Coordination Sequence:
#
# PCOD9214230 Si02
#       7
#     8   2   8   8   8   8   8
#     4  11  25  46  71  98 144 188 243 306 357 438
#     4  12  26  44  72 114 136 190 258 292 376 432
#     4  11  23  42  66 100 142 185 229 286 355 424
#     4  10  22  39  65 100 140 187 226 272 352 436
#     4  12  24  42  68 102 139 182 229 296 349 429
#     4  10  24  49  71  98 143 189 234 306 367 429
#     4  11  26  45  73 108 136 185 249 298 368 439
#
# _framework density 21.705701999999999
#
# number of rings (size 3 to 8) (size 9 to 14) (size 15 to 20)
#    0.000    1.120    4.000    1.200    2.240    5.120 
#    5.760    0.000    0.000    0.000    0.000    0.000 
#    0.000    0.000    0.000    0.000    0.000    0.000 
#
# Total GULP energy -139541.500238 kJ/mol
# GULP energy per Si atom -5581.660010 kJ/mol
# Density = 2.165630 g / cm^3
# Si number density = 21.705702 Si / 1000 Ang^3
#
#
#
# Elastic Constant Matrix: (Units=GPa)
#
#
# Indices 1 2 3 4 5 6 
#
# 1 117.0169 39.2311 47.9622 0.0000 14.4582 0.0000
# 2 39.2311 130.7579 34.5971 0.0000 6.6368 0.0000
# 3 47.9622 34.5971 95.1283 0.0000 6.2952 0.0000
# 4 0.0000 0.0000 0.0000 24.5085 0.0000 14.7572
# 5 14.4582 6.6368 6.2952 0.0000 43.0085 0.0000
# 6 0.0000 0.0000 0.0000 14.7572 0.0000 -12.4648
#
#
#
# Elastic Compliance Matrix: (Units=1/GPa)
#
#
# Indices 1 2 3 4 5 6 
#
# 1 0.011597 -0.002033 -0.004918 0.000000 -0.002865 0.000000
# 2 -0.002033 0.008850 -0.002170 0.000000 -0.000365 0.000000
# 3 -0.004918 -0.002170 0.013783 0.000000 -0.000029 0.000000
# 4 0.000000 0.000000 0.000000 0.023821 0.000000 0.028202
# 5 -0.002865 -0.000365 -0.000029 0.000000 0.024275 0.000000
# 6 0.000000 0.000000 0.000000 0.028202 0.000000 -0.046837
#
#
# Mechanical properties :
#
#
# Convention : Reuss Voigt Hill
#
# Bulk Modulus (GPa) = 62.54359 65.16489 63.85424
# Shear Modulus (GPa) = 84.66007 25.75127 55.20567
#
# Velocity S-wave (km/s) = 6.25206 3.44813 5.04866
# Velocity P-wave (km/s) = 8.99970 6.77790 7.96664
#
# Compressibility (1/GPa) = 0.01598885
#
# Stress axis : x y z
#
# Youngs Moduli (GPa) = 86.22831 112.99181 72.55398
#
# Poissons Ratio (x) = 0.22968 0.35684
# Poissons Ratio (y) = 0.17528 0.15742
# Poissons Ratio (z) = 0.42409 0.24516
#
# Static dielectric constant tensor:
#      x y z
#    x 1.744230 0.000000 -0.010580 
#    y 0.000000 1.812810 0.000000 
#    z -0.010580 0.000000 1.781490 
# 
# From -- ./inp_files/17609.got.cif
#   From: 2010.05.17/outbox.cif.g08.bks.cpg/sg12_9_cif.got.tgz:17609.got - 2010.06.03 13:09:07.
