data_PCOD9214734
_publ_section_title
;
Structure prediction by ZEFSAII (Michael W. Deem and Ramdas Pophale) SiO2 
 PCOD9214734
Probable space group: C 2/M
;
_chemical_formula_sum "Si O2"
_cell_formula_units_Z 56
_cell_length_a 24.272451
_cell_length_b 19.251600
_cell_length_c 8.231225
_cell_angle_alpha 90.000000
_cell_angle_beta 137.986675
_cell_angle_gamma 90.000000
_cell_volume 2574.352293
_symmetry_space_group_name_H-M "C 2/M"
_symmetry_group_IT_number 12
_symmetry_cell_setting 'monoclinic'
loop_
_space_group_symop_operation_xyz
x,y,z
-x,y,-z
-x,-y,-z
x,-y,z
1/2+x,1/2+y,z
1/2-x,1/2+y,-z
1/2-x,1/2-y,-z
1/2+x,1/2-y,z
loop_
_atom_site_type_symbol
_atom_site_label
_atom_site_fract_x
_atom_site_fract_y
_atom_site_fract_z
Si Si1 0.187998 0.313169 0.693376
Si Si2 0.640101 0.339047 0.061069
Si Si3 0.414261 0.203243 0.221826
Si Si4 0.414507 0.079289 0.726699
Si Si5 0.663778 0.921119 0.102263
Si Si6 0.827067 0.162296 0.483947
Si Si7 0.984178 0.921195 0.769512
O O1 0.278144 0.345885 0.868026
O O2 0.159584 0.292337 0.809817
O O3 0.119956 0.367230 0.478764
O O4 0.185916 0.242806 0.583953
O O5 0.664538 0.345010 0.303246
O O6 0.602010 0.262839 0.945438
O O7 0.567646 0.393928 0.870580
O O8 0.500000 0.214469 0.500000
O O9 0.406563 0.127131 0.128169
O O10 0.350109 0.078173 0.734541
O O11 0.424411 0.000000 0.686868
O O12 0.500000 0.099855 0.000000
O O13 0.750031 0.883640 0.259636
O O14 0.661339 0.000000 0.037836
O O15 0.909324 0.132017 0.581807
O O16 0.963702 0.000000 0.677509
O O17 0.000000 0.921302 0.000000
#
# Coordination Sequence:
#
# PCOD9214734 Si02
#       7
#     8   8   8   8   8   8   8
#     4  12  23  39  66  92 129 173 218 269 326 386
#     4  11  22  40  64  96 129 166 220 274 325 387
#     4  12  26  42  62  93 133 178 220 262 324 394
#     4  10  22  40  63  95 128 163 214 272 329 385
#     4  11  23  41  66  92 127 168 214 274 329 390
#     4  11  21  40  68  96 128 164 223 274 329 387
#     4   9  20  37  62  95 129 164 205 265 329 387
#
# _framework density 21.753046000000001
#
# number of rings (size 3 to 8) (size 9 to 14) (size 15 to 20)
#    0.000    1.143    2.857    3.857    0.000    3.714 
#    0.000    0.000    0.000    1.286    0.000    0.000 
#    0.000    0.000    0.000    0.000    0.000    0.000 
#
# Total GULP energy -156632.169694 kJ/mol
# GULP energy per Si atom -5594.006060 kJ/mol
# Density = 2.170353 g / cm^3
# Si number density = 21.753046 Si / 1000 Ang^3
#
#
#
# Elastic Constant Matrix: (Units=GPa)
#
#
# Indices 1 2 3 4 5 6 
#
# 1 79.1137 1.4108 4.7892 0.0000 27.5312 0.0000
# 2 1.4108 87.0331 34.5763 0.0000 18.6740 0.0000
# 3 4.7892 34.5763 70.6574 0.0000 29.4576 0.0000
# 4 0.0000 0.0000 0.0000 13.8701 0.0000 18.5752
# 5 27.5312 18.6740 29.4576 0.0000 31.7177 0.0000
# 6 0.0000 0.0000 0.0000 18.5752 0.0000 10.9560
#
#
#
# Elastic Compliance Matrix: (Units=1/GPa)
#
#
# Indices 1 2 3 4 5 6 
#
# 1 0.022408 0.002114 0.009913 0.000000 -0.029901 0.000000
# 2 0.002114 0.014655 -0.004818 0.000000 -0.005989 0.000000
# 3 0.009913 -0.004818 0.029770 0.000000 -0.033416 0.000000
# 4 0.000000 0.000000 0.000000 -0.056745 0.000000 0.096206
# 5 -0.029901 -0.005989 -0.033416 0.000000 0.092044 0.000000
# 6 0.000000 0.000000 0.000000 0.096206 0.000000 -0.071837
#
#
# Mechanical properties :
#
#
# Convention : Reuss Voigt Hill
#
# Bulk Modulus (GPa) = 12.30760 35.37300 23.84030
# Shear Modulus (GPa) = 116.38842 24.37728 70.38285
#
# Velocity S-wave (km/s) = 7.32261 3.35122 5.69435
# Velocity P-wave (km/s) = 8.78432 5.59203 7.36325
#
# Compressibility (1/GPa) = 0.08125064
#
# Stress axis : x y z
#
# Youngs Moduli (GPa) = 44.62745 68.23807 33.59078
#
# Poissons Ratio (x) = -0.14428 -0.33297
# Poissons Ratio (y) = -0.09436 0.16183
# Poissons Ratio (z) = -0.44237 0.32876
#
# Static dielectric constant tensor:
#      x y z
#    x 1.817670 0.000000 0.003890 
#    y 0.000000 1.759380 0.000000 
#    z 0.003890 0.000000 1.783780 
# 
# From -- ./inp_files/106015.got.cif
#   From: 2010.05.17/outbox.cif.g08.bks.cpg/sg12_54_cif.got.tgz:106015.got - 2010.06.03 13:09:07.
