data_PCOD9214542
_publ_section_title
;
Structure prediction by ZEFSAII (Michael W. Deem and Ramdas Pophale) SiO2 
 PCOD9214542
Probable space group: C 2/M
;
_chemical_formula_sum "Si O2"
_cell_formula_units_Z 36
_cell_length_a 17.497427
_cell_length_b 10.315438
_cell_length_c 11.214513
_cell_angle_alpha 90.000000
_cell_angle_beta 117.600850
_cell_angle_gamma 90.000000
_cell_volume 1793.793366
_symmetry_space_group_name_H-M "C 2/M"
_symmetry_group_IT_number 12
_symmetry_cell_setting 'monoclinic'
loop_
_space_group_symop_operation_xyz
x,y,z
-x,y,-z
-x,-y,-z
x,-y,z
1/2+x,1/2+y,z
1/2-x,1/2+y,-z
1/2-x,1/2-y,-z
1/2+x,1/2-y,z
loop_
_atom_site_type_symbol
_atom_site_label
_atom_site_fract_x
_atom_site_fract_y
_atom_site_fract_z
Si Si1 0.900399 0.500000 0.952850
Si Si2 0.932794 0.000000 0.341657
Si Si3 0.823710 0.241624 0.957602
Si Si4 0.808535 0.773984 0.340692
Si Si5 0.791695 0.500000 0.629370
Si Si6 0.555264 0.500000 0.918810
Si Si7 0.399602 0.000000 0.471573
O O1 0.877242 0.372095 0.006027
O O2 0.840292 0.500000 0.791858
O O3 0.000000 0.500000 0.000000
O O4 0.871437 0.126678 0.313803
O O5 0.977486 0.000000 0.242953
O O6 0.000000 0.000000 0.500000
O O7 0.775112 0.234350 0.796444
O O8 0.750000 0.250000 0.000000
O O9 0.884908 0.123898 0.026376
O O10 0.769575 0.871098 0.415135
O O11 0.858337 0.639081 0.400891
O O12 0.867344 0.500000 0.586392
O O13 0.500000 0.500000 0.000000
O O14 0.500000 0.000000 0.500000
#
# Coordination Sequence:
#
# PCOD9214542 Si02
#       7
#     4   4   8   8   4   4   4
#     4  10  22  40  61  95 127 165 203 267 341 370
#     4  11  23  47  67  94 139 185 212 265 343 403
#     4  11  21  41  69  91 125 172 218 270 320 390
#     4  10  22  44  67  91 127 176 222 261 328 396
#     4   9  22  43  66  86 128 176 214 255 326 406
#     4  12  25  44  67 106 134 165 226 282 330 387
#     4  12  24  40  62 101 127 160 221 276 322 380
#
# _framework density 20.069202000000001
#
# number of rings (size 3 to 8) (size 9 to 14) (size 15 to 20)
#    0.000    1.333    2.222    4.000    0.000    1.778 
#   28.000    0.000    0.000    0.000    0.000    0.000 
#    0.000    0.000    0.000    0.000    0.000    0.000 
#
# Total GULP energy -100308.209730 kJ/mol
# GULP energy per Si atom -5572.678318 kJ/mol
# Density = 2.002352 g / cm^3
# Si number density = 20.069202 Si / 1000 Ang^3
#
#
#
# Elastic Constant Matrix: (Units=GPa)
#
#
# Indices 1 2 3 4 5 6 
#
# 1 154.8598 69.9574 27.0163 0.0000 -18.6944 0.0000
# 2 69.9574 197.7366 39.1911 0.0000 0.2950 0.0000
# 3 27.0163 39.1911 65.4484 0.0000 -5.6269 0.0000
# 4 0.0000 0.0000 0.0000 30.4851 0.0000 6.0638
# 5 -18.6944 0.2950 -5.6269 0.0000 35.3974 0.0000
# 6 0.0000 0.0000 0.0000 6.0638 0.0000 37.9280
#
#
#
# Elastic Compliance Matrix: (Units=1/GPa)
#
#
# Indices 1 2 3 4 5 6 
#
# 1 0.008452 -0.002698 -0.001508 0.000000 0.004246 0.000000
# 2 -0.002698 0.006612 -0.003014 0.000000 -0.001959 0.000000
# 3 -0.001508 -0.003014 0.017885 0.000000 0.002072 0.000000
# 4 0.000000 0.000000 0.000000 0.033880 0.000000 -0.005417
# 5 0.004246 -0.001959 0.002072 0.000000 0.030839 0.000000
# 6 0.000000 0.000000 0.000000 -0.005417 0.000000 0.027232
#
#
# Mechanical properties :
#
#
# Convention : Reuss Voigt Hill
#
# Bulk Modulus (GPa) = 54.02970 76.70829 65.36899
# Shear Modulus (GPa) = 34.36203 39.55409 36.95806
#
# Velocity S-wave (km/s) = 4.14234 4.44428 4.29596
# Velocity P-wave (km/s) = 7.06107 8.03992 7.56634
#
# Compressibility (1/GPa) = 0.01850834
#
# Stress axis : x y z
#
# Youngs Moduli (GPa) = 118.31754 151.24177 55.91315
#
# Poissons Ratio (x) = 0.40798 0.08434
# Poissons Ratio (y) = 0.31917 0.16853
# Poissons Ratio (z) = 0.17847 0.45587
#
# Static dielectric constant tensor:
#      x y z
#    x 1.679950 0.000000 -0.043410 
#    y 0.000000 1.631320 0.000000 
#    z -0.043410 0.000000 1.766750 
# 
# From -- ./inp_files/152116.got.cif
#   From: 2010.05.17/outbox.cif.g08.bks.cpg/sg12_77_cif.got.tgz:152116.got - 2010.06.03 13:09:07.
