data_PCOD9214821
_publ_section_title
;
Structure prediction by ZEFSAII (Michael W. Deem and Ramdas Pophale) SiO2 
 PCOD9214821
Probable space group: C 2/M
;
_chemical_formula_sum "Si O2"
_cell_formula_units_Z 32
_cell_length_a 24.519561
_cell_length_b 8.763901
_cell_length_c 10.069681
_cell_angle_alpha 90.000000
_cell_angle_beta 51.214120
_cell_angle_gamma 90.000000
_cell_volume 1686.699553
_symmetry_space_group_name_H-M "C 2/M"
_symmetry_group_IT_number 12
_symmetry_cell_setting 'monoclinic'
loop_
_space_group_symop_operation_xyz
x,y,z
-x,y,-z
-x,-y,-z
x,-y,z
1/2+x,1/2+y,z
1/2-x,1/2+y,-z
1/2-x,1/2-y,-z
1/2+x,1/2-y,z
loop_
_atom_site_type_symbol
_atom_site_label
_atom_site_fract_x
_atom_site_fract_y
_atom_site_fract_z
Si Si1 0.434646 0.683816 0.507051
Si Si2 0.433515 0.321513 0.197420
Si Si3 0.294046 0.179904 0.313079
Si Si4 0.716294 0.818144 0.183760
O O1 0.500000 0.731536 0.500000
O O2 0.428535 0.500000 0.527404
O O3 0.446760 0.718613 0.332034
O O4 0.361588 0.755634 0.666570
O O5 0.410330 0.500000 0.231856
O O6 0.373573 0.217033 0.227490
O O7 0.500000 0.310490 0.000000
O O8 0.250000 0.250000 0.500000
O O9 0.266953 0.264127 0.224230
O O10 0.281838 0.000000 0.319355
O O11 0.713643 0.000000 0.180371
O O12 0.750000 0.750000 0.000000
#
# Coordination Sequence:
#
# PCOD9214821 Si02
#       4
#     8   8   8   8
#     4  10  22  41  64  93 131 171 212 261 320 383
#     4  10  22  40  64  95 130 170 213 261 320 381
#     4  12  24  42  67  96 129 169 216 269 322 378
#     4  12  26  44  67  96 130 170 216 268 323 383
#
# _framework density 18.971961
#
# number of rings (size 3 to 8) (size 9 to 14) (size 15 to 20)
#    0.000    1.000    2.500    4.500    3.500    1.000 
#    0.000    0.000    0.000    0.000    0.000    0.000 
#    0.000    0.000    0.000    0.000    0.000    0.000 
#
# Total GULP energy -89452.652321 kJ/mol
# GULP energy per Si atom -5590.790770 kJ/mol
# Density = 1.892878 g / cm^3
# Si number density = 18.971961 Si / 1000 Ang^3
#
#
#
# Elastic Constant Matrix: (Units=GPa)
#
#
# Indices 1 2 3 4 5 6 
#
# 1 139.1017 53.6333 70.2957 0.0000 22.3042 0.0000
# 2 53.6333 91.1561 57.9333 0.0000 1.3633 0.0000
# 3 70.2957 57.9333 162.6303 0.0000 23.9022 0.0000
# 4 0.0000 0.0000 0.0000 25.8057 0.0000 -7.9014
# 5 22.3042 1.3633 23.9022 0.0000 34.1435 0.0000
# 6 0.0000 0.0000 0.0000 -7.9014 0.0000 36.2096
#
#
#
# Elastic Compliance Matrix: (Units=1/GPa)
#
#
# Indices 1 2 3 4 5 6 
#
# 1 0.011145 -0.005081 -0.002193 0.000000 -0.005542 0.000000
# 2 -0.005081 0.016841 -0.004673 0.000000 0.005918 0.000000
# 3 -0.002193 -0.004673 0.009501 0.000000 -0.005032 0.000000
# 4 0.000000 0.000000 0.000000 0.041526 0.000000 0.009061
# 5 -0.005542 0.005918 -0.005032 0.000000 0.036195 0.000000
# 6 0.000000 0.000000 0.000000 0.009061 0.000000 0.029594
#
#
# Mechanical properties :
#
#
# Convention : Reuss Voigt Hill
#
# Bulk Modulus (GPa) = 73.56265 84.06808 78.81537
# Shear Modulus (GPa) = 28.86416 33.30016 31.08216
#
# Velocity S-wave (km/s) = 3.90476 4.19409 4.05201
# Velocity P-wave (km/s) = 7.69338 8.23783 7.97026
#
# Compressibility (1/GPa) = 0.01359385
#
# Stress axis : x y z
#
# Youngs Moduli (GPa) = 89.72811 59.37975 105.25363
#
# Poissons Ratio (x) = 0.30169 0.23080
# Poissons Ratio (y) = 0.45589 0.49182
# Poissons Ratio (z) = 0.19675 0.27747
#
# Static dielectric constant tensor:
#      x y z
#    x 1.634180 0.000000 -0.000100 
#    y 0.000000 1.642380 0.000000 
#    z -0.000100 0.000000 1.675660 
# 
# From -- ./inp_files/81672.got.cif
#   From: 2010.05.17/outbox.cif.g08.bks.cpg/sg12_41_cif.got.tgz:81672.got - 2010.06.03 13:09:07.
