data_PCOD9214778
_publ_section_title
;
Structure prediction by ZEFSAII (Michael W. Deem and Ramdas Pophale) SiO2 
 PCOD9214778
Probable space group: C 2/M
;
_chemical_formula_sum "Si O2"
_cell_formula_units_Z 52
_cell_length_a 8.855657
_cell_length_b 20.111853
_cell_length_c 14.110268
_cell_angle_alpha 90.000000
_cell_angle_beta 84.750719
_cell_angle_gamma 90.000000
_cell_volume 2502.550830
_symmetry_space_group_name_H-M "C 2/M"
_symmetry_group_IT_number 12
_symmetry_cell_setting 'monoclinic'
loop_
_space_group_symop_operation_xyz
x,y,z
-x,y,-z
-x,-y,-z
x,-y,z
1/2+x,1/2+y,z
1/2-x,1/2+y,-z
1/2-x,1/2-y,-z
1/2+x,1/2-y,z
loop_
_atom_site_type_symbol
_atom_site_label
_atom_site_fract_x
_atom_site_fract_y
_atom_site_fract_z
Si Si1 0.168392 0.922840 0.016906
Si Si2 0.361865 0.617517 0.301509
Si Si3 0.293566 0.105021 0.212131
Si Si4 0.630564 0.866277 0.150311
Si Si5 0.396447 0.729658 0.751068
Si Si6 0.607580 0.500000 0.314559
Si Si7 0.656848 0.196980 0.442552
O O1 0.294563 0.881400 0.954651
O O2 0.179835 0.000000 0.986483
O O3 0.194845 0.919294 0.127457
O O4 0.000000 0.899176 0.000000
O O5 0.244166 0.604626 0.223457
O O6 0.459641 0.680878 0.258933
O O7 0.475871 0.558293 0.316424
O O8 0.269182 0.639291 0.400344
O O9 0.467745 0.100550 0.174199
O O10 0.247424 0.180905 0.232983
O O11 0.239878 0.058456 0.299868
O O12 0.610374 0.787564 0.170856
O O13 0.391862 0.766418 0.651159
O O14 0.500000 0.175034 0.500000
O O15 0.750000 0.250000 0.500000
#
# Coordination Sequence:
#
# PCOD9214778 Si02
#       7
#     8   8   8   8   8   4   8
#     4  11  24  40  60  86 123 172 213 249 307 368
#     4  10  22  40  64  91 129 166 201 249 312 381
#     4  11  23  39  64  89 125 162 210 262 298 369
#     4  11  23  36  64  93 123 158 215 262 300 361
#     4  10  22  42  62  96 128 161 202 251 324 365
#     4  10  22  42  59  85 124 171 198 247 312 362
#     4  11  21  38  68  99 125 159 204 255 309 372
#
# _framework density 20.778797999999998
#
# number of rings (size 3 to 8) (size 9 to 14) (size 15 to 20)
#    0.000    1.385    2.308    4.154    6.462    1.231 
#    0.000    1.923    0.000    7.385    0.000    0.000 
#    0.000    0.000    0.000    0.000    0.000    0.000 
#
# Total GULP energy -144807.154541 kJ/mol
# GULP energy per Si atom -5569.505944 kJ/mol
# Density = 2.073150 g / cm^3
# Si number density = 20.778798 Si / 1000 Ang^3
#
#
#
# Elastic Constant Matrix: (Units=GPa)
#
#
# Indices 1 2 3 4 5 6 
#
# 1 111.3216 24.5896 3.0763 0.0000 -28.4608 0.0000
# 2 24.5896 96.3073 4.9422 0.0000 -21.2398 0.0000
# 3 3.0763 4.9422 36.4159 0.0000 -18.0860 0.0000
# 4 0.0000 0.0000 0.0000 -35.6354 0.0000 23.0882
# 5 -28.4608 -21.2398 -18.0860 0.0000 33.7205 0.0000
# 6 0.0000 0.0000 0.0000 23.0882 0.0000 1.2295
#
#
#
# Elastic Compliance Matrix: (Units=1/GPa)
#
#
# Indices 1 2 3 4 5 6 
#
# 1 0.012260 -0.000560 0.005458 0.000000 0.012922 0.000000
# 2 -0.000560 0.012315 0.002717 0.000000 0.008741 0.000000
# 3 0.005458 0.002717 0.040578 0.000000 0.028082 0.000000
# 4 0.000000 0.000000 0.000000 -0.002131 0.000000 0.040023
# 5 0.012922 0.008741 0.028082 0.000000 0.061129 0.000000
# 6 0.000000 0.000000 0.000000 0.040023 0.000000 0.061773
#
#
# Mechanical properties :
#
#
# Convention : Reuss Voigt Hill
#
# Bulk Modulus (GPa) = 12.44061 34.36232 23.40147
# Shear Modulus (GPa) = 25.31813 13.95870 19.63842
#
# Velocity S-wave (km/s) = 3.49443 2.59468 3.07761
# Velocity P-wave (km/s) = 4.72034 5.05466 4.89035
#
# Compressibility (1/GPa) = 0.08038189
#
# Stress axis : x y z
#
# Youngs Moduli (GPa) = 81.56903 81.20233 24.64413
#
# Poissons Ratio (x) = 0.04551 -0.13451
# Poissons Ratio (y) = 0.04572 -0.06697
# Poissons Ratio (z) = -0.44520 -0.22066
#
# Static dielectric constant tensor:
#      x y z
#    x 1.773090 0.000000 -0.009780 
#    y 0.000000 1.746620 0.000000 
#    z -0.009780 0.000000 1.767110 
# 
# From -- ./inp_files/197083.got.cif
#   From: 2010.05.17/outbox.cif.g08.bks.cpg/sg12_99_cif.got.tgz:197083.got - 2010.06.03 13:09:07.
