data_PCOD9214443
_publ_section_title
;
Structure prediction by ZEFSAII (Michael W. Deem and Ramdas Pophale) SiO2 
 PCOD9214443
Probable space group: C 2/M
;
_chemical_formula_sum "Si O2"
_cell_formula_units_Z 48
_cell_length_a 9.488024
_cell_length_b 21.850397
_cell_length_c 15.670689
_cell_angle_alpha 90.000000
_cell_angle_beta 136.873940
_cell_angle_gamma 90.000000
_cell_volume 2220.899673
_symmetry_space_group_name_H-M "C 2/M"
_symmetry_group_IT_number 12
_symmetry_cell_setting 'monoclinic'
loop_
_space_group_symop_operation_xyz
x,y,z
-x,y,-z
-x,-y,-z
x,-y,z
1/2+x,1/2+y,z
1/2-x,1/2+y,-z
1/2-x,1/2-y,-z
1/2+x,1/2-y,z
loop_
_atom_site_type_symbol
_atom_site_label
_atom_site_fract_x
_atom_site_fract_y
_atom_site_fract_z
Si Si1 0.796167 0.569358 0.463276
Si Si2 0.523287 0.336771 0.758269
Si Si3 0.266541 0.408640 0.378259
Si Si4 0.836527 0.815922 0.005219
Si Si5 0.727051 0.735716 0.588004
Si Si6 0.934086 0.385259 0.874970
O O1 0.729108 0.500000 0.413883
O O2 0.618531 0.617286 0.358808
O O3 0.850158 0.572817 0.587323
O O4 0.000000 0.583305 0.500000
O O5 0.542892 0.351804 0.866046
O O6 0.413724 0.271564 0.711728
O O7 0.752482 0.337220 0.820475
O O8 0.500000 0.429718 0.500000
O O9 0.271921 0.334518 0.384439
O O10 0.175941 0.426599 0.246366
O O11 0.750000 0.750000 0.000000
O O12 0.626283 0.855862 0.909134
O O13 0.000000 0.809476 0.000000
O O14 0.500000 0.762037 0.500000
O O15 0.750000 0.750000 0.500000
O O16 0.000000 0.408780 0.000000
#
# Coordination Sequence:
#
# PCOD9214443 Si02
#       6
#     8   8   8   8   8   8
#     4  11  25  43  65  96 131 169 221 283 334 388
#     4  11  21  41  62  90 135 175 212 274 329 391
#     4  11  21  39  64  95 126 167 215 266 332 399
#     4  11  24  39  61  94 132 181 216 259 326 403
#     4  11  21  32  54  91 128 159 202 258 322 392
#     4  10  22  40  60  91 135 166 216 267 314 391
#
# _framework density 21.612863999999998
#
# number of rings (size 3 to 8) (size 9 to 14) (size 15 to 20)
#    0.000    1.167    3.333    4.000    2.333    1.667 
#    0.000    0.000    0.000    9.500    0.000    0.000 
#    0.000    0.000    0.000    0.000    0.000    0.000 
#
# Total GULP energy -133794.666247 kJ/mol
# GULP energy per Si atom -5574.777760 kJ/mol
# Density = 2.156367 g / cm^3
# Si number density = 21.612864 Si / 1000 Ang^3
#
#
#
# Elastic Constant Matrix: (Units=GPa)
#
#
# Indices 1 2 3 4 5 6 
#
# 1 196.2704 3.3453 54.4736 0.0000 -7.3221 0.0000
# 2 3.3453 69.8593 24.6994 0.0000 1.5758 0.0000
# 3 54.4736 24.6994 135.8438 0.0000 -13.4683 -0.0001
# 4 0.0000 0.0000 0.0000 -20.4099 0.0000 12.5730
# 5 -7.3221 1.5758 -13.4683 0.0000 32.0710 0.0000
# 6 0.0000 0.0000 -0.0001 12.5730 0.0000 -24.1427
#
#
#
# Elastic Compliance Matrix: (Units=1/GPa)
#
#
# Indices 1 2 3 4 5 6 
#
# 1 0.005757 0.000560 -0.002382 0.000000 0.000287 0.000000
# 2 0.000560 0.015477 -0.003236 0.000000 -0.001992 0.000000
# 3 -0.002382 -0.003236 0.009252 0.000000 0.003501 0.000000
# 4 0.000000 0.000000 0.000000 -0.072139 0.000000 -0.037569
# 5 0.000287 -0.001992 0.003501 0.000000 0.032814 0.000000
# 6 0.000000 0.000000 0.000000 -0.037569 0.000000 -0.060985
#
#
# Mechanical properties :
#
#
# Convention : Reuss Voigt Hill
#
# Bulk Modulus (GPa) = 49.09202 63.00111 56.04657
# Shear Modulus (GPa) = -94.48563 18.80069 -37.84247
#
# Velocity S-wave (km/s) = -6.61908 2.95258 -4.18894
# Velocity P-wave (km/s) = 5.97099 6.39036 1.60997
#
# Compressibility (1/GPa) = 0.02036991
#
# Stress axis : x y z
#
# Youngs Moduli (GPa) = 173.69270 64.61312 108.08380
#
# Poissons Ratio (x) = -0.03619 0.25747
# Poissons Ratio (y) = -0.09728 0.34976
# Poissons Ratio (z) = 0.41375 0.20909
#
# Static dielectric constant tensor:
#      x y z
#    x 1.785770 0.000000 -0.049640 
#    y 0.000000 1.786380 0.000000 
#    z -0.049640 0.000000 1.757690 
# 
# From -- ./inp_files/170715.got.cif
#   From: 2010.05.17/outbox.cif.g08.bks.cpg/sg12_86_cif.got.tgz:170715.got - 2010.06.03 13:09:07.
