data_PCOD9214612
_publ_section_title
;
Structure prediction by ZEFSAII (Michael W. Deem and Ramdas Pophale) SiO2 
 PCOD9214612
Probable space group: C 2/M
;
_chemical_formula_sum "Si O2"
_cell_formula_units_Z 34
_cell_length_a 19.078224
_cell_length_b 7.348230
_cell_length_c 22.638963
_cell_angle_alpha 90.000000
_cell_angle_beta 25.552568
_cell_angle_gamma 90.000000
_cell_volume 1368.976413
_symmetry_space_group_name_H-M "C 2/M"
_symmetry_group_IT_number 12
_symmetry_cell_setting 'monoclinic'
loop_
_space_group_symop_operation_xyz
x,y,z
-x,y,-z
-x,-y,-z
x,-y,z
1/2+x,1/2+y,z
1/2-x,1/2+y,-z
1/2-x,1/2-y,-z
1/2+x,1/2-y,z
loop_
_atom_site_type_symbol
_atom_site_label
_atom_site_fract_x
_atom_site_fract_y
_atom_site_fract_z
Si Si1 0.845657 0.283645 0.837463
Si Si2 0.105324 0.279402 0.732580
Si Si3 0.512136 0.205432 0.925752
Si Si4 0.500000 0.000000 0.500000
Si Si5 0.035690 0.786397 0.572336
O O1 0.821456 0.500000 0.861713
O O2 0.949173 0.216856 0.814696
O O3 0.952927 0.247387 0.697933
O O4 0.670582 0.198100 0.960421
O O5 0.095508 0.500000 0.742799
O O6 0.272815 0.234869 0.572785
O O7 0.108641 0.210751 0.797402
O O8 0.577721 0.000000 0.885389
O O9 0.500000 0.290844 0.000000
O O10 0.537740 0.841010 0.421597
O O11 0.022159 0.000000 0.568120
#
# Coordination Sequence:
#
# PCOD9214612 Si02
#       5
#     8   8   8   2   8
#     4  11  22  41  64  97 133 173 228 278 324 399
#     4   9  21  41  66  94 132 178 224 275 332 394
#     4  10  22  40  62  91 129 176 226 276 337 398
#     4  12  26  44  64 108 140 164 224 270 332 402
#     4  11  24  44  70  98 136 178 216 273 334 389
#
# _framework density 24.836072999999999
#
# number of rings (size 3 to 8) (size 9 to 14) (size 15 to 20)
#    0.000    1.647    1.176    2.471    3.294    0.471 
#    6.353    0.000    0.000    0.000    0.000    0.000 
#    0.000    0.000    0.000    0.000    0.000    0.000 
#
# Total GULP energy -94924.404820 kJ/mol
# GULP energy per Si atom -5583.788519 kJ/mol
# Density = 2.477954 g / cm^3
# Si number density = 24.836073 Si / 1000 Ang^3
#
#
#
# Elastic Constant Matrix: (Units=GPa)
#
#
# Indices 1 2 3 4 5 6 
#
# 1 116.9916 7.8140 12.3523 -0.0005 8.0787 -0.0003
# 2 7.8140 135.6755 -29.8639 -0.0023 -3.6740 0.0004
# 3 12.3523 -29.8639 51.9650 -0.0003 -9.8875 -0.0002
# 4 -0.0005 -0.0023 -0.0003 4.6215 0.0003 -21.8012
# 5 8.0787 -3.6740 -9.8875 0.0003 49.7846 0.0000
# 6 -0.0003 0.0004 -0.0002 -21.8012 0.0000 -34.9993
#
#
#
# Elastic Compliance Matrix: (Units=1/GPa)
#
#
# Indices 1 2 3 4 5 6 
#
# 1 0.009147 -0.001329 -0.003366 0.000000 -0.002251 0.000000
# 2 -0.001329 0.008763 0.005733 0.000001 0.002001 -0.000001
# 3 -0.003366 0.005733 0.024447 0.000001 0.005825 -0.000001
# 4 0.000000 0.000001 0.000001 0.054940 0.000000 -0.034223
# 5 -0.002251 0.002001 0.005825 0.000000 0.021756 0.000000
# 6 0.000000 -0.000001 -0.000001 -0.034223 0.000000 -0.007255
#
#
# Mechanical properties :
#
#
# Convention : Reuss Voigt Hill
#
# Bulk Modulus (GPa) = 22.50617 31.69297 27.09957
# Shear Modulus (GPa) = 40.14958 24.83669 32.49313
#
# Velocity S-wave (km/s) = 4.02504 3.16575 3.62097
# Velocity P-wave (km/s) = 5.53921 5.11382 5.33076
#
# Compressibility (1/GPa) = 0.04443226
#
# Stress axis : x y z
#
# Youngs Moduli (GPa) = 109.32285 114.11546 40.90539
#
# Poissons Ratio (x) = 0.15163 0.13770
# Poissons Ratio (y) = 0.14526 -0.23450
# Poissons Ratio (z) = 0.36801 -0.65418
#
# Static dielectric constant tensor:
#      x y z
#    x 1.956070 0.000000 -0.014850 
#    y 0.000000 1.987780 0.000000 
#    z -0.014850 0.000000 1.961100 
# 
# From -- ./inp_files/82067.got.cif
#   From: 2010.05.17/outbox.cif.g08.bks.cpg/sg12_42_cif.got.tgz:82067.got - 2010.06.03 13:09:07.
