data_PCOD9214633
_publ_section_title
;
Structure prediction by ZEFSAII (Michael W. Deem and Ramdas Pophale) SiO2 
 PCOD9214633
Probable space group: C 2/M
;
_chemical_formula_sum "Si O2"
_cell_formula_units_Z 48
_cell_length_a 24.742499
_cell_length_b 13.287438
_cell_length_c 11.022921
_cell_angle_alpha 90.000000
_cell_angle_beta 149.480075
_cell_angle_gamma 90.000000
_cell_volume 1840.376488
_symmetry_space_group_name_H-M "C 2/M"
_symmetry_group_IT_number 12
_symmetry_cell_setting 'monoclinic'
loop_
_space_group_symop_operation_xyz
x,y,z
-x,y,-z
-x,-y,-z
x,-y,z
1/2+x,1/2+y,z
1/2-x,1/2+y,-z
1/2-x,1/2-y,-z
1/2+x,1/2-y,z
loop_
_atom_site_type_symbol
_atom_site_label
_atom_site_fract_x
_atom_site_fract_y
_atom_site_fract_z
Si Si1 0.627096 0.338145 0.742725
Si Si2 0.842795 0.388380 0.547000
Si Si3 0.238937 0.606938 0.229998
Si Si4 0.887284 0.390675 0.349084
Si Si5 0.364002 0.321464 0.973560
Si Si6 0.425218 0.674983 0.748174
O O1 0.500000 0.355409 0.500000
O O2 0.687584 0.388058 0.747895
O O3 0.647722 0.218831 0.764140
O O4 0.663114 0.366240 0.947853
O O5 0.862156 0.500000 0.634654
O O6 0.890274 0.383705 0.501416
O O7 0.716374 0.370556 0.279002
O O8 0.890309 0.290932 0.705742
O O9 0.182358 0.500000 0.126353
O O10 0.163851 0.703273 0.082435
O O11 0.319726 0.619881 0.499331
O O12 0.837812 0.500000 0.224450
O O13 0.000000 0.396435 0.500000
O O14 0.488820 0.330210 0.193669
O O15 0.500000 0.635954 0.000000
#
# Coordination Sequence:
#
# PCOD9214633 Si02
#       6
#     8   8   8   8   8   8
#     4  11  19  39  64  91 133 173 206 254 315 384
#     4  10  22  40  62  94 126 160 210 260 315 378
#     4  11  25  42  63  97 132 168 213 258 315 383
#     4   9  16  29  54  86 122 161 198 242 300 365
#     4  11  23  42  64  95 129 169 208 261 318 375
#     4  11  24  46  69  89 123 169 216 267 321 374
#
# _framework density 26.081619
#
# number of rings (size 3 to 8) (size 9 to 14) (size 15 to 20)
#    0.000    1.500    5.000    1.500    0.000    6.333 
#    0.000    1.667    0.000    0.000    0.000    0.000 
#    0.000    0.000    0.000    0.000    0.000    0.000 
#
# Total GULP energy -134344.546945 kJ/mol
# GULP energy per Si atom -5597.689456 kJ/mol
# Density = 2.602226 g / cm^3
# Si number density = 26.081619 Si / 1000 Ang^3
#
#
#
# Elastic Constant Matrix: (Units=GPa)
#
#
# Indices 1 2 3 4 5 6 
#
# 1 46.5434 3.6737 2.5455 0.0000 -5.2515 0.0000
# 2 3.6737 130.6282 -8.7669 0.0000 -2.7307 0.0000
# 3 2.5455 -8.7669 65.7641 0.0000 -14.2757 0.0000
# 4 0.0000 0.0000 0.0000 64.4673 0.0000 70.2417
# 5 -5.2515 -2.7307 -14.2757 0.0000 46.2050 0.0000
# 6 0.0000 0.0000 0.0000 70.2417 0.0000 85.6503
#
#
#
# Elastic Compliance Matrix: (Units=1/GPa)
#
#
# Indices 1 2 3 4 5 6 
#
# 1 0.021816 -0.000593 -0.000421 0.000000 0.002314 0.000000
# 2 -0.000593 0.007770 0.001226 0.000000 0.000771 0.000000
# 3 -0.000421 0.001226 0.016497 0.000000 0.005122 0.000000
# 4 0.000000 0.000000 0.000000 0.145726 0.000000 -0.119510
# 5 0.002314 0.000771 0.005122 0.000000 0.023534 0.000000
# 6 0.000000 0.000000 0.000000 -0.119510 0.000000 0.109685
#
#
# Mechanical properties :
#
#
# Convention : Reuss Voigt Hill
#
# Bulk Modulus (GPa) = 21.50204 26.42668 23.96436
# Shear Modulus (GPa) = 14.70121 55.63007 35.16564
#
# Velocity S-wave (km/s) = 2.37673 4.62337 3.67589
# Velocity P-wave (km/s) = 3.97415 6.21731 5.21770
#
# Compressibility (1/GPa) = 0.04650721
#
# Stress axis : x y z
#
# Youngs Moduli (GPa) = 45.83719 128.69349 60.61558
#
# Poissons Ratio (x) = 0.07637 0.02553
# Poissons Ratio (y) = 0.02720 -0.07432
# Poissons Ratio (z) = 0.01930 -0.15779
#
# Static dielectric constant tensor:
#      x y z
#    x 2.114330 0.000000 -0.002130 
#    y 0.000000 1.990410 0.000000 
#    z -0.002130 0.000000 2.074320 
# 
# From -- ./inp_files/183891.got.cif
#   From: 2010.05.17/outbox.cif.g08.bks.cpg/sg12_92_cif.got.tgz:183891.got - 2010.06.03 13:09:07.
