data_PCOD9214412
_publ_section_title
;
Structure prediction by ZEFSAII (Michael W. Deem and Ramdas Pophale) SiO2 
 PCOD9214412
Probable space group: C 2/M
;
_chemical_formula_sum "Si O2"
_cell_formula_units_Z 30
_cell_length_a 5.006222
_cell_length_b 13.054553
_cell_length_c 21.505767
_cell_angle_alpha 90.000000
_cell_angle_beta 97.356379
_cell_angle_gamma 90.000000
_cell_volume 1393.919024
_symmetry_space_group_name_H-M "C 2/M"
_symmetry_group_IT_number 12
_symmetry_cell_setting 'monoclinic'
loop_
_space_group_symop_operation_xyz
x,y,z
-x,y,-z
-x,-y,-z
x,-y,z
1/2+x,1/2+y,z
1/2-x,1/2+y,-z
1/2-x,1/2-y,-z
1/2+x,1/2-y,z
loop_
_atom_site_type_symbol
_atom_site_label
_atom_site_fract_x
_atom_site_fract_y
_atom_site_fract_z
Si Si1 0.721907 0.180169 0.419409
Si Si2 0.877280 0.000000 0.898377
Si Si3 0.500000 0.324884 0.000000
Si Si4 0.668157 0.000000 0.184320
Si Si5 0.063246 0.317060 0.275281
Si Si6 0.000000 0.500000 0.500000
O O1 0.524142 0.276471 0.427480
O O2 0.646169 0.146615 0.346793
O O3 0.655710 0.089590 0.463812
O O4 0.559807 0.000000 0.875755
O O5 0.041675 0.000000 0.839128
O O6 0.958657 0.900234 0.940304
O O7 0.250000 0.250000 0.000000
O O8 0.620480 0.098296 0.225887
O O9 0.255660 0.219776 0.267649
#
# Coordination Sequence:
#
# PCOD9214412 Si02
#       6
#     8   4   4   4   8   2
#     4  10  23  40  58  86 118 152 200 246 291 360
#     4  11  26  40  62  98 122 149 206 248 276 351
#     4  11  24  45  66  86 124 167 194 237 298 340
#     4  12  23  39  62  93 123 152 198 248 292 344
#     4  10  22  40  60  85 121 159 194 240 299 355
#     4  12  22  38  64  84 114 158 196 248 312 340
#
# _framework density 21.522055000000002
#
# number of rings (size 3 to 8) (size 9 to 14) (size 15 to 20)
#    0.000    1.333    0.000    4.800    0.000   10.667 
#    0.000    8.000    0.000    0.000    0.000    0.000 
#    0.000    0.000    0.000    0.000    0.000    0.000 
#
# Total GULP energy -83729.632656 kJ/mol
# GULP energy per Si atom -5581.975510 kJ/mol
# Density = 2.147307 g / cm^3
# Si number density = 21.522055 Si / 1000 Ang^3
#
#
#
# Elastic Constant Matrix: (Units=GPa)
#
#
# Indices 1 2 3 4 5 6 
#
# 1 87.6522 14.9503 -1.3768 0.0000 -5.1482 0.0000
# 2 14.9503 105.4761 42.4417 0.0000 -0.2484 0.0000
# 3 -1.3768 42.4417 75.1125 0.0000 -11.8590 0.0000
# 4 0.0000 0.0000 0.0000 21.8668 0.0000 -1.2450
# 5 -5.1482 -0.2484 -11.8590 0.0000 34.4182 0.0000
# 6 0.0000 0.0000 0.0000 -1.2450 0.0000 40.5614
#
#
#
# Elastic Compliance Matrix: (Units=1/GPa)
#
#
# Indices 1 2 3 4 5 6 
#
# 1 0.012015 -0.002515 0.002033 0.000000 0.002480 0.000000
# 2 -0.002515 0.012993 -0.007860 0.000000 -0.002991 0.000000
# 3 0.002033 -0.007860 0.018857 0.000000 0.006745 0.000000
# 4 0.000000 0.000000 0.000000 0.045811 0.000000 0.001406
# 5 0.002480 -0.002991 0.006745 0.000000 0.031728 0.000000
# 6 0.000000 0.000000 0.000000 0.001406 0.000000 0.024697
#
#
# Mechanical properties :
#
#
# Convention : Reuss Voigt Hill
#
# Bulk Modulus (GPa) = 36.79098 42.25236 39.52167
# Shear Modulus (GPa) = 29.09591 33.51765 31.30678
#
# Velocity S-wave (km/s) = 3.68082 3.95062 3.81811
# Velocity P-wave (km/s) = 5.93264 6.36276 6.15146
#
# Compressibility (1/GPa) = 0.02718058
#
# Stress axis : x y z
#
# Youngs Moduli (GPa) = 83.22718 76.96483 53.03184
#
# Poissons Ratio (x) = 0.19358 -0.10781
# Poissons Ratio (y) = 0.20934 0.41682
# Poissons Ratio (z) = -0.16919 0.60493
#
# Static dielectric constant tensor:
#      x y z
#    x 1.732190 0.000000 0.025570 
#    y 0.000000 1.713500 0.000000 
#    z 0.025570 0.000000 1.794070 
# 
# From -- ./inp_files/297296.got.cif
#   From: 2010.05.17/outbox.cif.g08.bks.cpg/sg12_149_cif.got.tgz:297296.got - 2010.06.03 13:09:07.
