data_PCOD9214311
_publ_section_title
;
Structure prediction by ZEFSAII (Michael W. Deem and Ramdas Pophale) SiO2 
 PCOD9214311
Probable space group: C 2/M
;
_chemical_formula_sum "Si O2"
_cell_formula_units_Z 54
_cell_length_a 31.901165
_cell_length_b 14.766577
_cell_length_c 4.996680
_cell_angle_alpha 90.000000
_cell_angle_beta 88.024899
_cell_angle_gamma 90.000000
_cell_volume 2352.392701
_symmetry_space_group_name_H-M "C 2/M"
_symmetry_group_IT_number 12
_symmetry_cell_setting 'monoclinic'
loop_
_space_group_symop_operation_xyz
x,y,z
-x,y,-z
-x,-y,-z
x,-y,z
1/2+x,1/2+y,z
1/2-x,1/2+y,-z
1/2-x,1/2-y,-z
1/2+x,1/2-y,z
loop_
_atom_site_type_symbol
_atom_site_label
_atom_site_fract_x
_atom_site_fract_y
_atom_site_fract_z
Si Si1 0.347033 0.106902 0.791790
Si Si2 0.280599 0.747463 0.743140
Si Si3 0.895949 0.607797 0.281677
Si Si4 0.500000 0.307636 0.500000
Si Si5 0.917266 0.105411 0.264620
Si Si6 0.962550 0.648520 0.837155
Si Si7 0.857765 0.892526 0.794658
Si Si8 0.000000 0.500000 0.500000
O O1 0.306820 0.160642 0.720707
O O2 0.354882 0.121586 0.103644
O O3 0.344784 0.000000 0.742478
O O4 0.384795 0.138990 0.583541
O O5 0.250000 0.750000 0.500000
O O6 0.315814 0.667824 0.766707
O O7 0.250000 0.750000 0.000000
O O8 0.904078 0.500000 0.256435
O O9 0.929039 0.655995 0.080912
O O10 0.537195 0.357655 0.654044
O O11 0.475966 0.243871 0.716883
O O12 0.886166 0.112780 0.523750
O O13 0.924471 0.000000 0.195991
O O14 0.888860 0.141683 0.024841
O O15 0.964832 0.579216 0.587757
O O16 0.000000 0.602524 0.000000
O O17 0.847612 0.000000 0.843849
#
# Coordination Sequence:
#
# PCOD9214311 Si02
#       8
#     8   8   8   4   8   8   8   2
#     4  10  24  43  66  96 129 174 221 271 334 408
#     4  12  26  44  71 107 141 176 219 283 354 423
#     4  10  22  40  63  86 126 179 229 274 331 399
#     4  11  27  39  61 106 136 182 239 305 369 413
#     4  10  23  46  72  98 138 183 237 293 357 419
#     4  11  25  36  58  89 131 182 232 291 350 399
#     4  10  24  46  74 103 135 187 234 287 351 431
#     4  10  22  40  54  82 130 180 244 284 334 414
#
# _framework density 22.955352000000001
#
# number of rings (size 3 to 8) (size 9 to 14) (size 15 to 20)
#    0.000    1.481    0.741    2.222    8.296    1.185 
#    0.000    2.222    0.000    0.000    0.000    0.000 
#    0.000    0.000    0.000    0.000    0.000    0.000 
#
# Total GULP energy -150563.670391 kJ/mol
# GULP energy per Si atom -5576.432237 kJ/mol
# Density = 2.290311 g / cm^3
# Si number density = 22.955352 Si / 1000 Ang^3
#
#
#
# Elastic Constant Matrix: (Units=GPa)
#
#
# Indices 1 2 3 4 5 6 
#
# 1 110.3830 34.1007 14.9232 0.0000 7.5158 0.0000
# 2 34.1007 60.6543 9.8920 0.0000 10.7613 0.0000
# 3 14.9232 9.8920 120.6790 0.0000 5.9520 0.0000
# 4 0.0000 0.0000 0.0000 26.1067 0.0000 11.4054
# 5 7.5158 10.7613 5.9520 0.0000 50.7022 0.0000
# 6 0.0000 0.0000 0.0000 11.4054 0.0000 46.6766
#
#
#
# Elastic Compliance Matrix: (Units=1/GPa)
#
#
# Indices 1 2 3 4 5 6 
#
# 1 0.011056 -0.006030 -0.000860 0.000000 -0.000258 0.000000
# 2 -0.006030 0.020605 -0.000776 0.000000 -0.003388 0.000000
# 3 -0.000860 -0.000776 0.008491 0.000000 -0.000705 0.000000
# 4 0.000000 0.000000 0.000000 0.042882 0.000000 -0.010478
# 5 -0.000258 -0.003388 -0.000705 0.000000 0.020563 0.000000
# 6 0.000000 0.000000 0.000000 -0.010478 0.000000 0.023984
#
#
# Mechanical properties :
#
#
# Convention : Reuss Voigt Hill
#
# Bulk Modulus (GPa) = 40.29088 45.50535 42.89811
# Shear Modulus (GPa) = 33.07167 40.21714 36.64441
#
# Velocity S-wave (km/s) = 3.79977 4.19020 3.99975
# Velocity P-wave (km/s) = 6.06967 6.57851 6.32921
#
# Compressibility (1/GPa) = 0.02481951
#
# Stress axis : x y z
#
# Youngs Moduli (GPa) = 90.44855 48.53282 117.76905
#
# Poissons Ratio (x) = 0.29264 0.10131
# Poissons Ratio (y) = 0.54538 0.09141
# Poissons Ratio (z) = 0.07780 0.03767
#
# Static dielectric constant tensor:
#      x y z
#    x 1.938760 0.000000 0.093950 
#    y 0.000000 1.860860 0.000000 
#    z 0.093950 0.000000 1.796180 
# 
# From -- ./inp_files/31543.got.cif
#   From: 2010.05.17/outbox.cif.g08.bks.cpg/sg12_16_cif.got.tgz:31543.got - 2010.06.03 13:09:07.
