data_PCOD9214481
_publ_section_title
;
Structure prediction by ZEFSAII (Michael W. Deem and Ramdas Pophale) SiO2 
 PCOD9214481
Probable space group: C 2/M
;
_chemical_formula_sum "Si O2"
_cell_formula_units_Z 40
_cell_length_a 9.853433
_cell_length_b 9.120280
_cell_length_c 21.751152
_cell_angle_alpha 90.000000
_cell_angle_beta 96.321654
_cell_angle_gamma 90.000000
_cell_volume 1942.804836
_symmetry_space_group_name_H-M "C 2/M"
_symmetry_group_IT_number 12
_symmetry_cell_setting 'monoclinic'
loop_
_space_group_symop_operation_xyz
x,y,z
-x,y,-z
-x,-y,-z
x,-y,z
1/2+x,1/2+y,z
1/2-x,1/2+y,-z
1/2-x,1/2-y,-z
1/2+x,1/2-y,z
loop_
_atom_site_type_symbol
_atom_site_label
_atom_site_fract_x
_atom_site_fract_y
_atom_site_fract_z
Si Si1 0.169148 0.826207 0.364195
Si Si2 0.585698 0.673628 0.565726
Si Si3 0.627369 0.668296 0.959996
Si Si4 0.247918 0.827481 0.757863
Si Si5 0.964133 0.327322 0.168705
O O1 0.280268 0.770141 0.419048
O O2 0.018096 0.798414 0.382924
O O3 0.203094 0.740085 0.303865
O O4 0.183286 0.000000 0.355483
O O5 0.500000 0.704604 0.500000
O O6 0.620505 0.500000 0.567119
O O7 0.665394 0.500000 0.947895
O O8 0.583634 0.749185 0.895684
O O9 0.500000 0.667997 0.000000
O O10 0.750000 0.750000 0.000000
O O11 0.118652 0.744775 0.779371
O O12 0.374826 0.809565 0.811115
O O13 0.219122 0.000000 0.749086
O O14 0.933907 0.500000 0.164373
#
# Coordination Sequence:
#
# PCOD9214481 Si02
#       5
#     8   8   8   8   8
#     4  11  23  38  60  89 119 155 199 245 294 351
#     4  10  22  40  61  87 120 157 197 243 296 353
#     4  11  24  41  63  91 123 160 200 244 295 351
#     4  11  24  41  62  88 120 158 198 244 298 354
#     4  11  24  41  63  91 121 156 200 247 296 352
#
# _framework density 20.588789999999999
#
# number of rings (size 3 to 8) (size 9 to 14) (size 15 to 20)
#    0.000    1.200    0.000    5.400    0.000   13.200 
#    0.000    0.000    0.000    0.000    0.000    0.000 
#    0.000    0.000    0.000    0.000    0.000    0.000 
#
# Total GULP energy -111973.472637 kJ/mol
# GULP energy per Si atom -5598.673632 kJ/mol
# Density = 2.054193 g / cm^3
# Si number density = 20.588790 Si / 1000 Ang^3
#
#
#
# Elastic Constant Matrix: (Units=GPa)
#
#
# Indices 1 2 3 4 5 6 
#
# 1 58.4809 36.5383 -13.4406 0.0000 4.4969 0.0000
# 2 36.5383 95.9390 11.2570 0.0000 9.9950 0.0000
# 3 -13.4406 11.2570 63.3838 0.0000 1.7082 0.0000
# 4 0.0000 0.0000 0.0000 41.8890 0.0000 2.0437
# 5 4.4969 9.9950 1.7082 0.0000 31.4423 0.0000
# 6 0.0000 0.0000 0.0000 2.0437 0.0000 29.2372
#
#
#
# Elastic Compliance Matrix: (Units=1/GPa)
#
#
# Indices 1 2 3 4 5 6 
#
# 1 0.025330 -0.010424 0.007242 0.000000 -0.000703 0.000000
# 2 -0.010424 0.015285 -0.004841 0.000000 -0.003105 0.000000
# 3 0.007242 -0.004841 0.018185 0.000000 -0.000485 0.000000
# 4 0.000000 0.000000 0.000000 0.023954 0.000000 -0.001674
# 5 -0.000703 -0.003105 -0.000485 0.000000 0.032918 0.000000
# 6 0.000000 0.000000 0.000000 -0.001674 0.000000 0.034320
#
#
# Mechanical properties :
#
#
# Convention : Reuss Voigt Hill
#
# Bulk Modulus (GPa) = 23.38967 31.83480 27.61223
# Shear Modulus (GPa) = 27.73299 32.74364 30.23831
#
# Velocity S-wave (km/s) = 3.67412 3.99226 3.83649
# Velocity P-wave (km/s) = 5.42070 6.06190 5.75024
#
# Compressibility (1/GPa) = 0.04275393
#
# Stress axis : x y z
#
# Youngs Moduli (GPa) = 39.47814 65.42533 54.98935
#
# Poissons Ratio (x) = 0.68196 -0.39821
# Poissons Ratio (y) = 0.41150 0.26621
# Poissons Ratio (z) = -0.28588 0.31674
#
# Static dielectric constant tensor:
#      x y z
#    x 1.706630 0.000000 0.005220 
#    y 0.000000 1.683820 0.000000 
#    z 0.005220 0.000000 1.734100 
# 
# From -- ./inp_files/261023.got.cif
#   From: 2010.05.17/outbox.cif.g08.bks.cpg/sg12_131_cif.got.tgz:261023.got - 2010.06.03 13:09:07.
