data_PCOD9214719
_publ_section_title
;
Structure prediction by ZEFSAII (Michael W. Deem and Ramdas Pophale) SiO2 
 PCOD9214719
Probable space group: C 2/M
;
_chemical_formula_sum "Si O2"
_cell_formula_units_Z 48
_cell_length_a 9.500359
_cell_length_b 16.432386
_cell_length_c 18.860083
_cell_angle_alpha 90.000000
_cell_angle_beta 48.155560
_cell_angle_gamma 90.000000
_cell_volume 2193.393223
_symmetry_space_group_name_H-M "C 2/M"
_symmetry_group_IT_number 12
_symmetry_cell_setting 'monoclinic'
loop_
_space_group_symop_operation_xyz
x,y,z
-x,y,-z
-x,-y,-z
x,-y,z
1/2+x,1/2+y,z
1/2-x,1/2+y,-z
1/2-x,1/2-y,-z
1/2+x,1/2-y,z
loop_
_atom_site_type_symbol
_atom_site_label
_atom_site_fract_x
_atom_site_fract_y
_atom_site_fract_z
Si Si1 0.592686 0.409302 0.298112
Si Si2 0.665010 0.905910 0.495307
Si Si3 0.568740 0.305610 0.751464
Si Si4 0.527272 0.258496 0.066273
Si Si5 0.159743 0.650734 0.656469
Si Si6 0.269762 0.595143 0.186574
O O1 0.644988 0.500000 0.256165
O O2 0.611798 0.341837 0.229507
O O3 0.823497 0.252960 0.337587
O O4 0.699175 0.390992 0.335502
O O5 0.500000 0.872696 0.500000
O O6 0.686715 0.866439 0.564938
O O7 0.611908 0.000000 0.528191
O O8 0.533909 0.246062 0.830802
O O9 0.630522 0.406399 0.610064
O O10 0.674960 0.381746 0.750893
O O11 0.410588 0.344407 0.096882
O O12 0.500000 0.213672 0.000000
O O13 0.750000 0.250000 0.000000
O O14 0.947453 0.621365 0.747346
O O15 0.295027 0.500000 0.163333
#
# Coordination Sequence:
#
# PCOD9214719 Si02
#       6
#     8   8   8   8   8   8
#     4  11  23  40  64  95 135 180 223 275 329 381
#     4  10  22  40  63  93 136 185 228 275 328 385
#     4  10  24  40  65  95 133 174 216 272 336 397
#     4  10  23  44  69  97 129 171 212 270 338 409
#     4  12  22  39  66  99 133 172 226 273 329 389
#     4  10  22  40  67  98 128 171 219 269 326 399
#
# _framework density 21.883901999999999
#
# number of rings (size 3 to 8) (size 9 to 14) (size 15 to 20)
#    1.000    0.500    0.000    5.500    2.333    3.667 
#    0.000    1.667    0.000    0.500    0.000    0.000 
#    0.000    0.000    0.000    0.000    0.000    0.000 
#
# Total GULP energy -133614.293108 kJ/mol
# GULP energy per Si atom -5567.262213 kJ/mol
# Density = 2.183409 g / cm^3
# Si number density = 21.883902 Si / 1000 Ang^3
#
#
#
# Elastic Constant Matrix: (Units=GPa)
#
#
# Indices 1 2 3 4 5 6 
#
# 1 157.4031 -14.5577 34.5599 -0.0008 20.4403 0.0004
# 2 -14.5577 44.3643 15.0856 -0.0006 7.2413 0.0004
# 3 34.5599 15.0856 70.1539 -0.0015 23.7869 0.0009
# 4 -0.0008 -0.0006 -0.0015 -102.5179 0.0006 98.7974
# 5 20.4403 7.2413 23.7869 0.0006 51.7058 -0.0003
# 6 0.0004 0.0004 0.0009 98.7974 -0.0003 -45.4258
#
#
#
# Elastic Compliance Matrix: (Units=1/GPa)
#
#
# Indices 1 2 3 4 5 6 
#
# 1 0.007912 0.004324 -0.004220 0.000000 -0.001792 0.000000
# 2 0.004324 0.026743 -0.007146 0.000000 -0.002167 0.000000
# 3 -0.004220 -0.007146 0.020100 0.000000 -0.006578 0.000000
# 4 0.000000 0.000000 0.000000 0.008900 0.000000 0.019357
# 5 -0.001792 -0.002167 -0.006578 0.000000 0.023378 0.000000
# 6 0.000000 0.000000 0.000000 0.019357 0.000000 0.020086
#
#
# Mechanical properties :
#
#
# Convention : Reuss Voigt Hill
#
# Bulk Modulus (GPa) = 24.58729 38.01077 31.29903
# Shear Modulus (GPa) = 37.10266 -3.45868 16.82199
#
# Velocity S-wave (km/s) = 4.12203 -1.25853 2.77554
# Velocity P-wave (km/s) = 5.82362 3.91090 4.96033
#
# Compressibility (1/GPa) = 0.04067142
#
# Stress axis : x y z
#
# Youngs Moduli (GPa) = 126.38591 37.39282 49.75066
#
# Poissons Ratio (x) = -0.16168 0.20995
# Poissons Ratio (y) = -0.54647 0.35551
# Poissons Ratio (z) = 0.53334 0.26721
#
# Static dielectric constant tensor:
#      x y z
#    x 1.819610 0.000000 0.034780 
#    y 0.000000 1.853530 0.000000 
#    z 0.034780 0.000000 1.904300 
# 
# From -- ./inp_files/257530.got.cif
#   From: 2010.05.17/outbox.cif.g08.bks.cpg/sg12_129_cif.got.tgz:257530.got - 2010.06.03 13:09:07.
