data_PCOD9214405
_publ_section_title
;
Structure prediction by ZEFSAII (Michael W. Deem and Ramdas Pophale) SiO2 
 PCOD9214405
Probable space group: C 2/M
;
_chemical_formula_sum "Si O2"
_cell_formula_units_Z 48
_cell_length_a 9.975633
_cell_length_b 9.049073
_cell_length_c 26.230138
_cell_angle_alpha 90.000000
_cell_angle_beta 91.111031
_cell_angle_gamma 90.000000
_cell_volume 2367.355470
_symmetry_space_group_name_H-M "C 2/M"
_symmetry_group_IT_number 12
_symmetry_cell_setting 'monoclinic'
loop_
_space_group_symop_operation_xyz
x,y,z
-x,y,-z
-x,-y,-z
x,-y,z
1/2+x,1/2+y,z
1/2-x,1/2+y,-z
1/2-x,1/2-y,-z
1/2+x,1/2-y,z
loop_
_atom_site_type_symbol
_atom_site_label
_atom_site_fract_x
_atom_site_fract_y
_atom_site_fract_z
Si Si1 0.692051 0.824838 0.550182
Si Si2 0.050825 0.673390 0.944472
Si Si3 0.724886 0.172172 0.117617
Si Si4 0.461906 0.675005 0.609726
Si Si5 0.309181 0.675083 0.776551
Si Si6 0.537801 0.175379 0.716574
O O1 0.750000 0.750000 0.500000
O O2 0.555464 0.750776 0.567982
O O3 0.806452 0.803097 0.594153
O O4 0.674012 0.000000 0.542375
O O5 0.090321 0.500000 0.947685
O O6 0.172097 0.768738 0.923780
O O7 0.925055 0.685580 0.905473
O O8 0.000000 0.718765 0.000000
O O9 0.736796 0.267529 0.168804
O O10 0.751186 0.000000 0.128846
O O11 0.487456 0.500000 0.610353
O O12 0.500035 0.744532 0.663999
O O13 0.335609 0.500000 0.778349
O O14 0.439478 0.762679 0.759233
O O15 0.189932 0.702024 0.735330
O O16 0.519581 0.000000 0.710613
#
# Coordination Sequence:
#
# PCOD9214405 Si02
#       6
#     8   8   8   8   8   8
#     4  11  24  41  62  90 122 157 199 244 292 348
#     4  10  22  40  60  85 119 155 193 241 293 346
#     4  11  23  38  60  89 117 152 198 241 289 350
#     4  11  24  41  62  90 122 156 197 244 294 349
#     4  11  24  41  61  87 120 156 195 242 294 348
#     4  11  24  41  62  89 119 154 198 243 291 350
#
# _framework density 20.275789
#
# number of rings (size 3 to 8) (size 9 to 14) (size 15 to 20)
#    0.000    1.167    0.000    5.500    0.000   17.000 
#    0.000    0.000    0.000    0.000    0.000    0.000 
#    0.000    0.000    0.000    0.000    0.000    0.000 
#
# Total GULP energy -134343.485421 kJ/mol
# GULP energy per Si atom -5597.645226 kJ/mol
# Density = 2.022964 g / cm^3
# Si number density = 20.275789 Si / 1000 Ang^3
#
#
#
# Elastic Constant Matrix: (Units=GPa)
#
#
# Indices 1 2 3 4 5 6 
#
# 1 53.4947 27.1015 -24.4342 0.0000 -9.5822 0.0000
# 2 27.1015 58.5002 -1.9200 0.0000 12.2810 0.0000
# 3 -24.4342 -1.9200 55.2241 0.0000 2.9599 0.0000
# 4 0.0000 0.0000 0.0000 36.4351 0.0000 -10.4896
# 5 -9.5822 12.2810 2.9599 0.0000 31.2858 0.0000
# 6 0.0000 0.0000 0.0000 -10.4896 0.0000 29.7292
#
#
#
# Elastic Compliance Matrix: (Units=1/GPa)
#
#
# Indices 1 2 3 4 5 6 
#
# 1 0.041368 -0.022841 0.016433 0.000000 0.020082 0.000000
# 2 -0.022841 0.031301 -0.008025 0.000000 -0.018523 0.000000
# 3 0.016433 -0.008025 0.024787 0.000000 0.005838 0.000000
# 4 0.000000 0.000000 0.000000 0.030549 0.000000 0.010779
# 5 0.020082 -0.018523 0.005838 0.000000 0.044833 0.000000
# 6 0.000000 0.000000 0.000000 0.010779 0.000000 0.037440
#
#
# Mechanical properties :
#
#
# Convention : Reuss Voigt Hill
#
# Bulk Modulus (GPa) = 14.57938 18.74596 16.66267
# Shear Modulus (GPa) = 19.08336 30.58815 24.83575
#
# Velocity S-wave (km/s) = 3.07121 3.88829 3.50365
# Velocity P-wave (km/s) = 4.44776 5.42439 4.96017
#
# Compressibility (1/GPa) = 0.06859004
#
# Stress axis : x y z
#
# Youngs Moduli (GPa) = 24.17304 31.94798 40.34360
#
# Poissons Ratio (x) = 0.72973 -0.66298
# Poissons Ratio (y) = 0.55214 0.32376
# Poissons Ratio (z) = -0.39724 0.25639
#
# Static dielectric constant tensor:
#      x y z
#    x 1.696590 0.000000 0.007860 
#    y 0.000000 1.673500 0.000000 
#    z 0.007860 0.000000 1.712110 
# 
# From -- ./inp_files/334809.got.cif
#   From: 2010.05.17/outbox.cif.g08.bks.cpg/sg12_168_cif.got.tgz:334809.got - 2010.06.03 13:09:07.
