data_PCOD9214204
_publ_section_title
;
Structure prediction by ZEFSAII (Michael W. Deem and Ramdas Pophale) SiO2 
 PCOD9214204
Probable space group: C 2/M
;
_chemical_formula_sum "Si O2"
_cell_formula_units_Z 40
_cell_length_a 33.556252
_cell_length_b 11.990718
_cell_length_c 10.067287
_cell_angle_alpha 90.000000
_cell_angle_beta 153.285761
_cell_angle_gamma 90.000000
_cell_volume 1820.959960
_symmetry_space_group_name_H-M "C 2/M"
_symmetry_group_IT_number 12
_symmetry_cell_setting 'monoclinic'
loop_
_space_group_symop_operation_xyz
x,y,z
-x,y,-z
-x,-y,-z
x,-y,z
1/2+x,1/2+y,z
1/2-x,1/2+y,-z
1/2-x,1/2-y,-z
1/2+x,1/2-y,z
loop_
_atom_site_type_symbol
_atom_site_label
_atom_site_fract_x
_atom_site_fract_y
_atom_site_fract_z
Si Si1 0.846989 0.193170 0.785073
Si Si2 0.913270 0.500000 0.149714
Si Si3 0.651042 0.761402 0.937246
Si Si4 0.825954 0.124158 0.431434
Si Si5 0.526637 0.000000 0.231692
Si Si6 0.046126 0.739533 0.359346
O O1 0.750000 0.250000 0.500000
O O2 0.840355 0.119558 0.633255
O O3 0.855745 0.167644 0.968572
O O4 0.939746 0.256936 0.034711
O O5 0.866650 0.383641 0.047534
O O6 0.000000 0.500000 0.500000
O O7 0.944417 0.500000 0.090463
O O8 0.581782 0.741847 0.614048
O O9 0.749835 0.783504 0.177722
O O10 0.912273 0.169399 0.613796
O O11 0.802057 0.000000 0.312932
O O12 0.576307 0.114982 0.409956
O O13 0.500000 0.000000 0.000000
#
# Coordination Sequence:
#
# PCOD9214204 Si02
#       6
#     8   4   8   8   4   8
#     4  10  22  39  64  93 127 169 221 273 328 396
#     4  12  18  36  68  96 126 169 210 281 343 387
#     4  11  21  41  67  98 127 172 226 278 332 399
#     4  11  25  43  66  94 138 182 222 267 337 411
#     4  12  24  36  64 106 135 166 218 281 349 391
#     4  12  23  41  66  98 137 173 221 278 337 398
#
# _framework density 21.966435000000001
#
# number of rings (size 3 to 8) (size 9 to 14) (size 15 to 20)
#    0.000    0.800    5.000    3.000    0.000    1.600 
#    0.000    1.000    0.000    2.400    0.000    0.000 
#    0.000    0.000    0.000    0.000    0.000    0.000 
#
# Total GULP energy -111456.816964 kJ/mol
# GULP energy per Si atom -5572.840848 kJ/mol
# Density = 2.191644 g / cm^3
# Si number density = 21.966435 Si / 1000 Ang^3
#
#
#
# Elastic Constant Matrix: (Units=GPa)
#
#
# Indices 1 2 3 4 5 6 
#
# 1 124.4475 26.1109 33.1755 0.0000 -7.9530 0.0000
# 2 26.1109 40.7055 11.6257 0.0000 6.1452 0.0000
# 3 33.1755 11.6257 105.1942 0.0000 -9.9877 0.0000
# 4 0.0000 0.0000 0.0000 20.1642 0.0000 -1.4936
# 5 -7.9530 6.1452 -9.9877 0.0000 52.4195 0.0000
# 6 0.0000 0.0000 0.0000 -1.4936 0.0000 7.3557
#
#
#
# Elastic Compliance Matrix: (Units=1/GPa)
#
#
# Indices 1 2 3 4 5 6 
#
# 1 0.010039 -0.006044 -0.002328 0.000000 0.001788 0.000000
# 2 -0.006044 0.029681 -0.001824 0.000000 -0.004744 0.000000
# 3 -0.002328 -0.001824 0.010621 0.000000 0.001884 0.000000
# 4 0.000000 0.000000 0.000000 0.050350 0.000000 0.010223
# 5 0.001788 -0.004744 0.001884 0.000000 0.020263 0.000000
# 6 0.000000 0.000000 0.000000 0.010223 0.000000 0.138024
#
#
# Mechanical properties :
#
#
# Convention : Reuss Voigt Hill
#
# Bulk Modulus (GPa) = 33.39246 45.79682 39.59464
# Shear Modulus (GPa) = 17.27981 29.28355 23.28168
#
# Velocity S-wave (km/s) = 2.80776 3.65513 3.25910
# Velocity P-wave (km/s) = 5.07405 6.22150 5.67684
#
# Compressibility (1/GPa) = 0.02994688
#
# Stress axis : x y z
#
# Youngs Moduli (GPa) = 99.61530 33.69131 94.15297
#
# Poissons Ratio (x) = 0.20364 0.21920
# Poissons Ratio (y) = 0.60211 0.17178
# Poissons Ratio (z) = 0.23192 0.06147
#
# Static dielectric constant tensor:
#      x y z
#    x 1.845520 0.000000 0.019780 
#    y 0.000000 1.863180 0.000000 
#    z 0.019780 0.000000 1.792100 
# 
# From -- ./inp_files/112131.got.cif
#   From: 2010.05.17/outbox.cif.g08.bks.cpg/sg12_57_cif.got.tgz:112131.got - 2010.06.03 13:09:07.
