data_PCOD9214196
_publ_section_title
;
Structure prediction by ZEFSAII (Michael W. Deem and Ramdas Pophale) SiO2 
 PCOD9214196
Probable space group: C 2/M
;
_chemical_formula_sum "Si O2"
_cell_formula_units_Z 40
_cell_length_a 27.203817
_cell_length_b 8.218319
_cell_length_c 21.554970
_cell_angle_alpha 90.000000
_cell_angle_beta 22.083009
_cell_angle_gamma 90.000000
_cell_volume 1811.714487
_symmetry_space_group_name_H-M "C 2/M"
_symmetry_group_IT_number 12
_symmetry_cell_setting 'monoclinic'
loop_
_space_group_symop_operation_xyz
x,y,z
-x,y,-z
-x,-y,-z
x,-y,z
1/2+x,1/2+y,z
1/2-x,1/2+y,-z
1/2-x,1/2-y,-z
1/2+x,1/2-y,z
loop_
_atom_site_type_symbol
_atom_site_label
_atom_site_fract_x
_atom_site_fract_y
_atom_site_fract_z
Si Si1 0.896443 0.194450 0.070830
Si Si2 0.124596 0.309224 0.560298
Si Si3 0.646072 0.193867 0.172986
Si Si4 0.642276 0.307017 0.314550
Si Si5 0.096135 0.196344 0.732311
O O1 0.752231 0.265157 0.236379
O O2 0.884518 0.000000 0.093726
O O3 0.000000 0.256469 0.000000
O O4 0.967797 0.225708 0.922062
O O5 0.130923 0.500000 0.537057
O O6 0.093582 0.284311 0.669493
O O7 0.274124 0.248782 0.381412
O O8 0.000401 0.237583 0.669483
O O9 0.681889 0.238157 0.201172
O O10 0.640007 0.000000 0.174849
O O11 0.750000 0.250000 0.000000
O O12 0.500000 0.241252 0.500000
O O13 0.633554 0.500000 0.318643
O O14 0.107600 0.000000 0.708693
#
# Coordination Sequence:
#
# PCOD9214196 Si02
#       5
#     8   8   8   8   8
#     4  10  22  39  64  91 118 157 206 259 312 373
#     4   9  19  34  55  84 115 152 193 242 301 362
#     4  11  23  39  64  92 124 165 211 261 317 379
#     4  11  26  45  63  90 130 171 215 265 316 375
#     4   9  18  34  55  84 118 149 192 245 300 360
#
# _framework density 22.078534000000001
#
# number of rings (size 3 to 8) (size 9 to 14) (size 15 to 20)
#    0.000    2.000    0.000    2.400    2.800    7.600 
#    0.000    0.000    0.000    0.000    0.000    0.000 
#    0.000    0.000    0.000    0.000    0.000    0.000 
#
# Total GULP energy -111721.553148 kJ/mol
# GULP energy per Si atom -5586.077657 kJ/mol
# Density = 2.202828 g / cm^3
# Si number density = 22.078534 Si / 1000 Ang^3
#
#
#
# Elastic Constant Matrix: (Units=GPa)
#
#
# Indices 1 2 3 4 5 6 
#
# 1 88.4306 -3.6194 40.5972 0.0015 -29.7682 0.0003
# 2 -3.6194 11.5264 17.1365 0.0037 0.2409 0.0004
# 3 40.5972 17.1365 106.1561 0.0112 -27.8997 0.0019
# 4 0.0015 0.0037 0.0112 19.6781 -0.0022 -8.9086
# 5 -29.7682 0.2409 -27.8997 -0.0022 40.5889 -0.0012
# 6 0.0003 0.0004 0.0019 -8.9086 -0.0012 14.5202
#
#
#
# Elastic Compliance Matrix: (Units=1/GPa)
#
#
# Indices 1 2 3 4 5 6 
#
# 1 0.018157 0.016731 -0.007532 0.000001 0.008040 0.000002
# 2 0.016731 0.139131 -0.031550 -0.000016 -0.010242 -0.000011
# 3 -0.007532 -0.031550 0.019517 -0.000006 0.008079 -0.000004
# 4 0.000001 -0.000016 -0.000006 0.070361 0.000002 0.043169
# 5 0.008040 -0.010242 0.008079 0.000002 0.036148 0.000003
# 6 0.000002 -0.000011 -0.000004 0.043169 0.000003 0.095355
#
#
# Mechanical properties :
#
#
# Convention : Reuss Voigt Hill
#
# Bulk Modulus (GPa) = 7.56976 34.92684 21.24830
# Shear Modulus (GPa) = 10.69737 25.09069 17.89403
#
# Velocity S-wave (km/s) = 2.20356 3.37475 2.84997
# Velocity P-wave (km/s) = 3.14805 5.57126 4.52489
#
# Compressibility (1/GPa) = 0.13210454
#
# Stress axis : x y z
#
# Youngs Moduli (GPa) = 55.07402 7.18747 51.23855
#
# Poissons Ratio (x) = -0.12025 0.38591
# Poissons Ratio (y) = -0.92144 1.61655
# Poissons Ratio (z) = 0.41479 0.22676
#
# Static dielectric constant tensor:
#      x y z
#    x 1.821960 0.000000 -0.046290 
#    y 0.000000 1.785470 0.000000 
#    z -0.046290 0.000000 1.850650 
# 
# From -- ./inp_files/352965.got.cif
#   From: 2010.05.17/outbox.cif.g08.bks.cpg/sg12_177_cif.got.tgz:352965.got - 2010.06.03 13:09:07.
