data_PCOD9214839
_publ_section_title
;
Structure prediction by ZEFSAII (Michael W. Deem and Ramdas Pophale) SiO2 
 PCOD9214839
Probable space group: C 2/M
;
_chemical_formula_sum "Si O2"
_cell_formula_units_Z 38
_cell_length_a 20.406133
_cell_length_b 11.702690
_cell_length_c 11.124603
_cell_angle_alpha 90.000000
_cell_angle_beta 39.353874
_cell_angle_gamma 90.000000
_cell_volume 1684.590382
_symmetry_space_group_name_H-M "C 2/M"
_symmetry_group_IT_number 12
_symmetry_cell_setting 'monoclinic'
loop_
_space_group_symop_operation_xyz
x,y,z
-x,y,-z
-x,-y,-z
x,-y,z
1/2+x,1/2+y,z
1/2-x,1/2+y,-z
1/2-x,1/2-y,-z
1/2+x,1/2-y,z
loop_
_atom_site_type_symbol
_atom_site_label
_atom_site_fract_x
_atom_site_fract_y
_atom_site_fract_z
Si Si1 0.000000 0.712504 0.500000
Si Si2 0.812442 0.628270 0.904785
Si Si3 0.399712 0.371115 0.449144
Si Si4 0.500000 0.000000 0.000000
Si Si5 0.380331 0.372465 0.205670
Si Si6 0.171574 0.339943 0.852265
O O1 0.100493 0.641579 0.319970
O O2 0.027509 0.792635 0.574323
O O3 0.762438 0.500000 0.963687
O O4 0.750000 0.750000 0.000000
O O5 0.864425 0.629835 0.963129
O O6 0.442715 0.500000 0.375807
O O7 0.377345 0.327113 0.346389
O O8 0.289344 0.378068 0.671112
O O9 0.408816 0.098428 0.120674
O O10 0.335734 0.500000 0.269915
O O11 0.327749 0.292493 0.182982
O O12 0.500000 0.378268 0.000000
#
# Coordination Sequence:
#
# PCOD9214839 Si02
#       6
#     4   8   8   2   8   8
#     4  12  26  44  74 104 149 196 239 318 361 436
#     4  12  27  50  75 108 152 194 253 305 371 443
#     4  11  23  42  68 103 142 186 251 290 369 445
#     4  12  24  40  78  92 142 172 240 308 356 436
#     4  10  22  40  64  97 138 176 231 299 359 430
#     4  12  23  45  69 102 133 188 241 295 367 436
#
# _framework density 22.557411999999999
#
# number of rings (size 3 to 8) (size 9 to 14) (size 15 to 20)
#    0.000    0.632    5.263    2.526    0.000    1.684 
#    0.000    0.000    0.000    0.000    0.000    0.000 
#    0.000    0.000    0.000    0.000    0.000    0.000 
#
# Total GULP energy -105851.471813 kJ/mol
# GULP energy per Si atom -5571.130095 kJ/mol
# Density = 2.250607 g / cm^3
# Si number density = 22.557412 Si / 1000 Ang^3
#
#
#
# Elastic Constant Matrix: (Units=GPa)
#
#
# Indices 1 2 3 4 5 6 
#
# 1 28.3291 39.6389 -5.1453 0.0000 1.2155 0.0000
# 2 39.6389 149.6947 8.2207 0.0000 -1.3646 0.0000
# 3 -5.1453 8.2207 63.9425 0.0000 8.0992 0.0000
# 4 0.0000 0.0000 0.0000 43.8153 0.0000 -26.9097
# 5 1.2155 -1.3646 8.0992 0.0000 38.5172 0.0000
# 6 0.0000 0.0000 0.0000 -26.9097 0.0000 -14.5351
#
#
#
# Elastic Compliance Matrix: (Units=1/GPa)
#
#
# Indices 1 2 3 4 5 6 
#
# 1 0.059457 -0.016185 0.007372 0.000000 -0.004000 0.000000
# 2 -0.016185 0.011141 -0.002927 0.000000 0.001521 0.000000
# 3 0.007372 -0.002927 0.017107 0.000000 -0.003933 0.000000
# 4 0.000000 0.000000 0.000000 0.010680 0.000000 -0.019772
# 5 -0.004000 0.001521 -0.003933 0.000000 0.026970 0.000000
# 6 0.000000 0.000000 0.000000 -0.019772 0.000000 -0.032194
#
#
# Mechanical properties :
#
#
# Convention : Reuss Voigt Hill
#
# Bulk Modulus (GPa) = 15.57077 36.37719 25.97398
# Shear Modulus (GPa) = 36.21877 26.84294 31.53086
#
# Velocity S-wave (km/s) = 4.01137 3.45336 3.74278
# Velocity P-wave (km/s) = 5.32659 5.66237 5.49704
#
# Compressibility (1/GPa) = 0.06422290
#
# Stress axis : x y z
#
# Youngs Moduli (GPa) = 16.81885 89.76051 58.45616
#
# Poissons Ratio (x) = 1.45281 -0.43093
# Poissons Ratio (y) = 0.27222 0.17112
# Poissons Ratio (z) = -0.12399 0.26276
#
# Static dielectric constant tensor:
#      x y z
#    x 1.832720 0.000000 0.026570 
#    y 0.000000 1.954300 0.000000 
#    z 0.026570 0.000000 1.840960 
# 
# From -- ./inp_files/165424.got.cif
#   From: 2010.05.17/outbox.cif.g08.bks.cpg/sg12_83_cif.got.tgz:165424.got - 2010.06.03 13:09:07.
