data_PCOD9214245
_publ_section_title
;
Structure prediction by ZEFSAII (Michael W. Deem and Ramdas Pophale) SiO2 
 PCOD9214245
Probable space group: C 2/M
;
_chemical_formula_sum "Si O2"
_cell_formula_units_Z 34
_cell_length_a 14.039833
_cell_length_b 18.854731
_cell_length_c 9.352968
_cell_angle_alpha 90.000000
_cell_angle_beta 42.396159
_cell_angle_gamma 90.000000
_cell_volume 1669.377448
_symmetry_space_group_name_H-M "C 2/M"
_symmetry_group_IT_number 12
_symmetry_cell_setting 'monoclinic'
loop_
_space_group_symop_operation_xyz
x,y,z
-x,y,-z
-x,-y,-z
x,-y,z
1/2+x,1/2+y,z
1/2-x,1/2+y,-z
1/2-x,1/2-y,-z
1/2+x,1/2-y,z
loop_
_atom_site_type_symbol
_atom_site_label
_atom_site_fract_x
_atom_site_fract_y
_atom_site_fract_z
Si Si1 0.297329 0.845375 0.348934
Si Si2 0.026710 0.784118 0.806105
Si Si3 0.000000 0.500000 0.500000
Si Si4 0.359726 0.643738 0.751699
Si Si5 0.096634 0.500000 0.715222
Si Si6 0.788828 0.500000 0.992506
O O1 0.166827 0.824936 0.595249
O O2 0.430734 0.798712 0.248491
O O3 0.251400 0.824653 0.238821
O O4 0.329393 0.928001 0.318874
O O5 0.904263 0.805878 0.832519
O O6 0.000000 0.802647 0.000000
O O7 0.907875 0.500000 0.453058
O O8 0.855202 0.500000 0.760894
O O9 0.500000 0.630900 0.500000
O O10 0.300121 0.570268 0.877790
O O11 0.929369 0.500000 0.936335
#
# Coordination Sequence:
#
# PCOD9214245 Si02
#       6
#     8   8   2   8   4   4
#     4  10  23  45  63  97 128 166 219 258 317 382
#     4  10  24  40  65  96 129 171 207 262 322 378
#     4   8  24  38  54 104 122 162 202 264 332 348
#     4  10  22  42  65  95 124 172 213 265 315 376
#     4  10  23  42  66  90 129 170 207 270 308 381
#     4  10  22  39  65  93 130 166 213 265 311 382
#
# _framework density 20.366876000000001
#
# number of rings (size 3 to 8) (size 9 to 14) (size 15 to 20)
#    0.706    1.412    0.000    1.059    6.588    4.706 
#   10.588    1.176    0.000    0.000    0.000    0.000 
#    0.000    0.000    0.000    0.000    0.000    0.000 
#
# Total GULP energy -94661.682191 kJ/mol
# GULP energy per Si atom -5568.334247 kJ/mol
# Density = 2.032052 g / cm^3
# Si number density = 20.366876 Si / 1000 Ang^3
#
#
#
# Elastic Constant Matrix: (Units=GPa)
#
#
# Indices 1 2 3 4 5 6 
#
# 1 116.5183 51.7184 35.2746 0.0000 25.6243 0.0001
# 2 51.7184 123.8010 38.2167 0.0000 5.2698 0.0000
# 3 35.2746 38.2167 114.7206 0.0000 29.4067 0.0001
# 4 0.0000 0.0000 0.0000 -1.7137 0.0000 -1.9315
# 5 25.6243 5.2698 29.4067 0.0000 36.4282 -0.0001
# 6 0.0001 0.0000 0.0001 -1.9315 -0.0001 30.0016
#
#
#
# Elastic Compliance Matrix: (Units=1/GPa)
#
#
# Indices 1 2 3 4 5 6 
#
# 1 0.012541 -0.004837 -0.000205 0.000001 -0.007956 0.000000
# 2 -0.004837 0.010927 -0.003303 0.000000 0.004488 0.000000
# 3 -0.000205 -0.003303 0.012257 0.000000 -0.009272 0.000000
# 4 0.000001 0.000000 0.000000 -0.544055 -0.000001 -0.035027
# 5 -0.007956 0.004488 -0.009272 -0.000001 0.039884 0.000000
# 6 0.000000 0.000000 0.000000 -0.035027 0.000000 0.031076
#
#
# Mechanical properties :
#
#
# Convention : Reuss Voigt Hill
#
# Bulk Modulus (GPa) = 52.53804 67.27323 59.90563
# Shear Modulus (GPa) = -12.06757 28.26524 8.09883
#
# Velocity S-wave (km/s) = -2.43679 3.72937 1.99627
# Velocity P-wave (km/s) = 4.23492 7.18656 5.89836
#
# Compressibility (1/GPa) = 0.01903383
#
# Stress axis : x y z
#
# Youngs Moduli (GPa) = 79.73691 91.51791 81.58492
#
# Poissons Ratio (x) = 0.44268 0.01676
# Poissons Ratio (y) = 0.38569 0.26949
# Poissons Ratio (z) = 0.01638 0.30230
#
# Static dielectric constant tensor:
#      x y z
#    x 1.747160 0.000000 -0.012380 
#    y 0.000000 1.688610 0.000000 
#    z -0.012380 0.000000 1.735970 
# 
# From -- ./inp_files/60774.got.cif
#   From: 2010.05.17/outbox.cif.g08.bks.cpg/sg12_31_cif.got.tgz:60774.got - 2010.06.03 13:09:07.
