data_PCOD9214101
_publ_section_title
;
Structure prediction by ZEFSAII (Michael W. Deem and Ramdas Pophale) SiO2 
 PCOD9214101
Probable space group: C 2/M
;
_chemical_formula_sum "Si O2"
_cell_formula_units_Z 48
_cell_length_a 10.356874
_cell_length_b 14.947474
_cell_length_c 17.837514
_cell_angle_alpha 90.000000
_cell_angle_beta 119.871629
_cell_angle_gamma 90.000000
_cell_volume 2394.538302
_symmetry_space_group_name_H-M "C 2/M"
_symmetry_group_IT_number 12
_symmetry_cell_setting 'monoclinic'
loop_
_space_group_symop_operation_xyz
x,y,z
-x,y,-z
-x,-y,-z
x,-y,z
1/2+x,1/2+y,z
1/2-x,1/2+y,-z
1/2-x,1/2-y,-z
1/2+x,1/2-y,z
loop_
_atom_site_type_symbol
_atom_site_label
_atom_site_fract_x
_atom_site_fract_y
_atom_site_fract_z
Si Si1 0.509502 0.600569 0.706439
Si Si2 0.736060 0.156702 0.540269
Si Si3 0.047257 0.397239 0.625135
Si Si4 0.669058 0.241608 0.055645
Si Si5 0.052197 0.709568 0.780718
Si Si6 0.847851 0.398902 0.831723
O O1 0.478447 0.500000 0.727522
O O2 0.398819 0.617012 0.604775
O O3 0.493347 0.688681 0.753446
O O4 0.687082 0.602917 0.744064
O O5 0.750000 0.250000 0.500000
O O6 0.618257 0.100858 0.457765
O O7 0.653880 0.156215 0.597919
O O8 0.099721 0.500000 0.647827
O O9 0.037323 0.344260 0.699522
O O10 0.775126 0.290411 0.145845
O O11 0.500000 0.273443 0.000000
O O12 0.750000 0.250000 0.000000
O O13 0.332663 0.141376 0.910614
O O14 0.959449 0.662715 0.818621
O O15 0.900899 0.500000 0.848786
#
# Coordination Sequence:
#
# PCOD9214101 Si02
#       6
#     8   8   8   8   8   8
#     4  10  22  39  62  93 128 168 221 272 326 388
#     4  11  22  39  63  91 130 174 222 275 330 391
#     4  11  24  41  63  93 130 176 223 271 335 400
#     4  11  23  43  68 101 132 176 226 280 340 408
#     4  11  23  40  70  94 134 172 225 274 340 405
#     4  10  23  42  67  98 133 179 220 271 340 411
#
# _framework density 20.045618999999999
#
# number of rings (size 3 to 8) (size 9 to 14) (size 15 to 20)
#    0.000    1.333    3.333    2.500    4.667    0.333 
#    0.000    0.000    0.000   10.500    0.000    0.000 
#    0.000    0.000    0.000    0.000    0.000    0.000 
#
# Total GULP energy -133853.965931 kJ/mol
# GULP energy per Si atom -5577.248580 kJ/mol
# Density = 1.999999 g / cm^3
# Si number density = 20.045619 Si / 1000 Ang^3
#
#
#
# Elastic Constant Matrix: (Units=GPa)
#
#
# Indices 1 2 3 4 5 6 
#
# 1 83.1396 64.9043 42.8263 0.0000 0.7572 0.0000
# 2 64.9043 159.3411 26.2711 0.0000 -8.8268 0.0000
# 3 42.8263 26.2711 126.4776 0.0000 20.4605 0.0000
# 4 0.0000 0.0000 0.0000 15.3517 0.0000 5.9727
# 5 0.7572 -8.8268 20.4605 0.0000 41.3568 0.0000
# 6 0.0000 0.0000 0.0000 5.9727 0.0000 18.3715
#
#
#
# Elastic Compliance Matrix: (Units=1/GPa)
#
#
# Indices 1 2 3 4 5 6 
#
# 1 0.020747 -0.007484 -0.005599 0.000000 0.000793 0.000000
# 2 -0.007484 0.009394 0.000257 0.000000 0.002015 0.000000
# 3 -0.005599 0.000257 0.010569 0.000000 -0.005072 0.000000
# 4 0.000000 0.000000 0.000000 0.074572 0.000000 -0.024244
# 5 0.000793 0.002015 -0.005072 0.000000 0.027104 0.000000
# 6 0.000000 0.000000 0.000000 -0.024244 0.000000 0.062314
#
#
# Mechanical properties :
#
#
# Convention : Reuss Voigt Hill
#
# Bulk Modulus (GPa) = 66.40742 70.77353 68.59047
# Shear Modulus (GPa) = 21.24302 30.67977 25.96139
#
# Velocity S-wave (km/s) = 3.25889 3.91640 3.60268
# Velocity P-wave (km/s) = 6.88190 7.47220 7.18312
#
# Compressibility (1/GPa) = 0.01505856
#
# Stress axis : x y z
#
# Youngs Moduli (GPa) = 48.19903 106.45658 94.61235
#
# Poissons Ratio (x) = 0.79672 0.52973
# Poissons Ratio (y) = 0.36072 -0.02432
# Poissons Ratio (z) = 0.26986 -0.02736
#
# Static dielectric constant tensor:
#      x y z
#    x 1.712650 0.000000 0.023050 
#    y 0.000000 1.723070 0.000000 
#    z 0.023050 0.000000 1.735950 
# 
# From -- ./inp_files/305703.got.cif
#   From: 2010.05.17/outbox.cif.g08.bks.cpg/sg12_153_cif.got.tgz:305703.got - 2010.06.03 13:09:07.
