data_PCOD9214669
_publ_section_title
;
Structure prediction by ZEFSAII (Michael W. Deem and Ramdas Pophale) SiO2 
 PCOD9214669
Probable space group: C 2/M
;
_chemical_formula_sum "Si O2"
_cell_formula_units_Z 40
_cell_length_a 26.023896
_cell_length_b 8.515033
_cell_length_c 11.051620
_cell_angle_alpha 90.000000
_cell_angle_beta 52.428949
_cell_angle_gamma 90.000000
_cell_volume 1941.053331
_symmetry_space_group_name_H-M "C 2/M"
_symmetry_group_IT_number 12
_symmetry_cell_setting 'monoclinic'
loop_
_space_group_symop_operation_xyz
x,y,z
-x,y,-z
-x,-y,-z
x,-y,z
1/2+x,1/2+y,z
1/2-x,1/2+y,-z
1/2-x,1/2-y,-z
1/2+x,1/2-y,z
loop_
_atom_site_type_symbol
_atom_site_label
_atom_site_fract_x
_atom_site_fract_y
_atom_site_fract_z
Si Si1 0.444554 0.679957 0.180660
Si Si2 0.258941 0.816797 0.851611
Si Si3 0.001407 0.317086 0.330856
Si Si4 0.603476 0.684187 0.335137
Si Si5 0.796931 0.810328 0.324281
O O1 0.439155 0.500000 0.236760
O O2 0.472706 0.793910 0.240769
O O3 0.372504 0.726316 0.241501
O O4 0.500000 0.676469 0.000000
O O5 0.334481 0.785138 0.720325
O O6 0.222803 0.753036 0.782914
O O7 0.243052 0.000000 0.881910
O O8 0.250000 0.750000 0.000000
O O9 0.005771 0.500000 0.355720
O O10 0.950745 0.226245 0.488810
O O11 0.071150 0.237799 0.254984
O O12 0.618374 0.500000 0.312442
O O13 0.750000 0.750000 0.500000
O O14 0.790698 0.000000 0.332268
#
# Coordination Sequence:
#
# PCOD9214669 Si02
#       5
#     8   8   8   8   8
#     4  10  22  40  63  90 124 165 210 259 312 379
#     4  11  24  41  62  94 130 167 210 264 319 380
#     4  11  22  38  61  92 125 158 202 259 314 376
#     4  11  22  39  63  89 120 164 209 254 311 377
#     4  10  23  42  65  93 126 169 216 261 316 379
#
# _framework density 20.607368000000001
#
# number of rings (size 3 to 8) (size 9 to 14) (size 15 to 20)
#    0.000    1.400    0.000    6.600    2.800    6.000 
#    0.000    0.000    0.000    0.000    0.000    0.000 
#    0.000    0.000    0.000    0.000    0.000    0.000 
#
# Total GULP energy -111611.341430 kJ/mol
# GULP energy per Si atom -5580.567072 kJ/mol
# Density = 2.056046 g / cm^3
# Si number density = 20.607368 Si / 1000 Ang^3
#
#
#
# Elastic Constant Matrix: (Units=GPa)
#
#
# Indices 1 2 3 4 5 6 
#
# 1 96.5864 15.0536 15.5849 0.0000 16.4415 0.0000
# 2 15.0536 40.8519 13.9263 0.0000 18.2296 0.0000
# 3 15.5849 13.9263 53.0517 0.0000 11.9088 0.0000
# 4 0.0000 0.0000 0.0000 26.6826 0.0000 2.5165
# 5 16.4415 18.2296 11.9088 0.0000 35.0707 0.0000
# 6 0.0000 0.0000 0.0000 2.5165 0.0000 27.4862
#
#
#
# Elastic Compliance Matrix: (Units=1/GPa)
#
#
# Indices 1 2 3 4 5 6 
#
# 1 0.011624 -0.001900 -0.002072 0.000000 -0.003758 0.000000
# 2 -0.001900 0.033473 -0.004896 0.000000 -0.014846 0.000000
# 3 -0.002072 -0.004896 0.021601 0.000000 -0.003818 0.000000
# 4 0.000000 0.000000 0.000000 0.037804 0.000000 -0.003461
# 5 -0.003758 -0.014846 -0.003818 0.000000 0.039289 0.000000
# 6 0.000000 0.000000 0.000000 -0.003461 0.000000 0.036699
#
#
# Mechanical properties :
#
#
# Convention : Reuss Voigt Hill
#
# Bulk Modulus (GPa) = 20.42467 31.06885 25.74676
# Shear Modulus (GPa) = 23.30512 27.57625 25.44068
#
# Velocity S-wave (km/s) = 3.36655 3.66207 3.51742
# Velocity P-wave (km/s) = 5.00444 5.74372 5.38678
#
# Compressibility (1/GPa) = 0.04896039
#
# Stress axis : x y z
#
# Youngs Moduli (GPa) = 86.03171 29.87526 46.29485
#
# Poissons Ratio (x) = 0.05676 0.09594
# Poissons Ratio (y) = 0.16344 0.22666
# Poissons Ratio (z) = 0.17829 0.14627
#
# Static dielectric constant tensor:
#      x y z
#    x 1.764050 0.000000 0.021250 
#    y 0.000000 1.734830 0.000000 
#    z 0.021250 0.000000 1.796570 
# 
# From -- ./inp_files/179663.got.cif
#   From: 2010.05.17/outbox.cif.g08.bks.cpg/sg12_90_cif.got.tgz:179663.got - 2010.06.03 13:09:07.
