data_PCOD9214502
_publ_section_title
;
Structure prediction by ZEFSAII (Michael W. Deem and Ramdas Pophale) SiO2 
 PCOD9214502
Probable space group: C 2/M
;
_chemical_formula_sum "Si O2"
_cell_formula_units_Z 48
_cell_length_a 24.653048
_cell_length_b 8.790992
_cell_length_c 11.794899
_cell_angle_alpha 90.000000
_cell_angle_beta 112.072228
_cell_angle_gamma 90.000000
_cell_volume 2368.901460
_symmetry_space_group_name_H-M "C 2/M"
_symmetry_group_IT_number 12
_symmetry_cell_setting 'monoclinic'
loop_
_space_group_symop_operation_xyz
x,y,z
-x,y,-z
-x,-y,-z
x,-y,z
1/2+x,1/2+y,z
1/2-x,1/2+y,-z
1/2-x,1/2-y,-z
1/2+x,1/2-y,z
loop_
_atom_site_type_symbol
_atom_site_label
_atom_site_fract_x
_atom_site_fract_y
_atom_site_fract_z
Si Si1 0.583073 0.819192 0.789504
Si Si2 0.638393 0.682020 0.352383
Si Si3 0.366511 0.318159 0.392562
Si Si4 0.192037 0.180984 0.011005
Si Si5 0.518201 0.683137 0.141275
Si Si6 0.228663 0.319255 0.270005
O O1 0.594678 0.764542 0.670474
O O2 0.635937 0.749992 0.905397
O O3 0.524114 0.756815 0.799329
O O4 0.584755 0.000000 0.796364
O O5 0.649582 0.500000 0.357481
O O6 0.620065 0.719195 0.466470
O O7 0.584950 0.718616 0.226246
O O8 0.696160 0.769904 0.358830
O O9 0.373059 0.500000 0.382194
O O10 0.297565 0.281709 0.321157
O O11 0.191414 0.000000 0.998191
O O12 0.250000 0.250000 0.000000
O O13 0.196178 0.229149 0.144706
O O14 0.511518 0.500000 0.141704
O O15 0.500000 0.731392 0.000000
O O16 0.223300 0.500000 0.248452
#
# Coordination Sequence:
#
# PCOD9214502 Si02
#       6
#     8   8   8   8   8   8
#     4  12  25  40  63  93 125 163 205 257 315 368
#     4  10  22  40  63  90 122 168 216 257 309 368
#     4  10  22  40  61  88 126 168 210 256 309 373
#     4  12  23  38  61  90 124 159 201 250 304 366
#     4  10  22  42  66  90 120 162 208 257 313 373
#     4  11  22  37  61  92 127 166 206 256 312 365
#
# _framework density 20.262554999999999
#
# number of rings (size 3 to 8) (size 9 to 14) (size 15 to 20)
#    0.000    1.167    1.667    5.000    0.000    4.333 
#    0.000    3.333    0.000    0.000    0.000    0.000 
#    0.000    0.000    0.000    0.000    0.000    0.000 
#
# Total GULP energy -134269.704585 kJ/mol
# GULP energy per Si atom -5594.571024 kJ/mol
# Density = 2.021644 g / cm^3
# Si number density = 20.262555 Si / 1000 Ang^3
#
#
#
# Elastic Constant Matrix: (Units=GPa)
#
#
# Indices 1 2 3 4 5 6 
#
# 1 107.8802 46.3750 18.3405 0.0000 -26.0866 0.0000
# 2 46.3750 54.0359 23.3925 0.0000 -11.2076 0.0000
# 3 18.3405 23.3925 87.3308 0.0000 -20.2725 0.0000
# 4 0.0000 0.0000 0.0000 25.3640 0.0000 -8.7347
# 5 -26.0866 -11.2076 -20.2725 0.0000 26.8278 0.0000
# 6 0.0000 0.0000 0.0000 -8.7347 0.0000 32.8946
#
#
#
# Elastic Compliance Matrix: (Units=1/GPa)
#
#
# Indices 1 2 3 4 5 6 
#
# 1 0.018234 -0.014095 0.003268 0.000000 0.014311 0.000000
# 2 -0.014095 0.032513 -0.007006 0.000000 -0.005418 0.000000
# 3 0.003268 -0.007006 0.015401 0.000000 0.011889 0.000000
# 4 0.000000 0.000000 0.000000 0.043394 0.000000 0.011523
# 5 0.014311 -0.005418 0.011889 0.000000 0.057911 0.000000
# 6 0.000000 0.000000 0.000000 0.011523 0.000000 0.033460
#
#
# Mechanical properties :
#
#
# Convention : Reuss Voigt Hill
#
# Bulk Modulus (GPa) = 32.80754 47.27367 40.04061
# Shear Modulus (GPa) = 20.26436 27.75986 24.01211
#
# Velocity S-wave (km/s) = 3.16585 3.70538 3.44619
# Velocity P-wave (km/s) = 5.43965 6.45660 5.96982
#
# Compressibility (1/GPa) = 0.03048080
#
# Stress axis : x y z
#
# Youngs Moduli (GPa) = 54.84343 30.75740 64.93155
#
# Poissons Ratio (x) = 0.43353 -0.21222
# Poissons Ratio (y) = 0.77303 0.45493
# Poissons Ratio (z) = -0.17925 0.21550
#
# Static dielectric constant tensor:
#      x y z
#    x 1.706340 0.000000 -0.016030 
#    y 0.000000 1.677520 0.000000 
#    z -0.016030 0.000000 1.750070 
# 
# From -- ./inp_files/173059.got.cif
#   From: 2010.05.17/outbox.cif.g08.bks.cpg/sg12_87_cif.got.tgz:173059.got - 2010.06.03 13:09:07.
