data_PCOD9214993
_publ_section_title
;
Structure prediction by ZEFSAII (Michael W. Deem and Ramdas Pophale) SiO2 
 PCOD9214993
Probable space group: C 2/M
;
_chemical_formula_sum "Si O2"
_cell_formula_units_Z 48
_cell_length_a 18.884417
_cell_length_b 16.176532
_cell_length_c 15.605234
_cell_angle_alpha 90.000000
_cell_angle_beta 149.360612
_cell_angle_gamma 90.000000
_cell_volume 2429.499651
_symmetry_space_group_name_H-M "C 2/M"
_symmetry_group_IT_number 12
_symmetry_cell_setting 'monoclinic'
loop_
_space_group_symop_operation_xyz
x,y,z
-x,y,-z
-x,-y,-z
x,-y,z
1/2+x,1/2+y,z
1/2-x,1/2+y,-z
1/2-x,1/2-y,-z
1/2+x,1/2-y,z
loop_
_atom_site_type_symbol
_atom_site_label
_atom_site_fract_x
_atom_site_fract_y
_atom_site_fract_z
Si Si1 0.406154 0.158701 0.986135
Si Si2 0.909270 0.500000 0.534306
Si Si3 0.614953 0.860009 0.351805
Si Si4 0.095302 0.098175 0.679196
Si Si5 0.281266 0.000000 0.217769
Si Si6 0.430895 0.355090 0.020385
Si Si7 0.579597 0.666634 0.349754
O O1 0.254309 0.120116 0.825836
O O2 0.500000 0.144212 0.000000
O O3 0.493707 0.124427 0.157485
O O4 0.389360 0.258298 0.977823
O O5 0.888886 0.420512 0.572333
O O6 0.807003 0.500000 0.346789
O O7 0.067051 0.500000 0.665384
O O8 0.595120 0.765542 0.361304
O O9 0.767587 0.867110 0.468361
O O10 0.000000 0.124403 0.500000
O O11 0.035802 0.141044 0.702265
O O12 0.081222 0.000000 0.675569
O O13 0.195108 0.918855 0.101597
O O14 0.535536 0.364351 0.209329
O O15 0.500000 0.371786 0.000000
#
# Coordination Sequence:
#
# PCOD9214993 Si02
#       7
#     8   4   8   8   4   8   8
#     4  10  23  43  67  93 125 169 210 262 322 376
#     4  11  26  40  61  96 133 171 205 263 322 378
#     4  10  23  42  65  94 129 165 215 253 320 379
#     4  11  26  42  63  94 125 164 217 265 316 371
#     4  11  25  40  60  96 133 168 213 257 318 379
#     4  10  22  40  67  94 128 166 217 255 315 380
#     4  10  23  42  68  93 126 171 213 262 314 375
#
# _framework density 19.757155999999998
#
# number of rings (size 3 to 8) (size 9 to 14) (size 15 to 20)
#    0.000    1.667    0.000    2.250    8.167    5.667 
#    0.000    0.000    0.000    0.000    0.000    0.000 
#    0.000    0.000    0.000    0.000    0.000    0.000 
#
# Total GULP energy -134156.860917 kJ/mol
# GULP energy per Si atom -5589.869205 kJ/mol
# Density = 1.971219 g / cm^3
# Si number density = 19.757156 Si / 1000 Ang^3
#
#
#
# Elastic Constant Matrix: (Units=GPa)
#
#
# Indices 1 2 3 4 5 6 
#
# 1 99.7720 30.9367 43.9334 0.0000 3.3727 0.0000
# 2 30.9367 34.3565 37.4236 0.0000 -1.0466 -0.0001
# 3 43.9334 37.4236 137.7523 0.0000 1.9265 -0.0001
# 4 0.0000 0.0000 0.0000 18.6323 0.0000 5.0148
# 5 3.3727 -1.0466 1.9265 0.0000 27.4928 0.0000
# 6 0.0000 -0.0001 -0.0001 5.0148 0.0000 21.9576
#
#
#
# Elastic Compliance Matrix: (Units=1/GPa)
#
#
# Indices 1 2 3 4 5 6 
#
# 1 0.014234 -0.011316 -0.001436 0.000000 -0.002076 0.000000
# 2 -0.011316 0.050490 -0.010164 0.000000 0.004023 0.000000
# 3 -0.001436 -0.010164 0.010492 0.000000 -0.000946 0.000000
# 4 0.000000 0.000000 0.000000 0.057185 0.000000 -0.013060
# 5 -0.002076 0.004023 -0.000946 0.000000 0.036847 0.000000
# 6 0.000000 0.000000 0.000000 -0.013060 0.000000 0.048525
#
#
# Mechanical properties :
#
#
# Convention : Reuss Voigt Hill
#
# Bulk Modulus (GPa) = 34.03269 55.16311 44.59790
# Shear Modulus (GPa) = 18.28808 24.25569 21.27188
#
# Velocity S-wave (km/s) = 3.04574 3.50764 3.28482
# Velocity P-wave (km/s) = 5.44349 6.66228 6.08348
#
# Compressibility (1/GPa) = 0.02938351
#
# Stress axis : x y z
#
# Youngs Moduli (GPa) = 70.25239 19.80582 95.31011
#
# Poissons Ratio (x) = 0.22412 0.13691
# Poissons Ratio (y) = 0.79498 0.96874
# Poissons Ratio (z) = 0.10092 0.20131
#
# Static dielectric constant tensor:
#      x y z
#    x 1.664320 0.000000 -0.011270 
#    y 0.000000 1.673690 0.000000 
#    z -0.011270 0.000000 1.677070 
# 
# From -- ./inp_files/226769.got.cif
#   From: 2010.05.17/outbox.cif.g08.bks.cpg/sg12_114_cif.got.tgz:226769.got - 2010.06.03 13:09:07.
