data_PCOD9214233
_publ_section_title
;
Structure prediction by ZEFSAII (Michael W. Deem and Ramdas Pophale) SiO2 
 PCOD9214233
Probable space group: C 2/M
;
_chemical_formula_sum "Si O2"
_cell_formula_units_Z 60
_cell_length_a 11.053403
_cell_length_b 29.055524
_cell_length_c 8.696561
_cell_angle_alpha 90.000000
_cell_angle_beta 77.078194
_cell_angle_gamma 90.000000
_cell_volume 2722.278835
_symmetry_space_group_name_H-M "C 2/M"
_symmetry_group_IT_number 12
_symmetry_cell_setting 'monoclinic'
loop_
_space_group_symop_operation_xyz
x,y,z
-x,y,-z
-x,-y,-z
x,-y,z
1/2+x,1/2+y,z
1/2-x,1/2+y,-z
1/2-x,1/2-y,-z
1/2+x,1/2-y,z
loop_
_atom_site_type_symbol
_atom_site_label
_atom_site_fract_x
_atom_site_fract_y
_atom_site_fract_z
Si Si1 0.310141 0.273037 0.835293
Si Si2 0.699695 0.629424 0.793375
Si Si3 0.402282 0.947623 0.167034
Si Si4 0.488436 0.589028 0.665561
Si Si5 0.230386 0.642157 0.689075
Si Si6 0.358325 0.194262 0.585410
Si Si7 0.162671 0.950774 0.029250
Si Si8 0.500000 0.304739 0.000000
O O1 0.234151 0.319773 0.823413
O O2 0.310470 0.239947 0.686226
O O3 0.250000 0.250000 0.000000
O O4 0.450749 0.280246 0.859391
O O5 0.615578 0.614953 0.671093
O O6 0.827607 0.653504 0.714684
O O7 0.712189 0.585226 0.894048
O O8 0.613710 0.664056 0.913504
O O9 0.369897 0.900262 0.271912
O O10 0.432318 0.000000 0.225630
O O11 0.500000 0.939529 0.000000
O O12 0.269659 0.953649 0.125155
O O13 0.500000 0.562270 0.500000
O O14 0.370395 0.621930 0.666720
O O15 0.454916 0.563961 0.834908
O O16 0.208290 0.673880 0.546472
O O17 0.500000 0.200671 0.500000
O O18 0.145033 0.000000 0.960581
#
# Coordination Sequence:
#
# PCOD9214233 Si02
#       8
#     8   8   8   8   8   8   8   4
#     4  12  27  43  70 102 137 186 237 292 349 419
#     4  12  22  44  69  95 135 183 233 279 351 414
#     4   9  20  40  71 103 137 186 234 280 343 417
#     4  11  21  39  68  96 129 182 220 281 355 414
#     4  11  24  45  68  99 140 181 229 291 350 414
#     4  12  30  45  65 103 144 185 236 292 354 422
#     4  10  22  39  65 103 138 174 231 293 346 413
#     4  12  22  44  71  98 130 172 235 286 340 414
#
# _framework density 22.04036
#
# number of rings (size 3 to 8) (size 9 to 14) (size 15 to 20)
#    0.000    0.933    5.333    1.200    3.733    2.933 
#    0.000    0.667    0.000    0.800    0.000    0.000 
#    0.000    0.000    0.000    0.000    0.000    0.000 
#
# Total GULP energy -167092.700284 kJ/mol
# GULP energy per Si atom -5569.756676 kJ/mol
# Density = 2.199019 g / cm^3
# Si number density = 22.040360 Si / 1000 Ang^3
#
#
#
# Elastic Constant Matrix: (Units=GPa)
#
#
# Indices 1 2 3 4 5 6 
#
# 1 16.4302 14.3167 -8.2088 0.0000 -1.6533 0.0000
# 2 14.3167 136.8525 57.8495 0.0000 7.7922 0.0000
# 3 -8.2088 57.8495 88.8802 0.0000 5.1084 0.0000
# 4 0.0000 0.0000 0.0000 189.5391 0.0000 -100.3501
# 5 -1.6533 7.7922 5.1084 0.0000 34.1405 0.0000
# 6 0.0000 0.0000 0.0000 -100.3501 0.0000 89.8965
#
#
#
# Elastic Compliance Matrix: (Units=1/GPa)
#
#
# Indices 1 2 3 4 5 6 
#
# 1 0.085845 -0.017250 0.018853 0.000000 0.005273 0.000000
# 2 -0.017250 0.013607 -0.010312 0.000000 -0.002398 0.000000
# 3 0.018853 -0.010312 0.019686 0.000000 0.000321 0.000000
# 4 0.000000 0.000000 0.000000 0.012900 0.000000 0.014400
# 5 0.005273 -0.002398 0.000321 0.000000 0.030045 0.000000
# 6 0.000000 0.000000 0.000000 0.014400 0.000000 0.027198
#
#
# Mechanical properties :
#
#
# Convention : Reuss Voigt Hill
#
# Bulk Modulus (GPa) = 9.83097 41.11974 25.47535
# Shear Modulus (GPa) = 20.78083 74.59559 47.68821
#
# Velocity S-wave (km/s) = 3.07392 5.82396 4.65658
# Velocity P-wave (km/s) = 4.13144 7.99510 6.36359
#
# Compressibility (1/GPa) = 0.10171937
#
# Stress axis : x y z
#
# Youngs Moduli (GPa) = 11.64892 73.48983 50.79851
#
# Poissons Ratio (x) = 1.26772 -0.95771
# Poissons Ratio (y) = 0.20095 0.52383
# Poissons Ratio (z) = -0.21962 0.75782
#
# Static dielectric constant tensor:
#      x y z
#    x 1.907720 0.000000 0.032600 
#    y 0.000000 1.910730 0.000000 
#    z 0.032600 0.000000 1.864930 
# 
# From -- ./inp_files/54678.got.cif
#   From: 2010.05.17/outbox.cif.g08.bks.cpg/sg12_28_cif.got.tgz:54678.got - 2010.06.03 13:09:07.
