data_PCOD9214487
_publ_section_title
;
Structure prediction by ZEFSAII (Michael W. Deem and Ramdas Pophale) SiO2 
 PCOD9214487
Probable space group: C 2/M
;
_chemical_formula_sum "Si O2"
_cell_formula_units_Z 48
_cell_length_a 9.106769
_cell_length_b 20.268087
_cell_length_c 21.653997
_cell_angle_alpha 90.000000
_cell_angle_beta 41.344783
_cell_angle_gamma 90.000000
_cell_volume 2640.257399
_symmetry_space_group_name_H-M "C 2/M"
_symmetry_group_IT_number 12
_symmetry_cell_setting 'monoclinic'
loop_
_space_group_symop_operation_xyz
x,y,z
-x,y,-z
-x,-y,-z
x,-y,z
1/2+x,1/2+y,z
1/2-x,1/2+y,-z
1/2-x,1/2-y,-z
1/2+x,1/2-y,z
loop_
_atom_site_type_symbol
_atom_site_label
_atom_site_fract_x
_atom_site_fract_y
_atom_site_fract_z
Si Si1 0.764561 0.812873 0.040636
Si Si2 0.249126 0.925938 0.054627
Si Si3 0.573884 0.310432 0.547122
Si Si4 0.297285 0.777527 0.236670
Si Si5 0.764346 0.924261 0.420495
Si Si6 0.016257 0.154651 0.761943
O O1 0.541775 0.809586 0.152481
O O2 0.750000 0.750000 0.000000
O O3 0.762973 0.878051 0.999767
O O4 0.000000 0.808113 0.000000
O O5 0.107317 0.896227 0.155153
O O6 0.178985 0.000000 0.061430
O O7 0.500000 0.926630 0.000000
O O8 0.500000 0.312329 0.500000
O O9 0.750000 0.250000 0.500000
O O10 0.355618 0.300104 0.658186
O O11 0.675108 0.378876 0.540022
O O12 0.338064 0.700810 0.239137
O O13 0.158856 0.797906 0.219252
O O14 0.500000 0.926960 0.500000
O O15 0.854250 0.884764 0.332237
O O16 0.849341 0.000000 0.396222
#
# Coordination Sequence:
#
# PCOD9214487 Si02
#       6
#     8   8   8   8   8   8
#     4  12  23  39  61  89 122 156 203 253 301 354
#     4  11  23  40  61  85 121 163 203 249 305 365
#     4  11  22  39  62  91 123 156 203 255 311 353
#     4  11  22  35  60  92 117 155 198 254 303 349
#     4  10  22  40  61  87 123 163 201 248 303 365
#     4  11  21  37  61  90 119 155 206 247 308 355
#
# _framework density 18.180045
#
# number of rings (size 3 to 8) (size 9 to 14) (size 15 to 20)
#    0.000    1.000    3.333    5.500    0.000    0.667 
#    0.000    0.000    0.000    0.000    0.000    0.000 
#    0.000    0.000    0.000    0.000    0.000    0.000 
#
# Total GULP energy -134002.280139 kJ/mol
# GULP energy per Si atom -5583.428339 kJ/mol
# Density = 1.813867 g / cm^3
# Si number density = 18.180045 Si / 1000 Ang^3
#
#
#
# Elastic Constant Matrix: (Units=GPa)
#
#
# Indices 1 2 3 4 5 6 
#
# 1 94.6959 76.4306 56.9002 -0.0015 1.3104 0.0025
# 2 76.4306 171.4024 49.0363 -0.0003 8.9396 0.0009
# 3 56.9002 49.0363 123.7633 -0.0009 0.9587 0.0020
# 4 -0.0015 -0.0003 -0.0009 22.4722 0.0009 -0.4452
# 5 1.3104 8.9396 0.9587 0.0009 26.6731 -0.0017
# 6 0.0025 0.0009 0.0020 -0.4452 -0.0017 28.2187
#
#
#
# Elastic Compliance Matrix: (Units=1/GPa)
#
#
# Indices 1 2 3 4 5 6 
#
# 1 0.020304 -0.007294 -0.006458 0.000001 0.001679 -0.000001
# 2 -0.007294 0.009322 -0.000318 0.000000 -0.002754 0.000000
# 3 -0.006458 -0.000318 0.011175 0.000000 0.000022 0.000000
# 4 0.000001 0.000000 0.000000 0.044513 -0.000001 0.000702
# 5 0.001679 -0.002754 0.000022 -0.000001 0.038331 0.000002
# 6 -0.000001 0.000000 0.000000 0.000702 0.000002 0.035449
#
#
# Mechanical properties :
#
#
# Convention : Reuss Voigt Hill
#
# Bulk Modulus (GPa) = 78.98966 83.84398 81.41682
# Shear Modulus (GPa) = 26.11583 29.30578 27.71081
#
# Velocity S-wave (km/s) = 3.79425 4.01930 3.90839
# Velocity P-wave (km/s) = 7.92073 8.23155 8.07764
#
# Compressibility (1/GPa) = 0.01265988
#
# Stress axis : x y z
#
# Youngs Moduli (GPa) = 49.25019 107.27877 89.48518
#
# Poissons Ratio (x) = 0.78250 0.57790
# Poissons Ratio (y) = 0.35923 0.02850
# Poissons Ratio (z) = 0.31806 0.03417
#
# Static dielectric constant tensor:
#      x y z
#    x 1.623530 0.000000 -0.020690 
#    y 0.000000 1.633670 0.000000 
#    z -0.020690 0.000000 1.645840 
# 
# From -- ./inp_files/197176.got.cif
#   From: 2010.05.17/outbox.cif.g08.bks.cpg/sg12_99_cif.got.tgz:197176.got - 2010.06.03 13:09:07.
