data_PCOD9214323
_publ_section_title
;
Structure prediction by ZEFSAII (Michael W. Deem and Ramdas Pophale) SiO2 
 PCOD9214323
Probable space group: C 2/M
;
_chemical_formula_sum "Si O2"
_cell_formula_units_Z 64
_cell_length_a 27.037909
_cell_length_b 22.862514
_cell_length_c 18.427750
_cell_angle_alpha 90.000000
_cell_angle_beta 17.638470
_cell_angle_gamma 90.000000
_cell_volume 3451.644854
_symmetry_space_group_name_H-M "C 2/M"
_symmetry_group_IT_number 12
_symmetry_cell_setting 'monoclinic'
loop_
_space_group_symop_operation_xyz
x,y,z
-x,y,-z
-x,-y,-z
x,-y,z
1/2+x,1/2+y,z
1/2-x,1/2+y,-z
1/2-x,1/2-y,-z
1/2+x,1/2-y,z
loop_
_atom_site_type_symbol
_atom_site_label
_atom_site_fract_x
_atom_site_fract_y
_atom_site_fract_z
Si Si1 0.489096 0.672996 0.791581
Si Si2 0.359448 0.639367 0.754283
Si Si3 0.593627 0.935580 0.944435
Si Si4 0.871809 0.280136 0.742628
Si Si5 0.600044 0.782990 0.549349
Si Si6 0.953951 0.929179 0.387658
Si Si7 0.519694 0.152912 0.153967
Si Si8 0.932450 0.232625 0.012390
O O1 0.590535 0.718766 0.599591
O O2 0.529072 0.607749 0.710294
O O3 0.302615 0.692698 0.033497
O O4 0.513312 0.686934 0.842946
O O5 0.500000 0.625039 0.500000
O O6 0.369254 0.709445 0.752483
O O7 0.405622 0.599560 0.758245
O O8 0.183224 0.631031 0.965434
O O9 0.777373 0.913707 0.670400
O O10 0.614536 0.000000 0.946540
O O11 0.500000 0.938381 0.000000
O O12 0.479185 0.898141 0.156284
O O13 0.000000 0.294901 0.500000
O O14 0.940927 0.298344 0.724270
O O15 0.604867 0.826259 0.610793
O O16 0.746756 0.784506 0.288089
O O17 0.963578 0.000000 0.367950
O O18 0.559870 0.207896 0.045263
O O19 0.000000 0.238629 0.000000
#
# Coordination Sequence:
#
# PCOD9214323 Si02
#       8
#     8   8   8   8   8   8   8   8
#     4  11  21  36  58  81 112 146 184 228 276 338
#     4  11  18  32  57  83 117 144 174 221 279 338
#     4  10  22  40  57  77 112 155 191 225 271 326
#     4  11  18  34  58  83 111 147 179 215 280 340
#     4  11  20  33  55  83 109 145 181 220 278 338
#     4  11  23  36  58  85 112 147 187 233 277 327
#     4  11  21  34  55  83 112 145 180 226 277 332
#     4  11  23  37  53  82 116 147 183 231 282 325
#
# _framework density 18.541884
#
# number of rings (size 3 to 8) (size 9 to 14) (size 15 to 20)
#    0.000    1.125    6.250    3.000    0.000    3.750 
#    0.000    0.000    0.000    1.500    0.000    0.000 
#    0.000    0.000    0.000    0.000    0.000    0.000 
#
# Total GULP energy -178486.769195 kJ/mol
# GULP energy per Si atom -5577.711537 kJ/mol
# Density = 1.849968 g / cm^3
# Si number density = 18.541884 Si / 1000 Ang^3
#
#
#
# Elastic Constant Matrix: (Units=GPa)
#
#
# Indices 1 2 3 4 5 6 
#
# 1 89.2307 16.6171 8.8290 -0.0044 13.4580 0.0002
# 2 16.6171 67.0405 13.0617 -0.0004 18.7969 -0.0004
# 3 8.8290 13.0617 31.2183 -0.0065 19.2512 0.0005
# 4 -0.0044 -0.0004 -0.0065 -1.2430 0.0069 0.8998
# 5 13.4580 18.7969 19.2512 0.0069 37.2343 -0.0007
# 6 0.0002 -0.0004 0.0005 0.8998 -0.0007 22.6637
#
#
#
# Elastic Compliance Matrix: (Units=1/GPa)
#
#
# Indices 1 2 3 4 5 6 
#
# 1 0.012105 -0.002023 -0.000747 -0.000054 -0.002968 0.000002
# 2 -0.002023 0.017874 -0.002632 -0.000023 -0.006931 0.000001
# 3 -0.000747 -0.002632 0.047505 -0.000361 -0.022963 0.000013
# 4 -0.000054 -0.000023 -0.000361 -0.782043 0.000362 0.031049
# 5 -0.002968 -0.006931 -0.022963 0.000362 0.043301 -0.000013
# 6 0.000002 0.000001 0.000013 0.031049 -0.000013 0.042891
#
#
# Mechanical properties :
#
#
# Convention : Reuss Voigt Hill
#
# Bulk Modulus (GPa) = 14.99683 29.38947 22.19315
# Shear Modulus (GPa) = -8.54210 21.66311 6.56050
#
# Velocity S-wave (km/s) = -2.14870 3.42180 1.88305
# Velocity P-wave (km/s) = 1.39633 5.61216 4.08938
#
# Compressibility (1/GPa) = 0.06668074
#
# Stress axis : x y z
#
# Youngs Moduli (GPa) = 82.60954 55.94728 21.05027
#
# Poissons Ratio (x) = 0.11317 0.01572
# Poissons Ratio (y) = 0.16710 0.05541
# Poissons Ratio (z) = 0.06171 0.14726
#
# Static dielectric constant tensor:
#      x y z
#    x 1.743470 0.000000 -0.071660 
#    y 0.000000 1.649210 0.000000 
#    z -0.071660 0.000000 1.739280 
# 
# From -- ./inp_files/294272.got.cif
#   From: 2010.05.17/outbox.cif.g08.bks.cpg/sg12_148_cif.got.tgz:294272.got - 2010.06.03 13:09:07.
