data_PCOD9214400
_publ_section_title
;
Structure prediction by ZEFSAII (Michael W. Deem and Ramdas Pophale) SiO2 
 PCOD9214400
Probable space group: C 2/M
;
_chemical_formula_sum "Si O2"
_cell_formula_units_Z 40
_cell_length_a 10.069267
_cell_length_b 9.089337
_cell_length_c 22.081331
_cell_angle_alpha 90.000000
_cell_angle_beta 97.174622
_cell_angle_gamma 90.000000
_cell_volume 2005.125007
_symmetry_space_group_name_H-M "C 2/M"
_symmetry_group_IT_number 12
_symmetry_cell_setting 'monoclinic'
loop_
_space_group_symop_operation_xyz
x,y,z
-x,y,-z
-x,-y,-z
x,-y,z
1/2+x,1/2+y,z
1/2-x,1/2+y,-z
1/2-x,1/2-y,-z
1/2+x,1/2-y,z
loop_
_atom_site_type_symbol
_atom_site_label
_atom_site_fract_x
_atom_site_fract_y
_atom_site_fract_z
Si Si1 0.505412 0.324665 0.371411
Si Si2 0.878664 0.175479 0.833456
Si Si3 0.372725 0.324124 0.235487
Si Si4 0.288065 0.824916 0.438972
Si Si5 0.353653 0.829237 0.961557
O O1 0.488113 0.500000 0.379262
O O2 0.445289 0.286198 0.302626
O O3 0.421672 0.240996 0.417777
O O4 0.662725 0.293793 0.387122
O O5 0.763105 0.236839 0.783160
O O6 0.859936 0.250749 0.897172
O O7 0.022902 0.209017 0.812516
O O8 0.866777 0.000000 0.838108
O O9 0.347256 0.500000 0.233887
O O10 0.250000 0.750000 0.500000
O O11 0.300268 0.000000 0.447332
O O12 0.315434 0.000000 0.951383
O O13 0.500000 0.823037 0.000000
O O14 0.250000 0.750000 0.000000
#
# Coordination Sequence:
#
# PCOD9214400 Si02
#       5
#     8   8   8   8   8
#     4  10  22  40  60  85 118 154 194 241 290 343
#     4  11  23  39  61  89 120 155 195 239 289 346
#     4  10  22  40  61  86 118 155 194 239 291 344
#     4  11  23  39  60  87 118 153 195 241 291 348
#     4  11  24  41  62  89 119 154 197 242 290 345
#
# _framework density 19.948881
#
# number of rings (size 3 to 8) (size 9 to 14) (size 15 to 20)
#    0.000    1.400    0.000    4.800    0.000   12.800 
#    0.000    0.000    0.000    0.000    0.000    0.000 
#    0.000    0.000    0.000    0.000    0.000    0.000 
#
# Total GULP energy -111903.633879 kJ/mol
# GULP energy per Si atom -5595.181694 kJ/mol
# Density = 1.990348 g / cm^3
# Si number density = 19.948881 Si / 1000 Ang^3
#
#
#
# Elastic Constant Matrix: (Units=GPa)
#
#
# Indices 1 2 3 4 5 6 
#
# 1 59.5486 24.4219 -18.9077 0.0000 -5.8835 0.0000
# 2 24.4219 41.0925 8.6117 0.0000 -3.5434 0.0000
# 3 -18.9077 8.6117 54.8100 0.0000 -4.6539 0.0000
# 4 0.0000 0.0000 0.0000 34.3994 0.0000 1.0693
# 5 -5.8835 -3.5434 -4.6539 0.0000 38.7843 0.0000
# 6 0.0000 0.0000 0.0000 1.0693 0.0000 34.9028
#
#
#
# Elastic Compliance Matrix: (Units=1/GPa)
#
#
# Indices 1 2 3 4 5 6 
#
# 1 0.029996 -0.020368 0.013918 0.000000 0.004360 0.000000
# 2 -0.020368 0.039126 -0.013268 0.000000 -0.001107 0.000000
# 3 0.013918 -0.013268 0.025467 0.000000 0.003955 0.000000
# 4 0.000000 0.000000 0.000000 0.029098 0.000000 -0.000891
# 5 0.004360 -0.001107 0.003955 0.000000 0.026818 0.000000
# 6 0.000000 0.000000 0.000000 -0.000891 0.000000 0.028678
#
#
# Mechanical properties :
#
#
# Convention : Reuss Voigt Hill
#
# Bulk Modulus (GPa) = 18.13143 20.41145 19.27144
# Shear Modulus (GPa) = 21.09676 31.03897 26.06786
#
# Velocity S-wave (km/s) = 3.25551 3.94880 3.61880
# Velocity P-wave (km/s) = 4.82077 5.57179 5.20983
#
# Compressibility (1/GPa) = 0.05515286
#
# Stress axis : x y z
#
# Youngs Moduli (GPa) = 33.33735 25.55871 39.26713
#
# Poissons Ratio (x) = 0.52059 -0.54653
# Poissons Ratio (y) = 0.67902 0.52099
# Poissons Ratio (z) = -0.46400 0.33911
#
# Static dielectric constant tensor:
#      x y z
#    x 1.670110 0.000000 0.022860 
#    y 0.000000 1.663780 0.000000 
#    z 0.022860 0.000000 1.691940 
# 
# From -- ./inp_files/303435.got.cif
#   From: 2010.05.17/outbox.cif.g08.bks.cpg/sg12_152_cif.got.tgz:303435.got - 2010.06.03 13:09:07.
