data_PCOD9214555
_publ_section_title
;
Structure prediction by ZEFSAII (Michael W. Deem and Ramdas Pophale) SiO2 
 PCOD9214555
Probable space group: C 2/M
;
_chemical_formula_sum "Si O2"
_cell_formula_units_Z 38
_cell_length_a 5.112793
_cell_length_b 18.193731
_cell_length_c 20.873137
_cell_angle_alpha 90.000000
_cell_angle_beta 99.710736
_cell_angle_gamma 90.000000
_cell_volume 1913.815510
_symmetry_space_group_name_H-M "C 2/M"
_symmetry_group_IT_number 12
_symmetry_cell_setting 'monoclinic'
loop_
_space_group_symop_operation_xyz
x,y,z
-x,y,-z
-x,-y,-z
x,-y,z
1/2+x,1/2+y,z
1/2-x,1/2+y,-z
1/2-x,1/2-y,-z
1/2+x,1/2-y,z
loop_
_atom_site_type_symbol
_atom_site_label
_atom_site_fract_x
_atom_site_fract_y
_atom_site_fract_z
Si Si1 0.793794 0.350041 0.540666
Si Si2 0.000000 0.500000 0.500000
Si Si3 0.194130 0.585100 0.207615
Si Si4 0.500000 0.303185 0.000000
Si Si5 0.131205 0.914027 0.119912
Si Si6 0.884240 0.295779 0.687100
O O1 0.500000 0.351259 0.500000
O O2 0.895545 0.434351 0.544083
O O3 0.808045 0.317585 0.611688
O O4 0.000000 0.311461 0.500000
O O5 0.197895 0.500000 0.228401
O O6 0.453377 0.599196 0.175596
O O7 0.166482 0.637998 0.266581
O O8 0.938017 0.595126 0.151515
O O9 0.548678 0.356946 0.062171
O O10 0.750000 0.250000 0.000000
O O11 0.088604 0.000000 0.099147
O O12 0.687719 0.230273 0.699684
#
# Coordination Sequence:
#
# PCOD9214555 Si02
#       6
#     8   2   8   4   8   8
#     4  10  22  40  62  87 119 156 204 248 307 358
#     4   8  22  40  62  92 114 160 196 262 304 348
#     4  10  23  42  66  89 120 163 210 250 297 358
#     4  12  25  38  63  98 126 164 202 246 305 362
#     4  10  22  43  64  91 123 163 205 253 299 351
#     4  12  26  41  61  92 125 163 198 248 315 366
#
# _framework density 19.855623999999999
#
# number of rings (size 3 to 8) (size 9 to 14) (size 15 to 20)
#    0.632    0.842    0.000    4.421    1.474    7.579 
#    0.000    4.211    0.000    0.000    0.000    0.000 
#    0.000    0.000    0.000    0.000    0.000    0.000 
#
# Total GULP energy -105923.143609 kJ/mol
# GULP energy per Si atom -5574.902295 kJ/mol
# Density = 1.981043 g / cm^3
# Si number density = 19.855624 Si / 1000 Ang^3
#
#
#
# Elastic Constant Matrix: (Units=GPa)
#
#
# Indices 1 2 3 4 5 6 
#
# 1 67.1342 -3.3395 -6.2578 0.0000 -8.4282 0.0000
# 2 -3.3395 88.6494 50.6682 0.0000 -6.8634 0.0000
# 3 -6.2578 50.6682 82.2091 0.0000 -2.8085 0.0000
# 4 0.0000 0.0000 0.0000 101.0921 0.0000 -49.7968
# 5 -8.4282 -6.8634 -2.8085 0.0000 19.9680 0.0000
# 6 0.0000 0.0000 0.0000 -49.7968 0.0000 49.7178
#
#
#
# Elastic Compliance Matrix: (Units=1/GPa)
#
#
# Indices 1 2 3 4 5 6 
#
# 1 0.015912 0.000486 0.001152 0.000000 0.007045 0.000000
# 2 0.000486 0.017842 -0.010795 0.000000 0.004820 0.000000
# 3 0.001152 -0.010795 0.018886 0.000000 -0.000568 0.000000
# 4 0.000000 0.000000 0.000000 0.019525 0.000000 0.019556
# 5 0.007045 0.004820 -0.000568 0.000000 0.054631 0.000000
# 6 0.000000 0.000000 0.000000 0.019556 0.000000 0.039701
#
#
# Mechanical properties :
#
#
# Convention : Reuss Voigt Hill
#
# Bulk Modulus (GPa) = 29.13217 35.57050 32.35134
# Shear Modulus (GPa) = 25.47773 47.28369 36.38071
#
# Velocity S-wave (km/s) = 3.58599 4.88523 4.28514
# Velocity P-wave (km/s) = 5.64355 7.05507 6.38842
#
# Compressibility (1/GPa) = 0.03432631
#
# Stress axis : x y z
#
# Youngs Moduli (GPa) = 62.84723 56.04853 52.95046
#
# Poissons Ratio (x) = -0.02726 -0.06101
# Poissons Ratio (y) = -0.03057 0.57159
# Poissons Ratio (z) = -0.07241 0.60503
#
# Static dielectric constant tensor:
#      x y z
#    x 1.715140 0.000000 -0.007940 
#    y 0.000000 1.689650 0.000000 
#    z -0.007940 0.000000 1.665430 
# 
# From -- ./inp_files/252587.got.cif
#   From: 2010.05.17/outbox.cif.g08.bks.cpg/sg12_127_cif.got.tgz:252587.got - 2010.06.03 13:09:07.
