data_PCOD9214966
_publ_section_title
;
Structure prediction by ZEFSAII (Michael W. Deem and Ramdas Pophale) SiO2 
 PCOD9214966
Probable space group: C 2/M
;
_chemical_formula_sum "Si O2"
_cell_formula_units_Z 40
_cell_length_a 18.731861
_cell_length_b 9.428963
_cell_length_c 10.053948
_cell_angle_alpha 90.000000
_cell_angle_beta 79.209537
_cell_angle_gamma 90.000000
_cell_volume 1744.350619
_symmetry_space_group_name_H-M "C 2/M"
_symmetry_group_IT_number 12
_symmetry_cell_setting 'monoclinic'
loop_
_space_group_symop_operation_xyz
x,y,z
-x,y,-z
-x,-y,-z
x,-y,z
1/2+x,1/2+y,z
1/2-x,1/2+y,-z
1/2-x,1/2-y,-z
1/2+x,1/2-y,z
loop_
_atom_site_type_symbol
_atom_site_label
_atom_site_fract_x
_atom_site_fract_y
_atom_site_fract_z
Si Si1 0.807111 0.848622 0.305421
Si Si2 0.182053 0.670144 0.951674
Si Si3 0.144255 0.650550 0.372613
Si Si4 0.051116 0.212213 0.597509
Si Si5 0.078714 0.830316 0.174279
O O1 0.816145 0.719150 0.201869
O O2 0.726490 0.843123 0.393800
O O3 0.872859 0.853999 0.385063
O O4 0.809748 0.000000 0.227401
O O5 0.185975 0.500000 0.964740
O O6 0.250000 0.750000 0.000000
O O7 0.110098 0.740700 0.041379
O O8 0.136439 0.500000 0.300901
O O9 0.083717 0.654175 0.507588
O O10 0.130030 0.780675 0.278995
O O11 0.000000 0.145951 0.500000
O O12 0.000465 0.217225 0.744472
O O13 0.079668 0.000000 0.153286
#
# Coordination Sequence:
#
# PCOD9214966 Si02
#       5
#     8   8   8   8   8
#     4  11  23  42  69 100 134 178 228 273 328 394
#     4  12  25  44  70 100 133 171 219 277 337 400
#     4  10  22  40  66  97 133 178 225 278 331 389
#     4  10  24  43  66  98 137 180 225 273 326 390
#     4  11  23  41  68  99 134 178 222 273 332 394
#
# _framework density 22.931168
#
# number of rings (size 3 to 8) (size 9 to 14) (size 15 to 20)
#    0.000    1.200    2.000    3.600    0.000   13.200 
#    0.000    3.000    0.000    0.000    0.000    0.000 
#    0.000    0.000    0.000    0.000    0.000    0.000 
#
# Total GULP energy -111469.377408 kJ/mol
# GULP energy per Si atom -5573.468870 kJ/mol
# Density = 2.287898 g / cm^3
# Si number density = 22.931168 Si / 1000 Ang^3
#
#
#
# Elastic Constant Matrix: (Units=GPa)
#
#
# Indices 1 2 3 4 5 6 
#
# 1 165.8655 40.7118 33.2416 0.0000 -19.5868 0.0000
# 2 40.7118 165.4089 62.9958 0.0000 -13.8578 0.0000
# 3 33.2416 62.9958 53.9387 0.0000 -23.7991 0.0000
# 4 0.0000 0.0000 0.0000 18.8016 0.0000 -4.9915
# 5 -19.5868 -13.8578 -23.7991 0.0000 46.3297 0.0000
# 6 0.0000 0.0000 0.0000 -4.9915 0.0000 -138.2028
#
#
#
# Elastic Compliance Matrix: (Units=1/GPa)
#
#
# Indices 1 2 3 4 5 6 
#
# 1 0.006919 -0.000304 -0.003437 0.000000 0.001068 0.000000
# 2 -0.000304 0.011586 -0.015350 0.000000 -0.004549 0.000000
# 3 -0.003437 -0.015350 0.046446 0.000000 0.017814 0.000000
# 4 0.000000 0.000000 0.000000 0.052682 0.000000 -0.001903
# 5 0.001068 -0.004549 0.017814 0.000000 0.029826 0.000000
# 6 0.000000 0.000000 0.000000 -0.001903 0.000000 -0.007167
#
#
# Mechanical properties :
#
#
# Convention : Reuss Voigt Hill
#
# Bulk Modulus (GPa) = 37.36009 73.23460 55.29735
# Shear Modulus (GPa) = 26.68132 1.93662 14.30897
#
# Velocity S-wave (km/s) = 3.41477 0.91998 2.50070
# Velocity P-wave (km/s) = 5.64581 5.75626 5.70130
#
# Compressibility (1/GPa) = 0.02676653
#
# Stress axis : x y z
#
# Youngs Moduli (GPa) = 144.53632 86.31359 21.53052
#
# Poissons Ratio (x) = 0.02628 0.07400
# Poissons Ratio (y) = 0.04400 0.33050
# Poissons Ratio (z) = 0.49676 1.32495
#
# Static dielectric constant tensor:
#      x y z
#    x 1.869900 0.000000 -0.011580 
#    y 0.000000 1.866710 0.000000 
#    z -0.011580 0.000000 1.907450 
# 
# From -- ./inp_files/151741.got.cif
#   From: 2010.05.17/outbox.cif.g08.bks.cpg/sg12_76_cif.got.tgz:151741.got - 2010.06.03 13:09:07.
