data_PCOD9214243
_publ_section_title
;
Structure prediction by ZEFSAII (Michael W. Deem and Ramdas Pophale) SiO2 
 PCOD9214243
Probable space group: C 2/M
;
_chemical_formula_sum "Si O2"
_cell_formula_units_Z 56
_cell_length_a 8.504905
_cell_length_b 17.426072
_cell_length_c 21.497351
_cell_angle_alpha 90.000000
_cell_angle_beta 57.168989
_cell_angle_gamma 90.000000
_cell_volume 2677.160904
_symmetry_space_group_name_H-M "C 2/M"
_symmetry_group_IT_number 12
_symmetry_cell_setting 'monoclinic'
loop_
_space_group_symop_operation_xyz
x,y,z
-x,y,-z
-x,-y,-z
x,-y,z
1/2+x,1/2+y,z
1/2-x,1/2+y,-z
1/2-x,1/2-y,-z
1/2+x,1/2-y,z
loop_
_atom_site_type_symbol
_atom_site_label
_atom_site_fract_x
_atom_site_fract_y
_atom_site_fract_z
Si Si1 0.686903 0.686719 0.421490
Si Si2 0.083334 0.590985 0.135519
Si Si3 0.636126 0.343629 0.822338
Si Si4 0.761960 0.179504 0.737213
Si Si5 0.048223 0.643236 0.425483
Si Si6 0.331545 0.334187 0.986409
Si Si7 0.906664 0.082104 0.290260
O O1 0.500000 0.657709 0.500000
O O2 0.729186 0.666460 0.339693
O O3 0.868348 0.665184 0.423011
O O4 0.650948 0.777762 0.423937
O O5 0.091975 0.500000 0.142173
O O6 0.213109 0.635247 0.157733
O O7 0.168047 0.612230 0.049392
O O8 0.880170 0.624221 0.195182
O O9 0.703427 0.265667 0.772065
O O10 0.616056 0.411182 0.777968
O O11 0.434145 0.342104 0.898578
O O12 0.966159 0.153185 0.715683
O O13 0.000000 0.602955 0.500000
O O14 0.198081 0.593026 0.358661
O O15 0.500000 0.339955 0.000000
O O16 0.250000 0.250000 0.000000
O O17 0.985979 0.000000 0.293503
#
# Coordination Sequence:
#
# PCOD9214243 Si02
#       7
#     8   8   8   8   8   8   8
#     4  11  22  39  68 101 130 170 223 280 322 384
#     4  11  24  42  65  95 131 171 217 273 333 390
#     4  11  23  40  67  91 125 171 221 267 326 393
#     4  12  23  41  67  96 130 175 222 273 323 393
#     4  11  22  40  65  96 131 171 219 272 329 391
#     4  10  22  39  65  93 124 165 214 266 320 393
#     4  12  26  41  62  96 136 173 215 273 335 390
#
# _framework density 20.917681000000002
#
# number of rings (size 3 to 8) (size 9 to 14) (size 15 to 20)
#    0.000    0.857    2.857    6.000    2.000    3.429 
#    0.000    0.714    0.000    5.143    0.000    0.000 
#    0.000    0.000    0.000    0.000    0.000    0.000 
#
# Total GULP energy -156184.882473 kJ/mol
# GULP energy per Si atom -5578.031517 kJ/mol
# Density = 2.087007 g / cm^3
# Si number density = 20.917681 Si / 1000 Ang^3
#
#
#
# Elastic Constant Matrix: (Units=GPa)
#
#
# Indices 1 2 3 4 5 6 
#
# 1 63.9838 26.2398 44.8142 0.0000 -7.7340 0.0000
# 2 26.2398 90.4493 56.4733 0.0000 -8.8604 0.0000
# 3 44.8142 56.4733 182.1538 0.0000 -12.1945 0.0000
# 4 0.0000 0.0000 0.0000 5.0024 0.0000 1.1949
# 5 -7.7340 -8.8604 -12.1945 0.0000 28.3572 0.0000
# 6 0.0000 0.0000 0.0000 1.1949 0.0000 11.6627
#
#
#
# Elastic Compliance Matrix: (Units=1/GPa)
#
#
# Indices 1 2 3 4 5 6 
#
# 1 0.019874 -0.003167 -0.003718 0.000000 0.002832 0.000000
# 2 -0.003167 0.014393 -0.003542 0.000000 0.002110 0.000000
# 3 -0.003718 -0.003542 0.007579 0.000000 0.001138 0.000000
# 4 0.000000 0.000000 0.000000 0.204920 0.000000 -0.020995
# 5 0.002832 0.002110 0.001138 0.000000 0.037186 0.000000
# 6 0.000000 0.000000 0.000000 -0.020995 0.000000 0.087894
#
#
# Mechanical properties :
#
#
# Convention : Reuss Voigt Hill
#
# Bulk Modulus (GPa) = 47.63623 65.73794 56.68708
# Shear Modulus (GPa) = 12.50950 22.94178 17.72564
#
# Velocity S-wave (km/s) = 2.44813 3.31534 2.91417
# Velocity P-wave (km/s) = 5.55101 6.79341 6.20339
#
# Compressibility (1/GPa) = 0.02099243
#
# Stress axis : x y z
#
# Youngs Moduli (GPa) = 50.31665 69.47964 131.94517
#
# Poissons Ratio (x) = 0.22002 0.49059
# Poissons Ratio (y) = 0.15934 0.46733
# Poissons Ratio (z) = 0.18708 0.24608
#
# Static dielectric constant tensor:
#      x y z
#    x 1.744520 0.000000 -0.004340 
#    y 0.000000 1.713590 0.000000 
#    z -0.004340 0.000000 1.757720 
# 
# From -- ./inp_files/333322.got.cif
#   From: 2010.05.17/outbox.cif.g08.bks.cpg/sg12_167_cif.got.tgz:333322.got - 2010.06.03 13:09:07.
