data_PCOD9214265
_publ_section_title
;
Structure prediction by ZEFSAII (Michael W. Deem and Ramdas Pophale) SiO2 
 PCOD9214265
Probable space group: C 2/M
;
_chemical_formula_sum "Si O2"
_cell_formula_units_Z 40
_cell_length_a 8.212086
_cell_length_b 27.977502
_cell_length_c 8.535464
_cell_angle_alpha 90.000000
_cell_angle_beta 58.155173
_cell_angle_gamma 90.000000
_cell_volume 1665.876479
_symmetry_space_group_name_H-M "C 2/M"
_symmetry_group_IT_number 12
_symmetry_cell_setting 'monoclinic'
loop_
_space_group_symop_operation_xyz
x,y,z
-x,y,-z
-x,-y,-z
x,-y,z
1/2+x,1/2+y,z
1/2-x,1/2+y,-z
1/2-x,1/2-y,-z
1/2+x,1/2-y,z
loop_
_atom_site_type_symbol
_atom_site_label
_atom_site_fract_x
_atom_site_fract_y
_atom_site_fract_z
Si Si1 0.935440 0.551252 0.353107
Si Si2 0.060842 0.777813 0.289114
Si Si3 0.693064 0.372293 0.303301
Si Si4 0.698323 0.586206 0.961835
Si Si5 0.312824 0.181218 0.707124
O O1 0.831393 0.500000 0.387223
O O2 0.126787 0.551526 0.154341
O O3 0.000000 0.555197 0.500000
O O4 0.829769 0.598482 0.347720
O O5 0.224308 0.818288 0.226246
O O6 0.130543 0.725216 0.206499
O O7 0.000000 0.768644 0.500000
O O8 0.876537 0.799592 0.291672
O O9 0.500000 0.369261 0.500000
O O10 0.675994 0.401903 0.154064
O O11 0.747750 0.634503 0.836341
O O12 0.500000 0.566544 0.000000
O O13 0.500000 0.171566 0.500000
#
# Coordination Sequence:
#
# PCOD9214265 Si02
#       5
#     8   8   8   8   8
#     4  11  27  50  78 106 136 180 231 297 370 429
#     4  10  22  39  66 103 142 196 237 285 351 413
#     4  11  25  46  71 102 144 185 238 288 355 420
#     4  12  25  44  69 106 144 187 233 292 346 422
#     4  11  23  41  69 102 148 195 242 292 348 417
#
# _framework density 24.011384
#
# number of rings (size 3 to 8) (size 9 to 14) (size 15 to 20)
#    0.000    1.000    2.000    4.800   11.200    3.200 
#    0.000    0.000    0.000    0.000    0.000    0.000 
#    0.000    0.000    0.000    0.000    0.000    0.000 
#
# Total GULP energy -111782.905513 kJ/mol
# GULP energy per Si atom -5589.145276 kJ/mol
# Density = 2.395673 g / cm^3
# Si number density = 24.011384 Si / 1000 Ang^3
#
#
#
# Elastic Constant Matrix: (Units=GPa)
#
#
# Indices 1 2 3 4 5 6 
#
# 1 103.6242 53.4890 1.8886 0.0000 0.3223 0.0000
# 2 53.4890 107.6010 4.7526 0.0000 -8.6620 0.0000
# 3 1.8886 4.7526 79.6291 0.0000 13.3868 0.0000
# 4 0.0000 0.0000 0.0000 -10.4127 0.0000 -20.1059
# 5 0.3223 -8.6620 13.3868 0.0000 35.0992 0.0000
# 6 0.0000 0.0000 0.0000 -20.1059 0.0000 3.0055
#
#
#
# Elastic Compliance Matrix: (Units=1/GPa)
#
#
# Indices 1 2 3 4 5 6 
#
# 1 0.013100 -0.006685 0.000412 0.000000 -0.001927 0.000000
# 2 -0.006685 0.012973 -0.001244 0.000000 0.003737 0.000000
# 3 0.000412 -0.001244 0.013543 0.000000 -0.005476 0.000000
# 4 0.000000 0.000000 0.000000 -0.006901 0.000000 -0.046163
# 5 -0.001927 0.003737 -0.005476 0.000000 0.031519 0.000000
# 6 0.000000 0.000000 0.000000 -0.046163 0.000000 0.023907
#
#
# Mechanical properties :
#
#
# Convention : Reuss Voigt Hill
#
# Bulk Modulus (GPa) = 40.68060 45.67939 43.18000
# Shear Modulus (GPa) = 44.89559 20.91998 32.90779
#
# Velocity S-wave (km/s) = 4.32877 2.95490 3.70605
# Velocity P-wave (km/s) = 6.47791 5.54141 6.02788
#
# Compressibility (1/GPa) = 0.02458174
#
# Stress axis : x y z
#
# Youngs Moduli (GPa) = 76.33864 77.08524 73.83714
#
# Poissons Ratio (x) = 0.51533 -0.03045
# Poissons Ratio (y) = 0.51034 0.09185
# Poissons Ratio (z) = -0.03148 0.09589
#
# Static dielectric constant tensor:
#      x y z
#    x 1.936430 0.000000 -0.027670 
#    y 0.000000 2.043410 0.000000 
#    z -0.027670 0.000000 1.904880 
# 
# From -- ./inp_files/41392.got.cif
#   From: 2010.05.17/outbox.cif.g08.bks.cpg/sg12_21_cif.got.tgz:41392.got - 2010.06.03 13:09:07.
