data_PCOD9214353
_publ_section_title
;
Structure prediction by ZEFSAII (Michael W. Deem and Ramdas Pophale) SiO2 
 PCOD9214353
Probable space group: C 2/M
;
_chemical_formula_sum "Si O2"
_cell_formula_units_Z 42
_cell_length_a 14.673967
_cell_length_b 7.505047
_cell_length_c 22.778295
_cell_angle_alpha 90.000000
_cell_angle_beta 134.673302
_cell_angle_gamma 90.000000
_cell_volume 1783.895587
_symmetry_space_group_name_H-M "C 2/M"
_symmetry_group_IT_number 12
_symmetry_cell_setting 'monoclinic'
loop_
_space_group_symop_operation_xyz
x,y,z
-x,y,-z
-x,-y,-z
x,-y,z
1/2+x,1/2+y,z
1/2-x,1/2+y,-z
1/2-x,1/2-y,-z
1/2+x,1/2-y,z
loop_
_atom_site_type_symbol
_atom_site_label
_atom_site_fract_x
_atom_site_fract_y
_atom_site_fract_z
Si Si1 0.168314 0.699633 0.276360
Si Si2 0.610103 0.784133 0.873764
Si Si3 0.611237 0.790906 0.008765
Si Si4 0.563266 0.715399 0.629908
Si Si5 0.175693 0.793564 0.406611
Si Si6 0.500000 0.000000 0.500000
O O1 0.151119 0.500000 0.245662
O O2 0.288923 0.773228 0.295708
O O3 0.213435 0.695687 0.364542
O O4 0.027097 0.781123 0.212090
O O5 0.742249 0.725847 0.903296
O O6 0.614375 0.000000 0.873373
O O7 0.611539 0.719815 0.942302
O O8 0.583015 0.000000 0.989586
O O9 0.500000 0.715550 0.000000
O O10 0.558970 0.500000 0.614351
O O11 0.472423 0.738121 0.644895
O O12 0.508686 0.842573 0.554796
O O13 0.250000 0.750000 0.500000
O O14 0.201445 0.000000 0.404824
#
# Coordination Sequence:
#
# PCOD9214353 Si02
#       6
#     8   8   8   8   8   2
#     4  10  22  40  59  81 120 159 197 250 308 359
#     4   9  19  36  57  84 119 156 191 242 296 344
#     4   9  18  34  59  88 118 155 197 234 284 357
#     4  10  24  41  58  86 118 154 199 253 311 366
#     4  11  24  39  59  85 114 149 198 253 305 362
#     4  12  22  36  68  82 112 154 202 252 302 374
#
# _framework density 23.543979
#
# number of rings (size 3 to 8) (size 9 to 14) (size 15 to 20)
#    0.000    2.095    0.000    2.000    6.667    5.714 
#    0.000    3.810    0.000    0.000    0.000    0.000 
#    0.000    0.000    0.000    0.000    0.000    0.000 
#
# Total GULP energy -116942.971974 kJ/mol
# GULP energy per Si atom -5568.712951 kJ/mol
# Density = 2.349039 g / cm^3
# Si number density = 23.543979 Si / 1000 Ang^3
#
#
#
# Elastic Constant Matrix: (Units=GPa)
#
#
# Indices 1 2 3 4 5 6 
#
# 1 117.4169 6.6553 37.2518 0.0000 46.2972 0.0000
# 2 6.6553 79.8229 -17.7061 0.0000 -0.5030 0.0000
# 3 37.2518 -17.7061 70.6491 0.0000 28.9523 0.0000
# 4 0.0000 0.0000 0.0000 12.0560 0.0000 -0.9759
# 5 46.2972 -0.5030 28.9523 0.0000 32.3361 0.0000
# 6 0.0000 0.0000 0.0000 -0.9759 0.0000 8.3872
#
#
#
# Elastic Compliance Matrix: (Units=1/GPa)
#
#
# Indices 1 2 3 4 5 6 
#
# 1 0.019887 -0.001564 0.001264 0.000000 -0.029630 0.000000
# 2 -0.001564 0.013792 0.005174 0.000000 -0.002178 0.000000
# 3 0.001264 0.005174 0.024473 0.000000 -0.023641 0.000000
# 4 0.000000 0.000000 0.000000 0.083735 0.000000 0.009743
# 5 -0.029630 -0.002178 -0.023641 0.000000 0.094481 0.000000
# 6 0.000000 0.000000 0.000000 0.009743 0.000000 0.120363
#
#
# Mechanical properties :
#
#
# Convention : Reuss Voigt Hill
#
# Bulk Modulus (GPa) = 14.72751 35.58790 25.15771
# Shear Modulus (GPa) = 13.52752 26.66840 20.09796
#
# Velocity S-wave (km/s) = 2.39961 3.36922 2.92487
# Velocity P-wave (km/s) = 3.73449 5.50308 4.70267
#
# Compressibility (1/GPa) = 0.06790012
#
# Stress axis : x y z
#
# Youngs Moduli (GPa) = 50.28382 72.50501 40.86136
#
# Poissons Ratio (x) = 0.11343 -0.05166
# Poissons Ratio (y) = 0.07866 -0.21142
# Poissons Ratio (z) = -0.06357 -0.37515
#
# Static dielectric constant tensor:
#      x y z
#    x 1.890700 0.000000 0.075570 
#    y 0.000000 1.886150 0.000000 
#    z 0.075570 0.000000 1.967090 
# 
# From -- ./inp_files/267547.got.cif
#   From: 2010.05.17/outbox.cif.g08.bks.cpg/sg12_134_cif.got.tgz:267547.got - 2010.06.03 13:09:07.
