data_PCOD9214681
_publ_section_title
;
Structure prediction by ZEFSAII (Michael W. Deem and Ramdas Pophale) SiO2 
 PCOD9214681
Probable space group: C 2/M
;
_chemical_formula_sum "Si O2"
_cell_formula_units_Z 64
_cell_length_a 25.354365
_cell_length_b 8.855376
_cell_length_c 14.507072
_cell_angle_alpha 90.000000
_cell_angle_beta 90.310465
_cell_angle_gamma 90.000000
_cell_volume 3257.115317
_symmetry_space_group_name_H-M "C 2/M"
_symmetry_group_IT_number 12
_symmetry_cell_setting 'monoclinic'
loop_
_space_group_symop_operation_xyz
x,y,z
-x,y,-z
-x,-y,-z
x,-y,z
1/2+x,1/2+y,z
1/2-x,1/2+y,-z
1/2-x,1/2-y,-z
1/2+x,1/2-y,z
loop_
_atom_site_type_symbol
_atom_site_label
_atom_site_fract_x
_atom_site_fract_y
_atom_site_fract_z
Si Si1 0.166548 0.680760 0.263036
Si Si2 0.357260 0.678261 0.353746
Si Si3 0.772540 0.671608 0.230317
Si Si4 0.059957 0.320453 0.786082
Si Si5 0.807248 0.319732 0.524392
Si Si6 0.444375 0.820087 0.830009
Si Si7 0.585985 0.678758 0.985027
Si Si8 0.804919 0.326984 0.024525
O O1 0.173012 0.500000 0.251307
O O2 0.213857 0.767726 0.213048
O O3 0.175195 0.715863 0.371137
O O4 0.108953 0.721957 0.224528
O O5 0.362559 0.500000 0.363233
O O6 0.303163 0.719243 0.299465
O O7 0.403938 0.743986 0.290974
O O8 0.349629 0.756309 0.452261
O O9 0.771031 0.500000 0.266717
O O10 0.804650 0.669459 0.135639
O O11 0.069736 0.500000 0.785045
O O12 0.072433 0.257896 0.888276
O O13 0.997515 0.292309 0.773066
O O14 0.803423 0.500000 0.515704
O O15 0.750000 0.250000 0.500000
O O16 0.442145 0.000000 0.849232
O O17 0.447074 0.735555 0.927789
O O18 0.582076 0.500000 0.974631
O O19 0.645693 0.730786 0.007894
O O20 0.808094 0.500000 0.990755
O O21 0.750000 0.250000 0.000000
#
# Coordination Sequence:
#
# PCOD9214681 Si02
#       8
#     8   8   8   8   8   8   8   8
#     4  10  22  40  63  91 123 160 202 251 306 367
#     4  12  24  39  62  91 122 158 201 251 306 366
#     4  11  22  36  58  86 120 160 199 245 304 364
#     4  11  23  42  66  90 120 162 210 261 308 359
#     4  11  22  38  63  94 127 160 201 249 306 370
#     4  10  23  43  65  89 121 162 209 257 308 363
#     4  12  24  38  60  90 124 162 207 254 305 367
#     4  11  23  37  55  83 122 164 206 250 305 366
#
# _framework density 19.649287999999999
#
# number of rings (size 3 to 8) (size 9 to 14) (size 15 to 20)
#    0.000    1.000    2.500    4.875    0.000    7.000 
#    0.000    0.625    0.000    3.750    0.000    0.000 
#    0.000    0.000    0.000    0.000    0.000    0.000 
#
# Total GULP energy -178981.339328 kJ/mol
# GULP energy per Si atom -5593.166854 kJ/mol
# Density = 1.960457 g / cm^3
# Si number density = 19.649288 Si / 1000 Ang^3
#
#
#
# Elastic Constant Matrix: (Units=GPa)
#
#
# Indices 1 2 3 4 5 6 
#
# 1 115.7469 38.9134 33.7213 0.0000 -14.2386 0.0000
# 2 38.9134 86.9221 36.5065 0.0000 -8.9537 0.0000
# 3 33.7213 36.5065 96.6658 0.0000 -15.1099 0.0000
# 4 0.0000 0.0000 0.0000 26.0408 0.0000 -5.6599
# 5 -14.2386 -8.9537 -15.1099 0.0000 28.7060 0.0000
# 6 0.0000 0.0000 0.0000 -5.6599 0.0000 29.1210
#
#
#
# Elastic Compliance Matrix: (Units=1/GPa)
#
#
# Indices 1 2 3 4 5 6 
#
# 1 0.010836 -0.003735 -0.001865 0.000000 0.003228 0.000000
# 2 -0.003735 0.015036 -0.004285 0.000000 0.000582 0.000000
# 3 -0.001865 -0.004285 0.013359 0.000000 0.004771 0.000000
# 4 0.000000 0.000000 0.000000 0.040095 0.000000 0.007793
# 5 0.003228 0.000582 0.004771 0.000000 0.039130 0.000000
# 6 0.000000 0.000000 0.000000 0.007793 0.000000 0.035854
#
#
# Mechanical properties :
#
#
# Convention : Reuss Voigt Hill
#
# Bulk Modulus (GPa) = 51.38216 57.51304 54.44760
# Shear Modulus (GPa) = 27.69071 29.45314 28.57192
#
# Velocity S-wave (km/s) = 3.75807 3.87582 3.81740
# Velocity P-wave (km/s) = 6.71097 7.02585 6.87022
#
# Compressibility (1/GPa) = 0.01946201
#
# Stress axis : x y z
#
# Youngs Moduli (GPa) = 92.28776 66.50635 74.85483
#
# Poissons Ratio (x) = 0.24842 0.13959
# Poissons Ratio (y) = 0.34472 0.32072
# Poissons Ratio (z) = 0.17209 0.28495
#
# Static dielectric constant tensor:
#      x y z
#    x 1.722240 0.000000 -0.007720 
#    y 0.000000 1.659560 0.000000 
#    z -0.007720 0.000000 1.704420 
# 
# From -- ./inp_files/238786.got.cif
#   From: 2010.05.17/outbox.cif.g08.bks.cpg/sg12_120_cif.got.tgz:238786.got - 2010.06.03 13:09:07.
