data_PCOD9214244
_publ_section_title
;
Structure prediction by ZEFSAII (Michael W. Deem and Ramdas Pophale) SiO2 
 PCOD9214244
Probable space group: C 2/M
;
_chemical_formula_sum "Si O2"
_cell_formula_units_Z 64
_cell_length_a 14.888410
_cell_length_b 20.122057
_cell_length_c 29.839295
_cell_angle_alpha 90.000000
_cell_angle_beta 160.276614
_cell_angle_gamma 90.000000
_cell_volume 3016.870403
_symmetry_space_group_name_H-M "C 2/M"
_symmetry_group_IT_number 12
_symmetry_cell_setting 'monoclinic'
loop_
_space_group_symop_operation_xyz
x,y,z
-x,y,-z
-x,-y,-z
x,-y,z
1/2+x,1/2+y,z
1/2-x,1/2+y,-z
1/2-x,1/2-y,-z
1/2+x,1/2-y,z
loop_
_atom_site_type_symbol
_atom_site_label
_atom_site_fract_x
_atom_site_fract_y
_atom_site_fract_z
Si Si1 0.011174 0.726338 0.454655
Si Si2 0.987651 0.075440 0.821242
Si Si3 0.587121 0.313049 0.942732
Si Si4 0.943184 0.332075 0.772930
Si Si5 0.696247 0.574705 0.732423
Si Si6 0.224379 0.077087 0.844070
Si Si7 0.513217 0.831036 0.309986
Si Si8 0.599732 0.100566 0.436010
O O1 0.253419 0.778273 0.571531
O O2 0.079848 0.672928 0.449608
O O3 0.000000 0.697363 0.500000
O O4 0.739149 0.765164 0.313964
O O5 0.673470 0.068100 0.677951
O O6 0.086927 0.126426 0.906166
O O7 0.032996 0.104884 0.792584
O O8 0.106539 0.000000 0.880201
O O9 0.278285 0.304097 0.811975
O O10 0.750000 0.250000 0.000000
O O11 0.761561 0.327951 0.068435
O O12 0.795165 0.381673 0.737515
O O13 0.969505 0.351284 0.733527
O O14 0.809969 0.500000 0.783327
O O15 0.755399 0.606361 0.809193
O O16 0.377885 0.571191 0.580839
O O17 0.143938 0.000000 0.798504
O O18 0.500000 0.078311 0.000000
O O19 0.581869 0.892054 0.374419
#
# Coordination Sequence:
#
# PCOD9214244 Si02
#       8
#     8   8   8   8   8   8   8   8
#     4  10  22  39  65  93 129 170 214 270 343 398
#     4  10  22  41  64  91 136 177 215 274 345 407
#     4  11  24  41  66  99 131 169 226 277 335 401
#     4  11  22  42  64  91 128 170 220 272 331 386
#     4  11  24  38  63  94 127 168 223 275 326 398
#     4   9  19  38  58  84 122 167 214 268 331 398
#     4  10  22  42  64  89 132 171 210 278 329 392
#     4  11  22  38  63  93 128 166 220 267 335 397
#
# _framework density 21.214037000000001
#
# number of rings (size 3 to 8) (size 9 to 14) (size 15 to 20)
#    0.000    1.625    1.250    3.375    3.500    1.500 
#    0.000    6.875    0.000    3.750    0.000    0.000 
#    0.000    0.000    0.000    0.000    0.000    0.000 
#
# Total GULP energy -178597.339428 kJ/mol
# GULP energy per Si atom -5581.166857 kJ/mol
# Density = 2.116575 g / cm^3
# Si number density = 21.214037 Si / 1000 Ang^3
#
#
#
# Elastic Constant Matrix: (Units=GPa)
#
#
# Indices 1 2 3 4 5 6 
#
# 1 150.7360 26.9567 21.1664 -0.0060 -18.4037 -0.0019
# 2 26.9567 31.9816 5.0761 0.0072 -10.4309 -0.0166
# 3 21.1664 5.0761 108.0839 -0.1834 -4.6798 0.1185
# 4 -0.0060 0.0072 -0.1834 -13.3669 0.0237 32.9069
# 5 -18.4037 -10.4309 -4.6798 0.0237 25.9547 -0.0056
# 6 -0.0019 -0.0166 0.1185 32.9069 -0.0056 -4.1056
#
#
#
# Elastic Compliance Matrix: (Units=1/GPa)
#
#
# Indices 1 2 3 4 5 6 
#
# 1 0.008221 -0.005649 -0.001200 0.000002 0.003343 -0.000006
# 2 -0.005649 0.039990 -0.000251 0.000021 0.012021 -0.000011
# 3 -0.001200 -0.000251 0.009532 -0.000029 0.000767 0.000040
# 4 0.000002 0.000021 -0.000029 0.003994 0.000008 0.032011
# 5 0.003343 0.012021 0.000767 0.000008 0.045868 -0.000028
# 6 -0.000006 -0.000011 0.000040 0.032011 -0.000028 0.013003
#
#
# Mechanical properties :
#
#
# Convention : Reuss Voigt Hill
#
# Bulk Modulus (GPa) = 22.96594 44.13335 33.54965
# Shear Modulus (GPa) = 33.48472 17.53659 25.51065
#
# Velocity S-wave (km/s) = 3.97725 2.87827 3.47152
# Velocity P-wave (km/s) = 5.65161 5.64756 5.64958
#
# Compressibility (1/GPa) = 0.04354275
#
# Stress axis : x y z
#
# Youngs Moduli (GPa) = 121.64151 25.00650 104.91013
#
# Poissons Ratio (x) = 0.14125 0.12588
# Poissons Ratio (y) = 0.68710 0.02638
# Poissons Ratio (z) = 0.14596 0.00629
#
# Static dielectric constant tensor:
#      x y z
#    x 1.803460 0.000000 0.010920 
#    y 0.000000 1.811390 -0.000010 
#    z 0.010920 -0.000010 1.788580 
# 
# From -- ./inp_files/377111.got.cif
#   From: 2010.05.17/outbox.cif.g08.bks.cpg/sg12_189_cif.got.tgz:377111.got - 2010.06.03 13:09:07.
