data_PCOD9214606
_publ_section_title
;
Structure prediction by ZEFSAII (Michael W. Deem and Ramdas Pophale) SiO2 
 PCOD9214606
Probable space group: C 2/M
;
_chemical_formula_sum "Si O2"
_cell_formula_units_Z 48
_cell_length_a 19.641351
_cell_length_b 14.126028
_cell_length_c 23.079109
_cell_angle_alpha 90.000000
_cell_angle_beta 158.894479
_cell_angle_gamma 90.000000
_cell_volume 2305.778287
_symmetry_space_group_name_H-M "C 2/M"
_symmetry_group_IT_number 12
_symmetry_cell_setting 'monoclinic'
loop_
_space_group_symop_operation_xyz
x,y,z
-x,y,-z
-x,-y,-z
x,-y,z
1/2+x,1/2+y,z
1/2-x,1/2+y,-z
1/2-x,1/2-y,-z
1/2+x,1/2-y,z
loop_
_atom_site_type_symbol
_atom_site_label
_atom_site_fract_x
_atom_site_fract_y
_atom_site_fract_z
Si Si1 0.787861 0.613626 0.471994
Si Si2 0.961705 0.225724 0.148114
Si Si3 0.598125 0.602388 0.641231
Si Si4 0.026538 0.893027 0.087798
Si Si5 0.609548 0.804959 0.644755
Si Si6 0.302841 0.107692 0.619090
O O1 0.787113 0.500000 0.464298
O O2 0.590826 0.655655 0.290542
O O3 0.818620 0.635225 0.564253
O O4 0.963372 0.659034 0.576541
O O5 0.952006 0.177169 0.077390
O O6 0.083548 0.321914 0.249242
O O7 0.750000 0.250000 0.000000
O O8 0.500000 0.596201 0.500000
O O9 0.695544 0.500000 0.727787
O O10 0.703692 0.702576 0.733903
O O11 0.417917 0.609262 0.540649
O O12 0.252099 0.886469 0.267602
O O13 0.955762 0.000000 0.040359
O O14 0.000000 0.864938 0.000000
O O15 0.500000 0.780675 0.500000
O O16 0.371270 0.000000 0.680373
#
# Coordination Sequence:
#
# PCOD9214606 Si02
#       6
#     8   8   8   8   8   8
#     4  11  23  39  64  97 131 168 221 279 329 391
#     4  12  25  41  62  91 136 179 212 269 338 398
#     4   9  17  32  57  87 119 157 207 263 308 367
#     4  11  26  45  66  97 134 174 221 273 335 398
#     4  11  20  37  68  94 124 166 216 276 331 386
#     4  10  22  40  62  91 124 168 222 270 325 394
#
# _framework density 20.817266
#
# number of rings (size 3 to 8) (size 9 to 14) (size 15 to 20)
#    0.000    1.333    3.333    2.500    2.333    2.000 
#    0.000    0.000    0.000    2.000    0.000    0.000 
#    0.000    0.000    0.000    0.000    0.000    0.000 
#
# Total GULP energy -133774.898594 kJ/mol
# GULP energy per Si atom -5573.954108 kJ/mol
# Density = 2.076988 g / cm^3
# Si number density = 20.817266 Si / 1000 Ang^3
#
#
#
# Elastic Constant Matrix: (Units=GPa)
#
#
# Indices 1 2 3 4 5 6 
#
# 1 146.6844 51.8102 5.7533 0.0044 10.2866 -0.0038
# 2 51.8102 146.6314 16.2041 0.0223 -12.1395 0.0000
# 3 5.7533 16.2041 20.0953 0.0156 6.0333 -0.0067
# 4 0.0044 0.0223 0.0156 14.2018 0.0045 0.4479
# 5 10.2866 -12.1395 6.0333 0.0045 26.1995 0.0002
# 6 -0.0038 0.0000 -0.0067 0.4479 0.0002 40.7405
#
#
#
# Elastic Compliance Matrix: (Units=1/GPa)
#
#
# Indices 1 2 3 4 5 6 
#
# 1 0.008415 -0.003674 0.002209 0.000002 -0.005515 0.000001
# 2 -0.003674 0.009821 -0.009310 -0.000006 0.008137 -0.000002
# 3 0.002209 -0.009310 0.062516 -0.000049 -0.019577 0.000011
# 4 0.000002 -0.000006 -0.000049 0.070438 -0.000005 -0.000774
# 5 -0.005515 0.008137 -0.019577 -0.000005 0.048613 -0.000004
# 6 0.000001 -0.000002 0.000011 -0.000774 -0.000004 0.024554
#
#
# Mechanical properties :
#
#
# Convention : Reuss Voigt Hill
#
# Bulk Modulus (GPa) = 16.89143 51.21625 34.05384
# Shear Modulus (GPa) = 18.82247 32.20458 25.51353
#
# Velocity S-wave (km/s) = 3.01021 3.93748 3.50465
# Velocity P-wave (km/s) = 4.49595 6.73259 5.72457
#
# Compressibility (1/GPa) = 0.05920163
#
# Stress axis : x y z
#
# Youngs Moduli (GPa) = 118.83233 101.82764 15.99602
#
# Poissons Ratio (x) = 0.37413 -0.03534
# Poissons Ratio (y) = 0.43661 0.14892
# Poissons Ratio (z) = -0.26254 0.94801
#
# Static dielectric constant tensor:
#      x y z
#    x 1.778470 0.000010 0.004410 
#    y 0.000010 1.822130 -0.000010 
#    z 0.004410 -0.000010 1.719120 
# 
# From -- ./inp_files/366407.got.cif
#   From: 2010.05.17/outbox.cif.g08.bks.cpg/sg12_184_cif.got.tgz:366407.got - 2010.06.03 13:09:07.
