data_PCOD9214636
_publ_section_title
;
Structure prediction by ZEFSAII (Michael W. Deem and Ramdas Pophale) SiO2 
 PCOD9214636
Probable space group: C 2/M
;
_chemical_formula_sum "Si O2"
_cell_formula_units_Z 64
_cell_length_a 22.783420
_cell_length_b 28.361955
_cell_length_c 8.057410
_cell_angle_alpha 90.000000
_cell_angle_beta 146.251513
_cell_angle_gamma 90.000000
_cell_volume 2892.493206
_symmetry_space_group_name_H-M "C 2/M"
_symmetry_group_IT_number 12
_symmetry_cell_setting 'monoclinic'
loop_
_space_group_symop_operation_xyz
x,y,z
-x,y,-z
-x,-y,-z
x,-y,z
1/2+x,1/2+y,z
1/2-x,1/2+y,-z
1/2-x,1/2-y,-z
1/2+x,1/2-y,z
loop_
_atom_site_type_symbol
_atom_site_label
_atom_site_fract_x
_atom_site_fract_y
_atom_site_fract_z
Si Si1 0.116853 0.946721 0.250225
Si Si2 0.971157 0.181938 0.197939
Si Si3 0.827418 0.200579 0.538052
Si Si4 0.275879 0.279881 0.895982
Si Si5 0.298770 0.882632 0.192307
Si Si6 0.507291 0.054790 0.313430
Si Si7 0.192810 0.614610 0.173244
Si Si8 0.910034 0.921927 0.177663
O O1 0.205013 0.917122 0.548862
O O2 0.116828 0.000000 0.315017
O O3 0.129998 0.946585 0.083072
O O4 0.000000 0.926002 0.000000
O O5 0.956475 0.128428 0.224543
O O6 0.092892 0.189275 0.430879
O O7 0.901944 0.192330 0.870487
O O8 0.901894 0.213024 0.164986
O O9 0.778576 0.251020 0.380826
O O10 0.729037 0.164890 0.327926
O O11 0.224403 0.331774 0.784007
O O12 0.250000 0.250000 0.000000
O O13 0.389470 0.914614 0.485491
O O14 0.325688 0.875465 0.063843
O O15 0.190494 0.911385 0.946833
O O16 0.500000 0.053492 0.500000
O O17 0.510087 0.000000 0.266532
O O18 0.407674 0.083941 0.008923
O O19 0.000000 0.945414 0.500000
#
# Coordination Sequence:
#
# PCOD9214636 Si02
#       8
#     8   8   8   8   8   8   8   8
#     4  11  23  38  60  92 124 160 210 265 327 399
#     4  10  23  39  61  89 124 171 214 264 328 403
#     4  11  21  39  63  89 126 172 214 269 331 395
#     4  11  23  38  58  96 131 167 219 269 328 400
#     4  10  22  40  62  94 129 170 216 269 332 392
#     4   9  20  39  64  92 123 168 223 271 319 384
#     4  11  20  39  65  91 123 167 216 266 328 390
#     4  11  22  38  63  91 127 162 208 267 334 400
#
# _framework density 22.126239000000002
#
# number of rings (size 3 to 8) (size 9 to 14) (size 15 to 20)
#    0.000    1.500    2.500    3.000    1.750    2.250 
#    2.250    0.625    0.000    1.500    0.000    0.000 
#    0.000    0.000    0.000    0.000    0.000    0.000 
#
# Total GULP energy -178713.572449 kJ/mol
# GULP energy per Si atom -5584.799139 kJ/mol
# Density = 2.207588 g / cm^3
# Si number density = 22.126239 Si / 1000 Ang^3
#
#
#
# Elastic Constant Matrix: (Units=GPa)
#
#
# Indices 1 2 3 4 5 6 
#
# 1 49.4999 19.0289 7.4113 0.0000 2.0250 0.0000
# 2 19.0289 123.1920 70.3777 0.0000 17.9274 0.0000
# 3 7.4113 70.3777 119.1220 0.0000 18.1295 0.0000
# 4 0.0000 0.0000 0.0000 -120.3819 0.0000 56.4213
# 5 2.0250 17.9274 18.1295 0.0000 39.1270 0.0000
# 6 0.0000 0.0000 0.0000 56.4213 0.0000 -4.8974
#
#
#
# Elastic Compliance Matrix: (Units=1/GPa)
#
#
# Indices 1 2 3 4 5 6 
#
# 1 0.021550 -0.003890 0.000921 0.000000 0.000240 0.000000
# 2 -0.003890 0.013174 -0.007158 0.000000 -0.002518 0.000000
# 3 0.000921 -0.007158 0.012991 0.000000 -0.002787 0.000000
# 4 0.000000 0.000000 0.000000 0.001888 0.000000 0.021752
# 5 0.000240 -0.002518 -0.002787 0.000000 0.027991 0.000000
# 6 0.000000 0.000000 0.000000 0.021752 0.000000 0.046411
#
#
# Mechanical properties :
#
#
# Convention : Reuss Voigt Hill
#
# Bulk Modulus (GPa) = 36.41604 53.93882 45.17743
# Shear Modulus (GPa) = 32.59211 -4.23073 14.18069
#
# Velocity S-wave (km/s) = 3.84214 -1.38428 2.53435
# Velocity P-wave (km/s) = 6.01471 4.67715 5.38760
#
# Compressibility (1/GPa) = 0.02746043
#
# Stress axis : x y z
#
# Youngs Moduli (GPa) = 46.40447 75.90770 76.97874
#
# Poissons Ratio (x) = 0.29525 -0.07087
# Poissons Ratio (y) = 0.18050 0.55101
# Poissons Ratio (z) = -0.04272 0.54334
#
# Static dielectric constant tensor:
#      x y z
#    x 1.906100 0.000000 -0.031150 
#    y 0.000000 1.792870 0.000000 
#    z -0.031150 0.000000 1.797150 
# 
# From -- ./inp_files/100262.got.cif
#   From: 2010.05.17/outbox.cif.g08.bks.cpg/sg12_51_cif.got.tgz:100262.got - 2010.06.03 13:09:07.
