data_PCOD9214682
_publ_section_title
;
Structure prediction by ZEFSAII (Michael W. Deem and Ramdas Pophale) SiO2 
 PCOD9214682
Probable space group: C 2/M
;
_chemical_formula_sum "Si O2"
_cell_formula_units_Z 64
_cell_length_a 29.350070
_cell_length_b 8.704730
_cell_length_c 15.063481
_cell_angle_alpha 90.000000
_cell_angle_beta 49.156775
_cell_angle_gamma 90.000000
_cell_volume 2911.386114
_symmetry_space_group_name_H-M "C 2/M"
_symmetry_group_IT_number 12
_symmetry_cell_setting 'monoclinic'
loop_
_space_group_symop_operation_xyz
x,y,z
-x,y,-z
-x,-y,-z
x,-y,z
1/2+x,1/2+y,z
1/2-x,1/2+y,-z
1/2-x,1/2-y,-z
1/2+x,1/2-y,z
loop_
_atom_site_type_symbol
_atom_site_label
_atom_site_fract_x
_atom_site_fract_y
_atom_site_fract_z
Si Si1 0.640874 0.684179 0.991123
Si Si2 0.238189 0.815580 0.113111
Si Si3 0.268920 0.182676 0.380662
Si Si4 0.053594 0.682166 0.745070
Si Si5 0.603767 0.315521 0.350381
Si Si6 0.862621 0.816905 0.501530
Si Si7 0.554676 0.183644 0.242459
Si Si8 0.105386 0.182977 0.847288
O O1 0.640979 0.500000 0.998598
O O2 0.708681 0.744822 0.895317
O O3 0.602086 0.731255 0.954350
O O4 0.612774 0.756845 0.114953
O O5 0.171287 0.776256 0.230913
O O6 0.243213 0.000000 0.106168
O O7 0.250000 0.750000 0.000000
O O8 0.250000 0.250000 0.500000
O O9 0.209011 0.204816 0.397341
O O10 0.328366 0.264168 0.269105
O O11 0.280283 0.000000 0.372590
O O12 0.049158 0.500000 0.757788
O O13 0.113279 0.729401 0.614902
O O14 0.058153 0.750559 0.837373
O O15 0.000375 0.739827 0.748729
O O16 0.597873 0.500000 0.356322
O O17 0.602295 0.265712 0.454747
O O18 0.557743 0.246282 0.338317
O O19 0.872089 0.000000 0.476576
O O20 0.553990 0.000000 0.245820
O O21 0.101694 0.000000 0.848745
#
# Coordination Sequence:
#
# PCOD9214682 Si02
#       8
#     8   8   8   8   8   8   8   8
#     4  11  24  41  63  92 124 161 204 249 303 364
#     4  11  21  36  62  94 127 162 200 243 299 362
#     4  11  21  36  62  94 127 162 200 243 299 362
#     4  11  25  43  63  88 119 159 206 256 309 362
#     4  10  22  40  63  91 123 161 202 245 298 360
#     4  10  22  40  63  91 123 161 202 245 298 360
#     4  11  25  43  63  88 119 159 206 256 309 362
#     4  11  24  41  63  92 124 161 204 249 303 364
#
# _framework density 21.982655999999999
#
# number of rings (size 3 to 8) (size 9 to 14) (size 15 to 20)
#    0.000    1.250    2.500    3.000    0.000    7.500 
#    0.000    5.000    0.000    0.000    0.000    0.000 
#    0.000    0.000    0.000    0.000    0.000    0.000 
#
# Total GULP energy -179013.527180 kJ/mol
# GULP energy per Si atom -5594.172724 kJ/mol
# Density = 2.193262 g / cm^3
# Si number density = 21.982656 Si / 1000 Ang^3
#
#
#
# Elastic Constant Matrix: (Units=GPa)
#
#
# Indices 1 2 3 4 5 6 
#
# 1 144.1491 24.6616 4.4885 0.0000 27.6691 0.0001
# 2 24.6616 21.9948 -6.7951 -0.0001 13.0561 0.0001
# 3 4.4885 -6.7951 30.4454 0.0000 20.4846 0.0000
# 4 0.0000 -0.0001 0.0000 8.1876 0.0000 3.6611
# 5 27.6691 13.0561 20.4846 0.0000 43.4952 0.0000
# 6 0.0001 0.0001 0.0000 3.6611 0.0000 38.0735
#
#
#
# Elastic Compliance Matrix: (Units=1/GPa)
#
#
# Indices 1 2 3 4 5 6 
#
# 1 0.009019 -0.009937 -0.002480 0.000000 -0.001587 0.000000
# 2 -0.009937 0.110751 0.064847 0.000001 -0.057464 0.000000
# 3 -0.002480 0.064847 0.087422 0.000001 -0.059060 0.000000
# 4 0.000000 0.000001 0.000001 0.127624 -0.000001 -0.012272
# 5 -0.001587 -0.057464 -0.059060 -0.000001 0.069064 0.000000
# 6 0.000000 0.000000 0.000000 -0.012272 0.000000 0.027445
#
#
# Mechanical properties :
#
#
# Convention : Reuss Voigt Hill
#
# Bulk Modulus (GPa) = 3.20459 26.81102 15.00781
# Shear Modulus (GPa) = 11.61486 29.56688 20.59087
#
# Velocity S-wave (km/s) = 2.30111 3.67142 3.06385
# Velocity P-wave (km/s) = 2.91909 5.49503 4.39980
#
# Compressibility (1/GPa) = 0.31205197
#
# Stress axis : x y z
#
# Youngs Moduli (GPa) = 110.87601 9.02923 11.43881
#
# Poissons Ratio (x) = 0.08972 0.02837
# Poissons Ratio (y) = 1.10177 -0.74177
# Poissons Ratio (z) = 0.27497 -0.58552
#
# Static dielectric constant tensor:
#      x y z
#    x 1.784700 0.000000 -0.019610 
#    y 0.000000 1.731170 0.000000 
#    z -0.019610 0.000000 1.779650 
# 
# From -- ./inp_files/249661.got.cif
#   From: 2010.05.17/outbox.cif.g08.bks.cpg/sg12_125_cif.got.tgz:249661.got - 2010.06.03 13:09:07.
