data_PCOD9214893
_publ_section_title
;
Structure prediction by ZEFSAII (Michael W. Deem and Ramdas Pophale) SiO2 
 PCOD9214893
Probable space group: C 2/M
;
_chemical_formula_sum "Si O2"
_cell_formula_units_Z 48
_cell_length_a 9.948719
_cell_length_b 28.423006
_cell_length_c 8.119242
_cell_angle_alpha 90.000000
_cell_angle_beta 88.850520
_cell_angle_gamma 90.000000
_cell_volume 2295.436332
_symmetry_space_group_name_H-M "C 2/M"
_symmetry_group_IT_number 12
_symmetry_cell_setting 'monoclinic'
loop_
_space_group_symop_operation_xyz
x,y,z
-x,y,-z
-x,-y,-z
x,-y,z
1/2+x,1/2+y,z
1/2-x,1/2+y,-z
1/2-x,1/2-y,-z
1/2+x,1/2-y,z
loop_
_atom_site_type_symbol
_atom_site_label
_atom_site_fract_x
_atom_site_fract_y
_atom_site_fract_z
Si Si1 0.529308 0.198022 0.311502
Si Si2 0.375963 0.639091 0.889401
Si Si3 0.381681 0.108213 0.893068
Si Si4 0.748726 0.765696 0.807888
Si Si5 0.394559 0.445525 0.651943
Si Si6 0.647318 0.943877 0.436440
O O1 0.500000 0.184278 0.500000
O O2 0.549135 0.153618 0.192072
O O3 0.403480 0.228035 0.248015
O O4 0.666007 0.227783 0.294979
O O5 0.323850 0.684092 0.789658
O O6 0.425301 0.593930 0.785083
O O7 0.500000 0.654572 0.000000
O O8 0.245625 0.623108 0.996139
O O9 0.329501 0.077335 0.742968
O O10 0.500000 0.085098 0.000000
O O11 0.750000 0.750000 0.000000
O O12 0.500000 0.445156 0.500000
O O13 0.386707 0.500000 0.712971
O O14 0.254091 0.430510 0.572309
O O15 0.500000 0.930361 0.500000
O O16 0.655035 0.000000 0.423037
#
# Coordination Sequence:
#
# PCOD9214893 Si02
#       6
#     8   8   8   8   8   8
#     4  12  26  44  68  98 129 175 217 269 324 387
#     4  12  25  40  67  99 128 173 222 266 327 395
#     4  12  23  41  65  94 132 172 212 268 330 383
#     4  12  24  47  68  94 136 175 216 271 328 387
#     4  10  23  45  67  94 134 174 217 275 334 386
#     4  10  22  40  65  94 129 171 213 266 324 387
#
# _framework density 20.911055000000001
#
# number of rings (size 3 to 8) (size 9 to 14) (size 15 to 20)
#    0.000    0.667    3.333    4.500    2.333    2.000 
#    0.000    0.000    0.000    0.000    0.000    0.000 
#    0.000    0.000    0.000    0.000    0.000    0.000 
#
# Total GULP energy -134267.443494 kJ/mol
# GULP energy per Si atom -5594.476812 kJ/mol
# Density = 2.086346 g / cm^3
# Si number density = 20.911055 Si / 1000 Ang^3
#
#
#
# Elastic Constant Matrix: (Units=GPa)
#
#
# Indices 1 2 3 4 5 6 
#
# 1 73.7669 -16.7018 -17.1554 0.0000 4.1448 0.0000
# 2 -16.7018 47.8206 10.8205 0.0000 -2.2700 0.0000
# 3 -17.1554 10.8205 49.5469 0.0000 -13.6756 0.0000
# 4 0.0000 0.0000 0.0000 24.4635 0.0000 -35.4091
# 5 4.1448 -2.2700 -13.6756 0.0000 26.4649 0.0000
# 6 0.0000 0.0000 0.0000 -35.4091 0.0000 -20.5938
#
#
#
# Elastic Compliance Matrix: (Units=1/GPa)
#
#
# Indices 1 2 3 4 5 6 
#
# 1 0.015594 0.004440 0.004503 0.000000 0.000265 0.000000
# 2 0.004440 0.023274 -0.003716 0.000000 -0.000620 0.000000
# 3 0.004503 -0.003716 0.025976 0.000000 0.012399 0.000000
# 4 0.000000 0.000000 0.000000 0.011717 0.000000 -0.020146
# 5 0.000265 -0.000620 0.012399 0.000000 0.044098 0.000000
# 6 0.000000 0.000000 0.000000 -0.020146 0.000000 -0.013919
#
#
# Mechanical properties :
#
#
# Convention : Reuss Voigt Hill
#
# Bulk Modulus (GPa) = 13.28085 13.89567 13.58826
# Shear Modulus (GPa) = 41.19095 19.01165 30.10130
#
# Velocity S-wave (km/s) = 4.44308 3.01851 3.79818
# Velocity P-wave (km/s) = 5.71718 4.33683 5.07416
#
# Compressibility (1/GPa) = 0.07529641
#
# Stress axis : x y z
#
# Youngs Moduli (GPa) = 64.12815 42.96690 38.49718
#
# Poissons Ratio (x) = -0.19077 -0.17335
# Poissons Ratio (y) = -0.28473 0.14307
# Poissons Ratio (z) = -0.28876 0.15968
#
# Static dielectric constant tensor:
#      x y z
#    x 1.733270 0.000000 0.005720 
#    y 0.000000 1.737880 0.000000 
#    z 0.005720 0.000000 1.744550 
# 
# From -- ./inp_files/42219.got.cif
#   From: 2010.05.17/outbox.cif.g08.bks.cpg/sg12_22_cif.got.tgz:42219.got - 2010.06.03 13:09:07.
