data_PCOD9214456
_publ_section_title
;
Structure prediction by ZEFSAII (Michael W. Deem and Ramdas Pophale) SiO2 
 PCOD9214456
Probable space group: C 2/M
;
_chemical_formula_sum "Si O2"
_cell_formula_units_Z 44
_cell_length_a 18.226715
_cell_length_b 17.415147
_cell_length_c 14.138346
_cell_angle_alpha 90.000000
_cell_angle_beta 155.168364
_cell_angle_gamma 90.000000
_cell_volume 1884.669055
_symmetry_space_group_name_H-M "C 2/M"
_symmetry_group_IT_number 12
_symmetry_cell_setting 'monoclinic'
loop_
_space_group_symop_operation_xyz
x,y,z
-x,y,-z
-x,-y,-z
x,-y,z
1/2+x,1/2+y,z
1/2-x,1/2+y,-z
1/2-x,1/2-y,-z
1/2+x,1/2-y,z
loop_
_atom_site_type_symbol
_atom_site_label
_atom_site_fract_x
_atom_site_fract_y
_atom_site_fract_z
Si Si1 0.143054 0.582624 0.012256
Si Si2 0.490699 0.583552 0.875670
Si Si3 0.136871 0.743324 0.518014
Si Si4 0.493222 0.749213 0.136193
Si Si5 0.000000 0.869483 0.500000
Si Si6 0.091683 0.582654 0.443724
O O1 0.074982 0.500000 0.972920
O O2 0.348436 0.583087 0.272026
O O3 0.093464 0.668957 0.987526
O O4 0.065681 0.582391 0.815525
O O5 0.552342 0.500000 0.910829
O O6 0.586137 0.662881 0.960131
O O7 0.280294 0.588878 0.608293
O O8 0.500000 0.580224 0.000000
O O9 0.074831 0.813207 0.507296
O O10 0.085671 0.659645 0.496759
O O11 0.055751 0.746065 0.318094
O O12 0.343038 0.745252 0.742647
O O13 0.096949 0.500000 0.499084
#
# Coordination Sequence:
#
# PCOD9214456 Si02
#       6
#     8   8   8   8   4   8
#     4  10  22  40  61  85 120 164 208 255 303 358
#     4   9  17  30  58  97 126 147 186 250 310 358
#     4   9  20  38  60  91 118 158 203 250 305 364
#     4   9  19  38  65  87 118 158 205 250 302 361
#     4  12  25  38  59  86 124 162 205 256 306 360
#     4   8  16  34  59  84 118 158 193 239 302 361
#
# _framework density 23.346274000000001
#
# number of rings (size 3 to 8) (size 9 to 14) (size 15 to 20)
#    0.000    2.727    0.000    1.364    5.091    2.909 
#    0.000    5.000    0.000    1.091    0.000    0.000 
#    0.000    0.000    0.000    0.000    0.000    0.000 
#
# Total GULP energy -122515.035271 kJ/mol
# GULP energy per Si atom -5568.865240 kJ/mol
# Density = 2.329314 g / cm^3
# Si number density = 23.346274 Si / 1000 Ang^3
#
#
#
# Elastic Constant Matrix: (Units=GPa)
#
#
# Indices 1 2 3 4 5 6 
#
# 1 39.4762 23.8254 14.5594 0.0000 -4.7875 0.0000
# 2 23.8254 259.9247 37.1179 0.0000 8.4738 0.0000
# 3 14.5594 37.1179 130.3580 0.0000 6.9184 0.0000
# 4 0.0000 0.0000 0.0000 -40.3274 0.0000 17.2704
# 5 -4.7875 8.4738 6.9184 0.0000 9.4924 0.0000
# 6 0.0000 0.0000 0.0000 17.2704 0.0000 4.6813
#
#
#
# Elastic Compliance Matrix: (Units=1/GPa)
#
#
# Indices 1 2 3 4 5 6 
#
# 1 0.031077 -0.003002 -0.003735 0.000000 0.021076 0.000000
# 2 -0.003002 0.004376 -0.000648 0.000000 -0.004949 0.000000
# 3 -0.003735 -0.000648 0.008678 0.000000 -0.007630 0.000000
# 4 0.000000 0.000000 0.000000 -0.009612 0.000000 0.035459
# 5 0.021076 -0.004949 -0.007630 0.000000 0.125956 0.000000
# 6 0.000000 0.000000 0.000000 0.035459 0.000000 0.082799
#
#
# Mechanical properties :
#
#
# Convention : Reuss Voigt Hill
#
# Bulk Modulus (GPa) = 34.05882 64.52937 49.29410
# Shear Modulus (GPa) = 18.66841 18.38634 18.52737
#
# Velocity S-wave (km/s) = 2.83084 2.80938 2.82013
# Velocity P-wave (km/s) = 5.03042 6.18252 5.63599
#
# Compressibility (1/GPa) = 0.02936097
#
# Stress axis : x y z
#
# Youngs Moduli (GPa) = 32.17798 228.50021 115.23696
#
# Poissons Ratio (x) = 0.68605 0.43036
# Poissons Ratio (y) = 0.09661 0.07469
# Poissons Ratio (z) = 0.12017 0.14810
#
# Static dielectric constant tensor:
#      x y z
#    x 1.865860 0.000000 0.032250 
#    y 0.000000 1.975830 0.000000 
#    z 0.032250 0.000000 1.921330 
# 
# From -- ./inp_files/241571.got.cif
#   From: 2010.05.17/outbox.cif.g08.bks.cpg/sg12_121_cif.got.tgz:241571.got - 2010.06.03 13:09:07.
