data_PCOD9214688
_publ_section_title
;
Structure prediction by ZEFSAII (Michael W. Deem and Ramdas Pophale) SiO2 
 PCOD9214688
Probable space group: C 2/M
;
_chemical_formula_sum "Si O2"
_cell_formula_units_Z 64
_cell_length_a 9.113449
_cell_length_b 17.811437
_cell_length_c 20.899763
_cell_angle_alpha 90.000000
_cell_angle_beta 65.144927
_cell_angle_gamma 90.000000
_cell_volume 3078.288793
_symmetry_space_group_name_H-M "C 2/M"
_symmetry_group_IT_number 12
_symmetry_cell_setting 'monoclinic'
loop_
_space_group_symop_operation_xyz
x,y,z
-x,y,-z
-x,-y,-z
x,-y,z
1/2+x,1/2+y,z
1/2-x,1/2+y,-z
1/2-x,1/2-y,-z
1/2+x,1/2-y,z
loop_
_atom_site_type_symbol
_atom_site_label
_atom_site_fract_x
_atom_site_fract_y
_atom_site_fract_z
Si Si1 0.102909 0.412146 0.919718
Si Si2 0.814753 0.116642 0.686473
Si Si3 0.627562 0.646796 0.565084
Si Si4 0.677857 0.814896 0.592894
Si Si5 0.260525 0.687028 0.232218
Si Si6 0.463326 0.081673 0.805424
Si Si7 0.115805 0.166750 0.199476
Si Si8 0.363591 0.089713 0.627288
O O1 0.148372 0.500000 0.919966
O O2 0.999981 0.407523 0.873346
O O3 0.258521 0.362411 0.875550
O O4 0.000000 0.388719 0.000000
O O5 0.742342 0.182325 0.653226
O O6 0.637444 0.082996 0.737409
O O7 0.903370 0.107415 0.739359
O O8 0.968382 0.098348 0.611440
O O9 0.605417 0.731896 0.596375
O O10 0.680560 0.665414 0.483171
O O11 0.778817 0.610903 0.575763
O O12 0.544483 0.877942 0.601894
O O13 0.191680 0.769695 0.232163
O O14 0.452971 0.691068 0.195555
O O15 0.224146 0.640236 0.302849
O O16 0.163052 0.641274 0.196655
O O17 0.390932 0.000000 0.807653
O O18 0.357984 0.000000 0.638727
#
# Coordination Sequence:
#
# PCOD9214688 Si02
#       8
#     8   8   8   8   8   8   8   8
#     4   9  20  42  70 102 141 179 214 261 323 387
#     4  11  21  36  58  88 118 163 215 271 321 391
#     4  11  23  40  60  91 122 171 222 279 337 411
#     4  11  23  39  63  86 126 171 222 274 342 409
#     4  12  23  41  65  97 129 169 222 275 329 392
#     4  10  22  40  63  91 127 170 215 264 327 392
#     4  11  23  39  67  99 129 170 220 273 321 392
#     4  12  26  42  64  92 129 172 222 289 350 399
#
# _framework density 20.790772
#
# number of rings (size 3 to 8) (size 9 to 14) (size 15 to 20)
#    0.000    1.125    2.500    4.875    0.000    4.500 
#    0.000    3.125    0.000    4.500    0.000    0.000 
#    0.000    0.000    0.000    0.000    0.000    0.000 
#
# Total GULP energy -178213.604392 kJ/mol
# GULP energy per Si atom -5569.175137 kJ/mol
# Density = 2.074345 g / cm^3
# Si number density = 20.790772 Si / 1000 Ang^3
#
#
#
# Elastic Constant Matrix: (Units=GPa)
#
#
# Indices 1 2 3 4 5 6 
#
# 1 109.5629 16.5300 40.4873 0.0000 -12.5158 0.0000
# 2 16.5300 45.0251 42.4896 0.0000 -2.6881 0.0000
# 3 40.4873 42.4896 129.9726 0.0000 -9.5140 0.0000
# 4 0.0000 0.0000 0.0000 -34.3423 0.0000 -36.1829
# 5 -12.5158 -2.6881 -9.5140 0.0000 16.6011 0.0000
# 6 0.0000 0.0000 0.0000 -36.1829 0.0000 3.5082
#
#
#
# Elastic Compliance Matrix: (Units=1/GPa)
#
#
# Indices 1 2 3 4 5 6 
#
# 1 0.011012 -0.001255 -0.002533 0.000000 0.006647 0.000000
# 2 -0.001255 0.032273 -0.010277 0.000000 -0.001611 0.000000
# 3 -0.002533 -0.010277 0.012088 0.000000 0.003354 0.000000
# 4 0.000000 0.000000 0.000000 -0.002454 0.000000 -0.025308
# 5 0.006647 -0.001611 0.003354 0.000000 0.066910 0.000000
# 6 0.000000 0.000000 0.000000 -0.025308 0.000000 0.024021
#
#
# Mechanical properties :
#
#
# Convention : Reuss Voigt Hill
#
# Bulk Modulus (GPa) = 36.70864 53.73047 45.21955
# Shear Modulus (GPa) = 27.61473 9.49030 18.55252
#
# Velocity S-wave (km/s) = 3.64843 2.13883 2.99045
# Velocity P-wave (km/s) = 5.95337 5.65676 5.80696
#
# Compressibility (1/GPa) = 0.02724154
#
# Stress axis : x y z
#
# Youngs Moduli (GPa) = 90.80952 30.98555 82.72410
#
# Poissons Ratio (x) = 0.03889 0.20957
# Poissons Ratio (y) = 0.11399 0.85018
# Poissons Ratio (z) = 0.23006 0.31845
#
# Static dielectric constant tensor:
#      x y z
#    x 1.779470 0.000000 -0.006140 
#    y 0.000000 1.528530 0.000000 
#    z -0.006140 0.000000 1.765430 
# 
# From -- ./inp_files/301727.got.cif
#   From: 2010.05.17/outbox.cif.g08.bks.cpg/sg12_151_cif.got.tgz:301727.got - 2010.06.03 13:09:07.
