data_PCOD9214468
_publ_section_title
;
Structure prediction by ZEFSAII (Michael W. Deem and Ramdas Pophale) SiO2 
 PCOD9214468
Probable space group: C 2/M
;
_chemical_formula_sum "Si O2"
_cell_formula_units_Z 64
_cell_length_a 9.463810
_cell_length_b 14.925555
_cell_length_c 21.996672
_cell_angle_alpha 90.000000
_cell_angle_beta 92.420567
_cell_angle_gamma 90.000000
_cell_volume 3104.315129
_symmetry_space_group_name_H-M "C 2/M"
_symmetry_group_IT_number 12
_symmetry_cell_setting 'monoclinic'
loop_
_space_group_symop_operation_xyz
x,y,z
-x,y,-z
-x,-y,-z
x,-y,z
1/2+x,1/2+y,z
1/2-x,1/2+y,-z
1/2-x,1/2-y,-z
1/2+x,1/2-y,z
loop_
_atom_site_type_symbol
_atom_site_label
_atom_site_fract_x
_atom_site_fract_y
_atom_site_fract_z
Si Si1 0.168095 0.107124 0.484789
Si Si2 0.605455 0.902361 0.745828
Si Si3 0.536522 0.597521 0.787181
Si Si4 0.349046 0.137257 0.825691
Si Si5 0.936229 0.395964 0.061041
Si Si6 0.275571 0.782219 0.594788
Si Si7 0.298247 0.657794 0.856720
Si Si8 0.537315 0.739973 0.678694
O O1 0.269407 0.144083 0.541077
O O2 0.206323 0.181700 0.433690
O O3 0.000000 0.117301 0.500000
O O4 0.189587 0.000000 0.472459
O O5 0.451771 0.881276 0.771099
O O6 0.707550 0.896101 0.805335
O O7 0.637808 0.820210 0.703643
O O8 0.610853 0.000000 0.717962
O O9 0.491424 0.500000 0.763198
O O10 0.699898 0.595078 0.807760
O O11 0.453728 0.619363 0.848345
O O12 0.511466 0.672395 0.734545
O O13 0.440686 0.107855 0.885749
O O14 0.312128 0.240391 0.836442
O O15 0.899653 0.500000 0.050086
O O16 0.794332 0.350046 0.084304
O O17 0.000000 0.357566 0.000000
O O18 0.400987 0.785311 0.646044
O O19 0.129440 0.801982 0.627006
#
# Coordination Sequence:
#
# PCOD9214468 Si02
#       8
#     8   8   8   8   8   8   8   8
#     4  10  22  45  70  91 120 167 211 248 310 370
#     4  11  22  39  60  84 123 170 201 239 303 374
#     4  12  23  37  61  92 124 165 205 247 307 372
#     4  11  20  39  61  85 120 160 208 251 302 376
#     4  10  22  40  61  86 118 160 210 261 311 366
#     4  11  24  40  66  94 126 160 203 260 308 354
#     4  11  20  39  61  85 120 160 208 251 302 376
#     4  12  23  39  60  96 133 156 203 257 307 357
#
# _framework density 20.616465000000002
#
# number of rings (size 3 to 8) (size 9 to 14) (size 15 to 20)
#    0.000    1.000    3.750    5.250    0.000    2.500 
#    0.000    1.250    0.000    2.250    0.000    0.000 
#    0.000    0.000    0.000    0.000    0.000    0.000 
#
# Total GULP energy -178410.134120 kJ/mol
# GULP energy per Si atom -5575.316691 kJ/mol
# Density = 2.056954 g / cm^3
# Si number density = 20.616465 Si / 1000 Ang^3
#
#
#
# Elastic Constant Matrix: (Units=GPa)
#
#
# Indices 1 2 3 4 5 6 
#
# 1 75.1036 -24.0155 -6.5090 0.0000 -7.3275 0.0000
# 2 -24.0155 112.3980 -6.8878 0.0000 -8.0897 0.0000
# 3 -6.5090 -6.8878 60.7044 0.0000 -5.0724 0.0000
# 4 0.0000 0.0000 0.0000 138.9395 0.0000 -14.5347
# 5 -7.3275 -8.0897 -5.0724 0.0000 25.8764 0.0000
# 6 0.0000 0.0000 0.0000 -14.5347 0.0000 55.0057
#
#
#
# Elastic Compliance Matrix: (Units=1/GPa)
#
#
# Indices 1 2 3 4 5 6 
#
# 1 0.015374 0.003881 0.002597 0.000000 0.006076 0.000000
# 2 0.003881 0.010182 0.001961 0.000000 0.004667 0.000000
# 3 0.002597 0.001961 0.017371 0.000000 0.004754 0.000000
# 4 0.000000 0.000000 0.000000 0.007402 0.000000 0.001956
# 5 0.006076 0.004667 0.004754 0.000000 0.042757 0.000000
# 6 0.000000 0.000000 0.000000 0.001956 0.000000 0.018697
#
#
# Mechanical properties :
#
#
# Convention : Reuss Voigt Hill
#
# Bulk Modulus (GPa) = 16.72068 19.26459 17.99263
# Shear Modulus (GPa) = 43.53889 63.00555 53.27222
#
# Velocity S-wave (km/s) = 4.60047 5.53418 5.08879
# Velocity P-wave (km/s) = 6.02886 7.08525 6.57829
#
# Compressibility (1/GPa) = 0.05980618
#
# Stress axis : x y z
#
# Youngs Moduli (GPa) = 65.04549 98.20931 57.56569
#
# Poissons Ratio (x) = -0.38118 -0.14947
# Poissons Ratio (y) = -0.25246 -0.11291
# Poissons Ratio (z) = -0.16889 -0.19263
#
# Static dielectric constant tensor:
#      x y z
#    x 1.773770 0.000000 -0.024580 
#    y 0.000000 1.728880 0.000000 
#    z -0.024580 0.000000 1.765920 
# 
# From -- ./inp_files/332924.got.cif
#   From: 2010.05.17/outbox.cif.g08.bks.cpg/sg12_167_cif.got.tgz:332924.got - 2010.06.03 13:09:07.
