data_PCOD9214037
_publ_section_title
;
Structure prediction by ZEFSAII (Michael W. Deem and Ramdas Pophale) SiO2 
 PCOD9214037
Probable space group: C 2/M
;
_chemical_formula_sum "Si O2"
_cell_formula_units_Z 56
_cell_length_a 17.060630
_cell_length_b 21.716114
_cell_length_c 8.447043
_cell_angle_alpha 90.000000
_cell_angle_beta 61.578421
_cell_angle_gamma 90.000000
_cell_volume 2752.343316
_symmetry_space_group_name_H-M "C 2/M"
_symmetry_group_IT_number 12
_symmetry_cell_setting 'monoclinic'
loop_
_space_group_symop_operation_xyz
x,y,z
-x,y,-z
-x,-y,-z
x,-y,z
1/2+x,1/2+y,z
1/2-x,1/2+y,-z
1/2-x,1/2-y,-z
1/2+x,1/2-y,z
loop_
_atom_site_type_symbol
_atom_site_label
_atom_site_fract_x
_atom_site_fract_y
_atom_site_fract_z
Si Si1 0.507537 0.426014 0.814624
Si Si2 0.850068 0.645938 0.534687
Si Si3 0.852523 0.426836 0.846464
Si Si4 0.326774 0.607085 0.812813
Si Si5 0.199417 0.929738 0.506140
Si Si6 0.331520 0.748403 0.799167
Si Si7 0.522202 0.175300 0.158763
O O1 0.510294 0.500000 0.819538
O O2 0.421271 0.410126 0.796080
O O3 0.601387 0.407156 0.650571
O O4 0.500000 0.401296 0.000000
O O5 0.874244 0.596484 0.648487
O O6 0.773224 0.615253 0.504730
O O7 0.819463 0.706131 0.662476
O O8 0.933898 0.662930 0.345681
O O9 0.860393 0.500000 0.855441
O O10 0.917956 0.387026 0.894831
O O11 0.751851 0.405093 0.985101
O O12 0.300107 0.569535 0.683501
O O13 0.336035 0.677501 0.749222
O O14 0.212947 0.000000 0.552984
O O15 0.418200 0.773517 0.809199
O O16 0.250000 0.750000 0.000000
O O17 0.500000 0.192025 0.000000
#
# Coordination Sequence:
#
# PCOD9214037 Si02
#       7
#     8   8   8   8   8   8   8
#     4  10  22  39  61  92 130 173 222 273 329 396
#     4  11  24  43  69  96 136 176 221 272 329 398
#     4  11  22  40  68  98 131 177 220 270 338 403
#     4  12  23  41  66  95 134 172 225 280 337 392
#     4  11  24  41  65  99 135 172 218 274 337 399
#     4  11  24  46  68  92 131 177 222 274 323 392
#     4  11  25  45  67  99 133 172 219 278 331 393
#
# _framework density 20.346298999999998
#
# number of rings (size 3 to 8) (size 9 to 14) (size 15 to 20)
#    0.000    1.000    2.857    5.571    0.000    7.714 
#    0.000    0.000    0.000    0.000    0.000    0.000 
#    0.000    0.000    0.000    0.000    0.000    0.000 
#
# Total GULP energy -156528.531216 kJ/mol
# GULP energy per Si atom -5590.304686 kJ/mol
# Density = 2.029999 g / cm^3
# Si number density = 20.346299 Si / 1000 Ang^3
#
#
#
# Elastic Constant Matrix: (Units=GPa)
#
#
# Indices 1 2 3 4 5 6 
#
# 1 114.9721 18.7157 53.4980 0.0000 -6.4594 0.0000
# 2 18.7157 107.2143 18.4335 0.0000 -5.9471 0.0000
# 3 53.4980 18.4335 115.6495 0.0000 -20.2412 0.0000
# 4 0.0000 0.0000 0.0000 34.1083 0.0000 13.0692
# 5 -6.4594 -5.9471 -20.2412 0.0000 41.1240 0.0000
# 6 0.0000 0.0000 0.0000 13.0692 0.0000 76.6532
#
#
#
# Elastic Compliance Matrix: (Units=1/GPa)
#
#
# Indices 1 2 3 4 5 6 
#
# 1 0.011241 -0.001123 -0.005187 0.000000 -0.000950 0.000000
# 2 -0.001123 0.009720 -0.000891 0.000000 0.000791 0.000000
# 3 -0.005187 -0.000891 0.012062 0.000000 0.004993 0.000000
# 4 0.000000 0.000000 0.000000 0.031368 0.000000 -0.005348
# 5 -0.000950 0.000791 0.004993 0.000000 0.026740 0.000000
# 6 0.000000 0.000000 0.000000 -0.005348 0.000000 0.013958
#
#
# Mechanical properties :
#
#
# Convention : Reuss Voigt Hill
#
# Bulk Modulus (GPa) = 53.70517 57.68116 55.69317
# Shear Modulus (GPa) = 39.77777 46.85633 43.31705
#
# Velocity S-wave (km/s) = 4.42638 4.80410 4.61910
# Velocity P-wave (km/s) = 7.25097 7.69310 7.47531
#
# Compressibility (1/GPa) = 0.01862018
#
# Stress axis : x y z
#
# Youngs Moduli (GPa) = 88.96124 102.87765 82.90255
#
# Poissons Ratio (x) = 0.11554 0.43003
# Poissons Ratio (y) = 0.09991 0.07390
# Poissons Ratio (z) = 0.46145 0.09171
#
# Static dielectric constant tensor:
#      x y z
#    x 1.696440 0.000000 0.007940 
#    y 0.000000 1.807680 0.000000 
#    z 0.007940 0.000000 1.759000 
# 
# From -- ./inp_files/65735.got.cif
#   From: 2010.05.17/outbox.cif.g08.bks.cpg/sg12_33_cif.got.tgz:65735.got - 2010.06.03 13:09:07.
