data_PCOD9214263
_publ_section_title
;
Structure prediction by ZEFSAII (Michael W. Deem and Ramdas Pophale) SiO2 
 PCOD9214263
Probable space group: C 2/M
;
_chemical_formula_sum "Si O2"
_cell_formula_units_Z 32
_cell_length_a 9.839401
_cell_length_b 23.933479
_cell_length_c 8.401033
_cell_angle_alpha 90.000000
_cell_angle_beta 137.515614
_cell_angle_gamma 90.000000
_cell_volume 1336.168829
_symmetry_space_group_name_H-M "C 2/M"
_symmetry_group_IT_number 12
_symmetry_cell_setting 'monoclinic'
loop_
_space_group_symop_operation_xyz
x,y,z
-x,y,-z
-x,-y,-z
x,-y,z
1/2+x,1/2+y,z
1/2-x,1/2+y,-z
1/2-x,1/2-y,-z
1/2+x,1/2-y,z
loop_
_atom_site_type_symbol
_atom_site_label
_atom_site_fract_x
_atom_site_fract_y
_atom_site_fract_z
Si Si1 0.536813 0.257930 0.720314
Si Si2 0.630439 0.437077 0.268207
Si Si3 0.178211 0.120853 0.824855
Si Si4 0.894506 0.642199 0.678756
O O1 0.500000 0.245747 0.500000
O O2 0.533590 0.325150 0.728097
O O3 0.398489 0.209925 0.679554
O O4 0.750000 0.250000 0.000000
O O5 0.709817 0.500000 0.327135
O O6 0.461247 0.431373 0.259832
O O7 0.798781 0.391514 0.451201
O O8 0.500000 0.423826 0.000000
O O9 0.277492 0.124265 0.737403
O O10 0.371993 0.124868 0.105296
#
# Coordination Sequence:
#
# PCOD9214263 Si02
#       4
#     8   8   8   8
#     4  10  22  39  66 103 139 181 222 276 340 417
#     4  11  26  44  67  98 132 177 233 286 336 399
#     4  10  23  44  66  99 137 174 226 278 337 411
#     4  10  23  43  69  98 135 179 224 273 342 409
#
# _framework density 23.949066999999999
#
# number of rings (size 3 to 8) (size 9 to 14) (size 15 to 20)
#    0.000    1.750    0.000    2.250    7.000    7.000 
#    4.500    5.000    0.000    0.000    0.000    0.000 
#    0.000    0.000    0.000    0.000    0.000    0.000 
#
# Total GULP energy -89283.753406 kJ/mol
# GULP energy per Si atom -5580.234588 kJ/mol
# Density = 2.389456 g / cm^3
# Si number density = 23.949067 Si / 1000 Ang^3
#
#
#
# Elastic Constant Matrix: (Units=GPa)
#
#
# Indices 1 2 3 4 5 6 
#
# 1 76.2806 12.1272 34.4869 0.0000 -0.6216 0.0000
# 2 12.1272 86.0721 77.2417 0.0000 14.3790 0.0000
# 3 34.4869 77.2417 171.1274 0.0000 4.7115 0.0000
# 4 0.0000 0.0000 0.0000 32.4926 0.0000 0.8407
# 5 -0.6216 14.3790 4.7115 0.0000 31.4872 0.0000
# 6 0.0000 0.0000 0.0000 0.8407 0.0000 28.1967
#
#
#
# Elastic Compliance Matrix: (Units=1/GPa)
#
#
# Indices 1 2 3 4 5 6 
#
# 1 0.014476 0.000881 -0.003325 0.000000 0.000381 0.000000
# 2 0.000881 0.021596 -0.009694 0.000000 -0.008394 0.000000
# 3 -0.003325 -0.009694 0.010814 0.000000 0.002743 0.000000
# 4 0.000000 0.000000 0.000000 0.030800 0.000000 -0.000918
# 5 0.000381 -0.008394 0.002743 0.000000 0.035189 0.000000
# 6 0.000000 0.000000 0.000000 -0.000918 0.000000 0.035493
#
#
# Mechanical properties :
#
#
# Convention : Reuss Voigt Hill
#
# Bulk Modulus (GPa) = 44.23093 64.57685 54.40389
# Shear Modulus (GPa) = 27.74984 32.41025 30.08005
#
# Velocity S-wave (km/s) = 3.40766 3.68271 3.54785
# Velocity P-wave (km/s) = 5.83024 6.71610 6.28879
#
# Compressibility (1/GPa) = 0.02260862
#
# Stress axis : x y z
#
# Youngs Moduli (GPa) = 69.07985 46.30494 92.47345
#
# Poissons Ratio (x) = -0.04080 0.30752
# Poissons Ratio (y) = -0.06086 0.89646
# Poissons Ratio (z) = 0.22972 0.44889
#
# Static dielectric constant tensor:
#      x y z
#    x 1.964030 0.000000 0.020350 
#    y 0.000000 1.857370 0.000000 
#    z 0.020350 0.000000 2.017230 
# 
# From -- ./inp_files/51104.got.cif
#   From: 2010.05.17/outbox.cif.g08.bks.cpg/sg12_26_cif.got.tgz:51104.got - 2010.06.03 13:09:07.
