data_PCOD9214159
_publ_section_title
;
Structure prediction by ZEFSAII (Michael W. Deem and Ramdas Pophale) SiO2 
 PCOD9214159
Probable space group: C 2/M
;
_chemical_formula_sum "Si O2"
_cell_formula_units_Z 36
_cell_length_a 9.221108
_cell_length_b 14.819050
_cell_length_c 13.238628
_cell_angle_alpha 90.000000
_cell_angle_beta 63.893187
_cell_angle_gamma 90.000000
_cell_volume 1624.466729
_symmetry_space_group_name_H-M "C 2/M"
_symmetry_group_IT_number 12
_symmetry_cell_setting 'monoclinic'
loop_
_space_group_symop_operation_xyz
x,y,z
-x,y,-z
-x,-y,-z
x,-y,z
1/2+x,1/2+y,z
1/2-x,1/2+y,-z
1/2-x,1/2-y,-z
1/2+x,1/2-y,z
loop_
_atom_site_type_symbol
_atom_site_label
_atom_site_fract_x
_atom_site_fract_y
_atom_site_fract_z
Si Si1 0.361254 0.851708 0.615131
Si Si2 0.731359 0.500000 0.027863
Si Si3 0.419599 0.000000 0.760996
Si Si4 0.907862 0.195101 0.929902
Si Si5 0.996786 0.824221 0.678456
Si Si6 0.267586 0.500000 0.743932
O O1 0.500000 0.890198 0.500000
O O2 0.425801 0.753430 0.629012
O O3 0.187565 0.846511 0.612953
O O4 0.356502 0.914204 0.716294
O O5 0.845935 0.500000 0.895830
O O6 0.623608 0.588862 0.056763
O O7 0.802975 0.500000 0.119465
O O8 0.614499 0.000000 0.715677
O O9 0.981140 0.213075 0.798156
O O10 0.750000 0.250000 0.000000
O O11 0.000000 0.223058 0.000000
O O12 0.883381 0.912272 0.699655
#
# Coordination Sequence:
#
# PCOD9214159 Si02
#       6
#     8   4   4   8   8   4
#     4  12  26  45  66  91 123 168 220 269 313 361
#     4  10  22  39  63  93 130 166 200 244 310 387
#     4  12  23  42  66  95 129 167 209 260 314 375
#     4  11  22  37  61  94 128 164 202 247 310 383
#     4  11  23  43  65  92 128 167 209 262 315 373
#     4  10  24  41  66  98 130 163 203 252 319 390
#
# _framework density 22.161117999999998
#
# number of rings (size 3 to 8) (size 9 to 14) (size 15 to 20)
#    0.000    0.889    0.000    7.667    0.000    7.111 
#    0.000    1.667    0.000    0.000    0.000    0.000 
#    0.000    0.000    0.000    0.000    0.000    0.000 
#
# Total GULP energy -100625.428812 kJ/mol
# GULP energy per Si atom -5590.301601 kJ/mol
# Density = 2.211068 g / cm^3
# Si number density = 22.161118 Si / 1000 Ang^3
#
#
#
# Elastic Constant Matrix: (Units=GPa)
#
#
# Indices 1 2 3 4 5 6 
#
# 1 107.1456 22.5366 -17.9686 0.0000 5.6235 0.0000
# 2 22.5366 79.3609 16.3464 0.0000 9.3703 0.0000
# 3 -17.9686 16.3464 54.2084 0.0000 -13.3784 0.0000
# 4 0.0000 0.0000 0.0000 -12.9176 0.0000 -50.4613
# 5 5.6235 9.3703 -13.3784 0.0000 33.2113 0.0000
# 6 0.0000 0.0000 0.0000 -50.4613 0.0000 -41.9985
#
#
#
# Elastic Compliance Matrix: (Units=1/GPa)
#
#
# Indices 1 2 3 4 5 6 
#
# 1 0.011092 -0.004445 0.005400 0.000000 0.001551 0.000000
# 2 -0.004445 0.016396 -0.008188 0.000000 -0.007172 0.000000
# 3 0.005400 -0.008188 0.025595 0.000000 0.011706 0.000000
# 4 0.000000 0.000000 0.000000 0.020959 0.000000 -0.025183
# 5 0.001551 -0.007172 0.011706 0.000000 0.036587 0.000000
# 6 0.000000 0.000000 0.000000 -0.025183 0.000000 0.006446
#
#
# Mechanical properties :
#
#
# Convention : Reuss Voigt Hill
#
# Bulk Modulus (GPa) = 25.89462 31.39374 28.64418
# Shear Modulus (GPa) = 34.62246 10.31241 22.46744
#
# Velocity S-wave (km/s) = 3.95689 2.15951 3.18751
# Velocity P-wave (km/s) = 5.70842 4.51828 5.14786
#
# Compressibility (1/GPa) = 0.03861805
#
# Stress axis : x y z
#
# Youngs Moduli (GPa) = 90.15240 60.98932 39.06953
#
# Poissons Ratio (x) = 0.27112 -0.21098
# Poissons Ratio (y) = 0.40077 0.31989
# Poissons Ratio (z) = -0.48684 0.49936
#
# Static dielectric constant tensor:
#      x y z
#    x 1.777020 0.000000 -0.001760 
#    y 0.000000 1.942370 0.000000 
#    z -0.001760 0.000000 1.823170 
# 
# From -- ./inp_files/118803.got.cif
#   From: 2010.05.17/outbox.cif.g08.bks.cpg/sg12_60_cif.got.tgz:118803.got - 2010.06.03 13:09:07.
