data_PCOD9214043
_publ_section_title
;
Structure prediction by ZEFSAII (Michael W. Deem and Ramdas Pophale) SiO2 
 PCOD9214043
Probable space group: C 2/M
;
_chemical_formula_sum "Si O2"
_cell_formula_units_Z 42
_cell_length_a 16.688962
_cell_length_b 14.103840
_cell_length_c 8.926529
_cell_angle_alpha 90.000000
_cell_angle_beta 77.381926
_cell_angle_gamma 90.000000
_cell_volume 2050.366277
_symmetry_space_group_name_H-M "C 2/M"
_symmetry_group_IT_number 12
_symmetry_cell_setting 'monoclinic'
loop_
_space_group_symop_operation_xyz
x,y,z
-x,y,-z
-x,-y,-z
x,-y,z
1/2+x,1/2+y,z
1/2-x,1/2+y,-z
1/2-x,1/2-y,-z
1/2+x,1/2-y,z
loop_
_atom_site_type_symbol
_atom_site_label
_atom_site_fract_x
_atom_site_fract_y
_atom_site_fract_z
Si Si1 0.816404 0.611418 0.395796
Si Si2 0.327253 0.744900 0.642163
Si Si3 0.907310 0.359576 0.045585
Si Si4 0.000000 0.000000 0.000000
Si Si5 0.239019 0.397380 0.112138
Si Si6 0.402536 0.337900 0.889529
O O1 0.811540 0.500000 0.437331
O O2 0.727100 0.659774 0.403604
O O3 0.855619 0.680190 0.505527
O O4 0.867702 0.621030 0.222173
O O5 0.267892 0.810031 0.771503
O O6 0.395917 0.703582 0.725096
O O7 0.845174 0.398704 0.946064
O O8 0.910999 0.248810 0.001383
O O9 0.000000 0.395446 0.000000
O O10 0.968864 0.082982 0.895611
O O11 0.252450 0.500000 0.180808
O O12 0.313170 0.381351 0.966787
#
# Coordination Sequence:
#
# PCOD9214043 Si02
#       6
#     8   8   8   2   8   8
#     4  11  22  38  63  97 129 178 222 264 328 401
#     4  10  22  39  61  93 135 170 214 274 330 388
#     4  11  22  39  63  94 133 170 217 275 330 386
#     4  12  24  36  76 102 120 172 228 274 342 378
#     4  11  20  37  64  92 126 172 219 269 330 392
#     4  11  21  40  62  97 129 167 218 274 331 389
#
# _framework density 20.484145000000002
#
# number of rings (size 3 to 8) (size 9 to 14) (size 15 to 20)
#    0.000    1.143    5.714    2.286    1.333    1.524 
#    0.000    3.810    0.000    6.857    0.000    0.000 
#    0.000    0.000    0.000    0.000    0.000    0.000 
#
# Total GULP energy -116942.749823 kJ/mol
# GULP energy per Si atom -5568.702373 kJ/mol
# Density = 2.043752 g / cm^3
# Si number density = 20.484145 Si / 1000 Ang^3
#
#
#
# Elastic Constant Matrix: (Units=GPa)
#
#
# Indices 1 2 3 4 5 6 
#
# 1 60.0366 25.8354 8.1833 0.0000 14.3649 0.0000
# 2 25.8354 183.6692 33.4534 0.0000 21.7160 0.0000
# 3 8.1833 33.4534 59.4303 0.0000 19.0566 0.0000
# 4 0.0000 0.0000 0.0000 -71.4255 0.0000 31.4570
# 5 14.3649 21.7160 19.0566 0.0000 22.8267 0.0000
# 6 0.0000 0.0000 0.0000 31.4570 0.0000 1.9336
#
#
#
# Elastic Compliance Matrix: (Units=1/GPa)
#
#
# Indices 1 2 3 4 5 6 
#
# 1 0.020200 -0.001732 0.002378 0.000000 -0.013049 0.000000
# 2 -0.001732 0.006493 -0.002438 0.000000 -0.003052 0.000000
# 3 0.002378 -0.002438 0.024044 0.000000 -0.019250 0.000000
# 4 0.000000 0.000000 0.000000 -0.001715 0.000000 0.027896
# 5 -0.013049 -0.003052 -0.019250 0.000000 0.070995 0.000000
# 6 0.000000 0.000000 0.000000 0.027896 0.000000 0.063340
#
#
# Mechanical properties :
#
#
# Convention : Reuss Voigt Hill
#
# Bulk Modulus (GPa) = 21.20738 48.67558 34.94148
# Shear Modulus (GPa) = 24.67209 6.37790 15.52500
#
# Velocity S-wave (km/s) = 3.47428 1.76645 2.75599
# Velocity P-wave (km/s) = 5.14487 5.28910 5.21749
#
# Compressibility (1/GPa) = 0.04715339
#
# Stress axis : x y z
#
# Youngs Moduli (GPa) = 49.50520 154.01126 41.59069
#
# Poissons Ratio (x) = 0.26667 -0.09889
# Poissons Ratio (y) = 0.08572 0.10139
# Poissons Ratio (z) = -0.11770 0.37545
#
# Static dielectric constant tensor:
#      x y z
#    x 1.750130 0.000000 0.012170 
#    y 0.000000 1.776980 0.000000 
#    z 0.012170 0.000000 1.738730 
# 
# From -- ./inp_files/72919.got.cif
#   From: 2010.05.17/outbox.cif.g08.bks.cpg/sg12_37_cif.got.tgz:72919.got - 2010.06.03 13:09:07.
