data_PCOD9214153
_publ_section_title
;
Structure prediction by ZEFSAII (Michael W. Deem and Ramdas Pophale) SiO2 
 PCOD9214153
Probable space group: C 2/M
;
_chemical_formula_sum "Si O2"
_cell_formula_units_Z 50
_cell_length_a 16.360448
_cell_length_b 9.564565
_cell_length_c 15.117599
_cell_angle_alpha 90.000000
_cell_angle_beta 69.126553
_cell_angle_gamma 90.000000
_cell_volume 2210.354757
_symmetry_space_group_name_H-M "C 2/M"
_symmetry_group_IT_number 12
_symmetry_cell_setting 'monoclinic'
loop_
_space_group_symop_operation_xyz
x,y,z
-x,y,-z
-x,-y,-z
x,-y,z
1/2+x,1/2+y,z
1/2-x,1/2+y,-z
1/2-x,1/2-y,-z
1/2+x,1/2-y,z
loop_
_atom_site_type_symbol
_atom_site_label
_atom_site_fract_x
_atom_site_fract_y
_atom_site_fract_z
Si Si1 0.000000 0.000000 0.000000
Si Si2 0.575027 0.333858 0.293659
Si Si3 0.293226 0.833221 0.629030
Si Si4 0.966890 0.744796 0.880552
Si Si5 0.341663 0.839900 0.230592
Si Si6 0.304568 0.843235 0.045670
Si Si7 0.063778 0.657011 0.561688
O O1 0.004954 0.878923 0.074661
O O2 0.582364 0.500000 0.303957
O O3 0.645125 0.248472 0.324565
O O4 0.583660 0.293845 0.187940
O O5 0.480760 0.275047 0.362093
O O6 0.199891 0.761748 0.680820
O O7 0.341205 0.814141 0.516329
O O8 0.291405 0.000000 0.646967
O O9 0.054140 0.666764 0.816609
O O10 0.902312 0.658930 0.968348
O O11 0.313582 0.000000 0.256216
O O12 0.308484 0.794188 0.145458
O O13 0.269324 0.000000 0.058795
O O14 0.250000 0.750000 0.000000
O O15 0.062609 0.500000 0.602567
O O16 0.000000 0.649414 0.500000
#
# Coordination Sequence:
#
# PCOD9214153 Si02
#       7
#     2   8   8   8   8   8   8
#     4  12  24  44  66  84 122 168 206 252 296 372
#     4  11  22  36  61  95 122 154 207 255 300 358
#     4  10  22  39  63  92 125 162 201 246 304 367
#     4  12  25  42  64  86 123 164 205 248 308 360
#     4  11  24  41  61  87 120 159 203 252 305 361
#     4  11  25  41  62  89 120 154 200 253 304 361
#     4   8  17  36  59  87 123 160 197 245 305 363
#
# _framework density 22.620805000000001
#
# number of rings (size 3 to 8) (size 9 to 14) (size 15 to 20)
#    0.000    1.440    2.400    3.360    2.240   10.560 
#    0.000    0.800    0.000    0.000    0.000    0.000 
#    0.000    0.000    0.000    0.000    0.000    0.000 
#
# Total GULP energy -139552.819543 kJ/mol
# GULP energy per Si atom -5582.112782 kJ/mol
# Density = 2.256932 g / cm^3
# Si number density = 22.620805 Si / 1000 Ang^3
#
#
#
# Elastic Constant Matrix: (Units=GPa)
#
#
# Indices 1 2 3 4 5 6 
#
# 1 60.7606 11.6247 15.3417 0.0000 -11.5353 0.0000
# 2 11.6247 102.3301 37.4551 0.0000 -6.1590 0.0000
# 3 15.3417 37.4551 105.5139 0.0000 -16.5972 0.0000
# 4 0.0000 0.0000 0.0000 30.3842 0.0000 4.0887
# 5 -11.5353 -6.1590 -16.5972 0.0000 47.0651 0.0000
# 6 0.0000 0.0000 0.0000 4.0887 0.0000 -19.5065
#
#
#
# Elastic Compliance Matrix: (Units=1/GPa)
#
#
# Indices 1 2 3 4 5 6 
#
# 1 0.017782 -0.001223 -0.001579 0.000000 0.003642 0.000000
# 2 -0.001223 0.011316 -0.003868 0.000000 -0.000183 0.000000
# 3 -0.001579 -0.003868 0.011582 0.000000 0.003191 0.000000
# 4 0.000000 0.000000 0.000000 0.032009 0.000000 0.006709
# 5 0.003642 -0.000183 0.003191 0.000000 0.023241 0.000000
# 6 0.000000 0.000000 0.000000 0.006709 0.000000 -0.049859
#
#
# Mechanical properties :
#
#
# Convention : Reuss Voigt Hill
#
# Bulk Modulus (GPa) = 36.57521 44.16082 40.36801
# Shear Modulus (GPa) = 72.96726 25.20076 49.08401
#
# Velocity S-wave (km/s) = 5.68566 3.34136 4.66323
# Velocity P-wave (km/s) = 7.70105 5.86949 6.84679
#
# Compressibility (1/GPa) = 0.02734092
#
# Stress axis : x y z
#
# Youngs Moduli (GPa) = 56.23688 88.37086 86.34147
#
# Poissons Ratio (x) = 0.10808 0.13629
# Poissons Ratio (y) = 0.06878 0.33396
# Poissons Ratio (z) = 0.08877 0.34180
#
# Static dielectric constant tensor:
#      x y z
#    x 1.922040 0.000000 -0.031000 
#    y 0.000000 1.776100 0.000000 
#    z -0.031000 0.000000 1.840760 
# 
# From -- ./inp_files/274905.got.cif
#   From: 2010.05.17/outbox.cif.g08.bks.cpg/sg12_138_cif.got.tgz:274905.got - 2010.06.03 13:09:07.
