data_PCOD9214075
_publ_section_title
;
Structure prediction by ZEFSAII (Michael W. Deem and Ramdas Pophale) SiO2 
 PCOD9214075
Probable space group: C 2/M
;
_chemical_formula_sum "Si O2"
_cell_formula_units_Z 34
_cell_length_a 10.236980
_cell_length_b 26.650485
_cell_length_c 8.175177
_cell_angle_alpha 90.000000
_cell_angle_beta 45.218477
_cell_angle_gamma 90.000000
_cell_volume 1583.101887
_symmetry_space_group_name_H-M "C 2/M"
_symmetry_group_IT_number 12
_symmetry_cell_setting 'monoclinic'
loop_
_space_group_symop_operation_xyz
x,y,z
-x,y,-z
-x,-y,-z
x,-y,z
1/2+x,1/2+y,z
1/2-x,1/2+y,-z
1/2-x,1/2-y,-z
1/2+x,1/2-y,z
loop_
_atom_site_type_symbol
_atom_site_label
_atom_site_fract_x
_atom_site_fract_y
_atom_site_fract_z
Si Si1 0.069329 0.132168 0.760017
Si Si2 0.045647 0.758203 0.262558
Si Si3 0.257909 0.097212 0.133872
Si Si4 0.082297 0.350877 0.695567
Si Si5 0.000000 0.500000 0.000000
O O1 0.023848 0.189647 0.751326
O O2 0.287809 0.127420 0.558619
O O3 0.951025 0.098509 0.739429
O O4 0.000000 0.121193 0.000000
O O5 0.000000 0.760134 0.500000
O O6 0.941317 0.708263 0.296262
O O7 0.250000 0.750000 0.000000
O O8 0.387171 0.121742 0.879431
O O9 0.301679 0.134966 0.244539
O O10 0.344634 0.044320 0.104041
#
# Coordination Sequence:
#
# PCOD9214075 Si02
#       5
#     8   8   8   8   2
#     4  12  25  38  62  94 136 175 216 269 323 397
#     4  12  24  39  62  95 139 185 226 267 321 398
#     4  10  22  43  68  93 124 162 230 267 345 389
#     4  10  22  39  62  89 128 171 214 271 311 390
#     4   8  20  44  76  94 118 168 210 302 334 412
#
# _framework density 21.476825000000002
#
# number of rings (size 3 to 8) (size 9 to 14) (size 15 to 20)
#    0.000    1.412    2.353    4.235    6.588    0.000 
#    0.000   10.000    0.000    5.647    0.000    0.000 
#    0.000    0.000    0.000    0.000    0.000    0.000 
#
# Total GULP energy -94674.978407 kJ/mol
# GULP energy per Si atom -5569.116377 kJ/mol
# Density = 2.142794 g / cm^3
# Si number density = 21.476825 Si / 1000 Ang^3
#
#
#
# Elastic Constant Matrix: (Units=GPa)
#
#
# Indices 1 2 3 4 5 6 
#
# 1 57.2475 27.6945 10.5209 0.0000 4.4305 0.0000
# 2 27.6945 101.7755 -16.9317 0.0000 -0.3178 0.0000
# 3 10.5209 -16.9317 123.1298 0.0000 -4.4871 0.0000
# 4 0.0000 0.0000 0.0000 -3.0015 0.0000 -5.0314
# 5 4.4305 -0.3178 -4.4871 0.0000 40.7436 0.0000
# 6 0.0000 0.0000 0.0000 -5.0314 0.0000 17.3563
#
#
#
# Elastic Compliance Matrix: (Units=1/GPa)
#
#
# Indices 1 2 3 4 5 6 
#
# 1 0.021199 -0.006237 -0.002766 0.000000 -0.002659 0.000000
# 2 -0.006237 0.011893 0.002205 0.000000 0.001014 0.000000
# 3 -0.002766 0.002205 0.008708 0.000000 0.001277 0.000000
# 4 0.000000 0.000000 0.000000 -0.224214 0.000000 -0.064997
# 5 -0.002659 0.001014 0.001277 0.000000 0.024981 0.000000
# 6 0.000000 0.000000 0.000000 -0.064997 0.000000 0.038774
#
#
# Mechanical properties :
#
#
# Convention : Reuss Voigt Hill
#
# Bulk Modulus (GPa) = 35.45561 36.08000 35.76781
# Shear Modulus (GPa) = -52.26733 28.41095 -11.92819
#
# Velocity S-wave (km/s) = -4.93857 3.64107 -2.35925
# Velocity P-wave (km/s) = 3.99683 5.87473 3.04449
#
# Compressibility (1/GPa) = 0.02820428
#
# Stress axis : x y z
#
# Youngs Moduli (GPa) = 47.17122 84.08466 114.84176
#
# Poissons Ratio (x) = 0.52444 0.31765
# Poissons Ratio (y) = 0.29421 -0.25326
# Poissons Ratio (z) = 0.13047 -0.18543
#
# Static dielectric constant tensor:
#      x y z
#    x 1.801840 0.000000 -0.011900 
#    y 0.000000 1.692550 0.000000 
#    z -0.011900 0.000000 1.871620 
# 
# From -- ./inp_files/52221.got.cif
#   From: 2010.05.17/outbox.cif.g08.bks.cpg/sg12_27_cif.got.tgz:52221.got - 2010.06.03 13:09:07.
