data_PCOD9214345
_publ_section_title
;
Structure prediction by ZEFSAII (Michael W. Deem and Ramdas Pophale) SiO2 
 PCOD9214345
Probable space group: C 2/M
;
_chemical_formula_sum "Si O2"
_cell_formula_units_Z 52
_cell_length_a 5.201694
_cell_length_b 23.299030
_cell_length_c 30.403881
_cell_angle_alpha 90.000000
_cell_angle_beta 60.172485
_cell_angle_gamma 90.000000
_cell_volume 3196.645755
_symmetry_space_group_name_H-M "C 2/M"
_symmetry_group_IT_number 12
_symmetry_cell_setting 'monoclinic'
loop_
_space_group_symop_operation_xyz
x,y,z
-x,y,-z
-x,-y,-z
x,-y,z
1/2+x,1/2+y,z
1/2-x,1/2+y,-z
1/2-x,1/2-y,-z
1/2+x,1/2-y,z
loop_
_atom_site_type_symbol
_atom_site_label
_atom_site_fract_x
_atom_site_fract_y
_atom_site_fract_z
Si Si1 0.660638 0.930050 0.031130
Si Si2 0.185546 0.401324 0.383974
Si Si3 0.686018 0.786052 0.439912
Si Si4 0.375595 0.067894 0.322670
Si Si5 0.907515 0.430211 0.792170
Si Si6 0.146923 0.500000 0.535217
Si Si7 0.229973 0.430028 0.852681
O O1 0.481972 0.911222 0.089531
O O2 0.661808 0.000000 0.032207
O O3 0.500000 0.912817 0.000000
O O4 0.000000 0.911208 0.000000
O O5 0.197294 0.340982 0.407889
O O6 0.521366 0.425034 0.355380
O O7 0.048860 0.399618 0.346686
O O8 0.971807 0.444684 0.428564
O O9 0.500000 0.799914 0.500000
O O10 0.501966 0.736873 0.429880
O O11 0.481364 0.087201 0.265397
O O12 0.447304 0.000000 0.321762
O O13 0.914668 0.500000 0.791452
O O14 0.569642 0.412540 0.829500
O O15 0.110007 0.411270 0.815465
O O16 0.500000 0.500000 0.500000
O O17 0.000000 0.500000 0.500000
O O18 0.226039 0.500000 0.853333
#
# Coordination Sequence:
#
# PCOD9214345 Si02
#       7
#     8   8   8   8   8   4   8
#     4   9  15  21  30  44  65  93 130 184 239 278
#     4  12  22  37  55  76 102 128 156 196 239 289
#     4  10  22  40  59  77  97 126 162 196 233 279
#     4  11  20  34  49  72 100 126 155 189 243 294
#     4   9  17  26  40  55  78 111 143 181 221 280
#     4  12  24  36  52  76 104 128 152 182 232 294
#     4   9  15  24  34  50  70 101 144 182 229 279
#
# _framework density 16.267052
#
# number of rings (size 3 to 8) (size 9 to 14) (size 15 to 20)
#    0.000    1.846    1.538    4.154    0.000    8.000 
#    0.000    0.000    0.000    0.000    0.000    0.000 
#    0.000    0.000    0.000    0.000    0.000    0.000 
#
# Total GULP energy -145058.399493 kJ/mol
# GULP energy per Si atom -5579.169211 kJ/mol
# Density = 1.623003 g / cm^3
# Si number density = 16.267052 Si / 1000 Ang^3
#
#
#
# Elastic Constant Matrix: (Units=GPa)
#
#
# Indices 1 2 3 4 5 6 
#
# 1 75.4837 -3.7525 5.6010 0.0000 8.2865 0.0000
# 2 -3.7525 23.5186 15.7572 0.0000 3.3444 0.0000
# 3 5.6010 15.7572 70.0981 0.0000 9.5863 0.0000
# 4 0.0000 0.0000 0.0000 4.5926 0.0000 5.5282
# 5 8.2865 3.3444 9.5863 0.0000 33.2106 0.0000
# 6 0.0000 0.0000 0.0000 5.5282 0.0000 12.6009
#
#
#
# Elastic Compliance Matrix: (Units=1/GPa)
#
#
# Indices 1 2 3 4 5 6 
#
# 1 0.013916 0.003695 -0.001475 0.000000 -0.003419 0.000000
# 2 0.003695 0.051151 -0.011413 0.000000 -0.002778 0.000000
# 3 -0.001475 -0.011413 0.017430 0.000000 -0.003514 0.000000
# 4 0.000000 0.000000 0.000000 0.461403 0.000000 -0.202426
# 5 -0.003419 -0.002778 -0.003514 0.000000 0.032258 0.000000
# 6 0.000000 0.000000 0.000000 -0.202426 0.000000 0.168167
#
#
# Mechanical properties :
#
#
# Convention : Reuss Voigt Hill
#
# Bulk Modulus (GPa) = 15.59825 22.70131 19.14978
# Shear Modulus (GPa) = 6.37689 20.18049 13.27869
#
# Velocity S-wave (km/s) = 1.98208 3.52600 2.86018
# Velocity P-wave (km/s) = 3.85329 5.52834 4.76500
#
# Compressibility (1/GPa) = 0.06410975
#
# Stress axis : x y z
#
# Youngs Moduli (GPa) = 71.85820 19.55000 57.37340
#
# Poissons Ratio (x) = -0.07223 0.08462
# Poissons Ratio (y) = -0.26550 0.65482
# Poissons Ratio (z) = 0.10599 0.22313
#
# Static dielectric constant tensor:
#      x y z
#    x 1.541220 0.000000 0.004110 
#    y 0.000000 1.523410 0.000000 
#    z 0.004110 0.000000 1.548180 
# 
# From -- ./inp_files/355098.got.cif
#   From: 2010.05.17/outbox.cif.g08.bks.cpg/sg12_178_cif.got.tgz:355098.got - 2010.06.03 13:09:07.
