data_PCOD9214473
_publ_section_title
;
Structure prediction by ZEFSAII (Michael W. Deem and Ramdas Pophale) SiO2 
 PCOD9214473
Probable space group: C 2/M
;
_chemical_formula_sum "Si O2"
_cell_formula_units_Z 64
_cell_length_a 16.588441
_cell_length_b 8.879444
_cell_length_c 23.857241
_cell_angle_alpha 90.000000
_cell_angle_beta 90.493850
_cell_angle_gamma 90.000000
_cell_volume 3513.948807
_symmetry_space_group_name_H-M "C 2/M"
_symmetry_group_IT_number 12
_symmetry_cell_setting 'monoclinic'
loop_
_space_group_symop_operation_xyz
x,y,z
-x,y,-z
-x,-y,-z
x,-y,z
1/2+x,1/2+y,z
1/2-x,1/2+y,-z
1/2-x,1/2-y,-z
1/2+x,1/2-y,z
loop_
_atom_site_type_symbol
_atom_site_label
_atom_site_fract_x
_atom_site_fract_y
_atom_site_fract_z
Si Si1 0.742369 0.178856 0.060660
Si Si2 0.339620 0.179951 0.625320
Si Si3 0.495730 0.680938 0.565765
Si Si4 0.662796 0.323225 0.833567
Si Si5 0.826099 0.821229 0.838421
Si Si6 0.160139 0.818348 0.630907
Si Si7 0.583469 0.821866 0.733755
Si Si8 0.085951 0.178392 0.270571
O O1 0.822702 0.203799 0.099845
O O2 0.672791 0.255852 0.098573
O O3 0.729595 0.000000 0.057685
O O4 0.750000 0.250000 0.000000
O O5 0.414805 0.248668 0.591635
O O6 0.248198 0.221249 0.606560
O O7 0.351347 0.239608 0.688700
O O8 0.346459 0.000000 0.624029
O O9 0.500000 0.716226 0.500000
O O10 0.489734 0.500000 0.572415
O O11 0.580848 0.727480 0.594871
O O12 0.649345 0.500000 0.824401
O O13 0.750116 0.268369 0.812402
O O14 0.600749 0.227938 0.797578
O O15 0.897316 0.796587 0.795247
O O16 0.809538 0.000000 0.840818
O O17 0.149650 0.743438 0.691691
O O18 0.158040 0.000000 0.636804
O O19 0.500623 0.744085 0.715343
O O20 0.578865 0.000000 0.729200
O O21 0.088999 0.000000 0.280802
#
# Coordination Sequence:
#
# PCOD9214473 Si02
#       8
#     8   8   8   8   8   8   8   8
#     4   9  18  31  53  79 110 149 190 240 292 346
#     4  11  23  38  60  90 120 157 201 249 301 355
#     4  10  22  42  65  88 119 163 208 247 296 360
#     4   9  19  33  51  77 109 146 184 231 288 341
#     4   9  18  32  52  79 108 142 189 235 284 345
#     4  10  22  40  61  86 123 161 195 245 306 359
#     4  12  23  34  55  84 115 151 194 243 294 355
#     4  11  22  36  55  80 116 155 189 239 301 358
#
# _framework density 18.213128000000001
#
# number of rings (size 3 to 8) (size 9 to 14) (size 15 to 20)
#    0.750    1.125    1.250    3.375    0.000    5.750 
#    0.000    0.000    0.000    0.750    0.000    5.250 
#    0.000    0.000    0.000    0.000    0.000    0.000 
#
# Total GULP energy -178196.783782 kJ/mol
# GULP energy per Si atom -5568.649493 kJ/mol
# Density = 1.817167 g / cm^3
# Si number density = 18.213128 Si / 1000 Ang^3
#
#
#
# Elastic Constant Matrix: (Units=GPa)
#
#
# Indices 1 2 3 4 5 6 
#
# 1 97.4621 16.4159 42.8761 0.0000 -11.7612 0.0000
# 2 16.4159 24.2188 33.7208 0.0000 -15.4543 0.0000
# 3 42.8761 33.7208 112.1539 0.0000 -11.1652 0.0000
# 4 0.0000 0.0000 0.0000 25.9449 0.0000 -1.7851
# 5 -11.7612 -15.4543 -11.1652 0.0000 19.2178 0.0000
# 6 0.0000 0.0000 0.0000 -1.7851 0.0000 22.2977
#
#
#
# Elastic Compliance Matrix: (Units=1/GPa)
#
#
# Indices 1 2 3 4 5 6 
#
# 1 0.012886 0.003183 -0.005141 0.000000 0.007459 0.000000
# 2 0.003183 0.167519 -0.040311 0.000000 0.113241 0.000000
# 3 -0.005141 -0.040311 0.020656 0.000000 -0.023562 0.000000
# 4 0.000000 0.000000 0.000000 0.038757 0.000000 0.003103
# 5 0.007459 0.113241 -0.023562 0.000000 0.133976 0.000000
# 6 0.000000 0.000000 0.000000 0.003103 0.000000 0.045096
#
#
# Mechanical properties :
#
#
# Convention : Reuss Voigt Hill
#
# Bulk Modulus (GPa) = 8.58188 46.65117 27.61652
# Shear Modulus (GPa) = 9.22054 22.88022 16.05038
#
# Velocity S-wave (km/s) = 2.25246 3.54821 2.97181
# Velocity P-wave (km/s) = 3.38923 6.51583 5.19340
#
# Compressibility (1/GPa) = 0.11652460
#
# Stress axis : x y z
#
# Youngs Moduli (GPa) = 77.60401 5.96946 48.41194
#
# Poissons Ratio (x) = -0.01900 0.24887
# Poissons Ratio (y) = -0.24703 1.95152
# Poissons Ratio (z) = 0.39894 0.24063
#
# Static dielectric constant tensor:
#      x y z
#    x 1.674420 0.000000 0.023570 
#    y 0.000000 1.600890 0.000000 
#    z 0.023570 0.000000 1.650270 
# 
# From -- ./inp_files/338758.got.cif
#   From: 2010.05.17/outbox.cif.g08.bks.cpg/sg12_170_cif.got.tgz:338758.got - 2010.06.03 13:09:07.
