data_PCOD9214804
_publ_section_title
;
Structure prediction by ZEFSAII (Michael W. Deem and Ramdas Pophale) SiO2 
 PCOD9214804
Probable space group: C 2/M
;
_chemical_formula_sum "Si O2"
_cell_formula_units_Z 64
_cell_length_a 32.440100
_cell_length_b 13.806321
_cell_length_c 23.764822
_cell_angle_alpha 90.000000
_cell_angle_beta 16.895519
_cell_angle_gamma 90.000000
_cell_volume 3093.365350
_symmetry_space_group_name_H-M "C 2/M"
_symmetry_group_IT_number 12
_symmetry_cell_setting 'monoclinic'
loop_
_space_group_symop_operation_xyz
x,y,z
-x,y,-z
-x,-y,-z
x,-y,z
1/2+x,1/2+y,z
1/2-x,1/2+y,-z
1/2-x,1/2-y,-z
1/2+x,1/2-y,z
loop_
_atom_site_type_symbol
_atom_site_label
_atom_site_fract_x
_atom_site_fract_y
_atom_site_fract_z
Si Si1 0.457559 0.617004 0.812478
Si Si2 0.860576 0.615863 0.800420
Si Si3 0.324091 0.615111 0.375830
Si Si4 0.992098 0.614820 0.162701
Si Si5 0.082152 0.739900 0.838762
Si Si6 0.002227 0.786479 0.430449
Si Si7 0.666971 0.615881 0.438761
Si Si8 0.796401 0.383913 0.012108
O O1 0.457707 0.500000 0.813201
O O2 0.552646 0.646510 0.741463
O O3 0.539897 0.643462 0.647926
O O4 0.293110 0.644858 0.024810
O O5 0.877309 0.500000 0.773500
O O6 0.981594 0.676264 0.611568
O O7 0.853488 0.641890 0.875716
O O8 0.337939 0.500000 0.347154
O O9 0.171434 0.629618 0.604332
O O10 0.341053 0.676959 0.297441
O O11 0.009546 0.500000 0.127421
O O12 0.015279 0.680633 0.077931
O O13 0.093531 0.640022 0.082266
O O14 0.193836 0.662364 0.716633
O O15 0.000000 0.779741 0.000000
O O16 0.144229 0.838969 0.222917
O O17 0.000000 0.792663 0.500000
O O18 0.872208 0.839277 0.570031
O O19 0.676958 0.500000 0.423173
O O20 0.779069 0.500000 0.034136
#
# Coordination Sequence:
#
# PCOD9214804 Si02
#       8
#     8   8   8   8   8   8   8   8
#     4   9  18  37  66  93 115 155 211 260 306 351
#     4  10  22  41  66  93 124 162 211 263 306 359
#     4  10  22  41  66  93 124 162 211 263 306 359
#     4  10  22  40  64  94 123 159 208 265 318 360
#     4  12  27  40  61  93 129 168 207 244 313 379
#     4  12  27  40  61  93 129 168 207 244 313 379
#     4  11  24  43  65  93 125 161 208 256 309 373
#     4  10  22  40  64  94 123 159 208 265 318 360
#
# _framework density 20.689442
#
# number of rings (size 3 to 8) (size 9 to 14) (size 15 to 20)
#    0.000    1.500    2.500    1.500    5.250    2.500 
#    0.000    0.000    0.000    0.000    0.000    0.000 
#    0.000    0.000    0.000    0.000    0.000    0.000 
#
# Total GULP energy -179027.531646 kJ/mol
# GULP energy per Si atom -5594.610364 kJ/mol
# Density = 2.064235 g / cm^3
# Si number density = 20.689442 Si / 1000 Ang^3
#
#
#
# Elastic Constant Matrix: (Units=GPa)
#
#
# Indices 1 2 3 4 5 6 
#
# 1 139.7813 44.1522 21.6260 0.0001 2.7578 0.0000
# 2 44.1522 78.7551 16.0592 -0.0005 2.8250 0.0004
# 3 21.6260 16.0592 21.2198 -0.0002 4.8168 0.0003
# 4 0.0001 -0.0005 -0.0002 5.7128 0.0004 -5.2761
# 5 2.7578 2.8250 4.8168 0.0004 35.3327 -0.0004
# 6 0.0000 0.0004 0.0003 -5.2761 -0.0004 32.3996
#
#
#
# Elastic Compliance Matrix: (Units=1/GPa)
#
#
# Indices 1 2 3 4 5 6 
#
# 1 0.009429 -0.003928 -0.006750 -0.000001 0.000498 0.000000
# 2 -0.003928 0.016655 -0.008636 0.000001 0.000152 0.000000
# 3 -0.006750 -0.008636 0.062190 0.000002 -0.007261 0.000000
# 4 -0.000001 0.000001 0.000002 0.206031 -0.000002 0.033551
# 5 0.000498 0.000152 -0.007261 -0.000002 0.029241 0.000000
# 6 0.000000 0.000000 0.000000 0.033551 0.000000 0.036328
#
#
# Mechanical properties :
#
#
# Convention : Reuss Voigt Hill
#
# Bulk Modulus (GPa) = 20.14294 44.82566 32.48430
# Shear Modulus (GPa) = 12.04669 25.21695 18.63182
#
# Velocity S-wave (km/s) = 2.41563 3.49496 3.00417
# Velocity P-wave (km/s) = 4.18776 6.16436 5.26957
#
# Compressibility (1/GPa) = 0.04964518
#
# Stress axis : x y z
#
# Youngs Moduli (GPa) = 106.05390 60.04142 16.07982
#
# Poissons Ratio (x) = 0.23582 0.10854
# Poissons Ratio (y) = 0.41654 0.13887
# Poissons Ratio (z) = 0.71590 0.51855
#
# Static dielectric constant tensor:
#      x y z
#    x 1.728970 0.000000 -0.011160 
#    y 0.000000 1.761950 0.000000 
#    z -0.011160 0.000000 1.717200 
# 
# From -- ./inp_files/330359.got.cif
#   From: 2010.05.17/outbox.cif.g08.bks.cpg/sg12_166_cif.got.tgz:330359.got - 2010.06.03 13:09:07.
