data_PCOD9214102
_publ_section_title
;
Structure prediction by ZEFSAII (Michael W. Deem and Ramdas Pophale) SiO2 
 PCOD9214102
Probable space group: C 2/M
;
_chemical_formula_sum "Si O2"
_cell_formula_units_Z 64
_cell_length_a 15.545724
_cell_length_b 21.063889
_cell_length_c 14.891260
_cell_angle_alpha 90.000000
_cell_angle_beta 141.548273
_cell_angle_gamma 90.000000
_cell_volume 3032.285735
_symmetry_space_group_name_H-M "C 2/M"
_symmetry_group_IT_number 12
_symmetry_cell_setting 'monoclinic'
loop_
_space_group_symop_operation_xyz
x,y,z
-x,y,-z
-x,-y,-z
x,-y,z
1/2+x,1/2+y,z
1/2-x,1/2+y,-z
1/2-x,1/2-y,-z
1/2+x,1/2-y,z
loop_
_atom_site_type_symbol
_atom_site_label
_atom_site_fract_x
_atom_site_fract_y
_atom_site_fract_z
Si Si1 0.237280 0.243378 0.595483
Si Si2 0.848144 0.865408 0.355203
Si Si3 0.537645 0.712181 0.872861
Si Si4 0.996070 0.649899 0.591034
Si Si5 0.925667 0.071759 0.036483
Si Si6 0.308197 0.251513 0.185573
Si Si7 0.109359 0.573354 0.832277
Si Si8 0.869992 0.424692 0.946661
O O1 0.250000 0.250000 0.500000
O O2 0.203912 0.171655 0.598730
O O3 0.383816 0.262037 0.757986
O O4 0.118282 0.295419 0.516930
O O5 0.846351 0.807002 0.283988
O O6 0.754989 0.914164 0.224369
O O7 0.000000 0.890104 0.500000
O O8 0.532852 0.635455 0.875995
O O9 0.604046 0.734375 0.832599
O O10 0.647643 0.741100 0.032915
O O11 0.000000 0.612816 0.500000
O O12 0.136596 0.687765 0.725155
O O13 0.992130 0.608295 0.677978
O O14 0.960475 0.000000 0.100057
O O15 0.757852 0.074135 0.902673
O O16 0.000000 0.076543 0.000000
O O17 0.068903 0.500000 0.807303
O O18 0.136678 0.600263 0.955788
O O19 0.887741 0.500000 0.971040
O O20 0.000000 0.396247 0.000000
#
# Coordination Sequence:
#
# PCOD9214102 Si02
#       8
#     8   8   8   8   8   8   8   8
#     4  12  25  39  58  97 137 169 209 275 338 399
#     4  12  24  41  64  96 135 172 217 272 341 405
#     4  11  24  37  65  92 125 175 225 269 336 399
#     4  12  23  43  62  91 138 173 209 273 344 400
#     4  10  22  39  62  93 128 169 225 284 328 392
#     4  11  22  41  60  94 128 170 219 270 326 408
#     4  10  23  45  70  95 131 180 232 282 336 404
#     4  10  25  46  72 102 132 176 233 285 335 406
#
# _framework density 21.106190999999999
#
# number of rings (size 3 to 8) (size 9 to 14) (size 15 to 20)
#    0.000    1.000    5.000    0.750    8.750    0.500 
#    0.000    0.625    0.000    2.250    0.000    0.000 
#    0.000    0.000    0.000    0.000    0.000    0.000 
#
# Total GULP energy -178466.539817 kJ/mol
# GULP energy per Si atom -5577.079369 kJ/mol
# Density = 2.105815 g / cm^3
# Si number density = 21.106191 Si / 1000 Ang^3
#
#
#
# Elastic Constant Matrix: (Units=GPa)
#
#
# Indices 1 2 3 4 5 6 
#
# 1 89.6672 15.3666 48.4917 0.0000 -20.7379 0.0000
# 2 15.3666 40.7454 16.2876 0.0000 -4.9199 0.0000
# 3 48.4917 16.2876 132.3393 0.0000 -0.0742 0.0000
# 4 0.0000 0.0000 0.0000 -19.0284 0.0000 -24.4545
# 5 -20.7379 -4.9199 -0.0742 0.0000 39.1073 0.0000
# 6 0.0000 0.0000 0.0000 -24.4545 0.0000 4.3968
#
#
#
# Elastic Compliance Matrix: (Units=1/GPa)
#
#
# Indices 1 2 3 4 5 6 
#
# 1 0.016745 -0.002986 -0.005764 0.000000 0.008493 0.000000
# 2 -0.002986 0.026762 -0.002199 0.000000 0.001779 0.000000
# 3 -0.005764 -0.002199 0.009937 0.000000 -0.003314 0.000000
# 4 0.000000 0.000000 0.000000 -0.006450 0.000000 -0.035874
# 5 0.008493 0.001779 -0.003314 0.000000 0.030292 0.000000
# 6 0.000000 0.000000 0.000000 -0.035874 0.000000 0.027914
#
#
# Mechanical properties :
#
#
# Convention : Reuss Voigt Hill
#
# Bulk Modulus (GPa) = 31.69720 47.00485 39.35103
# Shear Modulus (GPa) = 36.33386 17.06887 26.70136
#
# Velocity S-wave (km/s) = 4.15357 2.84687 3.56068
# Velocity P-wave (km/s) = 6.16875 5.75545 5.96568
#
# Compressibility (1/GPa) = 0.03154853
#
# Stress axis : x y z
#
# Youngs Moduli (GPa) = 59.71869 37.36573 100.63449
#
# Poissons Ratio (x) = 0.11157 0.58001
# Poissons Ratio (y) = 0.17831 0.22127
# Poissons Ratio (z) = 0.34419 0.08216
#
# Static dielectric constant tensor:
#      x y z
#    x 1.850480 0.000000 -0.022300 
#    y 0.000000 1.928580 0.000000 
#    z -0.022300 0.000000 1.779520 
# 
# From -- ./inp_files/218514.got.cif
#   From: 2010.05.17/outbox.cif.g08.bks.cpg/sg12_110_cif.got.tgz:218514.got - 2010.06.03 13:09:07.
