data_PCOD9214506
_publ_section_title
;
Structure prediction by ZEFSAII (Michael W. Deem and Ramdas Pophale) SiO2 
 PCOD9214506
Probable space group: C 2/M
;
_chemical_formula_sum "Si O2"
_cell_formula_units_Z 48
_cell_length_a 19.169788
_cell_length_b 8.782940
_cell_length_c 30.101019
_cell_angle_alpha 90.000000
_cell_angle_beta 29.984826
_cell_angle_gamma 90.000000
_cell_volume 2532.848141
_symmetry_space_group_name_H-M "C 2/M"
_symmetry_group_IT_number 12
_symmetry_cell_setting 'monoclinic'
loop_
_space_group_symop_operation_xyz
x,y,z
-x,y,-z
-x,-y,-z
x,-y,z
1/2+x,1/2+y,z
1/2-x,1/2+y,-z
1/2-x,1/2-y,-z
1/2+x,1/2-y,z
loop_
_atom_site_type_symbol
_atom_site_label
_atom_site_fract_x
_atom_site_fract_y
_atom_site_fract_z
Si Si1 0.905955 0.184259 0.916646
Si Si2 0.609901 0.182228 0.250821
Si Si3 0.858898 0.175903 0.558216
Si Si4 0.605970 0.326466 0.566167
Si Si5 0.430093 0.685465 0.084787
Si Si6 0.055727 0.182434 0.741675
O O1 0.986362 0.234829 0.917226
O O2 0.991676 0.226749 0.824906
O O3 0.897352 0.000000 0.922558
O O4 0.750000 0.250000 0.000000
O O5 0.517801 0.233125 0.343385
O O6 0.768642 0.232310 0.171677
O O7 0.539609 0.251596 0.245443
O O8 0.607164 0.000000 0.247782
O O9 0.889184 0.171881 0.489298
O O10 0.713681 0.257933 0.648681
O O11 0.000000 0.246661 0.500000
O O12 0.846315 0.000000 0.581096
O O13 0.598658 0.500000 0.586824
O O14 0.750000 0.250000 0.500000
O O15 0.432295 0.500000 0.084320
O O16 0.500000 0.734630 0.000000
O O17 0.055633 0.000000 0.738906
#
# Coordination Sequence:
#
# PCOD9214506 Si02
#       6
#     8   8   8   8   8   8
#     4  10  22  40  61  89 119 152 193 238 293 353
#     4  11  22  37  62  88 116 157 201 244 293 350
#     4  10  23  41  60  84 117 159 203 242 289 351
#     4  11  22  38  60  87 120 157 198 244 291 346
#     4   9  19  37  61  87 115 150 194 240 287 348
#     4  11  23  38  59  87 121 156 195 246 297 349
#
# _framework density 18.951000000000001
#
# number of rings (size 3 to 8) (size 9 to 14) (size 15 to 20)
#    0.000    1.667    1.667    2.500    2.333    3.667 
#    0.000    1.667    0.000    4.500    0.000    0.000 
#    0.000    0.000    0.000    0.000    0.000    0.000 
#
# Total GULP energy -134011.107259 kJ/mol
# GULP energy per Si atom -5583.796136 kJ/mol
# Density = 1.890787 g / cm^3
# Si number density = 18.951000 Si / 1000 Ang^3
#
#
#
# Elastic Constant Matrix: (Units=GPa)
#
#
# Indices 1 2 3 4 5 6 
#
# 1 138.4408 36.6338 100.8518 0.0000 -19.3558 -0.0003
# 2 36.6338 42.6102 38.5049 0.0002 -4.8997 -0.0007
# 3 100.8518 38.5049 199.4638 0.0001 -12.7458 0.0000
# 4 0.0000 0.0002 0.0001 29.0233 0.0000 0.8138
# 5 -19.3558 -4.8997 -12.7458 0.0000 39.5177 0.0001
# 6 -0.0003 -0.0007 0.0000 0.8138 0.0001 13.2067
#
#
#
# Elastic Compliance Matrix: (Units=1/GPa)
#
#
# Indices 1 2 3 4 5 6 
#
# 1 0.013244 -0.006183 -0.005245 0.000000 0.004028 0.000000
# 2 -0.006183 0.031439 -0.002948 0.000000 -0.000081 0.000002
# 3 -0.005245 -0.002948 0.008216 0.000000 -0.000285 0.000000
# 4 0.000000 0.000000 0.000000 0.034515 0.000000 -0.002127
# 5 0.004028 -0.000081 -0.000285 0.000000 0.027176 0.000000
# 6 0.000000 0.000002 0.000000 -0.002127 0.000000 0.075850
#
#
# Mechanical properties :
#
#
# Convention : Reuss Voigt Hill
#
# Bulk Modulus (GPa) = 41.41372 81.38840 61.40106
# Shear Modulus (GPa) = 22.00295 29.98449 25.99372
#
# Velocity S-wave (km/s) = 3.41111 3.98202 3.70757
# Velocity P-wave (km/s) = 6.11676 8.01136 7.12729
#
# Compressibility (1/GPa) = 0.02414659
#
# Stress axis : x y z
#
# Youngs Moduli (GPa) = 75.50742 31.80753 121.70794
#
# Poissons Ratio (x) = 0.19667 0.63838
# Poissons Ratio (y) = 0.46687 0.35879
# Poissons Ratio (z) = 0.39605 0.09377
#
# Static dielectric constant tensor:
#      x y z
#    x 1.642700 0.000000 -0.010190 
#    y 0.000000 1.658610 0.000000 
#    z -0.010190 0.000000 1.625940 
# 
# From -- ./inp_files/295353.got.cif
#   From: 2010.05.17/outbox.cif.g08.bks.cpg/sg12_148_cif.got.tgz:295353.got - 2010.06.03 13:09:07.
