data_PCOD9214213
_publ_section_title
;
Structure prediction by ZEFSAII (Michael W. Deem and Ramdas Pophale) SiO2 
 PCOD9214213
Probable space group: C 2/M
;
_chemical_formula_sum "Si O2"
_cell_formula_units_Z 64
_cell_length_a 24.468704
_cell_length_b 21.126332
_cell_length_c 17.813269
_cell_angle_alpha 90.000000
_cell_angle_beta 160.408216
_cell_angle_gamma 90.000000
_cell_volume 3087.689287
_symmetry_space_group_name_H-M "C 2/M"
_symmetry_group_IT_number 12
_symmetry_cell_setting 'monoclinic'
loop_
_space_group_symop_operation_xyz
x,y,z
-x,y,-z
-x,-y,-z
x,-y,z
1/2+x,1/2+y,z
1/2-x,1/2+y,-z
1/2-x,1/2-y,-z
1/2+x,1/2-y,z
loop_
_atom_site_type_symbol
_atom_site_label
_atom_site_fract_x
_atom_site_fract_y
_atom_site_fract_z
Si Si1 0.652457 0.666086 0.534793
Si Si2 0.460379 0.072016 0.711117
Si Si3 0.851974 0.230151 0.205260
Si Si4 0.112023 0.764852 0.214804
Si Si5 0.752908 0.073617 0.824754
Si Si6 0.002388 0.364676 0.397634
Si Si7 0.378062 0.385596 0.667913
Si Si8 0.365901 0.160945 0.953578
O O1 0.474927 0.675456 0.339441
O O2 0.719796 0.735729 0.597709
O O3 0.645962 0.624505 0.451863
O O4 0.771312 0.644349 0.754942
O O5 0.487691 0.119057 0.676693
O O6 0.271952 0.075343 0.492625
O O7 0.501997 0.000000 0.744925
O O8 0.570128 0.100170 0.919664
O O9 0.744998 0.204500 0.135420
O O10 0.952690 0.293504 0.353678
O O11 0.750000 0.250000 0.000000
O O12 0.130982 0.818125 0.301309
O O13 0.000000 0.787310 0.000000
O O14 0.018089 0.704730 0.127844
O O15 0.639525 0.092327 0.748667
O O16 0.673926 0.115576 0.656499
O O17 0.730813 0.000000 0.778037
O O18 0.941841 0.087731 0.083501
#
# Coordination Sequence:
#
# PCOD9214213 Si02
#       8
#     8   8   8   8   8   8   8   8
#     4  11  24  41  64  96 136 169 211 281 339 394
#     4  12  26  45  68  95 133 182 232 275 327 393
#     4  12  23  40  69 105 133 164 210 279 344 404
#     4  10  22  39  64  95 131 167 209 275 342 397
#     4  11  25  44  65  94 137 180 225 269 323 405
#     4  11  24  43  69  98 133 176 218 274 341 400
#     4  12  25  41  66 100 133 178 224 274 334 396
#     4  11  24  43  66  98 137 169 223 275 336 400
#
# _framework density 20.727474999999998
#
# number of rings (size 3 to 8) (size 9 to 14) (size 15 to 20)
#    0.000    0.750    2.500    5.625    8.750    0.000 
#    0.000    3.125    0.000    1.500    0.000    0.000 
#    0.000    0.000    0.000    0.000    0.000    0.000 
#
# Total GULP energy -179081.232589 kJ/mol
# GULP energy per Si atom -5596.288518 kJ/mol
# Density = 2.068030 g / cm^3
# Si number density = 20.727475 Si / 1000 Ang^3
#
#
#
# Elastic Constant Matrix: (Units=GPa)
#
#
# Indices 1 2 3 4 5 6 
#
# 1 75.9633 10.0006 29.1312 0.0000 -14.2907 0.0000
# 2 10.0006 34.7925 10.6422 0.0000 4.9106 0.0000
# 3 29.1312 10.6422 63.5017 0.0000 5.8379 0.0000
# 4 0.0000 0.0000 0.0000 19.0512 0.0000 2.3263
# 5 -14.2907 4.9106 5.8379 0.0000 30.8920 0.0000
# 6 0.0000 0.0000 0.0000 2.3263 0.0000 19.3226
#
#
#
# Elastic Compliance Matrix: (Units=1/GPa)
#
#
# Indices 1 2 3 4 5 6 
#
# 1 0.019430 -0.004374 -0.009231 0.000000 0.011428 0.000000
# 2 -0.004374 0.031754 -0.002712 0.000000 -0.006559 0.000000
# 3 -0.009231 -0.002712 0.021157 0.000000 -0.007837 0.000000
# 4 0.000000 0.000000 0.000000 0.053273 0.000000 -0.006414
# 5 0.011428 -0.006559 -0.007837 0.000000 0.040181 0.000000
# 6 0.000000 0.000000 0.000000 -0.006414 0.000000 0.052525
#
#
# Mechanical properties :
#
#
# Convention : Reuss Voigt Hill
#
# Bulk Modulus (GPa) = 25.18442 30.42282 27.80362
# Shear Modulus (GPa) = 18.92564 22.15207 20.53886
#
# Velocity S-wave (km/s) = 3.02498 3.27269 3.15127
# Velocity P-wave (km/s) = 4.93734 5.38424 5.16563
#
# Compressibility (1/GPa) = 0.03970710
#
# Stress axis : x y z
#
# Youngs Moduli (GPa) = 51.46661 31.49170 47.26493
#
# Poissons Ratio (x) = 0.13775 0.43630
# Poissons Ratio (y) = 0.22513 0.12818
# Poissons Ratio (z) = 0.47509 0.08541
#
# Static dielectric constant tensor:
#      x y z
#    x 1.760530 0.000000 -0.017380 
#    y 0.000000 1.709000 0.000000 
#    z -0.017380 0.000000 1.758020 
# 
# From -- ./inp_files/290950.got.cif
#   From: 2010.05.17/outbox.cif.g08.bks.cpg/sg12_146_cif.got.tgz:290950.got - 2010.06.03 13:09:07.
