data_PCOD9214262
_publ_section_title
;
Structure prediction by ZEFSAII (Michael W. Deem and Ramdas Pophale) SiO2 
 PCOD9214262
Probable space group: C 2/M
;
_chemical_formula_sum "Si O2"
_cell_formula_units_Z 56
_cell_length_a 10.655972
_cell_length_b 18.514253
_cell_length_c 13.447303
_cell_angle_alpha 90.000000
_cell_angle_beta 61.370140
_cell_angle_gamma 90.000000
_cell_volume 2328.611682
_symmetry_space_group_name_H-M "C 2/M"
_symmetry_group_IT_number 12
_symmetry_cell_setting 'monoclinic'
loop_
_space_group_symop_operation_xyz
x,y,z
-x,y,-z
-x,-y,-z
x,-y,z
1/2+x,1/2+y,z
1/2-x,1/2+y,-z
1/2-x,1/2-y,-z
1/2+x,1/2-y,z
loop_
_atom_site_type_symbol
_atom_site_label
_atom_site_fract_x
_atom_site_fract_y
_atom_site_fract_z
Si Si1 0.030283 0.645924 0.818080
Si Si2 0.213516 0.919515 0.160161
Si Si3 0.841579 0.763338 0.568852
Si Si4 0.744406 0.083472 0.591156
Si Si5 0.865541 0.202157 0.198283
Si Si6 0.785342 0.086597 0.060130
Si Si7 0.408024 0.424341 0.328818
O O1 0.154995 0.624802 0.848197
O O2 0.096290 0.618675 0.687213
O O3 0.020548 0.732153 0.840560
O O4 0.883525 0.603505 0.885562
O O5 0.077889 0.924467 0.284820
O O6 0.271162 0.000000 0.124072
O O7 0.156581 0.898456 0.072927
O O8 0.750000 0.750000 0.500000
O O9 0.847595 0.849644 0.576581
O O10 0.776790 0.738698 0.699842
O O11 0.000000 0.732123 0.500000
O O12 0.789895 0.075569 0.459164
O O13 0.749609 0.000000 0.626572
O O14 0.842395 0.149476 0.112693
O O15 0.893578 0.147382 0.275325
O O16 0.809821 0.000000 0.074029
O O17 0.385600 0.500000 0.279915
#
# Coordination Sequence:
#
# PCOD9214262 Si02
#       7
#     8   8   8   8   8   8   8
#     4  11  25  41  68 100 137 175 229 291 350 421
#     4  10  23  44  70  96 131 180 232 290 344 410
#     4  11  25  43  67  98 143 186 229 284 357 425
#     4  10  22  39  66 100 130 171 225 285 344 421
#     4  11  26  40  68  97 141 177 227 283 351 409
#     4  11  25  47  70  97 136 186 237 284 350 422
#     4  10  22  42  66  96 133 173 228 280 342 415
#
# _framework density 24.048663999999999
#
# number of rings (size 3 to 8) (size 9 to 14) (size 15 to 20)
#    0.000    1.429    1.429    2.143   10.000    2.571 
#    2.571    2.143    0.000    3.857    0.000    0.000 
#    0.000    0.000    0.000    0.000    0.000    0.000 
#
# Total GULP energy -155891.900316 kJ/mol
# GULP energy per Si atom -5567.567868 kJ/mol
# Density = 2.399393 g / cm^3
# Si number density = 24.048664 Si / 1000 Ang^3
#
#
#
# Elastic Constant Matrix: (Units=GPa)
#
#
# Indices 1 2 3 4 5 6 
#
# 1 55.3605 10.7577 13.6277 0.0000 10.3527 0.0000
# 2 10.7577 149.8424 -5.3082 0.0000 30.9842 0.0000
# 3 13.6277 -5.3082 71.0928 0.0000 12.3614 0.0000
# 4 0.0000 0.0000 0.0000 29.8334 0.0000 29.3126
# 5 10.3527 30.9842 12.3614 0.0000 34.9016 0.0000
# 6 0.0000 0.0000 0.0000 29.3126 0.0000 7.7082
#
#
#
# Elastic Compliance Matrix: (Units=1/GPa)
#
#
# Indices 1 2 3 4 5 6 
#
# 1 0.019737 -0.000667 -0.003110 0.000000 -0.004161 0.000000
# 2 -0.000667 0.008471 0.002167 0.000000 -0.008090 0.000000
# 3 -0.003110 0.002167 0.015982 0.000000 -0.006662 0.000000
# 4 0.000000 0.000000 0.000000 -0.012249 0.000000 0.046582
# 5 -0.004161 -0.008090 -0.006662 0.000000 0.039428 0.000000
# 6 0.000000 0.000000 0.000000 0.046582 0.000000 -0.047410
#
#
# Mechanical properties :
#
#
# Convention : Reuss Voigt Hill
#
# Bulk Modulus (GPa) = 24.40711 34.93890 29.67300
# Shear Modulus (GPa) = 122.44528 31.63653 77.04091
#
# Velocity S-wave (km/s) = 7.14326 3.63095 5.66612
# Velocity P-wave (km/s) = 8.84341 5.66907 7.42780
#
# Compressibility (1/GPa) = 0.04097167
#
# Stress axis : x y z
#
# Youngs Moduli (GPa) = 50.66730 118.04761 62.56896
#
# Poissons Ratio (x) = 0.07870 0.19456
# Poissons Ratio (y) = 0.03378 -0.13559
# Poissons Ratio (z) = 0.15755 -0.25581
#
# Static dielectric constant tensor:
#      x y z
#    x 2.031830 0.000000 0.004000 
#    y 0.000000 2.002470 0.000000 
#    z 0.004000 0.000000 2.069290 
# 
# From -- ./inp_files/206582.got.cif
#   From: 2010.05.17/outbox.cif.g08.bks.cpg/sg12_104_cif.got.tgz:206582.got - 2010.06.03 13:09:07.
