data_PCOD9214355
_publ_section_title
;
Structure prediction by ZEFSAII (Michael W. Deem and Ramdas Pophale) SiO2 
 PCOD9214355
Probable space group: C 2/M
;
_chemical_formula_sum "Si O2"
_cell_formula_units_Z 56
_cell_length_a 18.264036
_cell_length_b 8.903664
_cell_length_c 29.161038
_cell_angle_alpha 90.000000
_cell_angle_beta 140.698347
_cell_angle_gamma 90.000000
_cell_volume 3003.646005
_symmetry_space_group_name_H-M "C 2/M"
_symmetry_group_IT_number 12
_symmetry_cell_setting 'monoclinic'
loop_
_space_group_symop_operation_xyz
x,y,z
-x,y,-z
-x,-y,-z
x,-y,z
1/2+x,1/2+y,z
1/2-x,1/2+y,-z
1/2-x,1/2-y,-z
1/2+x,1/2-y,z
loop_
_atom_site_type_symbol
_atom_site_label
_atom_site_fract_x
_atom_site_fract_y
_atom_site_fract_z
Si Si1 0.420127 0.172605 0.507207
Si Si2 0.376655 0.320918 0.065220
Si Si3 0.801065 0.321256 0.208664
Si Si4 0.548492 0.820827 0.074470
Si Si5 0.039631 0.178603 0.790601
Si Si6 0.113184 0.178306 0.655710
Si Si7 0.769907 0.818927 0.651988
O O1 0.500000 0.173793 0.500000
O O2 0.486858 0.273228 0.576009
O O3 0.295974 0.220850 0.427270
O O4 0.414972 0.000000 0.520888
O O5 0.370701 0.500000 0.055113
O O6 0.460623 0.247326 0.068714
O O7 0.426625 0.294381 0.140321
O O8 0.250000 0.250000 0.000000
O O9 0.794063 0.500000 0.208351
O O10 0.673464 0.252996 0.141128
O O11 0.878426 0.270289 0.203304
O O12 0.857291 0.255090 0.282006
O O13 0.557584 0.000000 0.085136
O O14 0.500000 0.792287 0.000000
O O15 0.905088 0.215304 0.717570
O O16 0.055201 0.000000 0.789101
O O17 0.204496 0.238549 0.662112
O O18 0.121225 0.000000 0.663392
O O19 0.755767 0.000000 0.650990
#
# Coordination Sequence:
#
# PCOD9214355 Si02
#       7
#     8   8   8   8   8   8   8
#     4   8  15  30  53  81 112 146 186 234 288 343
#     4  11  23  39  62  90 121 156 193 235 282 337
#     4  12  25  40  59  83 114 152 194 237 284 340
#     4  11  24  42  64  90 120 152 189 235 284 336
#     4  10  22  40  59  82 113 149 190 236 287 338
#     4  11  21  34  56  84 115 150 191 238 285 339
#     4   9  18  35  59  84 113 149 189 237 291 345
#
# _framework density 18.644007999999999
#
# number of rings (size 3 to 8) (size 9 to 14) (size 15 to 20)
#    0.000    1.714    0.000    6.000    0.000   10.000 
#    0.000    0.714    0.000    0.000    0.000    0.000 
#    0.000    0.000    0.000    0.000    0.000    0.000 
#
# Total GULP energy -156480.367878 kJ/mol
# GULP energy per Si atom -5588.584567 kJ/mol
# Density = 1.860157 g / cm^3
# Si number density = 18.644008 Si / 1000 Ang^3
#
#
#
# Elastic Constant Matrix: (Units=GPa)
#
#
# Indices 1 2 3 4 5 6 
#
# 1 119.9852 84.5570 87.4897 0.0000 2.1139 0.0000
# 2 84.5570 119.6021 101.7694 0.0000 -7.8682 0.0000
# 3 87.4897 101.7694 179.2907 0.0000 12.2280 0.0000
# 4 0.0000 0.0000 0.0000 16.5328 0.0000 -12.2285
# 5 2.1139 -7.8682 12.2280 0.0000 29.9245 0.0000
# 6 0.0000 0.0000 0.0000 -12.2285 0.0000 25.6930
#
#
#
# Elastic Compliance Matrix: (Units=1/GPa)
#
#
# Indices 1 2 3 4 5 6 
#
# 1 0.017604 -0.010678 -0.002318 0.000000 -0.003104 0.000000
# 2 -0.010678 0.024894 -0.009688 0.000000 0.011259 0.000000
# 3 -0.002318 -0.009688 0.012725 0.000000 -0.007583 0.000000
# 4 0.000000 0.000000 0.000000 0.093347 0.000000 0.044428
# 5 -0.003104 0.011259 -0.007583 0.000000 0.039696 0.000000
# 6 0.000000 0.000000 0.000000 0.044428 0.000000 0.060067
#
#
# Mechanical properties :
#
#
# Convention : Reuss Voigt Hill
#
# Bulk Modulus (GPa) = 101.45868 107.39002 104.42435
# Shear Modulus (GPa) = 16.83589 24.10085 20.46837
#
# Velocity S-wave (km/s) = 3.00829 3.59929 3.31698
# Velocity P-wave (km/s) = 8.16109 8.66017 8.41433
#
# Compressibility (1/GPa) = 0.00985623
#
# Stress axis : x y z
#
# Youngs Moduli (GPa) = 56.80521 40.17007 78.58768
#
# Poissons Ratio (x) = 0.42893 0.18214
# Poissons Ratio (y) = 0.60656 0.76134
# Poissons Ratio (z) = 0.13165 0.38916
#
# Static dielectric constant tensor:
#      x y z
#    x 1.609280 0.000000 0.006670 
#    y 0.000000 1.623450 0.000000 
#    z 0.006670 0.000000 1.647020 
# 
# From -- ./inp_files/363119.got.cif
#   From: 2010.05.17/outbox.cif.g08.bks.cpg/sg12_182_cif.got.tgz:363119.got - 2010.06.03 13:09:07.
