data_PCOD9214617
_publ_section_title
;
Structure prediction by ZEFSAII (Michael W. Deem and Ramdas Pophale) SiO2 
 PCOD9214617
Probable space group: C 2/M
;
_chemical_formula_sum "Si O2"
_cell_formula_units_Z 48
_cell_length_a 13.691056
_cell_length_b 13.929176
_cell_length_c 21.536697
_cell_angle_alpha 90.000000
_cell_angle_beta 149.083155
_cell_angle_gamma 90.000000
_cell_volume 2110.231384
_symmetry_space_group_name_H-M "C 2/M"
_symmetry_group_IT_number 12
_symmetry_cell_setting 'monoclinic'
loop_
_space_group_symop_operation_xyz
x,y,z
-x,y,-z
-x,-y,-z
x,-y,z
1/2+x,1/2+y,z
1/2-x,1/2+y,-z
1/2-x,1/2-y,-z
1/2+x,1/2-y,z
loop_
_atom_site_type_symbol
_atom_site_label
_atom_site_fract_x
_atom_site_fract_y
_atom_site_fract_z
Si Si1 0.290882 0.200770 0.210159
Si Si2 0.530859 0.278953 0.873364
Si Si3 0.419391 0.822093 0.526099
Si Si4 0.626634 0.601310 0.507202
Si Si5 0.013368 0.396821 0.788195
Si Si6 0.003116 0.111426 0.730313
O O1 0.426130 0.152452 0.337226
O O2 0.315259 0.143023 0.159581
O O3 0.364621 0.308881 0.232323
O O4 0.083600 0.198907 0.127143
O O5 0.440836 0.180740 0.797395
O O6 0.506724 0.355892 0.804942
O O7 0.750000 0.250000 0.000000
O O8 0.500000 0.832221 0.500000
O O9 0.392541 0.709192 0.526127
O O10 0.214453 0.873438 0.412614
O O11 0.500000 0.599889 0.500000
O O12 0.578027 0.500000 0.447483
O O13 0.842754 0.595704 0.646633
O O14 0.054383 0.500000 0.838819
O O15 0.060331 0.000000 0.757089
#
# Coordination Sequence:
#
# PCOD9214617 Si02
#       6
#     8   8   8   8   8   8
#     4  11  23  42  64  95 129 170 210 263 321 381
#     4  11  24  46  69  89 123 169 217 270 325 380
#     4  11  19  39  64  91 135 175 209 253 320 390
#     4   9  16  29  54  86 121 159 198 243 296 361
#     4  10  22  40  62  92 124 160 210 257 310 375
#     4  11  25  42  63  99 134 170 216 264 323 392
#
# _framework density 22.746319
#
# number of rings (size 3 to 8) (size 9 to 14) (size 15 to 20)
#    0.000    1.500    5.000    1.500    0.000    6.333 
#    0.000    1.667    0.000    0.000    0.000    0.000 
#    0.000    0.000    0.000    0.000    0.000    0.000 
#
# Total GULP energy -133924.960716 kJ/mol
# GULP energy per Si atom -5580.206696 kJ/mol
# Density = 2.269455 g / cm^3
# Si number density = 22.746319 Si / 1000 Ang^3
#
#
#
# Elastic Constant Matrix: (Units=GPa)
#
#
# Indices 1 2 3 4 5 6 
#
# 1 124.1627 1.6023 16.5099 0.0001 18.0225 0.0000
# 2 1.6023 66.1693 -7.6940 0.0008 -8.2169 0.0001
# 3 16.5099 -7.6940 55.3575 0.0028 22.6027 0.0003
# 4 0.0001 0.0008 0.0028 13.8650 0.0003 15.9359
# 5 18.0225 -8.2169 22.6027 0.0003 30.8558 -0.0001
# 6 0.0000 0.0001 0.0003 15.9359 -0.0001 33.2866
#
#
#
# Elastic Compliance Matrix: (Units=1/GPa)
#
#
# Indices 1 2 3 4 5 6 
#
# 1 0.008874 -0.000909 -0.000796 0.000001 -0.004842 0.000000
# 2 -0.000909 0.015740 0.000757 -0.000003 0.004168 0.000001
# 3 -0.000796 0.000757 0.025873 -0.000010 -0.018287 0.000005
# 4 0.000001 -0.000003 -0.000010 0.160366 0.000005 -0.076775
# 5 -0.004842 0.004168 -0.018287 0.000005 0.049742 -0.000002
# 6 0.000000 0.000001 0.000005 -0.076775 -0.000002 0.066798
#
#
# Mechanical properties :
#
#
# Convention : Reuss Voigt Hill
#
# Bulk Modulus (GPa) = 20.57915 29.61398 25.09657
# Shear Modulus (GPa) = 14.47227 31.28623 22.87925
#
# Velocity S-wave (km/s) = 2.52513 3.71272 3.17494
# Velocity P-wave (km/s) = 4.19149 5.60594 4.94950
#
# Compressibility (1/GPa) = 0.04859287
#
# Stress axis : x y z
#
# Youngs Moduli (GPa) = 112.68373 63.53094 38.64969
#
# Poissons Ratio (x) = 0.05774 0.03076
# Poissons Ratio (y) = 0.10240 -0.02926
# Poissons Ratio (z) = 0.08968 -0.04809
#
# Static dielectric constant tensor:
#      x y z
#    x 1.854440 0.000000 -0.026770 
#    y 0.000000 1.078710 -0.000010 
#    z -0.026770 -0.000010 1.919310 
# 
# From -- ./inp_files/240606.got.cif
#   From: 2010.05.17/outbox.cif.g08.bks.cpg/sg12_121_cif.got.tgz:240606.got - 2010.06.03 13:09:07.
