data_PCOD9214015
_publ_section_title
;
Structure prediction by ZEFSAII (Michael W. Deem and Ramdas Pophale) SiO2 
 PCOD9214015
Probable space group: C 2/M
;
_chemical_formula_sum "Si O2"
_cell_formula_units_Z 64
_cell_length_a 33.229826
_cell_length_b 7.796423
_cell_length_c 19.313340
_cell_angle_alpha 90.000000
_cell_angle_beta 146.222226
_cell_angle_gamma 90.000000
_cell_volume 2781.856484
_symmetry_space_group_name_H-M "C 2/M"
_symmetry_group_IT_number 12
_symmetry_cell_setting 'monoclinic'
loop_
_space_group_symop_operation_xyz
x,y,z
-x,y,-z
-x,-y,-z
x,-y,z
1/2+x,1/2+y,z
1/2-x,1/2+y,-z
1/2-x,1/2-y,-z
1/2+x,1/2-y,z
loop_
_atom_site_type_symbol
_atom_site_label
_atom_site_fract_x
_atom_site_fract_y
_atom_site_fract_z
Si Si1 0.431421 0.792754 0.622074
Si Si2 0.334670 0.790887 0.843375
Si Si3 0.802477 0.194754 0.275808
Si Si4 0.667903 0.297360 0.403249
Si Si5 0.956901 0.694827 0.503283
Si Si6 0.931206 0.802140 0.858842
Si Si7 0.577546 0.206296 0.894779
Si Si8 0.715569 0.699520 0.022791
O O1 0.357516 0.742062 0.554799
O O2 0.451420 0.730252 0.573227
O O3 0.497296 0.732188 0.764917
O O4 0.430997 0.000000 0.617499
O O5 0.252777 0.741209 0.744835
O O6 0.365823 0.707859 0.819807
O O7 0.336605 0.000000 0.841225
O O8 0.386481 0.737524 0.981633
O O9 0.872691 0.305166 0.362910
O O10 0.753990 0.194424 0.137926
O O11 0.824707 0.000000 0.323527
O O12 0.664141 0.500000 0.388607
O O13 0.750000 0.250000 0.500000
O O14 0.605743 0.221351 0.262450
O O15 0.985772 0.500000 0.551828
O O16 0.000000 0.775491 0.500000
O O17 0.951742 0.000000 0.873093
O O18 0.000000 0.724656 0.000000
O O19 0.576427 0.000000 0.894751
O O20 0.630746 0.262799 0.909264
O O21 0.727869 0.500000 0.054106
O O22 0.750000 0.750000 0.000000
#
# Coordination Sequence:
#
# PCOD9214015 Si02
#       8
#     8   8   8   8   8   8   8   8
#     4  10  22  41  65  91 126 166 207 257 312 375
#     4   9  19  35  58  88 121 156 197 246 302 362
#     4  10  22  40  59  86 120 156 204 256 307 366
#     4  11  25  43  64  93 128 168 216 267 322 387
#     4  10  23  41  62  91 122 162 210 255 312 378
#     4  10  22  39  61  90 123 158 204 260 313 372
#     4   9  19  37  59  88 123 160 202 250 307 373
#     4  11  22  36  58  87 119 157 199 252 313 374
#
# _framework density 23.006219000000002
#
# number of rings (size 3 to 8) (size 9 to 14) (size 15 to 20)
#    0.000    2.000    0.000    3.375    3.500    5.000 
#    0.000    0.000    0.000    0.000    0.000    0.000 
#    0.000    0.000    0.000    0.000    0.000    0.000 
#
# Total GULP energy -178631.444507 kJ/mol
# GULP energy per Si atom -5582.232641 kJ/mol
# Density = 2.295386 g / cm^3
# Si number density = 23.006219 Si / 1000 Ang^3
#
#
#
# Elastic Constant Matrix: (Units=GPa)
#
#
# Indices 1 2 3 4 5 6 
#
# 1 174.1862 -2.1735 49.7040 0.0000 0.3158 0.0000
# 2 -2.1735 45.5490 6.3277 0.0000 1.6423 0.0000
# 3 49.7040 6.3277 90.3479 0.0000 8.4806 0.0000
# 4 0.0000 0.0000 0.0000 11.3868 0.0000 -0.2722
# 5 0.3158 1.6423 8.4806 0.0000 28.5140 0.0000
# 6 0.0000 0.0000 0.0000 -0.2722 0.0000 23.8378
#
#
#
# Elastic Compliance Matrix: (Units=1/GPa)
#
#
# Indices 1 2 3 4 5 6 
#
# 1 0.006873 0.000837 -0.003938 0.000000 0.001047 0.000000
# 2 0.000837 0.022292 -0.001955 0.000000 -0.000712 0.000000
# 3 -0.003938 -0.001955 0.013741 0.000000 -0.003931 0.000000
# 4 0.000000 0.000000 0.000000 0.087845 0.000000 0.001003
# 5 0.001047 -0.000712 -0.003931 0.000000 0.036269 0.000000
# 6 0.000000 0.000000 0.000000 0.001003 0.000000 0.041962
#
#
# Mechanical properties :
#
#
# Convention : Reuss Voigt Hill
#
# Bulk Modulus (GPa) = 30.49360 46.42217 38.45788
# Shear Modulus (GPa) = 21.73681 29.82938 25.78310
#
# Velocity S-wave (km/s) = 3.07713 3.60471 3.35132
# Velocity P-wave (km/s) = 5.09002 6.12757 5.63274
#
# Compressibility (1/GPa) = 0.03279377
#
# Stress axis : x y z
#
# Youngs Moduli (GPa) = 145.49064 44.85991 72.77622
#
# Poissons Ratio (x) = -0.03756 0.28661
# Poissons Ratio (y) = -0.12182 0.14228
# Poissons Ratio (z) = 0.57297 0.08771
#
# Static dielectric constant tensor:
#      x y z
#    x 1.887830 0.000000 -0.027180 
#    y 0.000000 1.853510 0.000000 
#    z -0.027180 0.000000 1.917430 
# 
# From -- ./inp_files/295701.got.cif
#   From: 2010.05.17/outbox.cif.g08.bks.cpg/sg12_148_cif.got.tgz:295701.got - 2010.06.03 13:09:07.
