data_PCOD9214381
_publ_section_title
;
Structure prediction by ZEFSAII (Michael W. Deem and Ramdas Pophale) SiO2 
 PCOD9214381
Probable space group: C 2/M
;
_chemical_formula_sum "Si O2"
_cell_formula_units_Z 56
_cell_length_a 18.655105
_cell_length_b 13.158627
_cell_length_c 11.881717
_cell_angle_alpha 90.000000
_cell_angle_beta 116.240690
_cell_angle_gamma 90.000000
_cell_volume 2616.092505
_symmetry_space_group_name_H-M "C 2/M"
_symmetry_group_IT_number 12
_symmetry_cell_setting 'monoclinic'
loop_
_space_group_symop_operation_xyz
x,y,z
-x,y,-z
-x,-y,-z
x,-y,z
1/2+x,1/2+y,z
1/2-x,1/2+y,-z
1/2-x,1/2-y,-z
1/2+x,1/2-y,z
loop_
_atom_site_type_symbol
_atom_site_label
_atom_site_fract_x
_atom_site_fract_y
_atom_site_fract_z
Si Si1 0.815544 0.119924 0.456815
Si Si2 0.154838 0.274465 0.350943
Si Si3 0.428469 0.386432 0.087691
Si Si4 0.290403 0.617897 0.803295
Si Si5 0.998910 0.677647 0.871198
Si Si6 0.202811 0.121498 0.816787
Si Si7 0.171709 0.379530 0.913007
O O1 0.869366 0.198869 0.564432
O O2 0.725901 0.149510 0.434934
O O3 0.813758 0.146962 0.323530
O O4 0.833129 0.000000 0.484368
O O5 0.188168 0.196908 0.278822
O O6 0.083136 0.340192 0.249752
O O7 0.462098 0.500000 0.118076
O O8 0.493230 0.300076 0.119166
O O9 0.374799 0.362756 0.159911
O O10 0.364210 0.383470 0.942406
O O11 0.279752 0.500000 0.757234
O O12 0.213582 0.651778 0.825008
O O13 0.078951 0.642268 0.864842
O O14 0.000000 0.638529 0.000000
O O15 0.215543 0.000000 0.820406
O O16 0.279227 0.159398 0.942997
O O17 0.183415 0.500000 0.920038
#
# Coordination Sequence:
#
# PCOD9214381 Si02
#       7
#     8   8   8   8   8   8   8
#     4  10  22  40  60  79 109 152 196 238 274 330
#     4  11  23  37  58  89 112 147 196 235 286 340
#     4   9  19  33  53  83 118 152 186 227 284 341
#     4   9  18  36  60  85 114 152 195 237 275 332
#     4  12  23  34  53  91 124 150 178 231 304 345
#     4   8  16  34  58  82 106 148 196 228 270 332
#     4   9  20  36  59  89 118 149 187 233 288 342
#
# _framework density 21.405968999999999
#
# number of rings (size 3 to 8) (size 9 to 14) (size 15 to 20)
#    0.000    2.286    1.429    3.000    2.000    3.429 
#    0.000    0.714    0.000    2.571    0.000    5.000 
#    0.000    0.000    0.000    0.000    0.000    0.000 
#
# Total GULP energy -156360.022370 kJ/mol
# GULP energy per Si atom -5584.286513 kJ/mol
# Density = 2.135725 g / cm^3
# Si number density = 21.405969 Si / 1000 Ang^3
#
#
#
# Elastic Constant Matrix: (Units=GPa)
#
#
# Indices 1 2 3 4 5 6 
#
# 1 52.8287 -6.3798 26.6851 0.0000 -16.2591 0.0000
# 2 -6.3798 42.2372 3.6733 0.0000 -11.4150 0.0000
# 3 26.6851 3.6733 87.1388 0.0000 -13.7558 0.0000
# 4 0.0000 0.0000 0.0000 15.5779 0.0000 0.8889
# 5 -16.2591 -11.4150 -13.7558 0.0000 26.2090 0.0000
# 6 0.0000 0.0000 0.0000 0.8889 0.0000 26.6059
#
#
#
# Elastic Compliance Matrix: (Units=1/GPa)
#
#
# Indices 1 2 3 4 5 6 
#
# 1 0.029307 0.010191 -0.006361 0.000000 0.019281 0.000000
# 2 0.010191 0.030427 -0.001432 0.000000 0.018822 0.000000
# 3 -0.006361 -0.001432 0.013916 0.000000 0.002734 0.000000
# 4 0.000000 0.000000 0.000000 0.064316 0.000000 -0.002149
# 5 0.019281 0.018822 0.002734 0.000000 0.059749 0.000000
# 6 0.000000 0.000000 0.000000 -0.002149 0.000000 0.037658
#
#
# Mechanical properties :
#
#
# Convention : Reuss Voigt Hill
#
# Bulk Modulus (GPa) = 12.74776 25.57353 19.16065
# Shear Modulus (GPa) = 19.47615 24.22696 21.85155
#
# Velocity S-wave (km/s) = 3.01964 3.36785 3.19849
# Velocity P-wave (km/s) = 4.25744 5.20539 4.75510
#
# Compressibility (1/GPa) = 0.07844513
#
# Stress axis : x y z
#
# Youngs Moduli (GPa) = 34.12168 32.86604 71.86087
#
# Poissons Ratio (x) = -0.33493 0.45709
# Poissons Ratio (y) = -0.34773 0.10291
# Poissons Ratio (z) = 0.21704 0.04707
#
# Static dielectric constant tensor:
#      x y z
#    x 1.776340 0.000000 -0.025540 
#    y 0.000000 1.849400 0.000000 
#    z -0.025540 0.000000 1.794190 
# 
# From -- ./inp_files/156188.got.cif
#   From: 2010.05.17/outbox.cif.g08.bks.cpg/sg12_79_cif.got.tgz:156188.got - 2010.06.03 13:09:07.
