data_PCOD9214463
_publ_section_title
;
Structure prediction by ZEFSAII (Michael W. Deem and Ramdas Pophale) SiO2 
 PCOD9214463
Probable space group: C 2/M
;
_chemical_formula_sum "Si O2"
_cell_formula_units_Z 64
_cell_length_a 9.881780
_cell_length_b 15.190730
_cell_length_c 29.144383
_cell_angle_alpha 90.000000
_cell_angle_beta 48.603451
_cell_angle_gamma 90.000000
_cell_volume 3281.839408
_symmetry_space_group_name_H-M "C 2/M"
_symmetry_group_IT_number 12
_symmetry_cell_setting 'monoclinic'
loop_
_space_group_symop_operation_xyz
x,y,z
-x,y,-z
-x,-y,-z
x,-y,z
1/2+x,1/2+y,z
1/2-x,1/2+y,-z
1/2-x,1/2-y,-z
1/2+x,1/2-y,z
loop_
_atom_site_type_symbol
_atom_site_label
_atom_site_fract_x
_atom_site_fract_y
_atom_site_fract_z
Si Si1 0.643571 0.641856 0.327460
Si Si2 0.346306 0.603955 0.995548
Si Si3 0.368574 0.728735 0.825990
Si Si4 0.929263 0.904174 0.287832
Si Si5 0.470537 0.234310 0.904392
Si Si6 0.559003 0.096064 0.236380
Si Si7 0.435835 0.846143 0.660663
Si Si8 0.340340 0.394821 0.569325
O O1 0.511140 0.599977 0.320213
O O2 0.846566 0.608612 0.273433
O O3 0.623478 0.745268 0.322958
O O4 0.610857 0.624589 0.388607
O O5 0.314864 0.500000 0.989500
O O6 0.172514 0.655830 0.054653
O O7 0.500000 0.602698 0.000000
O O8 0.413566 0.674321 0.942094
O O9 0.477558 0.668739 0.765515
O O10 0.472544 0.742653 0.850035
O O11 0.343275 0.825004 0.809985
O O12 0.163216 0.698919 0.878852
O O13 0.714582 0.889410 0.337599
O O14 0.966509 0.000000 0.259158
O O15 0.578440 0.108179 0.286511
O O16 0.620616 0.000000 0.208195
O O17 0.646149 0.853132 0.600960
O O18 0.500000 0.365465 0.500000
O O19 0.318664 0.500000 0.569795
#
# Coordination Sequence:
#
# PCOD9214463 Si02
#       8
#     8   8   8   8   8   8   8   8
#     4  11  20  39  61  85 120 160 206 250 303 374
#     4  10  22  45  70  91 118 167 215 248 304 370
#     4  12  23  39  60  96 133 156 201 255 307 355
#     4  12  23  37  59  90 126 163 197 245 311 370
#     4  11  24  40  66  94 126 158 201 262 308 350
#     4  11  22  39  62  86 121 172 209 237 293 376
#     4  11  20  39  61  85 120 160 206 250 303 374
#     4  10  22  40  61  86 116 158 214 263 301 362
#
# _framework density 19.501259999999998
#
# number of rings (size 3 to 8) (size 9 to 14) (size 15 to 20)
#    0.000    1.000    3.750    5.250    0.000    2.500 
#    0.000    1.250    0.000    2.250    0.000    0.000 
#    0.000    0.000    0.000    0.000    0.000    0.000 
#
# Total GULP energy -178658.830838 kJ/mol
# GULP energy per Si atom -5583.088464 kJ/mol
# Density = 1.945687 g / cm^3
# Si number density = 19.501260 Si / 1000 Ang^3
#
#
#
# Elastic Constant Matrix: (Units=GPa)
#
#
# Indices 1 2 3 4 5 6 
#
# 1 87.2839 1.0888 10.5044 0.0000 -12.4786 0.0000
# 2 1.0888 128.3683 15.0764 0.0000 -10.7051 -0.0001
# 3 10.5044 15.0764 57.8710 -0.0001 -1.7498 -0.0001
# 4 0.0000 0.0000 -0.0001 20.2047 0.0001 25.1895
# 5 -12.4786 -10.7051 -1.7498 0.0001 13.3313 0.0001
# 6 0.0000 -0.0001 -0.0001 25.1895 0.0001 144.5688
#
#
#
# Elastic Compliance Matrix: (Units=1/GPa)
#
#
# Indices 1 2 3 4 5 6 
#
# 1 0.013662 0.001294 -0.002408 0.000000 0.013511 0.000000
# 2 0.001294 0.008704 -0.002263 0.000000 0.007903 0.000000
# 3 -0.002408 -0.002263 0.018256 0.000000 -0.001676 0.000000
# 4 0.000000 0.000000 0.000000 0.063228 0.000000 -0.011017
# 5 0.013511 0.007903 -0.001676 0.000000 0.093785 0.000000
# 6 0.000000 0.000000 0.000000 -0.011017 0.000000 0.008837
#
#
# Mechanical properties :
#
#
# Convention : Reuss Voigt Hill
#
# Bulk Modulus (GPa) = 29.52817 36.31805 32.92311
# Shear Modulus (GPa) = 22.27004 52.07785 37.17395
#
# Velocity S-wave (km/s) = 3.38298 5.17328 4.37078
# Velocity P-wave (km/s) = 5.51670 7.37209 6.51082
#
# Compressibility (1/GPa) = 0.03386596
#
# Stress axis : x y z
#
# Youngs Moduli (GPa) = 73.19476 114.88941 54.77666
#
# Poissons Ratio (x) = -0.14863 0.13192
# Poissons Ratio (y) = -0.09469 0.12398
# Poissons Ratio (z) = 0.17628 0.26004
#
# Static dielectric constant tensor:
#      x y z
#    x 1.689310 0.000000 -0.015450 
#    y 0.000000 1.697220 0.000000 
#    z -0.015450 0.000000 1.679880 
# 
# From -- ./inp_files/372531.got.cif
#   From: 2010.05.17/outbox.cif.g08.bks.cpg/sg12_187_cif.got.tgz:372531.got - 2010.06.03 13:09:07.
