data_PCOD9214638
_publ_section_title
;
Structure prediction by ZEFSAII (Michael W. Deem and Ramdas Pophale) SiO2 
 PCOD9214638
Probable space group: C 2/M
;
_chemical_formula_sum "Si O2"
_cell_formula_units_Z 52
_cell_length_a 17.900452
_cell_length_b 12.160361
_cell_length_c 11.941353
_cell_angle_alpha 90.000000
_cell_angle_beta 119.521700
_cell_angle_gamma 90.000000
_cell_volume 2261.870189
_symmetry_space_group_name_H-M "C 2/M"
_symmetry_group_IT_number 12
_symmetry_cell_setting 'monoclinic'
loop_
_space_group_symop_operation_xyz
x,y,z
-x,y,-z
-x,-y,-z
x,-y,z
1/2+x,1/2+y,z
1/2-x,1/2+y,-z
1/2-x,1/2-y,-z
1/2+x,1/2-y,z
loop_
_atom_site_type_symbol
_atom_site_label
_atom_site_fract_x
_atom_site_fract_y
_atom_site_fract_z
Si Si1 0.645832 0.250004 0.431062
Si Si2 0.866406 0.241430 0.319308
Si Si3 0.102705 0.624262 0.857360
Si Si4 0.397465 0.500000 0.398901
Si Si5 0.873514 0.000000 0.637197
Si Si6 0.104124 0.000000 0.079198
Si Si7 0.822031 0.772542 0.911136
Si Si8 0.582056 0.879930 0.186373
O O1 0.750000 0.250000 0.500000
O O2 0.619028 0.235590 0.539793
O O3 0.606630 0.366286 0.356739
O O4 0.617320 0.148401 0.334847
O O5 0.921946 0.310517 0.273202
O O6 0.877166 0.110468 0.316981
O O7 0.770338 0.274947 0.214506
O O8 0.130465 0.500000 0.853069
O O9 0.019649 0.619668 0.875030
O O10 0.171930 0.694743 0.976280
O O11 0.500000 0.500000 0.500000
O O12 0.346331 0.500000 0.480547
O O13 0.861309 0.000000 0.765385
O O14 0.140260 0.892919 0.043591
O O15 0.000000 0.000000 0.000000
O O16 0.883167 0.714543 0.865812
O O17 0.612129 0.000000 0.169977
#
# Coordination Sequence:
#
# PCOD9214638 Si02
#       8
#     8   8   8   4   4   4   8   8
#     4  11  22  41  68  98 132 172 224 290 349 419
#     4  11  26  44  71 101 140 184 230 290 359 424
#     4  11  27  47  68  97 145 190 232 289 349 429
#     4  10  26  42  72 102 137 183 230 292 358 431
#     4  10  22  40  62  96 138 165 221 284 355 407
#     4  12  24  40  72 108 139 182 233 300 354 409
#     4  12  25  45  70 102 141 185 243 290 351 420
#     4  11  24  42  71  99 132 182 236 286 348 420
#
# _framework density 22.989825
#
# number of rings (size 3 to 8) (size 9 to 14) (size 15 to 20)
#    0.000    0.923    3.077    2.308    8.615    2.462 
#    0.000    1.538    0.000    0.000    0.000    0.000 
#    0.000    0.000    0.000    0.000    0.000    0.000 
#
# Total GULP energy -145066.614714 kJ/mol
# GULP energy per Si atom -5579.485181 kJ/mol
# Density = 2.293750 g / cm^3
# Si number density = 22.989825 Si / 1000 Ang^3
#
#
#
# Elastic Constant Matrix: (Units=GPa)
#
#
# Indices 1 2 3 4 5 6 
#
# 1 45.8056 17.7730 -2.8669 0.0000 3.6978 0.0000
# 2 17.7730 149.6989 12.9062 0.0000 -6.5082 0.0000
# 3 -2.8669 12.9062 70.1299 0.0000 -14.9131 0.0000
# 4 0.0000 0.0000 0.0000 26.1704 0.0000 10.7074
# 5 3.6978 -6.5082 -14.9131 0.0000 50.4307 0.0000
# 6 0.0000 0.0000 0.0000 10.7074 0.0000 8.5665
#
#
#
# Elastic Compliance Matrix: (Units=1/GPa)
#
#
# Indices 1 2 3 4 5 6 
#
# 1 0.023177 -0.002924 0.001114 0.000000 -0.001747 0.000000
# 2 -0.002924 0.007170 -0.001277 0.000000 0.000762 0.000000
# 3 0.001114 -0.001277 0.015460 0.000000 0.004325 0.000000
# 4 0.000000 0.000000 0.000000 0.078205 0.000000 -0.097749
# 5 -0.001747 0.000762 0.004325 0.000000 0.021335 0.000000
# 6 0.000000 0.000000 0.000000 -0.097749 0.000000 0.238912
#
#
# Mechanical properties :
#
#
# Convention : Reuss Voigt Hill
#
# Bulk Modulus (GPa) = 25.23146 35.69543 30.46345
# Shear Modulus (GPa) = 12.38719 32.88832 22.63776
#
# Velocity S-wave (km/s) = 2.32375 3.78638 3.14137
# Velocity P-wave (km/s) = 4.26599 5.88862 5.14172
#
# Compressibility (1/GPa) = 0.03963306
#
# Stress axis : x y z
#
# Youngs Moduli (GPa) = 43.14698 139.46182 64.68493
#
# Poissons Ratio (x) = 0.40774 -0.07206
# Poissons Ratio (y) = 0.12615 0.08261
# Poissons Ratio (z) = -0.04806 0.17810
#
# Static dielectric constant tensor:
#      x y z
#    x 1.915080 0.000000 0.010710 
#    y 0.000000 2.028900 0.000000 
#    z 0.010710 0.000000 1.880240 
# 
# From -- ./inp_files/165574.got.cif
#   From: 2010.05.17/outbox.cif.g08.bks.cpg/sg12_83_cif.got.tgz:165574.got - 2010.06.03 13:09:07.
