data_PCOD9214221
_publ_section_title
;
Structure prediction by ZEFSAII (Michael W. Deem and Ramdas Pophale) SiO2 
 PCOD9214221
Probable space group: C 2/M
;
_chemical_formula_sum "Si O2"
_cell_formula_units_Z 44
_cell_length_a 8.744453
_cell_length_b 11.828899
_cell_length_c 26.694494
_cell_angle_alpha 90.000000
_cell_angle_beta 48.502898
_cell_angle_gamma 90.000000
_cell_volume 2068.112884
_symmetry_space_group_name_H-M "C 2/M"
_symmetry_group_IT_number 12
_symmetry_cell_setting 'monoclinic'
loop_
_space_group_symop_operation_xyz
x,y,z
-x,y,-z
-x,-y,-z
x,-y,z
1/2+x,1/2+y,z
1/2-x,1/2+y,-z
1/2-x,1/2-y,-z
1/2+x,1/2-y,z
loop_
_atom_site_type_symbol
_atom_site_label
_atom_site_fract_x
_atom_site_fract_y
_atom_site_fract_z
Si Si1 0.160973 0.631430 0.650880
Si Si2 0.030054 0.179021 0.747420
Si Si3 0.803393 0.000000 0.370343
Si Si4 0.617969 0.699507 0.573366
Si Si5 0.392406 0.271843 0.159510
Si Si6 0.202777 0.869407 0.925037
O O1 0.111338 0.500000 0.659653
O O2 0.405847 0.648594 0.599101
O O3 0.074876 0.698696 0.621782
O O4 0.082830 0.693486 0.717645
O O5 0.784987 0.176963 0.798860
O O6 0.102330 0.164968 0.788364
O O7 0.131103 0.097239 0.685473
O O8 0.771923 0.899511 0.419577
O O9 0.750000 0.750000 0.500000
O O10 0.608221 0.211472 0.104082
O O11 0.342584 0.351315 0.123799
O O12 0.251882 0.000000 0.924915
O O13 0.000000 0.839136 0.000000
#
# Coordination Sequence:
#
# PCOD9214221 Si02
#       6
#     8   8   4   8   8   8
#     4  11  24  45  67  92 131 167 208 280 328 386
#     4  10  22  40  63  96 127 170 223 260 344 386
#     4  10  22  40  62  90 133 160 204 288 310 390
#     4  11  24  43  67  95 120 171 219 256 339 398
#     4  10  22  39  64  97 128 174 216 269 316 389
#     4  10  22  41  65  97 134 176 220 262 316 373
#
# _framework density 21.275435999999999
#
# number of rings (size 3 to 8) (size 9 to 14) (size 15 to 20)
#    0.000    1.636    0.909    3.273    3.818    3.636 
#   13.091    3.636    0.000    5.455    0.000    0.000 
#    0.000    0.000    0.000    0.000    0.000    0.000 
#
# Total GULP energy -122519.546938 kJ/mol
# GULP energy per Si atom -5569.070315 kJ/mol
# Density = 2.122701 g / cm^3
# Si number density = 21.275436 Si / 1000 Ang^3
#
#
#
# Elastic Constant Matrix: (Units=GPa)
#
#
# Indices 1 2 3 4 5 6 
#
# 1 44.4729 -4.6272 8.2933 0.0000 0.7552 0.0000
# 2 -4.6272 117.1601 13.9326 0.0000 3.8911 0.0000
# 3 8.2933 13.9326 84.1383 0.0000 10.5724 0.0000
# 4 0.0000 0.0000 0.0000 24.6383 0.0000 3.7596
# 5 0.7552 3.8911 10.5724 0.0000 31.9060 0.0000
# 6 0.0000 0.0000 0.0000 3.7596 0.0000 14.6035
#
#
#
# Elastic Compliance Matrix: (Units=1/GPa)
#
#
# Indices 1 2 3 4 5 6 
#
# 1 0.023073 0.001203 -0.002490 0.000000 0.000132 0.000000
# 2 0.001203 0.008781 -0.001497 0.000000 -0.000603 0.000000
# 3 -0.002490 -0.001497 0.012885 0.000000 -0.004028 0.000000
# 4 0.000000 0.000000 0.000000 0.042247 0.000000 -0.010876
# 5 0.000132 -0.000603 -0.004028 0.000000 0.032747 0.000000
# 6 0.000000 0.000000 0.000000 -0.010876 0.000000 0.071277
#
#
# Mechanical properties :
#
#
# Convention : Reuss Voigt Hill
#
# Bulk Modulus (GPa) = 25.52935 31.21875 28.37405
# Shear Modulus (GPa) = 23.85112 29.44105 26.64609
#
# Velocity S-wave (km/s) = 3.35186 3.72399 3.54281
# Velocity P-wave (km/s) = 5.19668 5.76162 5.48643
#
# Compressibility (1/GPa) = 0.03917061
#
# Stress axis : x y z
#
# Youngs Moduli (GPa) = 43.34090 113.88380 77.61184
#
# Poissons Ratio (x) = -0.13700 0.19326
# Poissons Ratio (y) = -0.05214 0.11617
# Poissons Ratio (z) = 0.10792 0.17046
#
# Static dielectric constant tensor:
#      x y z
#    x 1.819170 0.000000 -0.036640 
#    y 0.000000 1.743970 0.000000 
#    z -0.036640 0.000000 1.757150 
# 
# From -- ./inp_files/299212.got.cif
#   From: 2010.05.17/outbox.cif.g08.bks.cpg/sg12_150_cif.got.tgz:299212.got - 2010.06.03 13:09:07.
