data_PCOD9214906
_publ_section_title
;
Structure prediction by ZEFSAII (Michael W. Deem and Ramdas Pophale) SiO2 
 PCOD9214906
Probable space group: C 2/M
;
_chemical_formula_sum "Si O2"
_cell_formula_units_Z 40
_cell_length_a 11.670466
_cell_length_b 14.814182
_cell_length_c 12.981573
_cell_angle_alpha 90.000000
_cell_angle_beta 49.830261
_cell_angle_gamma 90.000000
_cell_volume 1715.000780
_symmetry_space_group_name_H-M "C 2/M"
_symmetry_group_IT_number 12
_symmetry_cell_setting 'monoclinic'
loop_
_space_group_symop_operation_xyz
x,y,z
-x,y,-z
-x,-y,-z
x,-y,z
1/2+x,1/2+y,z
1/2-x,1/2+y,-z
1/2-x,1/2-y,-z
1/2+x,1/2-y,z
loop_
_atom_site_type_symbol
_atom_site_label
_atom_site_fract_x
_atom_site_fract_y
_atom_site_fract_z
Si Si1 0.173581 0.394078 0.301922
Si Si2 0.911514 0.282143 0.368123
Si Si3 0.523705 0.101800 0.868504
Si Si4 0.212065 0.847714 0.974861
Si Si5 0.042439 0.900747 0.732213
O O1 0.148992 0.500000 0.295617
O O2 0.275594 0.348254 0.154360
O O3 0.283304 0.391978 0.336334
O O4 0.013311 0.345790 0.381046
O O5 0.750000 0.250000 0.500000
O O6 0.903263 0.331650 0.259913
O O7 0.999012 0.186764 0.309104
O O8 0.354383 0.094552 0.927005
O O9 0.591173 0.000000 0.832128
O O10 0.500000 0.135620 0.000000
O O11 0.250000 0.750000 0.000000
O O12 0.062664 0.889928 0.107067
O O13 0.018634 0.000000 0.700399
#
# Coordination Sequence:
#
# PCOD9214906 Si02
#       5
#     8   8   8   8   8
#     4  10  22  41  64  92 128 169 214 268 327 389
#     4  11  24  41  63  93 131 174 218 268 325 390
#     4  10  22  40  65  96 131 170 216 271 331 393
#     4  11  19  34  61  93 127 164 207 264 324 384
#     4  11  23  38  62  94 127 165 214 269 325 387
#
# _framework density 23.323605000000001
#
# number of rings (size 3 to 8) (size 9 to 14) (size 15 to 20)
#    0.000    1.400    4.000    4.200    2.800    4.000 
#    0.000    2.000    0.000    1.200    0.000   11.200 
#    0.000    0.000    0.000    0.000    0.000    0.000 
#
# Total GULP energy -111563.289721 kJ/mol
# GULP energy per Si atom -5578.164486 kJ/mol
# Density = 2.327052 g / cm^3
# Si number density = 23.323605 Si / 1000 Ang^3
#
#
#
# Elastic Constant Matrix: (Units=GPa)
#
#
# Indices 1 2 3 4 5 6 
#
# 1 50.3097 21.3005 20.1694 0.0000 -1.2014 0.0000
# 2 21.3005 199.0558 43.7324 0.0000 9.2496 0.0000
# 3 20.1694 43.7324 123.1063 0.0000 -19.9285 0.0000
# 4 0.0000 0.0000 0.0000 4.7569 0.0000 -7.6946
# 5 -1.2014 9.2496 -19.9285 0.0000 43.0740 0.0000
# 6 0.0000 0.0000 0.0000 -7.6946 0.0000 27.3798
#
#
#
# Elastic Compliance Matrix: (Units=1/GPa)
#
#
# Indices 1 2 3 4 5 6 
#
# 1 0.021787 -0.001637 -0.003062 0.000000 -0.000457 0.000000
# 2 -0.001637 0.005778 -0.002154 0.000000 -0.002283 0.000000
# 3 -0.003062 -0.002154 0.010216 0.000000 0.005104 0.000000
# 4 0.000000 0.000000 0.000000 0.385438 0.000000 0.108320
# 5 -0.000457 -0.002283 0.005104 0.000000 0.026055 0.000000
# 6 0.000000 0.000000 0.000000 0.108320 0.000000 0.066964
#
#
# Mechanical properties :
#
#
# Convention : Reuss Voigt Hill
#
# Bulk Modulus (GPa) = 41.53753 60.31959 50.92856
# Shear Modulus (GPa) = 9.29422 34.19344 21.74383
#
# Velocity S-wave (km/s) = 1.99839 3.83305 3.05662
# Velocity P-wave (km/s) = 4.81379 6.74595 5.86005
#
# Compressibility (1/GPa) = 0.02407461
#
# Stress axis : x y z
#
# Youngs Moduli (GPa) = 45.89948 173.06293 97.88501
#
# Poissons Ratio (x) = 0.28338 0.29971
# Poissons Ratio (y) = 0.07516 0.21084
# Poissons Ratio (z) = 0.14054 0.37277
#
# Static dielectric constant tensor:
#      x y z
#    x 1.904370 0.000000 0.070290 
#    y 0.000000 1.924970 0.000000 
#    z 0.070290 0.000000 1.979950 
# 
# From -- ./inp_files/176330.got.cif
#   From: 2010.05.17/outbox.cif.g08.bks.cpg/sg12_89_cif.got.tgz:176330.got - 2010.06.03 13:09:07.
