data_PCOD9214330
_publ_section_title
;
Structure prediction by ZEFSAII (Michael W. Deem and Ramdas Pophale) SiO2 
 PCOD9214330
Probable space group: C 2/M
;
_chemical_formula_sum "Si O2"
_cell_formula_units_Z 60
_cell_length_a 8.115718
_cell_length_b 23.814456
_cell_length_c 25.013876
_cell_angle_alpha 90.000000
_cell_angle_beta 145.202000
_cell_angle_gamma 90.000000
_cell_volume 2758.957372
_symmetry_space_group_name_H-M "C 2/M"
_symmetry_group_IT_number 12
_symmetry_cell_setting 'monoclinic'
loop_
_space_group_symop_operation_xyz
x,y,z
-x,y,-z
-x,-y,-z
x,-y,z
1/2+x,1/2+y,z
1/2-x,1/2+y,-z
1/2-x,1/2-y,-z
1/2+x,1/2-y,z
loop_
_atom_site_type_symbol
_atom_site_label
_atom_site_fract_x
_atom_site_fract_y
_atom_site_fract_z
Si Si1 0.532597 0.287135 0.070178
Si Si2 0.984268 0.912640 0.910067
Si Si3 0.868170 0.811449 0.211515
Si Si4 0.792825 0.836641 0.400788
Si Si5 0.661085 0.284065 0.401927
Si Si6 0.476898 0.500000 0.740853
Si Si7 0.482529 0.084914 0.122720
Si Si8 0.252117 0.404529 0.741581
O O1 0.522732 0.345099 0.098845
O O2 0.785891 0.246211 0.158896
O O3 0.500000 0.304655 0.000000
O O4 0.250000 0.250000 0.000000
O O5 0.726506 0.925936 0.882651
O O6 0.924027 0.935253 0.835348
O O7 0.285443 0.927508 0.018232
O O8 0.587553 0.850272 0.148270
O O9 0.027528 0.801945 0.309909
O O10 0.069635 0.850317 0.229337
O O11 0.656056 0.783762 0.396895
O O12 0.551878 0.880666 0.319246
O O13 0.000000 0.864145 0.500000
O O14 0.970145 0.809846 0.398756
O O15 0.000000 0.299239 0.500000
O O16 0.730682 0.548324 0.799599
O O17 0.242638 0.449720 0.692112
#
# Coordination Sequence:
#
# PCOD9214330 Si02
#       8
#     8   8   8   8   8   4   8   8
#     4  12  21  34  54  87 127 169 201 247 297 376
#     4  11  21  37  59  88 123 162 212 255 316 382
#     4  11  22  36  59  90 132 174 211 250 311 371
#     4  11  22  40  65  95 130 166 206 253 309 380
#     4  11  22  39  65  98 136 170 205 245 304 383
#     4  10  26  44  61  83 114 157 220 277 324 377
#     4  10  22  40  57  84 120 165 214 265 317 367
#     4  11  24  40  63  89 120 164 217 263 322 370
#
# _framework density 21.747347000000001
#
# number of rings (size 3 to 8) (size 9 to 14) (size 15 to 20)
#    0.000    1.067    2.667    5.600    0.000    6.400 
#    0.000    0.333    0.000    0.000    0.000   12.600 
#    0.000    0.000    0.000    0.000    0.000    0.000 
#
# Total GULP energy -167171.264521 kJ/mol
# GULP energy per Si atom -5572.375484 kJ/mol
# Density = 2.169785 g / cm^3
# Si number density = 21.747347 Si / 1000 Ang^3
#
#
#
# Elastic Constant Matrix: (Units=GPa)
#
#
# Indices 1 2 3 4 5 6 
#
# 1 59.1759 6.5082 35.1174 0.0000 5.0920 -0.0011
# 2 6.5082 88.3783 9.1538 -0.0001 11.4922 -0.0002
# 3 35.1174 9.1538 104.9555 -0.0015 -8.5802 0.0012
# 4 0.0000 -0.0001 -0.0015 -9.6792 0.0001 22.0736
# 5 5.0920 11.4922 -8.5802 0.0001 41.2708 -0.0001
# 6 -0.0011 -0.0002 0.0012 22.0736 -0.0001 -7.8249
#
#
#
# Elastic Compliance Matrix: (Units=1/GPa)
#
#
# Indices 1 2 3 4 5 6 
#
# 1 0.021810 -0.000271 -0.007617 0.000002 -0.004199 0.000000
# 2 -0.000271 0.011924 -0.001239 0.000000 -0.003545 0.000000
# 3 -0.007617 -0.001239 0.012502 -0.000001 0.003884 0.000000
# 4 0.000002 0.000000 -0.000001 0.019015 0.000000 0.053641
# 5 -0.004199 -0.003545 0.003884 0.000000 0.026543 0.000000
# 6 0.000000 0.000000 0.000000 0.053641 0.000000 0.023521
#
#
# Mechanical properties :
#
#
# Convention : Reuss Voigt Hill
#
# Bulk Modulus (GPa) = 35.73744 39.34092 37.53918
# Shear Modulus (GPa) = 34.98999 18.20203 26.59601
#
# Velocity S-wave (km/s) = 4.01550 2.89619 3.50087
# Velocity P-wave (km/s) = 6.16179 5.41416 5.80004
#
# Compressibility (1/GPa) = 0.02798186
#
# Stress axis : x y z
#
# Youngs Moduli (GPa) = 45.84991 83.86308 79.98659
#
# Poissons Ratio (x) = 0.02274 0.60927
# Poissons Ratio (y) = 0.01243 0.09911
# Poissons Ratio (z) = 0.34925 0.10391
#
# Static dielectric constant tensor:
#      x y z
#    x 2.255790 0.000000 -0.141080 
#    y 0.000000 1.801190 0.000000 
#    z -0.141080 0.000000 1.883300 
# 
# From -- ./inp_files/357144.got.cif
#   From: 2010.05.17/outbox.cif.g08.bks.cpg/sg12_179_cif.got.tgz:357144.got - 2010.06.03 13:09:07.
