data_PCOD9214788
_publ_section_title
;
Structure prediction by ZEFSAII (Michael W. Deem and Ramdas Pophale) SiO2 
 PCOD9214788
Probable space group: C 2/M
;
_chemical_formula_sum "Si O2"
_cell_formula_units_Z 42
_cell_length_a 10.573105
_cell_length_b 7.906965
_cell_length_c 27.841973
_cell_angle_alpha 90.000000
_cell_angle_beta 55.280085
_cell_angle_gamma 90.000000
_cell_volume 1913.179502
_symmetry_space_group_name_H-M "C 2/M"
_symmetry_group_IT_number 12
_symmetry_cell_setting 'monoclinic'
loop_
_space_group_symop_operation_xyz
x,y,z
-x,y,-z
-x,-y,-z
x,-y,z
1/2+x,1/2+y,z
1/2-x,1/2+y,-z
1/2-x,1/2-y,-z
1/2+x,1/2-y,z
loop_
_atom_site_type_symbol
_atom_site_label
_atom_site_fract_x
_atom_site_fract_y
_atom_site_fract_z
Si Si1 0.785233 0.307100 0.558259
Si Si2 0.889417 0.298904 0.831123
Si Si3 0.422057 0.703688 0.628821
Si Si4 0.500000 0.500000 0.500000
Si Si5 0.736279 0.796905 0.763889
Si Si6 0.173217 0.298757 0.966423
O O1 0.603190 0.271289 0.596907
O O2 0.846418 0.294350 0.599901
O O3 0.314587 0.000000 0.535177
O O4 0.874701 0.152377 0.514017
O O5 0.901552 0.500000 0.828545
O O6 0.818134 0.246667 0.795853
O O7 0.778784 0.251631 0.898871
O O8 0.062065 0.228796 0.800241
O O9 0.402593 0.500000 0.622685
O O10 0.333590 0.755062 0.696312
O O11 0.729437 0.000000 0.762662
O O12 0.162030 0.500000 0.967866
O O13 0.250000 0.250000 0.000000
O O14 0.000000 0.227571 0.000000
#
# Coordination Sequence:
#
# PCOD9214788 Si02
#       6
#     8   8   8   2   8   8
#     4  11  25  44  69  99 129 175 219 262 325 394
#     4  11  23  38  60  95 125 162 213 257 314 377
#     4  10  22  44  67  97 132 169 215 266 324 384
#     4  12  26  48  68  96 140 172 210 282 314 370
#     4  10  22  40  64  92 129 164 203 264 314 371
#     4  11  24  41  61  85 121 166 209 261 316 373
#
# _framework density 21.952984000000001
#
# number of rings (size 3 to 8) (size 9 to 14) (size 15 to 20)
#    0.000    1.333    0.952    3.714    1.333    9.143 
#    0.000    0.000    0.000    0.000    0.000    0.000 
#    0.000    0.000    0.000    0.000    0.000    0.000 
#
# Total GULP energy -117283.083862 kJ/mol
# GULP energy per Si atom -5584.908755 kJ/mol
# Density = 2.190302 g / cm^3
# Si number density = 21.952984 Si / 1000 Ang^3
#
#
#
# Elastic Constant Matrix: (Units=GPa)
#
#
# Indices 1 2 3 4 5 6 
#
# 1 285.9246 -22.9867 168.5097 0.0000 -22.7311 0.0000
# 2 -22.9867 124.8627 -4.0163 0.0000 4.1662 0.0000
# 3 168.5097 -4.0163 210.6569 0.0000 -20.9171 0.0000
# 4 0.0000 0.0000 0.0000 30.9378 0.0000 6.7738
# 5 -22.7311 4.1662 -20.9171 0.0000 50.7954 0.0000
# 6 0.0000 0.0000 0.0000 6.7738 0.0000 36.4632
#
#
#
# Elastic Compliance Matrix: (Units=1/GPa)
#
#
# Indices 1 2 3 4 5 6 
#
# 1 0.006784 0.001052 -0.005332 0.000000 0.000754 0.000000
# 2 0.001052 0.008196 -0.000736 0.000000 -0.000504 0.000000
# 3 -0.005332 -0.000736 0.009141 0.000000 0.001438 0.000000
# 4 0.000000 0.000000 0.000000 0.033693 0.000000 -0.006259
# 5 0.000754 -0.000504 0.001438 0.000000 0.020658 0.000000
# 6 0.000000 0.000000 0.000000 -0.006259 0.000000 0.028588
#
#
# Mechanical properties :
#
#
# Convention : Reuss Voigt Hill
#
# Bulk Modulus (GPa) = 70.96966 100.49528 85.73247
# Shear Modulus (GPa) = 41.05495 55.63511 48.34503
#
# Velocity S-wave (km/s) = 4.32919 5.03963 4.69786
# Velocity P-wave (km/s) = 7.57545 8.92976 8.28034
#
# Compressibility (1/GPa) = 0.01409053
#
# Stress axis : x y z
#
# Youngs Moduli (GPa) = 147.39562 122.01540 109.39530
#
# Poissons Ratio (x) = -0.12840 0.58331
# Poissons Ratio (y) = -0.15511 0.08047
# Poissons Ratio (z) = 0.78593 0.08975
#
# Static dielectric constant tensor:
#      x y z
#    x 1.797400 0.000000 -0.007320 
#    y 0.000000 1.805120 0.000000 
#    z -0.007320 0.000000 1.840120 
# 
# From -- ./inp_files/371778.got.cif
#   From: 2010.05.17/outbox.cif.g08.bks.cpg/sg12_186_cif.got.tgz:371778.got - 2010.06.03 13:09:07.
