data_PCOD9214757
_publ_section_title
;
Structure prediction by ZEFSAII (Michael W. Deem and Ramdas Pophale) SiO2 
 PCOD9214757
Probable space group: C 2/M
;
_chemical_formula_sum "Si O2"
_cell_formula_units_Z 64
_cell_length_a 20.132658
_cell_length_b 7.890163
_cell_length_c 31.558724
_cell_angle_alpha 90.000000
_cell_angle_beta 142.474163
_cell_angle_gamma 90.000000
_cell_volume 3053.576188
_symmetry_space_group_name_H-M "C 2/M"
_symmetry_group_IT_number 12
_symmetry_cell_setting 'monoclinic'
loop_
_space_group_symop_operation_xyz
x,y,z
-x,y,-z
-x,-y,-z
x,-y,z
1/2+x,1/2+y,z
1/2-x,1/2+y,-z
1/2-x,1/2-y,-z
1/2+x,1/2-y,z
loop_
_atom_site_type_symbol
_atom_site_label
_atom_site_fract_x
_atom_site_fract_y
_atom_site_fract_z
Si Si1 0.276653 0.806876 0.466226
Si Si2 0.499979 0.693502 0.546875
Si Si3 0.047776 0.696592 0.323510
Si Si4 0.033928 0.793108 0.970543
Si Si5 0.624118 0.799608 0.693421
Si Si6 0.001717 0.803463 0.207506
Si Si7 0.268741 0.202875 0.057970
Si Si8 0.627155 0.292050 0.186973
O O1 0.250000 0.750000 0.500000
O O2 0.374714 0.697250 0.497928
O O3 0.163198 0.789531 0.384571
O O4 0.315532 0.000000 0.485625
O O5 0.500000 0.773271 0.500000
O O6 0.539510 0.500000 0.562904
O O7 0.570763 0.774642 0.620210
O O8 0.067952 0.500000 0.345179
O O9 0.959094 0.766517 0.312447
O O10 0.009064 0.708805 0.255747
O O11 0.953177 0.738149 0.891830
O O12 0.031038 0.000000 0.968387
O O13 0.158405 0.742996 0.025484
O O14 0.000000 0.736610 0.000000
O O15 0.748294 0.733714 0.756858
O O16 0.633040 0.000000 0.706345
O O17 0.878051 0.789613 0.129105
O O18 0.078200 0.739063 0.207768
O O19 0.030010 0.000000 0.229430
O O20 0.281367 0.000000 0.068863
O O21 0.250000 0.250000 0.000000
O O22 0.626397 0.500000 0.186949
#
# Coordination Sequence:
#
# PCOD9214757 Si02
#       8
#     8   8   8   8   8   8   8   8
#     4  12  24  42  68  94 124 165 210 260 313 371
#     4  11  25  43  64  93 128 164 206 258 310 367
#     4  11  24  41  63  94 125 160 206 257 310 366
#     4   9  18  33  59  88 115 152 200 250 296 349
#     4  10  22  40  64  89 120 162 208 256 303 365
#     4  11  23  40  61  89 124 163 205 254 307 367
#     4  11  21  37  62  89 118 156 202 255 310 368
#     4   9  19  37  58  86 119 157 206 251 296 360
#
# _framework density 20.959032000000001
#
# number of rings (size 3 to 8) (size 9 to 14) (size 15 to 20)
#    0.000    1.500    2.500    2.625    3.500    1.500 
#    0.000    0.625    0.000    1.500    0.000    0.000 
#    0.000    0.000    0.000    0.000    0.000    0.000 
#
# Total GULP energy -178791.502686 kJ/mol
# GULP energy per Si atom -5587.234459 kJ/mol
# Density = 2.091133 g / cm^3
# Si number density = 20.959032 Si / 1000 Ang^3
#
#
#
# Elastic Constant Matrix: (Units=GPa)
#
#
# Indices 1 2 3 4 5 6 
#
# 1 116.4123 -9.9635 29.8761 0.0000 -0.6552 0.0002
# 2 -9.9635 35.8333 -13.1141 -0.0002 1.5525 0.0009
# 3 29.8761 -13.1141 99.0020 0.0000 2.8192 0.0000
# 4 0.0000 -0.0002 0.0000 28.0672 0.0000 -0.6051
# 5 -0.6552 1.5525 2.8192 0.0000 40.3029 -0.0001
# 6 0.0002 0.0009 0.0000 -0.6051 -0.0001 5.9523
#
#
#
# Elastic Compliance Matrix: (Units=1/GPa)
#
#
# Indices 1 2 3 4 5 6 
#
# 1 0.009407 0.001642 -0.002629 0.000000 0.000274 -0.000001
# 2 0.001642 0.029695 0.003477 0.000000 -0.001360 -0.000005
# 3 -0.002629 0.003477 0.011382 0.000000 -0.000973 0.000000
# 4 0.000000 0.000000 0.000000 0.035707 0.000000 0.003630
# 5 0.000274 -0.001360 -0.000973 0.000000 0.024937 0.000001
# 6 -0.000001 -0.000005 0.000000 0.003630 0.000001 0.168371
#
#
# Mechanical properties :
#
#
# Convention : Reuss Voigt Hill
#
# Bulk Modulus (GPa) = 18.03012 29.42718 23.72865
# Shear Modulus (GPa) = 17.06436 31.16109 24.11272
#
# Velocity S-wave (km/s) = 2.85647 3.86004 3.39554
# Velocity P-wave (km/s) = 4.41594 5.82558 5.16903
#
# Compressibility (1/GPa) = 0.05546276
#
# Stress axis : x y z
#
# Youngs Moduli (GPa) = 106.30462 33.67593 87.85456
#
# Poissons Ratio (x) = -0.05528 0.23098
# Poissons Ratio (y) = -0.17451 -0.30545
# Poissons Ratio (z) = 0.27949 -0.11708
#
# Static dielectric constant tensor:
#      x y z
#    x 1.763590 0.000000 -0.015450 
#    y 0.000000 1.771490 0.000000 
#    z -0.015450 0.000000 1.543440 
# 
# From -- ./inp_files/378509.got.cif
#   From: 2010.05.17/outbox.cif.g08.bks.cpg/sg12_190_cif.got.tgz:378509.got - 2010.06.03 13:09:07.
