data_PCOD9214753
_publ_section_title
;
Structure prediction by ZEFSAII (Michael W. Deem and Ramdas Pophale) SiO2 
 PCOD9214753
Probable space group: C 2/M
;
_chemical_formula_sum "Si O2"
_cell_formula_units_Z 42
_cell_length_a 17.945263
_cell_length_b 12.919628
_cell_length_c 19.532031
_cell_angle_alpha 90.000000
_cell_angle_beta 157.227744
_cell_angle_gamma 90.000000
_cell_volume 1752.813879
_symmetry_space_group_name_H-M "C 2/M"
_symmetry_group_IT_number 12
_symmetry_cell_setting 'monoclinic'
loop_
_space_group_symop_operation_xyz
x,y,z
-x,y,-z
-x,-y,-z
x,-y,z
1/2+x,1/2+y,z
1/2-x,1/2+y,-z
1/2-x,1/2-y,-z
1/2+x,1/2-y,z
loop_
_atom_site_type_symbol
_atom_site_label
_atom_site_fract_x
_atom_site_fract_y
_atom_site_fract_z
Si Si1 0.000000 0.000000 0.500000
Si Si2 0.713132 0.112409 0.597673
Si Si3 0.428430 0.111987 0.158901
Si Si4 0.734505 0.282004 0.876401
Si Si5 0.751605 0.887835 0.787827
Si Si6 0.661316 0.654254 0.520048
O O1 0.111457 0.908146 0.547649
O O2 0.480693 0.109943 0.404308
O O3 0.793716 0.116281 0.743103
O O4 0.740313 0.226827 0.591515
O O5 0.775078 0.000000 0.620560
O O6 0.335643 0.194269 0.130416
O O7 0.656184 0.106034 0.362847
O O8 0.340485 0.000000 0.096626
O O9 0.383417 0.146559 0.042870
O O10 0.811236 0.215073 0.877981
O O11 0.543058 0.343478 0.691769
O O12 0.814234 0.000000 0.869044
#
# Coordination Sequence:
#
# PCOD9214753 Si02
#       6
#     2   8   8   8   8   8
#     4  12  24  40  68  96 136 182 212 264 322 408
#     4   8  15  30  57  89 119 152 205 262 313 382
#     4  11  24  42  61  91 127 165 222 271 315 389
#     4  10  22  40  64  87 120 166 211 268 324 377
#     4   8  13  28  55  85 113 150 198 251 319 371
#     4  11  22  42  63  94 130 171 214 261 329 392
#
# _framework density 23.961471
#
# number of rings (size 3 to 8) (size 9 to 14) (size 15 to 20)
#    0.000    2.286    0.952    4.571    1.333    0.762 
#    0.000    9.524    0.000    2.286    0.000    0.000 
#    0.000    0.000    0.000    0.000    0.000    0.000 
#
# Total GULP energy -116941.924329 kJ/mol
# GULP energy per Si atom -5568.663063 kJ/mol
# Density = 2.390693 g / cm^3
# Si number density = 23.961471 Si / 1000 Ang^3
#
#
#
# Elastic Constant Matrix: (Units=GPa)
#
#
# Indices 1 2 3 4 5 6 
#
# 1 32.4312 19.3345 22.2340 0.0001 -8.6787 0.0010
# 2 19.3345 135.9688 28.9937 0.0006 -2.9970 0.0075
# 3 22.2340 28.9937 90.4640 -0.0007 -0.6410 0.0024
# 4 0.0001 0.0006 -0.0007 13.1808 -0.0014 1.6819
# 5 -8.6787 -2.9970 -0.6410 -0.0014 23.1385 0.0024
# 6 0.0010 0.0075 0.0024 1.6819 0.0024 14.3990
#
#
#
# Elastic Compliance Matrix: (Units=1/GPa)
#
#
# Indices 1 2 3 4 5 6 
#
# 1 0.043786 -0.003875 -0.009409 0.000001 0.015660 -0.000002
# 2 -0.003875 0.008258 -0.001697 0.000000 -0.000431 -0.000004
# 3 -0.009409 -0.001697 0.013887 0.000001 -0.003364 0.000000
# 4 0.000001 0.000000 0.000001 0.077016 0.000006 -0.008996
# 5 0.015660 -0.000431 -0.003364 0.000006 0.048943 -0.000009
# 6 -0.000002 -0.000004 0.000000 -0.008996 -0.000009 0.070500
#
#
# Mechanical properties :
#
#
# Convention : Reuss Voigt Hill
#
# Bulk Modulus (GPa) = 27.80190 44.44314 36.12252
# Shear Modulus (GPa) = 16.42894 22.69710 19.56302
#
# Velocity S-wave (km/s) = 2.62131 3.08105 2.86044
# Velocity P-wave (km/s) = 4.55957 5.58974 5.10073
#
# Compressibility (1/GPa) = 0.03596876
#
# Stress axis : x y z
#
# Youngs Moduli (GPa) = 22.83847 121.09357 72.01100
#
# Poissons Ratio (x) = 0.46921 0.67753
# Poissons Ratio (y) = 0.08849 0.12223
# Poissons Ratio (z) = 0.21488 0.20555
#
# Static dielectric constant tensor:
#      x y z
#    x 1.943820 0.000000 -0.032070 
#    y 0.000000 2.018150 0.000000 
#    z -0.032070 0.000000 1.934240 
# 
# From -- ./inp_files/349591.got.cif
#   From: 2010.05.17/outbox.cif.g08.bks.cpg/sg12_175_cif.got.tgz:349591.got - 2010.06.03 13:09:07.
