data_PCOD9214569
_publ_section_title
;
Structure prediction by ZEFSAII (Michael W. Deem and Ramdas Pophale) SiO2 
 PCOD9214569
Probable space group: C 2/M
;
_chemical_formula_sum "Si O2"
_cell_formula_units_Z 40
_cell_length_a 29.007881
_cell_length_b 8.234715
_cell_length_c 20.047207
_cell_angle_alpha 90.000000
_cell_angle_beta 21.024005
_cell_angle_gamma 90.000000
_cell_volume 1717.992749
_symmetry_space_group_name_H-M "C 2/M"
_symmetry_group_IT_number 12
_symmetry_cell_setting 'monoclinic'
loop_
_space_group_symop_operation_xyz
x,y,z
-x,y,-z
-x,-y,-z
x,-y,z
1/2+x,1/2+y,z
1/2-x,1/2+y,-z
1/2-x,1/2-y,-z
1/2+x,1/2-y,z
loop_
_atom_site_type_symbol
_atom_site_label
_atom_site_fract_x
_atom_site_fract_y
_atom_site_fract_z
Si Si1 0.844730 0.802235 0.049977
Si Si2 0.942917 0.184010 0.780140
Si Si3 0.569654 0.804929 0.473437
Si Si4 0.815554 0.315910 0.478879
Si Si5 0.425726 0.818789 0.167973
O O1 0.973075 0.735800 0.912320
O O2 0.846428 0.750543 0.968691
O O3 0.850175 0.000000 0.042331
O O4 0.718197 0.749605 0.262441
O O5 0.985124 0.260033 0.652515
O O6 0.077341 0.197037 0.638565
O O7 0.903417 0.000000 0.820075
O O8 0.500000 0.750002 0.500000
O O9 0.575132 0.000000 0.466135
O O10 0.864108 0.500000 0.412421
O O11 0.750000 0.250000 0.500000
O O12 0.688442 0.304715 0.694643
O O13 0.374859 0.000000 0.252642
O O14 0.500000 0.832198 0.000000
#
# Coordination Sequence:
#
# PCOD9214569 Si02
#       5
#     8   8   8   8   8
#     4  10  22  40  62  88 122 165 209 256 314 377
#     4  11  23  40  63  93 127 165 210 260 312 372
#     4  10  23  44  67  92 123 162 210 264 322 380
#     4  12  23  37  59  88 124 164 204 248 301 364
#     4  11  23  37  57  88 124 163 209 257 304 366
#
# _framework density 23.282986000000001
#
# number of rings (size 3 to 8) (size 9 to 14) (size 15 to 20)
#    0.000    1.200    2.000    4.200    0.000    7.600 
#    0.000    0.000    0.000    0.000    0.000    0.000 
#    0.000    0.000    0.000    0.000    0.000    0.000 
#
# Total GULP energy -111514.748212 kJ/mol
# GULP energy per Si atom -5575.737411 kJ/mol
# Density = 2.322999 g / cm^3
# Si number density = 23.282986 Si / 1000 Ang^3
#
#
#
# Elastic Constant Matrix: (Units=GPa)
#
#
# Indices 1 2 3 4 5 6 
#
# 1 103.8233 -2.2217 15.0719 -0.0001 32.8624 0.0001
# 2 -2.2217 47.3777 6.7819 -0.0017 10.5848 0.0001
# 3 15.0719 6.7819 57.8070 -0.0013 21.9010 0.0002
# 4 -0.0001 -0.0017 -0.0013 20.3917 0.0002 11.6581
# 5 32.8624 10.5848 21.9010 0.0002 45.6393 0.0000
# 6 0.0001 0.0001 0.0002 11.6581 0.0000 30.2478
#
#
#
# Elastic Compliance Matrix: (Units=1/GPa)
#
#
# Indices 1 2 3 4 5 6 
#
# 1 0.012820 0.002806 0.000088 0.000001 -0.009924 0.000000
# 2 0.002806 0.022905 -0.000783 0.000003 -0.006957 -0.000001
# 3 0.000088 -0.000783 0.021172 0.000002 -0.010042 -0.000001
# 4 0.000001 0.000003 0.000002 0.062899 -0.000002 -0.024243
# 5 -0.009924 -0.006957 -0.010042 -0.000002 0.035489 0.000001
# 6 0.000000 -0.000001 -0.000001 -0.024243 0.000001 0.042404
#
#
# Mechanical properties :
#
#
# Convention : Reuss Voigt Hill
#
# Bulk Modulus (GPa) = 16.36157 27.58582 21.97370
# Shear Modulus (GPa) = 23.38189 31.88082 27.63135
#
# Velocity S-wave (km/s) = 3.17242 3.70439 3.44868
# Velocity P-wave (km/s) = 4.52345 5.49276 5.03150
#
# Compressibility (1/GPa) = 0.06111884
#
# Stress axis : x y z
#
# Youngs Moduli (GPa) = 78.00185 43.65891 47.23147
#
# Poissons Ratio (x) = -0.12250 -0.00416
# Poissons Ratio (y) = -0.21885 0.03699
# Poissons Ratio (z) = -0.00687 0.03419
#
# Static dielectric constant tensor:
#      x y z
#    x 1.976390 0.000000 0.208020 
#    y 0.000000 1.963110 0.000000 
#    z 0.208020 0.000000 2.179610 
# 
# From -- ./inp_files/313519.got.cif
#   From: 2010.05.17/outbox.cif.g08.bks.cpg/sg12_157_cif.got.tgz:313519.got - 2010.06.03 13:09:07.
