data_PCOD9214277
_publ_section_title
;
Structure prediction by ZEFSAII (Michael W. Deem and Ramdas Pophale) SiO2 
 PCOD9214277
Probable space group: C 2/M
;
_chemical_formula_sum "Si O2"
_cell_formula_units_Z 58
_cell_length_a 21.408800
_cell_length_b 13.683123
_cell_length_c 27.305845
_cell_angle_alpha 90.000000
_cell_angle_beta 159.111177
_cell_angle_gamma 90.000000
_cell_volume 2852.072911
_symmetry_space_group_name_H-M "C 2/M"
_symmetry_group_IT_number 12
_symmetry_cell_setting 'monoclinic'
loop_
_space_group_symop_operation_xyz
x,y,z
-x,y,-z
-x,-y,-z
x,-y,z
1/2+x,1/2+y,z
1/2-x,1/2+y,-z
1/2-x,1/2-y,-z
1/2+x,1/2-y,z
loop_
_atom_site_type_symbol
_atom_site_label
_atom_site_fract_x
_atom_site_fract_y
_atom_site_fract_z
Si Si1 0.288619 0.114810 0.340544
Si Si2 0.602382 0.117322 0.860177
Si Si3 0.043716 0.107603 0.331765
Si Si4 0.000000 0.000000 0.500000
Si Si5 0.958671 0.148294 0.377779
Si Si6 0.797008 0.299313 0.961268
Si Si7 0.787760 0.763146 0.624045
Si Si8 0.113971 0.761353 0.129683
O O1 0.500000 0.128551 0.500000
O O2 0.182943 0.169325 0.306946
O O3 0.212851 0.157541 0.234392
O O4 0.255415 0.000000 0.319615
O O5 0.720998 0.188769 0.913096
O O6 0.407761 0.165634 0.714889
O O7 0.604974 0.000000 0.853407
O O8 0.672379 0.145290 0.965246
O O9 0.166809 0.182521 0.393011
O O10 0.042839 0.106132 0.389700
O O11 0.850000 0.140424 0.174541
O O12 0.085515 0.000000 0.343770
O O13 0.969260 0.916266 0.434298
O O14 0.762941 0.183995 0.223899
O O15 0.085015 0.239442 0.478581
O O16 0.977069 0.292404 0.064673
O O17 0.000000 0.796992 0.000000
#
# Coordination Sequence:
#
# PCOD9214277 Si02
#       8
#     8   8   8   2   8   8   8   8
#     4  11  23  43  70 102 135 183 245 289 350 425
#     4  10  22  39  66  97 131 174 229 281 341 420
#     4  11  23  44  66  98 136 180 231 289 353 425
#     4  12  28  44  70 100 142 184 236 302 342 430
#     4  12  25  44  67 101 137 177 235 287 358 420
#     4  10  22  41  63  97 132 180 223 278 350 411
#     4  11  23  42  71  98 135 179 227 301 348 414
#     4  12  24  44  69  95 143 185 224 292 357 422
#
# _framework density 20.336086000000002
#
# number of rings (size 3 to 8) (size 9 to 14) (size 15 to 20)
#    0.000    0.966    4.828    2.069    0.966    0.828 
#    1.241    1.034    0.000    0.828    0.000    0.000 
#    0.000    0.000    0.000    0.000    0.000    0.000 
#
# Total GULP energy -161563.881873 kJ/mol
# GULP energy per Si atom -5571.168340 kJ/mol
# Density = 2.028980 g / cm^3
# Si number density = 20.336086 Si / 1000 Ang^3
#
#
#
# Elastic Constant Matrix: (Units=GPa)
#
#
# Indices 1 2 3 4 5 6 
#
# 1 83.1747 27.8640 34.6800 0.0053 -21.2569 0.0061
# 2 27.8640 100.8619 24.0170 0.0091 -12.1907 0.0023
# 3 34.6800 24.0170 85.9253 0.0039 -9.9523 -0.0038
# 4 0.0053 0.0091 0.0039 19.8882 0.0019 -19.5786
# 5 -21.2569 -12.1907 -9.9523 0.0019 40.6532 0.0014
# 6 0.0061 0.0023 -0.0038 -19.5786 0.0014 44.3773
#
#
#
# Elastic Compliance Matrix: (Units=1/GPa)
#
#
# Indices 1 2 3 4 5 6 
#
# 1 0.016806 -0.002572 -0.005286 -0.000010 0.006723 -0.000007
# 2 -0.002572 0.011274 -0.001932 -0.000008 0.001563 -0.000004
# 3 -0.005286 -0.001932 0.014331 0.000003 0.000165 0.000003
# 4 -0.000010 -0.000008 0.000003 0.088886 -0.000013 0.039215
# 5 0.006723 0.001563 0.000165 -0.000013 0.028623 -0.000007
# 6 -0.000007 -0.000004 0.000003 0.039215 -0.000007 0.039835
#
#
# Mechanical properties :
#
#
# Convention : Reuss Voigt Hill
#
# Bulk Modulus (GPa) = 43.79881 49.23154 46.51517
# Shear Modulus (GPa) = 22.03184 33.21047 27.62116
#
# Velocity S-wave (km/s) = 3.29505 4.04552 3.68942
# Velocity P-wave (km/s) = 6.00506 6.78846 6.40874
#
# Compressibility (1/GPa) = 0.02283167
#
# Stress axis : x y z
#
# Youngs Moduli (GPa) = 59.50109 88.69951 69.78112
#
# Poissons Ratio (x) = 0.22812 0.36884
# Poissons Ratio (y) = 0.15302 0.13483
# Poissons Ratio (z) = 0.31450 0.17138
#
# Static dielectric constant tensor:
#      x y z
#    x 1.735700 -0.000010 -0.006470 
#    y -0.000010 1.727480 -0.000010 
#    z -0.006470 -0.000010 1.745970 
# 
# From -- ./inp_files/366586.got.cif
#   From: 2010.05.17/outbox.cif.g08.bks.cpg/sg12_184_cif.got.tgz:366586.got - 2010.06.03 13:09:07.
