data_PCOD9214670
_publ_section_title
;
Structure prediction by ZEFSAII (Michael W. Deem and Ramdas Pophale) SiO2 
 PCOD9214670
Probable space group: C 2/M
;
_chemical_formula_sum "Si O2"
_cell_formula_units_Z 48
_cell_length_a 7.407315
_cell_length_b 21.508144
_cell_length_c 18.605212
_cell_angle_alpha 90.000000
_cell_angle_beta 128.158215
_cell_angle_gamma 90.000000
_cell_volume 2330.724224
_symmetry_space_group_name_H-M "C 2/M"
_symmetry_group_IT_number 12
_symmetry_cell_setting 'monoclinic'
loop_
_space_group_symop_operation_xyz
x,y,z
-x,y,-z
-x,-y,-z
x,-y,z
1/2+x,1/2+y,z
1/2-x,1/2+y,-z
1/2-x,1/2-y,-z
1/2+x,1/2-y,z
loop_
_atom_site_type_symbol
_atom_site_label
_atom_site_fract_x
_atom_site_fract_y
_atom_site_fract_z
Si Si1 0.111983 0.170442 0.419778
Si Si2 0.648355 0.380483 0.206007
Si Si3 0.516082 0.187411 0.614346
Si Si4 0.370320 0.429410 0.273352
Si Si5 0.166449 0.569812 0.892594
Si Si6 0.244240 0.321466 0.023006
O O1 0.260863 0.165133 0.529290
O O2 0.306474 0.170735 0.405391
O O3 0.996707 0.238031 0.387452
O O4 0.938532 0.117265 0.353707
O O5 0.871814 0.343071 0.288322
O O6 0.531505 0.415612 0.244072
O O7 0.455016 0.333778 0.128385
O O8 0.720762 0.423919 0.158038
O O9 0.405178 0.500000 0.305602
O O10 0.107158 0.422283 0.184373
O O11 0.209468 0.500000 0.932733
O O12 0.253863 0.626468 0.963024
O O13 0.250000 0.250000 0.000000
O O14 0.000000 0.332307 0.000000
#
# Coordination Sequence:
#
# PCOD9214670 Si02
#       6
#     8   8   8   8   8   8
#     4   9  19  37  58  90 124 157 205 249 314 362
#     4  11  23  41  65  91 124 163 211 259 309 369
#     4   9  20  35  60  92 118 162 200 256 312 366
#     4  10  22  40  63  90 126 167 207 252 304 370
#     4  11  25  43  65  94 127 169 212 255 314 374
#     4  12  26  44  65  96 128 164 210 263 317 368
#
# _framework density 20.594456999999998
#
# number of rings (size 3 to 8) (size 9 to 14) (size 15 to 20)
#    0.000    1.667    1.667    2.000    4.667    3.667 
#    0.000    7.500    0.000    2.000    0.000    0.000 
#    0.000    0.000    0.000    0.000    0.000    0.000 
#
# Total GULP energy -134107.785371 kJ/mol
# GULP energy per Si atom -5587.824390 kJ/mol
# Density = 2.054758 g / cm^3
# Si number density = 20.594457 Si / 1000 Ang^3
#
#
#
# Elastic Constant Matrix: (Units=GPa)
#
#
# Indices 1 2 3 4 5 6 
#
# 1 73.3122 14.8408 15.9081 0.0000 7.0288 0.0000
# 2 14.8408 139.8447 82.0556 0.0000 -0.9529 0.0000
# 3 15.9081 82.0556 115.2973 0.0000 4.3428 0.0000
# 4 0.0000 0.0000 0.0000 33.9380 0.0000 -10.3339
# 5 7.0288 -0.9529 4.3428 0.0000 26.9503 0.0000
# 6 0.0000 0.0000 0.0000 -10.3339 0.0000 38.9520
#
#
#
# Elastic Compliance Matrix: (Units=1/GPa)
#
#
# Indices 1 2 3 4 5 6 
#
# 1 0.014425 -0.000801 -0.001285 0.000000 -0.003583 0.000000
# 2 -0.000801 0.012415 -0.008803 0.000000 0.002066 0.000000
# 3 -0.001285 -0.008803 0.015207 0.000000 -0.002427 0.000000
# 4 0.000000 0.000000 0.000000 0.032055 0.000000 0.008504
# 5 -0.003583 0.002066 -0.002427 0.000000 0.038504 0.000000
# 6 0.000000 0.000000 0.000000 0.008504 0.000000 0.027929
#
#
# Mechanical properties :
#
#
# Convention : Reuss Voigt Hill
#
# Bulk Modulus (GPa) = 49.33789 61.56258 55.45024
# Shear Modulus (GPa) = 29.57366 34.34471 31.95918
#
# Velocity S-wave (km/s) = 3.79357 4.08814 3.94361
# Velocity P-wave (km/s) = 6.57245 7.22783 6.90792
#
# Compressibility (1/GPa) = 0.02026840
#
# Stress axis : x y z
#
# Youngs Moduli (GPa) = 69.32458 80.54667 65.75953
#
# Poissons Ratio (x) = 0.06453 0.08451
# Poissons Ratio (y) = 0.05554 0.57888
# Poissons Ratio (z) = 0.08909 0.70905
#
# Static dielectric constant tensor:
#      x y z
#    x 1.763770 0.000000 -0.005990 
#    y 0.000000 1.706100 0.000000 
#    z -0.005990 0.000000 1.751430 
# 
# From -- ./inp_files/358873.got.cif
#   From: 2010.05.17/outbox.cif.g08.bks.cpg/sg12_180_cif.got.tgz:358873.got - 2010.06.03 13:09:07.
