data_PCOD9214280
_publ_section_title
;
Structure prediction by ZEFSAII (Michael W. Deem and Ramdas Pophale) SiO2 
 PCOD9214280
Probable space group: C 2/M
;
_chemical_formula_sum "Si O2"
_cell_formula_units_Z 40
_cell_length_a 23.425395
_cell_length_b 8.383198
_cell_length_c 18.849953
_cell_angle_alpha 90.000000
_cell_angle_beta 145.365552
_cell_angle_gamma 90.000000
_cell_volume 2103.846373
_symmetry_space_group_name_H-M "C 2/M"
_symmetry_group_IT_number 12
_symmetry_cell_setting 'monoclinic'
loop_
_space_group_symop_operation_xyz
x,y,z
-x,y,-z
-x,-y,-z
x,-y,z
1/2+x,1/2+y,z
1/2-x,1/2+y,-z
1/2-x,1/2-y,-z
1/2+x,1/2-y,z
loop_
_atom_site_type_symbol
_atom_site_label
_atom_site_fract_x
_atom_site_fract_y
_atom_site_fract_z
Si Si1 0.841155 0.325223 0.732272
Si Si2 0.977552 0.500000 0.559285
Si Si3 0.639585 0.000000 0.843047
Si Si4 0.111199 0.824438 0.467221
Si Si5 0.852003 0.000000 0.990374
Si Si6 0.618907 0.500000 0.138768
Si Si7 0.511549 0.247823 0.797555
O O1 0.844484 0.500000 0.773836
O O2 0.731500 0.315002 0.584143
O O3 0.927535 0.329444 0.761443
O O4 0.855885 0.164007 0.793494
O O5 0.921851 0.664037 0.525241
O O6 0.000000 0.500000 0.500000
O O7 0.080415 0.500000 0.708573
O O8 0.595730 0.145414 0.843464
O O9 0.755888 0.000000 0.943411
O O10 0.053365 0.822008 0.333073
O O11 0.088642 0.000000 0.477495
O O12 0.924145 0.855070 0.084054
O O13 0.825632 0.000000 0.880613
O O14 0.500000 0.500000 0.000000
#
# Coordination Sequence:
#
# PCOD9214280 Si02
#       7
#     8   4   4   8   4   4   8
#     4  11  23  41  67  98 133 164 217 271 326 390
#     4  10  23  41  64  89 136 180 209 266 318 394
#     4  10  24  39  64  94 123 174 225 259 327 381
#     4  10  22  39  66  99 129 161 218 270 332 383
#     4  12  24  41  66  89 135 173 220 263 317 400
#     4  12  25  43  64  96 131 185 212 259 327 382
#     4  11  20  42  64  94 131 165 212 279 325 376
#
# _framework density 19.012796000000002
#
# number of rings (size 3 to 8) (size 9 to 14) (size 15 to 20)
#    0.000    1.200    4.000    1.800    2.800    0.800 
#    1.800    0.000    0.000    0.000    0.000    0.000 
#    0.000    0.000    0.000    0.000    0.000    0.000 
#
# Total GULP energy -111403.635193 kJ/mol
# GULP energy per Si atom -5570.181760 kJ/mol
# Density = 1.896952 g / cm^3
# Si number density = 19.012796 Si / 1000 Ang^3
#
#
#
# Elastic Constant Matrix: (Units=GPa)
#
#
# Indices 1 2 3 4 5 6 
#
# 1 103.1555 60.5256 40.7800 0.0000 -3.0000 0.0000
# 2 60.5256 163.4864 45.6857 0.0000 -2.0761 0.0000
# 3 40.7800 45.6857 59.4214 0.0000 19.6088 0.0000
# 4 0.0000 0.0000 0.0000 25.9460 0.0000 -30.5324
# 5 -3.0000 -2.0761 19.6088 0.0000 37.4940 0.0000
# 6 0.0000 0.0000 0.0000 -30.5324 0.0000 25.3706
#
#
#
# Elastic Compliance Matrix: (Units=1/GPa)
#
#
# Indices 1 2 3 4 5 6 
#
# 1 0.015861 -0.002678 -0.011114 0.000000 0.006933 0.000000
# 2 -0.002678 0.008864 -0.006126 0.000000 0.003480 0.000000
# 3 -0.011114 -0.006126 0.035739 0.000000 -0.019920 0.000000
# 4 0.000000 0.000000 0.000000 -0.092606 0.000000 -0.111447
# 5 0.006933 0.003480 -0.019920 0.000000 0.037836 0.000000
# 6 0.000000 0.000000 0.000000 -0.111447 0.000000 -0.094706
#
#
# Mechanical properties :
#
#
# Convention : Reuss Voigt Hill
#
# Bulk Modulus (GPa) = 48.47560 68.89400 58.68480
# Shear Modulus (GPa) = -118.20106 29.70027 -44.25040
#
# Velocity S-wave (km/s) = -7.89330 3.95665 -4.82955
# Velocity P-wave (km/s) = 7.58423 7.56226 0.40795
#
# Compressibility (1/GPa) = 0.02062894
#
# Stress axis : x y z
#
# Youngs Moduli (GPa) = 63.04904 112.81333 27.98050
#
# Poissons Ratio (x) = 0.30213 0.31097
# Poissons Ratio (y) = 0.16886 0.17140
# Poissons Ratio (z) = 0.70071 0.69105
#
# Static dielectric constant tensor:
#      x y z
#    x 1.629750 0.000000 -0.000840 
#    y 0.000000 1.760250 0.000000 
#    z -0.000840 0.000000 1.625610 
# 
# From -- ./inp_files/281914.got.cif
#   From: 2010.05.17/outbox.cif.g08.bks.cpg/sg12_141_cif.got.tgz:281914.got - 2010.06.03 13:09:07.
