data_PCOD9214827
_publ_section_title
;
Structure prediction by ZEFSAII (Michael W. Deem and Ramdas Pophale) SiO2 
 PCOD9214827
Probable space group: C 2/M
;
_chemical_formula_sum "Si O2"
_cell_formula_units_Z 26
_cell_length_a 9.719977
_cell_length_b 9.897176
_cell_length_c 13.508969
_cell_angle_alpha 90.000000
_cell_angle_beta 120.851505
_cell_angle_gamma 90.000000
_cell_volume 1115.677462
_symmetry_space_group_name_H-M "C 2/M"
_symmetry_group_IT_number 12
_symmetry_cell_setting 'monoclinic'
loop_
_space_group_symop_operation_xyz
x,y,z
-x,y,-z
-x,-y,-z
x,-y,z
1/2+x,1/2+y,z
1/2-x,1/2+y,-z
1/2-x,1/2-y,-z
1/2+x,1/2-y,z
loop_
_atom_site_type_symbol
_atom_site_label
_atom_site_fract_x
_atom_site_fract_y
_atom_site_fract_z
Si Si1 0.500000 0.000000 0.000000
Si Si2 0.015091 0.000000 0.388431
Si Si3 0.008518 0.264450 0.733202
Si Si4 0.617389 0.000000 0.450448
Si Si5 0.856940 0.777513 0.885213
O O1 0.371809 0.121125 0.924219
O O2 0.205328 0.000000 0.440939
O O3 0.000000 0.000000 0.500000
O O4 0.946557 0.864397 0.316237
O O5 0.176088 0.326664 0.834641
O O6 0.915685 0.370803 0.631015
O O7 0.903941 0.217707 0.787507
O O8 0.500000 0.000000 0.500000
O O9 0.000000 0.846204 0.000000
#
# Coordination Sequence:
#
# PCOD9214827 Si02
#       5
#     2   4   8   4   8
#     4   8  20  38  64  84 136 156 216 236 322 360
#     4  12  25  43  66  94 128 174 219 261 315 383
#     4  12  23  43  67  95 129 172 212 260 329 371
#     4  12  25  42  64  96 130 164 218 277 313 371
#     4  10  22  40  64  96 128 168 207 262 311 390
#
# _framework density 23.304224999999999
#
# number of rings (size 3 to 8) (size 9 to 14) (size 15 to 20)
#    0.923    0.000    0.000    8.308    0.000    0.000 
#    0.000    1.538    0.000    0.000    0.000    0.000 
#    0.000    0.000    0.000    0.000    0.000    0.000 
#
# Total GULP energy -72477.115215 kJ/mol
# GULP energy per Si atom -5575.162709 kJ/mol
# Density = 2.325118 g / cm^3
# Si number density = 23.304225 Si / 1000 Ang^3
#
#
#
# Elastic Constant Matrix: (Units=GPa)
#
#
# Indices 1 2 3 4 5 6 
#
# 1 81.5175 -34.0646 7.7177 0.0000 3.8459 0.0000
# 2 -34.0646 96.0536 19.6376 0.0000 -3.8623 0.0000
# 3 7.7177 19.6376 90.5086 0.0000 8.4734 0.0000
# 4 0.0000 0.0000 0.0000 -4.1450 0.0000 10.3105
# 5 3.8459 -3.8623 8.4734 0.0000 60.9895 0.0000
# 6 0.0000 0.0000 0.0000 10.3105 0.0000 10.9379
#
#
#
# Elastic Compliance Matrix: (Units=1/GPa)
#
#
# Indices 1 2 3 4 5 6 
#
# 1 0.014941 0.005803 -0.002512 0.000000 -0.000226 0.000000
# 2 0.005803 0.013213 -0.003451 0.000000 0.000950 0.000000
# 3 -0.002512 -0.003451 0.012176 0.000000 -0.001752 0.000000
# 4 0.000000 0.000000 0.000000 -0.072128 0.000000 0.067991
# 5 -0.000226 0.000950 -0.001752 0.000000 0.016714 0.000000
# 6 0.000000 0.000000 0.000000 0.067991 0.000000 0.027334
#
#
# Mechanical properties :
#
#
# Convention : Reuss Voigt Hill
#
# Bulk Modulus (GPa) = 24.99368 28.29566 26.64467
# Shear Modulus (GPa) = 193.02214 31.87573 112.44893
#
# Velocity S-wave (km/s) = 9.11081 3.70240 6.95394
# Velocity P-wave (km/s) = 11.01926 5.51772 8.71405
#
# Compressibility (1/GPa) = 0.04001011
#
# Stress axis : x y z
#
# Youngs Moduli (GPa) = 66.93084 75.68575 82.13202
#
# Poissons Ratio (x) = -0.43921 0.20631
# Poissons Ratio (y) = -0.38841 0.28340
# Poissons Ratio (z) = 0.16813 0.26115
#
# Static dielectric constant tensor:
#      x y z
#    x 4.163480 0.000000 1.529090 
#    y 0.000000 1.817320 0.000000 
#    z 1.529090 0.000000 2.880130 
# 
# From -- ./inp_files/127604.got.cif
#   From: 2010.05.17/outbox.cif.g08.bks.cpg/sg12_64_cif.got.tgz:127604.got - 2010.06.03 13:09:07.
