data_PCOD9214692
_publ_section_title
;
Structure prediction by ZEFSAII (Michael W. Deem and Ramdas Pophale) SiO2 
 PCOD9214692
Probable space group: C 2/M
;
_chemical_formula_sum "Si O2"
_cell_formula_units_Z 56
_cell_length_a 10.020410
_cell_length_b 22.439988
_cell_length_c 16.819196
_cell_angle_alpha 90.000000
_cell_angle_beta 126.567697
_cell_angle_gamma 90.000000
_cell_volume 3037.469302
_symmetry_space_group_name_H-M "C 2/M"
_symmetry_group_IT_number 12
_symmetry_cell_setting 'monoclinic'
loop_
_space_group_symop_operation_xyz
x,y,z
-x,y,-z
-x,-y,-z
x,-y,z
1/2+x,1/2+y,z
1/2-x,1/2+y,-z
1/2-x,1/2-y,-z
1/2+x,1/2-y,z
loop_
_atom_site_type_symbol
_atom_site_label
_atom_site_fract_x
_atom_site_fract_y
_atom_site_fract_z
Si Si1 0.308994 0.500000 0.407617
Si Si2 0.108721 0.694895 0.358722
Si Si3 0.793344 0.881552 0.300030
Si Si4 0.306717 0.118448 0.300031
Si Si5 0.160115 0.166557 0.410116
Si Si6 0.687204 0.928714 0.093091
Si Si7 0.993760 0.500000 0.592383
Si Si8 0.998978 0.071286 0.093091
O O1 0.500000 0.500000 0.500000
O O2 0.269431 0.441745 0.341890
O O3 0.194141 0.500000 0.444141
O O4 0.188813 0.669750 0.306653
O O5 0.119146 0.765885 0.369146
O O6 0.221283 0.669745 0.471282
O O7 0.924491 0.669750 0.306654
O O8 0.736838 0.894023 0.190264
O O9 0.987778 0.865230 0.369692
O O10 0.251603 0.134769 0.369692
O O11 0.143691 0.105977 0.190265
O O12 0.414349 0.058255 0.341890
O O13 0.822397 0.916413 0.072397
O O14 0.695122 0.000000 0.112501
O O15 0.500000 0.914895 0.000000
O O16 0.000000 0.500000 0.500000
O O17 0.029879 0.000000 0.112500
O O18 0.000000 0.085105 0.000000
#
# Coordination Sequence:
#
# PCOD9214692 Si02
#       8
#     4   8   8   8   8   8   4   8
#     4  12  26  38  59  94 133 172 203 254 326 388
#     4  11  24  41  64  93 124 177 221 258 296 374
#     4  12  23  40  64  93 130 164 208 266 319 376
#     4  12  23  40  64  93 130 164 208 266 319 376
#     4  11  24  43  64  89 128 173 225 256 302 364
#     4  10  22  40  63  92 125 165 210 260 321 390
#     4  12  26  38  59  94 133 172 203 254 326 388
#     4  10  22  40  63  92 125 165 210 260 321 390
#
# _framework density 18.436401
#
# number of rings (size 3 to 8) (size 9 to 14) (size 15 to 20)
#    0.000    0.857    4.286    3.429    4.000    2.286 
#    0.000    0.000    0.000    5.143    0.000    0.000 
#    0.000    0.000    0.000    0.000    0.000    0.000 
#
# Total GULP energy -156634.028365 kJ/mol
# GULP energy per Si atom -5594.072442 kJ/mol
# Density = 1.839444 g / cm^3
# Si number density = 18.436401 Si / 1000 Ang^3
#
#
#
# Elastic Constant Matrix: (Units=GPa)
#
#
# Indices 1 2 3 4 5 6 
#
# 1 160.4451 32.8520 52.7934 0.0000 -1.9387 0.0000
# 2 32.8520 63.3583 24.0049 0.0000 -0.5303 0.0000
# 3 52.7934 24.0049 97.0776 0.0000 -1.8587 0.0000
# 4 0.0000 0.0000 0.0000 17.6413 0.0000 0.1019
# 5 -1.9387 -0.5303 -1.8587 0.0000 37.6559 0.0000
# 6 0.0000 0.0000 0.0000 0.1019 0.0000 15.9429
#
#
#
# Elastic Compliance Matrix: (Units=1/GPa)
#
#
# Indices 1 2 3 4 5 6 
#
# 1 0.008007 -0.002760 -0.003668 0.000000 0.000192 0.000000
# 2 -0.002760 0.018366 -0.003041 0.000000 -0.000034 0.000000
# 3 -0.003668 -0.003041 0.013056 0.000000 0.000413 0.000000
# 4 0.000000 0.000000 0.000000 0.056687 0.000000 -0.000362
# 5 0.000192 -0.000034 0.000413 0.000000 0.026586 0.000000
# 6 0.000000 0.000000 0.000000 -0.000362 0.000000 0.062726
#
#
# Mechanical properties :
#
#
# Convention : Reuss Voigt Hill
#
# Bulk Modulus (GPa) = 48.80417 60.02019 54.41218
# Shear Modulus (GPa) = 23.67443 28.33008 26.00225
#
# Velocity S-wave (km/s) = 3.58734 3.92425 3.75957
# Velocity P-wave (km/s) = 6.60967 7.29102 6.95869
#
# Compressibility (1/GPa) = 0.02049005
#
# Stress axis : x y z
#
# Youngs Moduli (GPa) = 124.88745 54.44711 76.59419
#
# Poissons Ratio (x) = 0.15030 0.28097
# Poissons Ratio (y) = 0.34474 0.23293
# Poissons Ratio (z) = 0.45812 0.16558
#
# Static dielectric constant tensor:
#      x y z
#    x 1.619320 0.000000 -0.001470 
#    y 0.000000 1.626600 0.000000 
#    z -0.001470 0.000000 1.594790 
# 
# From -- ./inp_files/199007.got.cif
#   From: 2010.05.17/outbox.cif.g08.bks.cpg/sg12_100_cif.got.tgz:199007.got - 2010.06.03 13:09:07.
