data_PCOD9214251
_publ_section_title
;
Structure prediction by ZEFSAII (Michael W. Deem and Ramdas Pophale) SiO2 
 PCOD9214251
Probable space group: C 2/M
;
_chemical_formula_sum "Si O2"
_cell_formula_units_Z 42
_cell_length_a 29.508528
_cell_length_b 7.642544
_cell_length_c 8.639003
_cell_angle_alpha 90.000000
_cell_angle_beta 71.530040
_cell_angle_gamma 90.000000
_cell_volume 1847.914286
_symmetry_space_group_name_H-M "C 2/M"
_symmetry_group_IT_number 12
_symmetry_cell_setting 'monoclinic'
loop_
_space_group_symop_operation_xyz
x,y,z
-x,y,-z
-x,-y,-z
x,-y,z
1/2+x,1/2+y,z
1/2-x,1/2+y,-z
1/2-x,1/2-y,-z
1/2+x,1/2-y,z
loop_
_atom_site_type_symbol
_atom_site_label
_atom_site_fract_x
_atom_site_fract_y
_atom_site_fract_z
Si Si1 0.737170 0.208446 0.690078
Si Si2 0.666221 0.712389 0.257691
Si Si3 0.500000 0.500000 0.500000
Si Si4 0.951725 0.213286 0.142781
Si Si5 0.067494 0.306325 0.486762
Si Si6 0.360849 0.296786 0.051699
O O1 0.750000 0.250000 0.500000
O O2 0.781378 0.272136 0.747343
O O3 0.686751 0.286262 0.794675
O O4 0.733204 0.000000 0.712593
O O5 0.667360 0.500000 0.257487
O O6 0.624224 0.772415 0.416957
O O7 0.651662 0.777301 0.103082
O O8 0.540286 0.653966 0.425407
O O9 0.949182 0.286950 0.317971
O O10 0.906214 0.275793 0.093700
O O11 0.950305 0.000000 0.164026
O O12 0.000000 0.255876 0.000000
O O13 0.057412 0.500000 0.438008
O O14 0.372909 0.500000 0.012380
#
# Coordination Sequence:
#
# PCOD9214251 Si02
#       6
#     8   8   2   8   8   8
#     4  11  23  39  63  92 131 176 221 275 338 399
#     4  10  22  42  66  94 134 176 219 279 339 400
#     4  12  26  48  70  94 148 172 228 284 326 402
#     4  10  22  41  67  94 132 181 223 278 343 401
#     4  12  26  43  71 101 131 181 227 275 339 398
#     4  10  22  39  65  95 129 175 222 274 345 398
#
# _framework density 22.728328000000001
#
# number of rings (size 3 to 8) (size 9 to 14) (size 15 to 20)
#    0.000    1.333    1.905    2.571    2.667    8.000 
#    0.000    0.000    0.000    0.000    0.000    0.000 
#    0.000    0.000    0.000    0.000    0.000    0.000 
#
# Total GULP energy -117268.062852 kJ/mol
# GULP energy per Si atom -5584.193469 kJ/mol
# Density = 2.267660 g / cm^3
# Si number density = 22.728328 Si / 1000 Ang^3
#
#
#
# Elastic Constant Matrix: (Units=GPa)
#
#
# Indices 1 2 3 4 5 6 
#
# 1 134.5713 28.1226 25.0656 0.0000 -22.7755 0.0000
# 2 28.1226 104.1140 -5.0603 0.0000 4.2677 0.0000
# 3 25.0656 -5.0603 106.8144 0.0000 -11.4868 0.0000
# 4 0.0000 0.0000 0.0000 42.5381 0.0000 21.9632
# 5 -22.7755 4.2677 -11.4868 0.0000 38.6722 0.0000
# 6 0.0000 0.0000 0.0000 21.9632 0.0000 27.1672
#
#
#
# Elastic Compliance Matrix: (Units=1/GPa)
#
#
# Indices 1 2 3 4 5 6 
#
# 1 0.009221 -0.002789 -0.001734 0.000000 0.005223 0.000000
# 2 -0.002789 0.010505 0.000879 0.000000 -0.002541 0.000000
# 3 -0.001734 0.000879 0.010010 0.000000 0.001855 0.000000
# 4 0.000000 0.000000 0.000000 0.040352 0.000000 -0.032622
# 5 0.005223 -0.002541 0.001855 0.000000 0.029766 0.000000
# 6 0.000000 0.000000 0.000000 -0.032622 0.000000 0.063183
#
#
# Mechanical properties :
#
#
# Convention : Reuss Voigt Hill
#
# Bulk Modulus (GPa) = 44.54876 49.08394 46.81635
# Shear Modulus (GPa) = 28.12030 41.50029 34.81030
#
# Velocity S-wave (km/s) = 3.52125 4.27772 3.91779
# Velocity P-wave (km/s) = 6.01460 6.78538 6.41158
#
# Compressibility (1/GPa) = 0.02244731
#
# Stress axis : x y z
#
# Youngs Moduli (GPa) = 108.44946 95.19193 99.89890
#
# Poissons Ratio (x) = 0.26550 0.17325
# Poissons Ratio (y) = 0.30247 -0.08780
# Poissons Ratio (z) = 0.18808 -0.08367
#
# Static dielectric constant tensor:
#      x y z
#    x 1.789200 0.000000 0.052550 
#    y 0.000000 1.850030 0.000000 
#    z 0.052550 0.000000 1.800700 
# 
# From -- ./inp_files/108494.got.cif
#   From: 2010.05.17/outbox.cif.g08.bks.cpg/sg12_55_cif.got.tgz:108494.got - 2010.06.03 13:09:07.
