data_PCOD9214111
_publ_section_title
;
Structure prediction by ZEFSAII (Michael W. Deem and Ramdas Pophale) SiO2 
 PCOD9214111
Probable space group: C 2/M
;
_chemical_formula_sum "Si O2"
_cell_formula_units_Z 36
_cell_length_a 23.843025
_cell_length_b 10.174388
_cell_length_c 14.603066
_cell_angle_alpha 90.000000
_cell_angle_beta 30.522849
_cell_angle_gamma 90.000000
_cell_volume 1799.187647
_symmetry_space_group_name_H-M "C 2/M"
_symmetry_group_IT_number 12
_symmetry_cell_setting 'monoclinic'
loop_
_space_group_symop_operation_xyz
x,y,z
-x,y,-z
-x,-y,-z
x,-y,z
1/2+x,1/2+y,z
1/2-x,1/2+y,-z
1/2-x,1/2-y,-z
1/2+x,1/2-y,z
loop_
_atom_site_type_symbol
_atom_site_label
_atom_site_fract_x
_atom_site_fract_y
_atom_site_fract_z
Si Si1 0.494247 0.500000 0.399228
Si Si2 0.894698 0.266108 0.459142
Si Si3 0.881695 0.500000 0.617862
Si Si4 0.834779 0.345865 0.257142
Si Si5 0.143116 0.000000 0.023285
Si Si6 0.461979 0.234813 0.908452
O O1 0.500000 0.500000 0.500000
O O2 0.433054 0.630847 0.451726
O O3 0.605633 0.500000 0.181899
O O4 0.873137 0.373416 0.565636
O O5 0.781226 0.226727 0.568757
O O6 0.988585 0.316860 0.257019
O O7 0.000000 0.500000 0.500000
O O8 0.774678 0.500000 0.832488
O O9 0.831558 0.500000 0.288929
O O10 0.928948 0.269366 0.181076
O O11 0.872420 0.339281 0.097148
O O12 0.090240 0.125415 0.045701
#
# Coordination Sequence:
#
# PCOD9214111 Si02
#       6
#     4   8   4   8   4   8
#     4  10  22  46  68  89 120 173 218 260 313 375
#     4  11  23  42  65  91 132 163 210 261 314 372
#     4  12  26  45  63  95 123 159 215 273 322 363
#     4  11  22  39  62  94 133 166 213 245 308 383
#     4  10  22  44  66  89 126 163 212 258 321 375
#     4  10  22  39  62  94 128 170 201 253 311 380
#
# _framework density 20.009029000000002
#
# number of rings (size 3 to 8) (size 9 to 14) (size 15 to 20)
#    0.000    1.333    3.333    2.667    3.111    2.667 
#    4.000    3.333    0.000    0.000    0.000    0.000 
#    0.000    0.000    0.000    0.000    0.000    0.000 
#
# Total GULP energy -100421.584855 kJ/mol
# GULP energy per Si atom -5578.976936 kJ/mol
# Density = 1.996349 g / cm^3
# Si number density = 20.009029 Si / 1000 Ang^3
#
#
#
# Elastic Constant Matrix: (Units=GPa)
#
#
# Indices 1 2 3 4 5 6 
#
# 1 79.1516 24.8740 34.1037 0.0000 -2.0965 0.0000
# 2 24.8740 68.4442 39.4074 0.0000 -3.6061 0.0000
# 3 34.1037 39.4074 117.4598 0.0000 -2.5916 0.0000
# 4 0.0000 0.0000 0.0000 30.9361 0.0000 -0.0489
# 5 -2.0965 -3.6061 -2.5916 0.0000 35.9810 0.0000
# 6 0.0000 0.0000 0.0000 -0.0489 0.0000 2.0100
#
#
#
# Elastic Compliance Matrix: (Units=1/GPa)
#
#
# Indices 1 2 3 4 5 6 
#
# 1 0.015158 -0.003673 -0.003163 0.000000 0.000287 0.000000
# 2 -0.003673 0.019067 -0.005301 0.000000 0.001315 0.000000
# 3 -0.003163 -0.005301 0.011212 0.000000 0.000092 0.000000
# 4 0.000000 0.000000 0.000000 0.032326 0.000000 0.000786
# 5 0.000287 0.001315 0.000092 0.000000 0.027948 0.000000
# 6 0.000000 0.000000 0.000000 0.000786 0.000000 0.497535
#
#
# Mechanical properties :
#
#
# Convention : Reuss Voigt Hill
#
# Bulk Modulus (GPa) = 47.25016 51.31398 49.28207
# Shear Modulus (GPa) = 7.87928 24.89677 16.38803
#
# Velocity S-wave (km/s) = 1.98656 3.53126 2.86498
# Velocity P-wave (km/s) = 5.37844 6.50596 5.96888
#
# Compressibility (1/GPa) = 0.02116395
#
# Stress axis : x y z
#
# Youngs Moduli (GPa) = 65.96967 52.44691 89.18659
#
# Poissons Ratio (x) = 0.19263 0.28206
# Poissons Ratio (y) = 0.24230 0.47282
# Poissons Ratio (z) = 0.20864 0.27805
#
# Static dielectric constant tensor:
#      x y z
#    x 1.695480 0.000000 0.019790 
#    y 0.000000 1.681510 0.000000 
#    z 0.019790 0.000000 1.744060 
# 
# From -- ./inp_files/244567.got.cif
#   From: 2010.05.17/outbox.cif.g08.bks.cpg/sg12_123_cif.got.tgz:244567.got - 2010.06.03 13:09:07.
