data_PCOD9214049
_publ_section_title
;
Structure prediction by ZEFSAII (Michael W. Deem and Ramdas Pophale) SiO2 
 PCOD9214049
Probable space group: C 2/M
;
_chemical_formula_sum "Si O2"
_cell_formula_units_Z 56
_cell_length_a 15.634706
_cell_length_b 13.941834
_cell_length_c 11.899910
_cell_angle_alpha 90.000000
_cell_angle_beta 115.868664
_cell_angle_gamma 90.000000
_cell_volume 2333.982640
_symmetry_space_group_name_H-M "C 2/M"
_symmetry_group_IT_number 12
_symmetry_cell_setting 'monoclinic'
loop_
_space_group_symop_operation_xyz
x,y,z
-x,y,-z
-x,-y,-z
x,-y,z
1/2+x,1/2+y,z
1/2-x,1/2+y,-z
1/2-x,1/2-y,-z
1/2+x,1/2-y,z
loop_
_atom_site_type_symbol
_atom_site_label
_atom_site_fract_x
_atom_site_fract_y
_atom_site_fract_z
Si Si1 0.529483 0.896382 0.739738
Si Si2 0.992980 0.805733 0.365069
Si Si3 0.395380 0.686762 0.926291
Si Si4 0.301267 0.895468 0.608179
Si Si5 0.340198 0.606510 0.118879
Si Si6 0.194982 0.817436 0.348300
Si Si7 0.621528 0.894093 0.040871
O O1 0.547183 0.802204 0.676518
O O2 0.414897 0.898283 0.685045
O O3 0.580555 0.888469 0.890482
O O4 0.558807 0.000000 0.708358
O O5 0.096059 0.813655 0.363331
O O6 0.000000 0.828129 0.500000
O O7 0.919564 0.871775 0.256009
O O8 0.333547 0.645708 0.790406
O O9 0.500000 0.643343 0.000000
O O10 0.347732 0.678428 0.019350
O O11 0.409187 0.800067 0.909354
O O12 0.268959 0.880156 0.460451
O O13 0.268151 0.793092 0.640152
O O14 0.264094 0.000000 0.626254
O O15 0.355124 0.500000 0.080192
O O16 0.234821 0.610587 0.105501
O O17 0.596573 0.000000 0.072186
#
# Coordination Sequence:
#
# PCOD9214049 Si02
#       7
#     8   8   8   8   8   8   8
#     4   9  18  38  64  93 123 159 210 258 318 385
#     4  11  23  42  65  89 125 173 217 267 319 382
#     4  12  22  41  69  97 133 168 214 274 329 379
#     4   9  19  38  60  85 127 164 201 259 311 372
#     4  11  25  44  65  97 133 173 220 262 320 388
#     4  10  22  39  61  97 124 163 220 260 321 387
#     4  10  22  41  67  98 133 170 210 262 327 395
#
# _framework density 23.993323
#
# number of rings (size 3 to 8) (size 9 to 14) (size 15 to 20)
#    0.000    1.714    2.857    1.286    0.000    6.286 
#    0.000    1.429    0.000    0.000    0.000    0.000 
#    0.000    0.000    0.000    0.000    0.000    0.000 
#
# Total GULP energy -156565.024114 kJ/mol
# GULP energy per Si atom -5591.608004 kJ/mol
# Density = 2.393871 g / cm^3
# Si number density = 23.993323 Si / 1000 Ang^3
#
#
#
# Elastic Constant Matrix: (Units=GPa)
#
#
# Indices 1 2 3 4 5 6 
#
# 1 52.5895 12.9895 20.7298 0.0000 11.8845 0.0000
# 2 12.9895 75.7716 10.2960 0.0000 9.0168 0.0000
# 3 20.7298 10.2960 191.1830 0.0000 16.9312 0.0000
# 4 0.0000 0.0000 0.0000 16.4132 0.0000 -0.4763
# 5 11.8845 9.0168 16.9312 0.0000 34.8525 0.0000
# 6 0.0000 0.0000 0.0000 -0.4763 0.0000 5.7985
#
#
#
# Elastic Compliance Matrix: (Units=1/GPa)
#
#
# Indices 1 2 3 4 5 6 
#
# 1 0.021692 -0.002793 -0.001683 0.000000 -0.005857 0.000000
# 2 -0.002793 0.014012 -0.000225 0.000000 -0.002563 0.000000
# 3 -0.001683 -0.000225 0.005611 0.000000 -0.002094 0.000000
# 4 0.000000 0.000000 0.000000 0.061072 0.000000 0.005017
# 5 -0.005857 -0.002563 -0.002094 0.000000 0.032370 0.000000
# 6 0.000000 0.000000 0.000000 0.005017 0.000000 0.172870
#
#
# Mechanical properties :
#
#
# Convention : Reuss Voigt Hill
#
# Bulk Modulus (GPa) = 31.33509 45.28608 38.31058
# Shear Modulus (GPa) = 15.25948 29.78143 22.52046
#
# Velocity S-wave (km/s) = 2.52462 3.52694 3.06700
# Velocity P-wave (km/s) = 4.64613 5.95829 5.34265
#
# Compressibility (1/GPa) = 0.03191311
#
# Stress axis : x y z
#
# Youngs Moduli (GPa) = 46.09993 71.36766 178.23466
#
# Poissons Ratio (x) = 0.19933 0.29996
# Poissons Ratio (y) = 0.12876 0.04006
# Poissons Ratio (z) = 0.07758 0.01604
#
# Static dielectric constant tensor:
#      x y z
#    x 1.937990 0.000000 -0.004490 
#    y 0.000000 1.944090 0.000000 
#    z -0.004490 0.000000 1.890380 
# 
# From -- ./inp_files/156714.got.cif
#   From: 2010.05.17/outbox.cif.g08.bks.cpg/sg12_79_cif.got.tgz:156714.got - 2010.06.03 13:09:07.
