data_PCOD9214786
_publ_section_title
;
Structure prediction by ZEFSAII (Michael W. Deem and Ramdas Pophale) SiO2 
 PCOD9214786
Probable space group: C 2/M
;
_chemical_formula_sum "Si O2"
_cell_formula_units_Z 64
_cell_length_a 15.753401
_cell_length_b 17.663164
_cell_length_c 17.499049
_cell_angle_alpha 90.000000
_cell_angle_beta 43.189904
_cell_angle_gamma 90.000000
_cell_volume 3332.568682
_symmetry_space_group_name_H-M "C 2/M"
_symmetry_group_IT_number 12
_symmetry_cell_setting 'monoclinic'
loop_
_space_group_symop_operation_xyz
x,y,z
-x,y,-z
-x,-y,-z
x,-y,z
1/2+x,1/2+y,z
1/2-x,1/2+y,-z
1/2-x,1/2-y,-z
1/2+x,1/2-y,z
loop_
_atom_site_type_symbol
_atom_site_label
_atom_site_fract_x
_atom_site_fract_y
_atom_site_fract_z
Si Si1 0.482964 0.409413 0.920638
Si Si2 0.624733 0.725984 0.368909
Si Si3 0.029707 0.590637 0.065530
Si Si4 0.225828 0.662775 0.036476
Si Si5 0.271169 0.087766 0.311941
Si Si6 0.800608 0.410778 0.471109
Si Si7 0.481313 0.801054 0.710435
Si Si8 0.346542 0.683744 0.307505
O O1 0.494535 0.500000 0.901778
O O2 0.580179 0.363577 0.804671
O O3 0.500000 0.393930 0.000000
O O4 0.348848 0.379854 0.981664
O O5 0.500000 0.729196 0.500000
O O6 0.675981 0.641028 0.331494
O O7 0.590265 0.756930 0.308923
O O8 0.733163 0.772598 0.340825
O O9 0.039920 0.500000 0.058902
O O10 0.157664 0.624683 0.009915
O O11 0.911870 0.609878 0.196436
O O12 0.000000 0.617391 0.000000
O O13 0.122968 0.659795 0.170064
O O14 0.250000 0.750000 0.000000
O O15 0.253155 0.096421 0.414746
O O16 0.256260 0.000000 0.301570
O O17 0.818782 0.500000 0.474600
O O18 0.709535 0.371917 0.591327
O O19 0.927573 0.362905 0.386768
O O20 0.563616 0.743457 0.707941
#
# Coordination Sequence:
#
# PCOD9214786 Si02
#       8
#     8   8   8   8   8   8   8   8
#     4  11  26  47  69  96 136 180 222 277 336 392
#     4  12  24  40  66  95 129 171 217 269 328 397
#     4  10  22  40  64  92 128 169 212 267 326 387
#     4  12  24  41  65 100 128 173 223 268 324 399
#     4  10  22  41  64  95 132 170 213 272 337 391
#     4  11  22  41  70  98 129 175 224 273 338 394
#     4  12  24  43  68  99 134 175 221 274 339 395
#     4  12  23  46  67  98 137 176 225 275 333 403
#
# _framework density 19.204405000000001
#
# number of rings (size 3 to 8) (size 9 to 14) (size 15 to 20)
#    0.000    0.750    5.000    2.625    1.750    1.250 
#    0.000    3.125    0.000    0.000    0.000    0.000 
#    0.000    0.000    0.000    0.000    0.000    0.000 
#
# Total GULP energy -178914.687047 kJ/mol
# GULP energy per Si atom -5591.083970 kJ/mol
# Density = 1.916070 g / cm^3
# Si number density = 19.204405 Si / 1000 Ang^3
#
#
#
# Elastic Constant Matrix: (Units=GPa)
#
#
# Indices 1 2 3 4 5 6 
#
# 1 124.4011 48.8100 23.3432 0.0002 -14.3544 0.0000
# 2 48.8100 96.5203 40.4849 0.0001 -5.2023 0.0000
# 3 23.3432 40.4849 111.5398 0.0002 -10.0282 0.0000
# 4 0.0002 0.0001 0.0002 -120.5102 -0.0002 19.4273
# 5 -14.3544 -5.2023 -10.0282 -0.0002 28.3284 0.0000
# 6 0.0000 0.0000 0.0000 19.4273 0.0000 30.7318
#
#
#
# Elastic Compliance Matrix: (Units=1/GPa)
#
#
# Indices 1 2 3 4 5 6 
#
# 1 0.010547 -0.005115 0.000047 0.000000 0.004421 0.000000
# 2 -0.005115 0.014715 -0.004401 0.000000 -0.001447 0.000000
# 3 0.000047 -0.004401 0.010827 0.000000 0.003048 0.000000
# 4 0.000000 0.000000 0.000000 -0.007531 0.000000 0.004761
# 5 0.004421 -0.001447 0.003048 0.000000 0.038354 0.000000
# 6 0.000000 0.000000 0.000000 0.004761 0.000000 0.029530
#
#
# Mechanical properties :
#
#
# Convention : Reuss Voigt Hill
#
# Bulk Modulus (GPa) = 58.30480 61.97082 60.13781
# Shear Modulus (GPa) = 41.28941 2.36490 21.82715
#
# Velocity S-wave (km/s) = 4.64184 1.11090 3.37496
# Velocity P-wave (km/s) = 7.69122 5.82963 6.82420
#
# Compressibility (1/GPa) = 0.01715125
#
# Stress axis : x y z
#
# Youngs Moduli (GPa) = 94.81599 67.95853 92.36201
#
# Poissons Ratio (x) = 0.34759 -0.00432
# Poissons Ratio (y) = 0.48496 0.40645
# Poissons Ratio (z) = -0.00443 0.29906
#
# Static dielectric constant tensor:
#      x y z
#    x 1.658780 0.000000 0.015580 
#    y 0.000000 1.658570 0.000000 
#    z 0.015580 0.000000 1.662770 
# 
# From -- ./inp_files/271673.got.cif
#   From: 2010.05.17/outbox.cif.g08.bks.cpg/sg12_136_cif.got.tgz:271673.got - 2010.06.03 13:09:07.
