data_PCOD9214326
_publ_section_title
;
Structure prediction by ZEFSAII (Michael W. Deem and Ramdas Pophale) SiO2 
 PCOD9214326
Probable space group: C 2/M
;
_chemical_formula_sum "Si O2"
_cell_formula_units_Z 44
_cell_length_a 31.518554
_cell_length_b 11.216019
_cell_length_c 8.073286
_cell_angle_alpha 90.000000
_cell_angle_beta 115.509261
_cell_angle_gamma 90.000000
_cell_volume 2575.788016
_symmetry_space_group_name_H-M "C 2/M"
_symmetry_group_IT_number 12
_symmetry_cell_setting 'monoclinic'
loop_
_space_group_symop_operation_xyz
x,y,z
-x,y,-z
-x,-y,-z
x,-y,z
1/2+x,1/2+y,z
1/2-x,1/2+y,-z
1/2-x,1/2-y,-z
1/2+x,1/2-y,z
loop_
_atom_site_type_symbol
_atom_site_label
_atom_site_fract_x
_atom_site_fract_y
_atom_site_fract_z
Si Si1 0.931772 0.000000 0.612223
Si Si2 0.633133 0.500000 0.212789
Si Si3 0.810718 0.239985 0.773049
Si Si4 0.448827 0.709329 0.381361
Si Si5 0.036360 0.000000 0.854788
Si Si6 0.705843 0.142664 0.601883
Si Si7 0.355610 0.857505 0.174794
O O1 0.935303 0.881157 0.507104
O O2 0.980588 0.000000 0.800669
O O3 0.882117 0.000000 0.621388
O O4 0.661488 0.616824 0.208990
O O5 0.581826 0.500000 0.045201
O O6 0.755910 0.207970 0.704967
O O7 0.814922 0.315676 0.610116
O O8 0.830650 0.304930 0.969088
O O9 0.500000 0.766004 0.500000
O O10 0.456645 0.618578 0.243187
O O11 0.407076 0.799966 0.277928
O O12 0.673385 0.171150 0.705796
O O13 0.713016 0.000000 0.610278
O O14 0.358159 0.000000 0.165346
#
# Coordination Sequence:
#
# PCOD9214326 Si02
#       7
#     4   4   8   8   4   8   8
#     4   9  19  31  55  85 109 143 173 221 284 322
#     4  12  19  32  56  84 110 142 179 222 277 326
#     4  11  22  37  57  83 111 140 184 228 268 327
#     4   9  18  35  54  79 111 141 181 227 269 323
#     4   9  17  33  53  79 115 137 173 226 274 324
#     4  10  22  40  57  79 110 144 182 226 273 323
#     4  11  22  37  58  79 108 150 185 221 271 319
#
# _framework density 17.082151
#
# number of rings (size 3 to 8) (size 9 to 14) (size 15 to 20)
#    0.000    1.818    2.727    3.545    0.000    0.364 
#    0.000    0.000    0.000    0.000    0.000    6.364 
#    0.000    0.000    0.000    0.000    0.000    0.000 
#
# Total GULP energy -122630.303724 kJ/mol
# GULP energy per Si atom -5574.104715 kJ/mol
# Density = 1.704327 g / cm^3
# Si number density = 17.082151 Si / 1000 Ang^3
#
#
#
# Elastic Constant Matrix: (Units=GPa)
#
#
# Indices 1 2 3 4 5 6 
#
# 1 121.8143 57.2146 61.4454 0.0000 1.8416 0.0000
# 2 57.2146 83.3210 52.2439 0.0000 1.6029 0.0000
# 3 61.4454 52.2439 125.1968 0.0000 6.2990 0.0000
# 4 0.0000 0.0000 0.0000 35.7571 0.0000 2.2942
# 5 1.8416 1.6029 6.2990 0.0000 21.8551 0.0000
# 6 0.0000 0.0000 0.0000 2.2942 0.0000 20.4293
#
#
#
# Elastic Compliance Matrix: (Units=1/GPa)
#
#
# Indices 1 2 3 4 5 6 
#
# 1 0.013258 -0.006797 -0.003693 0.000000 0.000446 0.000000
# 2 -0.006797 0.019752 -0.004934 0.000000 0.000546 0.000000
# 3 -0.003693 -0.004934 0.011999 0.000000 -0.002785 0.000000
# 4 0.000000 0.000000 0.000000 0.028169 0.000000 -0.003163
# 5 0.000446 0.000546 -0.002785 0.000000 0.046481 0.000000
# 6 0.000000 0.000000 0.000000 -0.003163 0.000000 0.049305
#
#
# Mechanical properties :
#
#
# Convention : Reuss Voigt Hill
#
# Bulk Modulus (GPa) = 70.61551 74.68222 72.64887
# Shear Modulus (GPa) = 24.44607 26.23686 25.34146
#
# Velocity S-wave (km/s) = 3.78708 3.92334 3.85581
# Velocity P-wave (km/s) = 7.78146 8.02108 7.90218
#
# Compressibility (1/GPa) = 0.01416120
#
# Stress axis : x y z
#
# Youngs Moduli (GPa) = 75.42864 50.62704 83.34016
#
# Poissons Ratio (x) = 0.34410 0.30776
# Poissons Ratio (y) = 0.51267 0.41122
# Poissons Ratio (z) = 0.27855 0.24981
#
# Static dielectric constant tensor:
#      x y z
#    x 1.572970 0.000000 -0.018390 
#    y 0.000000 1.533940 0.000000 
#    z -0.018390 0.000000 1.604690 
# 
# From -- ./inp_files/94250.got.cif
#   From: 2010.05.17/outbox.cif.g08.bks.cpg/sg12_48_cif.got.tgz:94250.got - 2010.06.03 13:09:07.
