data_PCOD9214926
_publ_section_title
;
Structure prediction by ZEFSAII (Michael W. Deem and Ramdas Pophale) SiO2 
 PCOD9214926
Probable space group: C 2/M
;
_chemical_formula_sum "Si O2"
_cell_formula_units_Z 56
_cell_length_a 14.102278
_cell_length_b 32.054829
_cell_length_c 6.692421
_cell_angle_alpha 90.000000
_cell_angle_beta 81.559271
_cell_angle_gamma 90.000000
_cell_volume 2992.513738
_symmetry_space_group_name_H-M "C 2/M"
_symmetry_group_IT_number 12
_symmetry_cell_setting 'monoclinic'
loop_
_space_group_symop_operation_xyz
x,y,z
-x,y,-z
-x,-y,-z
x,-y,z
1/2+x,1/2+y,z
1/2-x,1/2+y,-z
1/2-x,1/2-y,-z
1/2+x,1/2-y,z
loop_
_atom_site_type_symbol
_atom_site_label
_atom_site_fract_x
_atom_site_fract_y
_atom_site_fract_z
Si Si1 0.396894 0.242049 0.426688
Si Si2 0.098372 0.113971 0.083024
Si Si3 0.614029 0.548932 0.422051
Si Si4 0.723847 0.391202 0.660463
Si Si5 0.827251 0.824896 0.656446
Si Si6 0.897377 0.663710 0.640149
Si Si7 0.329502 0.785133 0.041298
O O1 0.500000 0.241394 0.500000
O O2 0.349427 0.281530 0.543458
O O3 0.348818 0.199339 0.517757
O O4 0.393438 0.238537 0.189018
O O5 0.129544 0.076786 0.220580
O O6 0.092214 0.155909 0.219367
O O7 0.176118 0.117669 0.886427
O O8 0.000000 0.104944 0.000000
O O9 0.500000 0.555048 0.500000
O O10 0.630020 0.500000 0.385010
O O11 0.683111 0.565909 0.578209
O O12 0.684025 0.358461 0.512239
O O13 0.835136 0.378396 0.652054
O O14 0.735676 0.819291 0.826728
O O15 0.000000 0.656193 0.500000
O O16 0.889299 0.688860 0.855380
O O17 0.250000 0.750000 0.000000
#
# Coordination Sequence:
#
# PCOD9214926 Si02
#       7
#     8   8   8   8   8   8   8
#     4  11  25  38  54  84 121 163 219 268 317 371
#     4  11  23  36  59  94 126 166 206 245 315 380
#     4  10  22  40  65  99 133 162 197 242 307 399
#     4  11  22  41  61  87 128 162 200 261 313 374
#     4  11  23  36  57  82 122 160 211 260 315 368
#     4  11  24  42  62  87 120 165 223 269 318 367
#     4  12  22  40  61  83 115 165 215 279 325 367
#
# _framework density 18.713363999999999
#
# number of rings (size 3 to 8) (size 9 to 14) (size 15 to 20)
#    0.000    1.000    5.714    1.286    2.000    3.143 
#    0.000    0.000    0.000    0.429    0.000    1.000 
#    0.000    0.000    0.000    0.000    0.000    0.000 
#
# Total GULP energy -155966.295876 kJ/mol
# GULP energy per Si atom -5570.224853 kJ/mol
# Density = 1.867077 g / cm^3
# Si number density = 18.713364 Si / 1000 Ang^3
#
#
#
# Elastic Constant Matrix: (Units=GPa)
#
#
# Indices 1 2 3 4 5 6 
#
# 1 94.5340 35.9915 52.9676 0.0000 0.8344 0.0000
# 2 35.9915 77.5612 37.9791 0.0000 -2.2580 0.0000
# 3 52.9676 37.9791 136.9076 0.0000 2.8104 0.0000
# 4 0.0000 0.0000 0.0000 20.3481 0.0000 5.4636
# 5 0.8344 -2.2580 2.8104 0.0000 34.5299 0.0000
# 6 0.0000 0.0000 0.0000 5.4636 0.0000 23.3186
#
#
#
# Elastic Compliance Matrix: (Units=1/GPa)
#
#
# Indices 1 2 3 4 5 6 
#
# 1 0.014868 -0.004738 -0.004431 0.000000 -0.000308 0.000000
# 2 -0.004738 0.016490 -0.002770 0.000000 0.001418 0.000000
# 3 -0.004431 -0.002770 0.009805 0.000000 -0.000872 0.000000
# 4 0.000000 0.000000 0.000000 0.052444 0.000000 -0.012288
# 5 -0.000308 0.001418 -0.000872 0.000000 0.029132 0.000000
# 6 0.000000 0.000000 0.000000 -0.012288 0.000000 0.045763
#
#
# Mechanical properties :
#
#
# Convention : Reuss Voigt Hill
#
# Bulk Modulus (GPa) = 57.86191 62.54213 60.20202
# Shear Modulus (GPa) = 25.23441 27.77695 26.50568
#
# Velocity S-wave (km/s) = 3.67614 3.85689 3.76760
# Velocity P-wave (km/s) = 7.00042 7.30259 7.15310
#
# Compressibility (1/GPa) = 0.01728253
#
# Stress axis : x y z
#
# Youngs Moduli (GPa) = 67.25925 60.64422 101.98867
#
# Poissons Ratio (x) = 0.28736 0.45195
# Poissons Ratio (y) = 0.31870 0.28253
# Poissons Ratio (z) = 0.29805 0.16800
#
# Static dielectric constant tensor:
#      x y z
#    x 1.780880 0.000000 -0.294210 
#    y 0.000000 1.665390 0.000000 
#    z -0.294210 0.000000 5.291360 
# 
# From -- ./inp_files/13150.got.cif
#   From: 2010.05.17/outbox.cif.g08.bks.cpg/sg12_7_cif.got.tgz:13150.got - 2010.06.03 13:09:07.
