data_PCOD9214880
_publ_section_title
;
Structure prediction by ZEFSAII (Michael W. Deem and Ramdas Pophale) SiO2 
 PCOD9214880
Probable space group: C 2/M
;
_chemical_formula_sum "Si O2"
_cell_formula_units_Z 48
_cell_length_a 16.402538
_cell_length_b 33.352127
_cell_length_c 8.945308
_cell_angle_alpha 90.000000
_cell_angle_beta 151.653975
_cell_angle_gamma 90.000000
_cell_volume 2323.466034
_symmetry_space_group_name_H-M "C 2/M"
_symmetry_group_IT_number 12
_symmetry_cell_setting 'monoclinic'
loop_
_space_group_symop_operation_xyz
x,y,z
-x,y,-z
-x,-y,-z
x,-y,z
1/2+x,1/2+y,z
1/2-x,1/2+y,-z
1/2-x,1/2-y,-z
1/2+x,1/2-y,z
loop_
_atom_site_type_symbol
_atom_site_label
_atom_site_fract_x
_atom_site_fract_y
_atom_site_fract_z
Si Si1 0.493234 0.689853 0.817172
Si Si2 0.962178 0.595862 0.269104
Si Si3 0.157964 0.045475 0.869846
Si Si4 0.648746 0.839003 0.122459
Si Si5 0.924846 0.268411 0.224866
Si Si6 0.846455 0.108999 0.873878
O O1 0.321188 0.666864 0.493700
O O2 0.487719 0.728915 0.704006
O O3 0.500000 0.703738 0.000000
O O4 0.640949 0.655450 0.047901
O O5 0.000000 0.609672 0.500000
O O6 0.153899 0.597429 0.507796
O O7 0.844364 0.556443 0.098912
O O8 0.843338 0.625405 0.983267
O O9 0.000000 0.047890 0.500000
O O10 0.164839 0.000000 0.939660
O O11 0.124522 0.078114 0.944383
O O12 0.500000 0.846442 0.000000
O O13 0.600023 0.800367 0.944885
O O14 0.000000 0.285719 0.500000
O O15 0.750000 0.250000 0.000000
O O16 0.000000 0.105586 0.000000
#
# Coordination Sequence:
#
# PCOD9214880 Si02
#       6
#     8   8   8   8   8   8
#     4  11  25  42  61  88 125 166 208 261 317 371
#     4  10  23  40  67  95 127 166 214 263 316 376
#     4  10  22  41  66  95 130 167 207 256 313 377
#     4  12  25  41  64  89 123 165 210 265 317 375
#     4  12  27  41  62  89 123 164 214 263 316 373
#     4  10  22  40  65  93 128 166 211 260 313 377
#
# _framework density 20.65879
#
# number of rings (size 3 to 8) (size 9 to 14) (size 15 to 20)
#    0.000    1.167    1.667    4.000    9.333    5.333 
#    0.000    0.000    0.000    2.500    0.000    0.000 
#    0.000    0.000    0.000    0.000    0.000    0.000 
#
# Total GULP energy -133889.733565 kJ/mol
# GULP energy per Si atom -5578.738899 kJ/mol
# Density = 2.061177 g / cm^3
# Si number density = 20.658790 Si / 1000 Ang^3
#
#
#
# Elastic Constant Matrix: (Units=GPa)
#
#
# Indices 1 2 3 4 5 6 
#
# 1 68.1781 19.8132 25.2401 0.0000 -2.5541 0.0000
# 2 19.8132 81.1625 -3.8121 0.0000 -13.7256 0.0000
# 3 25.2401 -3.8121 104.8784 0.0000 -7.2069 0.0000
# 4 0.0000 0.0000 0.0000 30.5021 0.0000 -2.0164
# 5 -2.5541 -13.7256 -7.2069 0.0000 33.5581 0.0000
# 6 0.0000 0.0000 0.0000 -2.0164 0.0000 -2.7852
#
#
#
# Elastic Compliance Matrix: (Units=1/GPa)
#
#
# Indices 1 2 3 4 5 6 
#
# 1 0.017683 -0.004799 -0.004539 0.000000 -0.001592 0.000000
# 2 -0.004799 0.014617 0.002103 0.000000 0.006065 0.000000
# 3 -0.004539 0.002103 0.010900 0.000000 0.002856 0.000000
# 4 0.000000 0.000000 0.000000 0.031287 0.000000 -0.022651
# 5 -0.001592 0.006065 0.002856 0.000000 0.032772 0.000000
# 6 0.000000 0.000000 0.000000 -0.022651 0.000000 -0.342645
#
#
# Mechanical properties :
#
#
# Convention : Reuss Voigt Hill
#
# Bulk Modulus (GPa) = 34.80829 37.41126 36.10977
# Shear Modulus (GPa) = -23.65871 26.45353 1.39741
#
# Velocity S-wave (km/s) = -3.38777 3.58229 0.82334
# Velocity P-wave (km/s) = 1.25820 5.93791 4.29196
#
# Compressibility (1/GPa) = 0.02872879
#
# Stress axis : x y z
#
# Youngs Moduli (GPa) = 56.55134 68.41380 91.74325
#
# Poissons Ratio (x) = 0.32833 0.41646
# Poissons Ratio (y) = 0.27140 -0.19294
# Poissons Ratio (z) = 0.25671 -0.14388
#
# Static dielectric constant tensor:
#      x y z
#    x 1.734030 0.000000 0.054440 
#    y 0.000000 1.755710 0.000000 
#    z 0.054440 0.000000 1.713690 
# 
# From -- ./inp_files/80819.got.cif
#   From: 2010.05.17/outbox.cif.g08.bks.cpg/sg12_41_cif.got.tgz:80819.got - 2010.06.03 13:09:07.
