data_PCOD9214092
_publ_section_title
;
Structure prediction by ZEFSAII (Michael W. Deem and Ramdas Pophale) SiO2 
 PCOD9214092
Probable space group: C 2/M
;
_chemical_formula_sum "Si O2"
_cell_formula_units_Z 32
_cell_length_a 12.173691
_cell_length_b 15.877109
_cell_length_c 15.626399
_cell_angle_alpha 90.000000
_cell_angle_beta 153.495578
_cell_angle_gamma 90.000000
_cell_volume 1347.867705
_symmetry_space_group_name_H-M "C 2/M"
_symmetry_group_IT_number 12
_symmetry_cell_setting 'monoclinic'
loop_
_space_group_symop_operation_xyz
x,y,z
-x,y,-z
-x,-y,-z
x,-y,z
1/2+x,1/2+y,z
1/2-x,1/2+y,-z
1/2-x,1/2-y,-z
1/2+x,1/2-y,z
loop_
_atom_site_type_symbol
_atom_site_label
_atom_site_fract_x
_atom_site_fract_y
_atom_site_fract_z
Si Si1 0.962151 0.672971 0.715036
Si Si2 0.804620 0.500000 0.938795
Si Si3 0.694718 0.096235 0.713370
Si Si4 0.576617 0.344022 0.847002
Si Si5 0.247842 0.500000 0.379122
O O1 0.113015 0.654771 0.733857
O O2 0.908817 0.772989 0.684729
O O3 0.778701 0.593337 0.596199
O O4 0.145979 0.674443 0.926458
O O5 0.986084 0.500000 0.146453
O O6 0.627108 0.420292 0.817972
O O7 0.000000 0.500000 0.000000
O O8 0.500000 0.097833 0.500000
O O9 0.941650 0.123868 0.838200
O O10 0.710945 0.000000 0.756484
O O11 0.500000 0.500000 0.500000
#
# Coordination Sequence:
#
# PCOD9214092 Si02
#       5
#     8   4   8   8   4
#     4  10  22  40  65  95 125 167 219 265 321 389
#     4  10  22  39  62  91 129 170 212 266 323 380
#     4  11  23  39  64  94 127 167 213 263 325 383
#     4  10  22  40  65  94 125 168 219 267 319 383
#     4  10  22  39  62  93 131 170 210 264 329 386
#
# _framework density 23.741202000000001
#
# number of rings (size 3 to 8) (size 9 to 14) (size 15 to 20)
#    0.000    1.750    2.500    0.750    0.000   11.000 
#    0.000    0.000    0.000    0.000    0.000    0.000 
#    0.000    0.000    0.000    0.000    0.000    0.000 
#
# Total GULP energy -89197.805048 kJ/mol
# GULP energy per Si atom -5574.862815 kJ/mol
# Density = 2.368717 g / cm^3
# Si number density = 23.741202 Si / 1000 Ang^3
#
#
#
# Elastic Constant Matrix: (Units=GPa)
#
#
# Indices 1 2 3 4 5 6 
#
# 1 107.0677 69.6840 1.3758 0.0240 24.3995 -0.0012
# 2 69.6840 164.9022 28.2425 0.0880 18.4684 0.0121
# 3 1.3758 28.2425 94.3641 0.1279 -4.7726 0.0083
# 4 0.0240 0.0880 0.1279 2.2047 0.0123 5.8629
# 5 24.3995 18.4684 -4.7726 0.0123 46.0862 -0.0080
# 6 -0.0012 0.0121 0.0083 5.8629 -0.0080 33.7769
#
#
#
# Elastic Compliance Matrix: (Units=1/GPa)
#
#
# Indices 1 2 3 4 5 6 
#
# 1 0.014141 -0.005611 0.001215 0.000047 -0.005112 -0.000007
# 2 -0.005611 0.008992 -0.002655 -0.000243 -0.000907 0.000039
# 3 0.001215 -0.002655 0.011457 -0.001072 0.001608 0.000185
# 4 0.000047 -0.000243 -0.001072 0.842587 -0.000288 -0.146253
# 5 -0.005112 -0.000907 0.001608 -0.000288 0.024935 0.000056
# 6 -0.000007 0.000039 0.000185 -0.146253 0.000056 0.054992
#
#
# Mechanical properties :
#
#
# Convention : Reuss Voigt Hill
#
# Bulk Modulus (GPa) = 48.81172 62.77094 55.79133
# Shear Modulus (GPa) = 5.11228 34.21566 19.66397
#
# Velocity S-wave (km/s) = 1.46902 3.80042 2.88108
# Velocity P-wave (km/s) = 4.84581 6.76422 5.88373
#
# Compressibility (1/GPa) = 0.02048688
#
# Stress axis : x y z
#
# Youngs Moduli (GPa) = 70.71423 111.21134 87.28362
#
# Poissons Ratio (x) = 0.62404 -0.10602
# Poissons Ratio (y) = 0.39680 0.23174
# Poissons Ratio (z) = -0.08589 0.29526
#
# Static dielectric constant tensor:
#      x y z
#    x 1.792790 0.000000 -0.014120 
#    y 0.000000 2.041470 -0.000020 
#    z -0.014120 -0.000020 1.902670 
# 
# From -- ./inp_files/96052.got.cif
#   From: 2010.05.17/outbox.cif.g08.bks.cpg/sg12_49_cif.got.tgz:96052.got - 2010.06.03 13:09:07.
