data_PCOD9214493
_publ_section_title
;
Structure prediction by ZEFSAII (Michael W. Deem and Ramdas Pophale) SiO2 
 PCOD9214493
Probable space group: C 2/M
;
_chemical_formula_sum "Si O2"
_cell_formula_units_Z 40
_cell_length_a 24.133933
_cell_length_b 10.728483
_cell_length_c 8.940600
_cell_angle_alpha 90.000000
_cell_angle_beta 129.245656
_cell_angle_gamma 90.000000
_cell_volume 1792.756082
_symmetry_space_group_name_H-M "C 2/M"
_symmetry_group_IT_number 12
_symmetry_cell_setting 'monoclinic'
loop_
_space_group_symop_operation_xyz
x,y,z
-x,y,-z
-x,-y,-z
x,-y,z
1/2+x,1/2+y,z
1/2-x,1/2+y,-z
1/2-x,1/2-y,-z
1/2+x,1/2-y,z
loop_
_atom_site_type_symbol
_atom_site_label
_atom_site_fract_x
_atom_site_fract_y
_atom_site_fract_z
Si Si1 0.121127 0.800963 0.480664
Si Si2 0.042921 0.137389 0.768747
Si Si3 0.235336 0.635893 0.158927
Si Si4 0.116131 0.362536 0.719375
Si Si5 0.662692 0.643128 0.215115
O O1 0.179123 0.862276 0.691590
O O2 0.117824 0.663174 0.545809
O O3 0.151119 0.819741 0.366737
O O4 0.041443 0.853592 0.349478
O O5 0.069928 0.252719 0.715491
O O6 0.059430 0.000000 0.732559
O O7 0.087063 0.146029 0.998339
O O8 0.213058 0.500000 0.184737
O O9 0.210081 0.753125 0.213604
O O10 0.194577 0.643722 0.930946
O O11 0.087612 0.500000 0.704182
O O12 0.689650 0.500000 0.251428
#
# Coordination Sequence:
#
# PCOD9214493 Si02
#       5
#     8   8   8   8   8
#     4  12  22  35  62  92 118 152 197 243 290 345
#     4  10  22  40  62  88 119 154 194 242 294 347
#     4  10  22  41  62  86 119 157 196 240 291 348
#     4  10  24  43  60  84 121 159 196 241 292 347
#     4  10  22  40  61  88 121 154 192 241 294 349
#
# _framework density 22.312016
#
# number of rings (size 3 to 8) (size 9 to 14) (size 15 to 20)
#    0.000    1.600    0.000    4.200    0.000    8.000 
#    0.000    4.000    0.000    6.000    0.000    0.000 
#    0.000    0.000    0.000    0.000    0.000    0.000 
#
# Total GULP energy -111731.688852 kJ/mol
# GULP energy per Si atom -5586.584443 kJ/mol
# Density = 2.226123 g / cm^3
# Si number density = 22.312016 Si / 1000 Ang^3
#
#
#
# Elastic Constant Matrix: (Units=GPa)
#
#
# Indices 1 2 3 4 5 6 
#
# 1 66.3866 60.3881 37.3368 0.0000 17.1960 0.0000
# 2 60.3881 192.9852 46.9425 0.0000 -8.9393 0.0000
# 3 37.3368 46.9425 114.6753 0.0000 15.7403 0.0000
# 4 0.0000 0.0000 0.0000 23.9661 0.0000 -11.0605
# 5 17.1960 -8.9393 15.7403 0.0000 45.1864 0.0000
# 6 0.0000 0.0000 0.0000 -11.0605 0.0000 17.8269
#
#
#
# Elastic Compliance Matrix: (Units=1/GPa)
#
#
# Indices 1 2 3 4 5 6 
#
# 1 0.027526 -0.008084 -0.004196 0.000000 -0.010613 0.000000
# 2 -0.008084 0.008317 -0.001492 0.000000 0.005242 0.000000
# 3 -0.004196 -0.001492 0.011047 0.000000 -0.002546 0.000000
# 4 0.000000 0.000000 0.000000 0.058467 0.000000 0.036275
# 5 -0.010613 0.005242 -0.002546 0.000000 0.028093 0.000000
# 6 0.000000 0.000000 0.000000 0.036275 0.000000 0.078602
#
#
# Mechanical properties :
#
#
# Convention : Reuss Voigt Hill
#
# Bulk Modulus (GPa) = 51.69231 73.70909 62.70070
# Shear Modulus (GPa) = 20.32152 32.68785 26.50469
#
# Velocity S-wave (km/s) = 3.02120 3.83173 3.45035
# Velocity P-wave (km/s) = 5.94882 7.25834 6.63596
#
# Compressibility (1/GPa) = 0.01934524
#
# Stress axis : x y z
#
# Youngs Moduli (GPa) = 36.32928 120.23361 90.52465
#
# Poissons Ratio (x) = 0.97200 0.37985
# Poissons Ratio (y) = 0.29369 0.13506
# Poissons Ratio (z) = 0.15244 0.17938
#
# Static dielectric constant tensor:
#      x y z
#    x 1.818410 0.000000 0.006760 
#    y 0.000000 1.872960 0.000000 
#    z 0.006760 0.000000 1.840250 
# 
# From -- ./inp_files/102872.got.cif
#   From: 2010.05.17/outbox.cif.g08.bks.cpg/sg12_52_cif.got.tgz:102872.got - 2010.06.03 13:09:07.
