data_PCOD9214367
_publ_section_title
;
Structure prediction by ZEFSAII (Michael W. Deem and Ramdas Pophale) SiO2 
 PCOD9214367
Probable space group: C 2/M
;
_chemical_formula_sum "Si O2"
_cell_formula_units_Z 58
_cell_length_a 22.696909
_cell_length_b 9.857264
_cell_length_c 20.647467
_cell_angle_alpha 90.000000
_cell_angle_beta 141.073180
_cell_angle_gamma 90.000000
_cell_volume 2902.523888
_symmetry_space_group_name_H-M "C 2/M"
_symmetry_group_IT_number 12
_symmetry_cell_setting 'monoclinic'
loop_
_space_group_symop_operation_xyz
x,y,z
-x,y,-z
-x,-y,-z
x,-y,z
1/2+x,1/2+y,z
1/2-x,1/2+y,-z
1/2-x,1/2-y,-z
1/2+x,1/2-y,z
loop_
_atom_site_type_symbol
_atom_site_label
_atom_site_fract_x
_atom_site_fract_y
_atom_site_fract_z
Si Si1 0.823761 0.154452 0.026724
Si Si2 0.150055 0.717694 0.090520
Si Si3 0.353800 0.345583 0.771836
Si Si4 0.506868 0.841321 0.348450
Si Si5 0.635468 0.345399 0.706504
Si Si6 0.535417 0.659604 0.255853
Si Si7 0.865692 0.652807 0.415053
Si Si8 0.500000 0.000000 0.000000
O O1 0.924461 0.161889 0.147622
O O2 0.789332 0.000000 0.000052
O O3 0.750000 0.250000 0.000000
O O4 0.842757 0.195310 0.968426
O O5 0.137608 0.794003 0.148152
O O6 0.253280 0.651411 0.186097
O O7 0.063594 0.615829 0.016965
O O8 0.386090 0.500000 0.800970
O O9 0.413314 0.283708 0.764542
O O10 0.243809 0.339416 0.660486
O O11 0.413631 0.755552 0.284940
O O12 0.556076 0.758495 0.333112
O O13 0.570035 0.835886 0.467206
O O14 0.489577 0.000000 0.318516
O O15 0.599215 0.500000 0.678287
O O16 0.617528 0.271080 0.622436
O O17 0.561672 0.500000 0.290161
O O18 0.880626 0.500000 0.398955
#
# Coordination Sequence:
#
# PCOD9214367 Si02
#       8
#     8   8   8   8   8   8   8   2
#     4  11  25  42  65  94 128 168 216 265 320 392
#     4  11  23  41  64  93 124 165 210 259 323 373
#     4   9  19  40  66  89 119 159 207 262 310 375
#     4  11  23  39  59  89 124 165 207 253 312 378
#     4  11  22  38  60  91 124 156 203 253 311 377
#     4  10  22  40  59  86 119 161 209 260 315 366
#     4   9  20  38  62  90 122 159 204 253 310 375
#     4  12  24  40  62  92 126 172 202 270 318 376
#
# _framework density 19.982609
#
# number of rings (size 3 to 8) (size 9 to 14) (size 15 to 20)
#    0.000    1.655    0.690    3.310    0.966    7.724 
#    3.724    2.759    0.000    0.000    0.000    0.000 
#    0.000    0.000    0.000    0.000    0.000    0.000 
#
# Total GULP energy -161596.006282 kJ/mol
# GULP energy per Si atom -5572.276079 kJ/mol
# Density = 1.993713 g / cm^3
# Si number density = 19.982609 Si / 1000 Ang^3
#
#
#
# Elastic Constant Matrix: (Units=GPa)
#
#
# Indices 1 2 3 4 5 6 
#
# 1 113.3012 56.2967 16.2099 0.0000 -11.9395 0.0000
# 2 56.2967 136.3677 33.2838 0.0000 -11.7593 0.0000
# 3 16.2099 33.2838 46.3518 0.0000 -9.1292 0.0000
# 4 0.0000 0.0000 0.0000 -10.2613 0.0000 10.3888
# 5 -11.9395 -11.7593 -9.1292 0.0000 22.5482 0.0000
# 6 0.0000 0.0000 0.0000 10.3888 0.0000 28.8345
#
#
#
# Elastic Compliance Matrix: (Units=1/GPa)
#
#
# Indices 1 2 3 4 5 6 
#
# 1 0.011399 -0.004354 -0.000128 0.000000 0.003713 0.000000
# 2 -0.004354 0.010659 -0.005966 0.000000 0.000838 0.000000
# 3 -0.000128 -0.005966 0.027467 0.000000 0.007941 0.000000
# 4 0.000000 0.000000 0.000000 -0.071407 0.000000 0.025727
# 5 0.003713 0.000838 0.007941 0.000000 0.049968 0.000000
# 6 0.000000 0.000000 0.000000 0.025727 0.000000 0.025411
#
#
# Mechanical properties :
#
#
# Convention : Reuss Voigt Hill
#
# Bulk Modulus (GPa) = 34.93131 56.40015 45.66573
# Shear Modulus (GPa) = 59.56728 20.90631 40.23679
#
# Velocity S-wave (km/s) = 5.46574 3.23805 4.49217
# Velocity P-wave (km/s) = 7.57306 6.50122 7.05751
#
# Compressibility (1/GPa) = 0.02862761
#
# Stress axis : x y z
#
# Youngs Moduli (GPa) = 87.72458 93.81562 36.40699
#
# Poissons Ratio (x) = 0.40852 0.00467
# Poissons Ratio (y) = 0.38199 0.21721
# Poissons Ratio (z) = 0.01126 0.55973
#
# Static dielectric constant tensor:
#      x y z
#    x 1.735980 0.000000 -0.009390 
#    y 0.000000 1.714000 0.000000 
#    z -0.009390 0.000000 1.714570 
# 
# From -- ./inp_files/324521.got.cif
#   From: 2010.05.17/outbox.cif.g08.bks.cpg/sg12_163_cif.got.tgz:324521.got - 2010.06.03 13:09:07.
