data_PCOD9214665
_publ_section_title
;
Structure prediction by ZEFSAII (Michael W. Deem and Ramdas Pophale) SiO2 
 PCOD9214665
Probable space group: C 2/M
;
_chemical_formula_sum "Si O2"
_cell_formula_units_Z 56
_cell_length_a 18.874141
_cell_length_b 8.665495
_cell_length_c 18.352352
_cell_angle_alpha 90.000000
_cell_angle_beta 111.075300
_cell_angle_gamma 90.000000
_cell_volume 2800.815576
_symmetry_space_group_name_H-M "C 2/M"
_symmetry_group_IT_number 12
_symmetry_cell_setting 'monoclinic'
loop_
_space_group_symop_operation_xyz
x,y,z
-x,y,-z
-x,-y,-z
x,-y,z
1/2+x,1/2+y,z
1/2-x,1/2+y,-z
1/2-x,1/2-y,-z
1/2+x,1/2-y,z
loop_
_atom_site_type_symbol
_atom_site_label
_atom_site_fract_x
_atom_site_fract_y
_atom_site_fract_z
Si Si1 0.219671 0.813664 0.127893
Si Si2 0.887579 0.815197 0.166583
Si Si3 0.837028 0.815891 0.732104
Si Si4 0.227667 0.181293 0.570073
Si Si5 0.476384 0.184223 0.699858
Si Si6 0.926569 0.188044 0.018960
Si Si7 0.575459 0.179056 0.480443
O O1 0.301472 0.743072 0.141078
O O2 0.191676 0.771246 0.198541
O O3 0.152509 0.765808 0.048240
O O4 0.226247 0.000000 0.127143
O O5 0.941781 0.752094 0.250111
O O6 0.887877 0.000000 0.168588
O O7 0.923154 0.764207 0.101981
O O8 0.774925 0.765215 0.650038
O O9 0.915855 0.739398 0.737342
O O10 0.847181 0.000000 0.734689
O O11 0.250000 0.250000 0.500000
O O12 0.138844 0.217964 0.541848
O O13 0.243647 0.000000 0.578795
O O14 0.444091 0.231997 0.608756
O O15 0.481473 0.000000 0.700772
O O16 0.928875 0.000000 0.018806
O O17 0.000000 0.240756 0.000000
O O18 0.500000 0.180865 0.500000
O O19 0.602556 0.000000 0.486567
#
# Coordination Sequence:
#
# PCOD9214665 Si02
#       7
#     8   8   8   8   8   8   8
#     4  10  22  40  63  90 123 163 204 247 302 362
#     4  11  23  38  61  91 126 162 201 251 303 359
#     4  11  23  40  64  90 120 159 204 254 306 361
#     4  12  24  40  63  91 123 160 204 253 304 361
#     4  11  23  40  62  88 121 160 202 253 306 361
#     4   9  18  37  64  91 120 159 205 249 298 359
#     4  10  23  42  63  87 119 159 205 254 307 362
#
# _framework density 19.994176
#
# number of rings (size 3 to 8) (size 9 to 14) (size 15 to 20)
#    0.000    1.429    1.429    3.857    2.000    4.286 
#    0.000    0.714    0.000    3.000    0.000    0.000 
#    0.000    0.000    0.000    0.000    0.000    0.000 
#
# Total GULP energy -156548.478175 kJ/mol
# GULP energy per Si atom -5591.017078 kJ/mol
# Density = 1.994867 g / cm^3
# Si number density = 19.994176 Si / 1000 Ang^3
#
#
#
# Elastic Constant Matrix: (Units=GPa)
#
#
# Indices 1 2 3 4 5 6 
#
# 1 101.6126 12.6479 10.1900 0.0000 13.8654 0.0000
# 2 12.6479 19.5654 6.9846 0.0000 -0.3588 0.0000
# 3 10.1900 6.9846 71.4133 0.0000 13.0193 0.0000
# 4 0.0000 0.0000 0.0000 16.7978 0.0000 1.6927
# 5 13.8654 -0.3588 13.0193 0.0000 36.8506 0.0000
# 6 0.0000 0.0000 0.0000 1.6927 0.0000 34.0651
#
#
#
# Elastic Compliance Matrix: (Units=1/GPa)
#
#
# Indices 1 2 3 4 5 6 
#
# 1 0.011359 -0.007381 -0.000114 0.000000 -0.004306 0.000000
# 2 -0.007381 0.057974 -0.005586 0.000000 0.005315 0.000000
# 3 -0.000114 -0.005586 0.015571 0.000000 -0.005513 0.000000
# 4 0.000000 0.000000 0.000000 0.059831 0.000000 -0.002973
# 5 -0.004306 0.005315 -0.005513 0.000000 0.030756 0.000000
# 6 0.000000 0.000000 0.000000 -0.002973 0.000000 0.029503
#
#
# Mechanical properties :
#
#
# Convention : Reuss Voigt Hill
#
# Bulk Modulus (GPa) = 17.02384 28.02627 22.52505
# Shear Modulus (GPa) = 19.94122 28.39394 24.16758
#
# Velocity S-wave (km/s) = 3.16151 3.77252 3.48045
# Velocity P-wave (km/s) = 4.67544 5.74661 5.23848
#
# Compressibility (1/GPa) = 0.05874117
#
# Stress axis : x y z
#
# Youngs Moduli (GPa) = 88.03594 17.24912 64.22357
#
# Poissons Ratio (x) = 0.12732 0.00732
# Poissons Ratio (y) = 0.64982 0.35875
# Poissons Ratio (z) = 0.01003 0.09635
#
# Static dielectric constant tensor:
#      x y z
#    x 1.717120 0.000000 -0.003630 
#    y 0.000000 1.694680 0.000000 
#    z -0.003630 0.000000 1.696760 
# 
# From -- ./inp_files/275541.got.cif
#   From: 2010.05.17/outbox.cif.g08.bks.cpg/sg12_138_cif.got.tgz:275541.got - 2010.06.03 13:09:07.
