data_PCOD9214539
_publ_section_title
;
Structure prediction by ZEFSAII (Michael W. Deem and Ramdas Pophale) SiO2 
 PCOD9214539
Probable space group: C 2/M
;
_chemical_formula_sum "Si O2"
_cell_formula_units_Z 48
_cell_length_a 10.019818
_cell_length_b 22.580254
_cell_length_c 12.876343
_cell_angle_alpha 90.000000
_cell_angle_beta 63.280195
_cell_angle_gamma 90.000000
_cell_volume 2602.182175
_symmetry_space_group_name_H-M "C 2/M"
_symmetry_group_IT_number 12
_symmetry_cell_setting 'monoclinic'
loop_
_space_group_symop_operation_xyz
x,y,z
-x,y,-z
-x,-y,-z
x,-y,z
1/2+x,1/2+y,z
1/2-x,1/2+y,-z
1/2-x,1/2-y,-z
1/2+x,1/2-y,z
loop_
_atom_site_type_symbol
_atom_site_label
_atom_site_fract_x
_atom_site_fract_y
_atom_site_fract_z
Si Si1 0.362400 0.199470 0.128916
Si Si2 0.607875 0.376726 0.115923
Si Si3 0.917354 0.000000 0.771243
Si Si4 0.266252 0.000000 0.591034
Si Si5 0.500000 0.100355 0.500000
Si Si6 0.468445 0.127801 0.289281
Si Si7 0.679177 0.000000 0.672981
Si Si8 0.189619 0.159943 0.854778
O O1 0.214637 0.166484 0.141875
O O2 0.400951 0.173279 0.228755
O O3 0.329796 0.269252 0.137159
O O4 0.500000 0.187814 0.000000
O O5 0.629136 0.442621 0.147786
O O6 0.432528 0.362411 0.184382
O O7 0.649631 0.365821 0.981840
O O8 0.821379 0.000000 0.699104
O O9 0.096594 0.000000 0.689726
O O10 0.367979 0.943458 0.586034
O O11 0.267379 0.000000 0.465095
O O12 0.434797 0.135241 0.424074
O O13 0.644440 0.138960 0.222852
O O14 0.415213 0.060855 0.279176
#
# Coordination Sequence:
#
# PCOD9214539 Si02
#       8
#     8   8   4   4   4   8   4   8
#     4  12  21  41  64  88 123 170 213 244 303 373
#     4  11  23  36  58  92 127 155 203 254 303 373
#     4  12  22  37  58  96 132 153 197 261 326 356
#     4   9  19  38  65  83 125 171 202 245 298 385
#     4   9  20  40  62  96 118 164 216 241 306 370
#     4  11  22  39  67  88 124 165 204 262 301 367
#     4  10  22  40  61  94 119 158 214 251 314 369
#     4  11  23  39  61  88 120 169 210 248 300 365
#
# _framework density 18.446057
#
# number of rings (size 3 to 8) (size 9 to 14) (size 15 to 20)
#    0.000    1.167    5.000    3.250    0.000    2.667 
#    0.000    2.500    0.000    2.000    0.000    0.000 
#    0.000    0.000    0.000    0.000    0.000    0.000 
#
# Total GULP energy -133888.301012 kJ/mol
# GULP energy per Si atom -5578.679209 kJ/mol
# Density = 1.840407 g / cm^3
# Si number density = 18.446057 Si / 1000 Ang^3
#
#
#
# Elastic Constant Matrix: (Units=GPa)
#
#
# Indices 1 2 3 4 5 6 
#
# 1 112.3783 14.2360 18.5588 0.0000 14.8748 0.0000
# 2 14.2360 84.8485 27.3714 0.0000 16.7798 0.0000
# 3 18.5588 27.3714 62.7051 0.0000 19.7471 0.0000
# 4 0.0000 0.0000 0.0000 13.8513 0.0000 2.6951
# 5 14.8748 16.7798 19.7471 0.0000 32.2906 0.0000
# 6 0.0000 0.0000 0.0000 2.6951 0.0000 34.9482
#
#
#
# Elastic Compliance Matrix: (Units=1/GPa)
#
#
# Indices 1 2 3 4 5 6 
#
# 1 0.009652 -0.000454 -0.001651 0.000000 -0.003201 0.000000
# 2 -0.000454 0.014237 -0.004726 0.000000 -0.004299 0.000000
# 3 -0.001651 -0.004726 0.021657 0.000000 -0.010028 0.000000
# 4 0.000000 0.000000 0.000000 0.073295 0.000000 -0.005652
# 5 -0.003201 -0.004299 -0.010028 0.000000 0.040810 0.000000
# 6 0.000000 0.000000 0.000000 -0.005652 0.000000 0.029050
#
#
# Mechanical properties :
#
#
# Convention : Reuss Voigt Hill
#
# Bulk Modulus (GPa) = 31.36319 42.25158 36.80738
# Shear Modulus (GPa) = 23.47522 29.53575 26.50548
#
# Velocity S-wave (km/s) = 3.57128 4.00584 3.79478
# Velocity P-wave (km/s) = 5.83481 6.65964 6.26082
#
# Compressibility (1/GPa) = 0.03188451
#
# Stress axis : x y z
#
# Youngs Moduli (GPa) = 103.60210 70.24122 46.17378
#
# Poissons Ratio (x) = 0.03189 0.07621
# Poissons Ratio (y) = 0.04703 0.21823
# Poissons Ratio (z) = 0.17100 0.33199
#
# Static dielectric constant tensor:
#      x y z
#    x 1.652370 0.000000 0.006250 
#    y 0.000000 1.567940 0.000000 
#    z 0.006250 0.000000 1.675930 
# 
# From -- ./inp_files/122523.got.cif
#   From: 2010.05.17/outbox.cif.g08.bks.cpg/sg12_62_cif.got.tgz:122523.got - 2010.06.03 13:09:07.
