data_PCOD9214947
_publ_section_title
;
Structure prediction by ZEFSAII (Michael W. Deem and Ramdas Pophale) SiO2 
 PCOD9214947
Probable space group: C 2/M
;
_chemical_formula_sum "Si O2"
_cell_formula_units_Z 40
_cell_length_a 15.392956
_cell_length_b 25.816954
_cell_length_c 9.701346
_cell_angle_alpha 90.000000
_cell_angle_beta 33.132435
_cell_angle_gamma 90.000000
_cell_volume 2107.218952
_symmetry_space_group_name_H-M "C 2/M"
_symmetry_group_IT_number 12
_symmetry_cell_setting 'monoclinic'
loop_
_space_group_symop_operation_xyz
x,y,z
-x,y,-z
-x,-y,-z
x,-y,z
1/2+x,1/2+y,z
1/2-x,1/2+y,-z
1/2-x,1/2-y,-z
1/2+x,1/2-y,z
loop_
_atom_site_type_symbol
_atom_site_label
_atom_site_fract_x
_atom_site_fract_y
_atom_site_fract_z
Si Si1 0.160552 0.941903 0.874706
Si Si2 0.339687 0.560866 0.798343
Si Si3 0.191617 0.242200 0.235589
Si Si4 0.628741 0.154926 0.449133
Si Si5 0.599168 0.854778 0.001911
O O1 0.270891 0.896850 0.671292
O O2 0.230436 0.000000 0.770387
O O3 0.132747 0.931876 0.074518
O O4 0.000000 0.941425 0.000000
O O5 0.500000 0.572616 0.500000
O O6 0.302343 0.500000 0.825888
O O7 0.199451 0.598042 0.933237
O O8 0.227715 0.295084 0.270082
O O9 0.000000 0.235683 0.500000
O O10 0.250000 0.250000 0.000000
O O11 0.279099 0.192563 0.182046
O O12 0.500000 0.145999 0.500000
O O13 0.529272 0.165235 0.717486
O O14 0.500000 0.870242 0.000000
#
# Coordination Sequence:
#
# PCOD9214947 Si02
#       5
#     8   8   8   8   8
#     4  10  22  40  66  94 122 164 212 260 318 378
#     4  10  22  42  64  90 127 168 207 256 318 379
#     4  11  21  43  68  89 124 168 211 263 317 374
#     4  11  22  42  64  91 127 162 213 261 314 377
#     4  12  26  41  62  97 127 167 214 258 317 380
#
# _framework density 18.982365999999999
#
# number of rings (size 3 to 8) (size 9 to 14) (size 15 to 20)
#    0.000    1.200    6.000    0.600    2.800    3.200 
#    0.000    0.000    0.000    0.000    0.000    0.000 
#    0.000    0.000    0.000    0.000    0.000    0.000 
#
# Total GULP energy -111682.395542 kJ/mol
# GULP energy per Si atom -5584.119777 kJ/mol
# Density = 1.893916 g / cm^3
# Si number density = 18.982366 Si / 1000 Ang^3
#
#
#
# Elastic Constant Matrix: (Units=GPa)
#
#
# Indices 1 2 3 4 5 6 
#
# 1 111.5525 47.8184 18.9588 -0.0001 6.2580 0.0001
# 2 47.8184 119.0485 39.0871 0.0000 -14.4431 0.0000
# 3 18.9588 39.0871 91.8614 -0.0001 2.8259 0.0003
# 4 -0.0001 0.0000 -0.0001 54.8272 0.0001 13.6638
# 5 6.2580 -14.4431 2.8259 0.0001 16.2023 -0.0002
# 6 0.0001 0.0000 0.0003 13.6638 -0.0002 25.6925
#
#
#
# Elastic Compliance Matrix: (Units=1/GPa)
#
#
# Indices 1 2 3 4 5 6 
#
# 1 0.012172 -0.006316 0.000496 0.000000 -0.010418 0.000000
# 2 -0.006316 0.014741 -0.005478 0.000000 0.016536 0.000000
# 3 0.000496 -0.005478 0.013342 0.000000 -0.007402 0.000000
# 4 0.000000 0.000000 0.000000 0.021026 0.000000 -0.011182
# 5 -0.010418 0.016536 -0.007402 0.000000 0.081775 0.000001
# 6 0.000000 0.000000 0.000000 -0.011182 0.000001 0.044869
#
#
# Mechanical properties :
#
#
# Convention : Reuss Voigt Hill
#
# Bulk Modulus (GPa) = 56.62516 59.35456 57.98986
# Shear Modulus (GPa) = 23.10460 33.78426 28.44443
#
# Velocity S-wave (km/s) = 3.49257 4.22331 3.87520
# Velocity P-wave (km/s) = 6.79406 7.42415 7.11608
#
# Compressibility (1/GPa) = 0.01766000
#
# Stress axis : x y z
#
# Youngs Moduli (GPa) = 82.15639 67.83592 74.95065
#
# Poissons Ratio (x) = 0.42844 -0.03716
# Poissons Ratio (y) = 0.51888 0.41056
# Poissons Ratio (z) = -0.04073 0.37159
#
# Static dielectric constant tensor:
#      x y z
#    x 2.522220 0.000000 1.256310 
#    y 0.000000 1.672570 0.000000 
#    z 1.256310 0.000000 3.431790 
# 
# From -- ./inp_files/50419.got.cif
#   From: 2010.05.17/outbox.cif.g08.bks.cpg/sg12_26_cif.got.tgz:50419.got - 2010.06.03 13:09:07.
