data_PCOD9214189
_publ_section_title
;
Structure prediction by ZEFSAII (Michael W. Deem and Ramdas Pophale) SiO2 
 PCOD9214189
Probable space group: C 2/M
;
_chemical_formula_sum "Si O2"
_cell_formula_units_Z 40
_cell_length_a 9.301200
_cell_length_b 14.727306
_cell_length_c 15.748621
_cell_angle_alpha 90.000000
_cell_angle_beta 72.246542
_cell_angle_gamma 90.000000
_cell_volume 2054.536709
_symmetry_space_group_name_H-M "C 2/M"
_symmetry_group_IT_number 12
_symmetry_cell_setting 'monoclinic'
loop_
_space_group_symop_operation_xyz
x,y,z
-x,y,-z
-x,-y,-z
x,-y,z
1/2+x,1/2+y,z
1/2-x,1/2+y,-z
1/2-x,1/2-y,-z
1/2+x,1/2-y,z
loop_
_atom_site_type_symbol
_atom_site_label
_atom_site_fract_x
_atom_site_fract_y
_atom_site_fract_z
Si Si1 0.393865 0.000000 0.759764
Si Si2 0.722029 0.652545 0.895117
Si Si3 0.718980 0.000000 0.643156
Si Si4 0.294318 0.500000 0.361404
Si Si5 0.375934 0.344422 0.901791
Si Si6 0.174240 0.848612 0.501311
Si Si7 0.097009 0.000000 0.229294
O O1 0.321728 0.913857 0.820219
O O2 0.573789 0.000000 0.729049
O O3 0.358859 0.000000 0.664829
O O4 0.555370 0.663953 0.885471
O O5 0.803826 0.748555 0.891573
O O6 0.694006 0.619605 0.997018
O O7 0.734187 0.910382 0.582796
O O8 0.859650 0.000000 0.680948
O O9 0.316386 0.410658 0.415331
O O10 0.416504 0.500000 0.264011
O O11 0.347222 0.412961 0.830887
O O12 0.250000 0.750000 0.500000
O O13 0.000000 0.841276 0.500000
#
# Coordination Sequence:
#
# PCOD9214189 Si02
#       7
#     4   8   4   4   8   8   4
#     4  12  25  40  64  95 125 161 208 259 299 361
#     4  10  22  41  59  92 126 166 210 253 301 362
#     4  11  27  44  62  94 129 155 205 257 306 370
#     4  11  23  44  66  90 128 157 207 251 306 370
#     4  10  22  39  64  87 126 169 209 251 305 360
#     4  11  25  46  69  91 124 163 198 248 313 373
#     4  12  21  42  64  91 120 171 200 256 309 356
#
# _framework density 19.469110000000001
#
# number of rings (size 3 to 8) (size 9 to 14) (size 15 to 20)
#    0.000    1.200    4.000    1.200    5.600    5.600 
#    0.000    1.000    0.000    0.000    0.000    0.000 
#    0.000    0.000    0.000    0.000    0.000    0.000 
#
# Total GULP energy -111674.214503 kJ/mol
# GULP energy per Si atom -5583.710725 kJ/mol
# Density = 1.942480 g / cm^3
# Si number density = 19.469110 Si / 1000 Ang^3
#
#
#
# Elastic Constant Matrix: (Units=GPa)
#
#
# Indices 1 2 3 4 5 6 
#
# 1 39.7948 28.5215 15.5423 0.0000 -11.6721 0.0000
# 2 28.5215 142.1105 60.7560 0.0000 -1.1527 0.0000
# 3 15.5423 60.7560 88.9762 0.0000 -4.4005 0.0000
# 4 0.0000 0.0000 0.0000 34.1206 0.0000 6.0702
# 5 -11.6721 -1.1527 -4.4005 0.0000 37.8879 0.0000
# 6 0.0000 0.0000 0.0000 6.0702 0.0000 30.1745
#
#
#
# Elastic Compliance Matrix: (Units=1/GPa)
#
#
# Indices 1 2 3 4 5 6 
#
# 1 0.032744 -0.006008 -0.001134 0.000000 0.009773 0.000000
# 2 -0.006008 0.011049 -0.006608 0.000000 -0.002282 0.000000
# 3 -0.001134 -0.006608 0.016014 0.000000 0.001309 0.000000
# 4 0.000000 0.000000 0.000000 0.030396 0.000000 -0.006115
# 5 0.009773 -0.002282 0.001309 0.000000 0.029487 0.000000
# 6 0.000000 0.000000 0.000000 -0.006115 0.000000 0.034371
#
#
# Mechanical properties :
#
#
# Convention : Reuss Voigt Hill
#
# Bulk Modulus (GPa) = 30.95263 53.39125 42.17194
# Shear Modulus (GPa) = 25.99700 31.50738 28.75219
#
# Velocity S-wave (km/s) = 3.65813 4.02721 3.84710
# Velocity P-wave (km/s) = 5.81166 7.00768 6.43751
#
# Compressibility (1/GPa) = 0.03230743
#
# Stress axis : x y z
#
# Youngs Moduli (GPa) = 30.53989 90.50450 62.44471
#
# Poissons Ratio (x) = 0.54371 0.07083
# Poissons Ratio (y) = 0.18347 0.41265
# Poissons Ratio (z) = 0.03464 0.59807
#
# Static dielectric constant tensor:
#      x y z
#    x 1.650360 0.000000 0.005030 
#    y 0.000000 1.637300 0.000000 
#    z 0.005030 0.000000 1.672290 
# 
# From -- ./inp_files/194505.got.cif
#   From: 2010.05.17/outbox.cif.g08.bks.cpg/sg12_98_cif.got.tgz:194505.got - 2010.06.03 13:09:07.
