data_PCOD9214182
_publ_section_title
;
Structure prediction by ZEFSAII (Michael W. Deem and Ramdas Pophale) SiO2 
 PCOD9214182
Probable space group: C 2/M
;
_chemical_formula_sum "Si O2"
_cell_formula_units_Z 40
_cell_length_a 10.126407
_cell_length_b 14.562942
_cell_length_c 14.016461
_cell_angle_alpha 90.000000
_cell_angle_beta 130.622594
_cell_angle_gamma 90.000000
_cell_volume 1568.891875
_symmetry_space_group_name_H-M "C 2/M"
_symmetry_group_IT_number 12
_symmetry_cell_setting 'monoclinic'
loop_
_space_group_symop_operation_xyz
x,y,z
-x,y,-z
-x,-y,-z
x,-y,z
1/2+x,1/2+y,z
1/2-x,1/2+y,-z
1/2-x,1/2-y,-z
1/2+x,1/2-y,z
loop_
_atom_site_type_symbol
_atom_site_label
_atom_site_fract_x
_atom_site_fract_y
_atom_site_fract_z
Si Si1 0.403590 0.174230 0.555466
Si Si2 0.311991 0.601821 0.402375
Si Si3 0.775972 0.612727 0.182067
Si Si4 0.342137 0.888551 0.860554
Si Si5 0.089209 0.889432 0.901487
O O1 0.500000 0.160554 0.500000
O O2 0.250000 0.250000 0.500000
O O3 0.284301 0.093652 0.542793
O O4 0.565221 0.170773 0.703933
O O5 0.500000 0.649061 0.500000
O O6 0.350922 0.500000 0.382883
O O7 0.189343 0.643206 0.262261
O O8 0.806993 0.500000 0.201274
O O9 0.606133 0.636755 0.165024
O O10 0.721595 0.636872 0.048545
O O11 0.167546 0.866338 0.836712
O O12 0.369644 0.000000 0.870407
O O13 0.500000 0.852130 0.000000
O O14 0.087497 0.000000 0.905932
#
# Coordination Sequence:
#
# PCOD9214182 Si02
#       5
#     8   8   8   8   8
#     4  12  27  45  63  85 122 183 230 271 323 388
#     4  10  22  39  63  99 133 162 210 271 328 396
#     4   9  18  35  64 102 135 159 209 272 328 393
#     4   9  16  28  53  92 137 169 194 243 323 398
#     4   8  15  30  59 102 139 164 193 259 341 402
#
# _framework density 25.495701
#
# number of rings (size 3 to 8) (size 9 to 14) (size 15 to 20)
#    0.000    2.400    0.000    3.600    2.800    4.800 
#    0.000    0.000    0.000    4.800   10.400    0.000 
#    0.000    0.000    0.000    0.400    0.000    0.000 
#
# Total GULP energy -111550.664262 kJ/mol
# GULP energy per Si atom -5577.533213 kJ/mol
# Density = 2.543767 g / cm^3
# Si number density = 25.495701 Si / 1000 Ang^3
#
#
#
# Elastic Constant Matrix: (Units=GPa)
#
#
# Indices 1 2 3 4 5 6 
#
# 1 215.4086 7.4559 97.0329 0.0000 -18.5296 0.0000
# 2 7.4559 71.4786 48.3992 0.0000 1.9406 0.0000
# 3 97.0329 48.3992 144.3337 0.0000 21.5020 0.0000
# 4 0.0000 0.0000 0.0000 87.1102 0.0000 54.4238
# 5 -18.5296 1.9406 21.5020 0.0000 36.7703 0.0000
# 6 0.0000 0.0000 0.0000 54.4238 0.0000 34.5910
#
#
#
# Elastic Compliance Matrix: (Units=1/GPa)
#
#
# Indices 1 2 3 4 5 6 
#
# 1 0.009907 0.005509 -0.010087 0.000000 0.010600 0.000000
# 2 0.005509 0.021438 -0.012200 0.000000 0.008779 0.000000
# 3 -0.010087 -0.012200 0.020224 0.000000 -0.016265 0.000000
# 4 0.000000 0.000000 0.000000 0.674582 0.000000 -1.061355
# 5 0.010600 0.008779 -0.016265 0.000000 0.041586 0.000000
# 6 0.000000 0.000000 0.000000 -1.061355 0.000000 1.698792
#
#
# Mechanical properties :
#
#
# Convention : Reuss Voigt Hill
#
# Bulk Modulus (GPa) = 55.51622 81.88854 68.70238
# Shear Modulus (GPa) = 1.99514 50.24984 26.12249
#
# Velocity S-wave (km/s) = 0.88557 4.44431 3.20438
# Velocity P-wave (km/s) = 4.78201 7.65011 6.37934
#
# Compressibility (1/GPa) = 0.01801276
#
# Stress axis : x y z
#
# Youngs Moduli (GPa) = 100.93621 46.64594 49.44676
#
# Poissons Ratio (x) = -0.25696 0.49876
# Poissons Ratio (y) = -0.55603 0.60325
# Poissons Ratio (z) = 1.01813 0.56908
#
# Static dielectric constant tensor:
#      x y z
#    x 6.600230 0.000000 1.688590 
#    y 0.000000 2.131300 0.000000 
#    z 1.688590 0.000000 2.668680 
# 
# From -- ./inp_files/207399.got.cif
#   From: 2010.05.17/outbox.cif.g08.bks.cpg/sg12_104_cif.got.tgz:207399.got - 2010.06.03 13:09:07.
