data_PCOD9214628
_publ_section_title
;
Structure prediction by ZEFSAII (Michael W. Deem and Ramdas Pophale) SiO2 
 PCOD9214628
Probable space group: C 2/M
;
_chemical_formula_sum "Si O2"
_cell_formula_units_Z 64
_cell_length_a 9.359444
_cell_length_b 27.145673
_cell_length_c 14.690155
_cell_angle_alpha 90.000000
_cell_angle_beta 46.501843
_cell_angle_gamma 90.000000
_cell_volume 2707.400500
_symmetry_space_group_name_H-M "C 2/M"
_symmetry_group_IT_number 12
_symmetry_cell_setting 'monoclinic'
loop_
_space_group_symop_operation_xyz
x,y,z
-x,y,-z
-x,-y,-z
x,-y,z
1/2+x,1/2+y,z
1/2-x,1/2+y,-z
1/2-x,1/2-y,-z
1/2+x,1/2-y,z
loop_
_atom_site_type_symbol
_atom_site_label
_atom_site_fract_x
_atom_site_fract_y
_atom_site_fract_z
Si Si1 0.050262 0.183962 0.180034
Si Si2 0.885703 0.688073 0.349989
Si Si3 0.584407 0.053785 0.861491
Si Si4 0.603130 0.089755 0.548707
Si Si5 0.194863 0.637161 0.094188
Si Si6 0.715596 0.446587 0.812982
Si Si7 0.313498 0.745530 0.712100
Si Si8 0.525203 0.421446 0.712560
O O1 0.178932 0.215313 0.196037
O O2 0.870461 0.216657 0.219424
O O3 0.966295 0.137319 0.272976
O O4 0.180974 0.161616 0.040858
O O5 0.839143 0.636720 0.417180
O O6 0.719909 0.708569 0.356834
O O7 0.077076 0.678032 0.201892
O O8 0.977104 0.726457 0.381629
O O9 0.470468 0.099378 0.869145
O O10 0.814867 0.064345 0.766766
O O11 0.552286 0.000000 0.832132
O O12 0.500000 0.051080 0.000000
O O13 0.500000 0.106815 0.500000
O O14 0.434986 0.059358 0.674212
O O15 0.799466 0.062757 0.430760
O O16 0.307970 0.601275 0.114318
O O17 0.695355 0.500000 0.866339
O O18 0.565477 0.443718 0.794525
#
# Coordination Sequence:
#
# PCOD9214628 Si02
#       8
#     8   8   8   8   8   8   8   8
#     4  11  23  42  61  93 125 171 215 262 325 381
#     4  10  22  40  62  93 125 168 213 265 323 375
#     4  11  23  41  62  93 130 169 209 252 311 384
#     4   9  20  40  66  95 130 169 212 266 319 373
#     4  11  23  41  64  86 133 171 209 263 325 380
#     4  10  22  41  66  98 129 167 217 266 314 374
#     4  10  23  40  64  92 128 165 220 268 319 383
#     4  11  22  41  69  93 130 171 213 261 320 383
#
# _framework density 23.638909999999999
#
# number of rings (size 3 to 8) (size 9 to 14) (size 15 to 20)
#    0.000    1.625    1.250    3.750    0.000    7.750 
#    0.000   13.125    0.000    3.750    0.000    0.000 
#    0.000    0.000    0.000    0.000    0.000    0.000 
#
# Total GULP energy -179089.987914 kJ/mol
# GULP energy per Si atom -5596.562122 kJ/mol
# Density = 2.358511 g / cm^3
# Si number density = 23.638910 Si / 1000 Ang^3
#
#
#
# Elastic Constant Matrix: (Units=GPa)
#
#
# Indices 1 2 3 4 5 6 
#
# 1 131.4041 44.1584 30.0061 0.0000 -1.2454 0.0000
# 2 44.1584 118.0531 8.3963 0.0000 9.1502 0.0000
# 3 30.0061 8.3963 89.4820 0.0000 -13.4902 0.0000
# 4 0.0000 0.0000 0.0000 37.9133 0.0000 -131.0027
# 5 -1.2454 9.1502 -13.4902 0.0000 24.0955 0.0000
# 6 0.0000 0.0000 0.0000 -131.0027 0.0000 529.7160
#
#
#
# Elastic Compliance Matrix: (Units=1/GPa)
#
#
# Indices 1 2 3 4 5 6 
#
# 1 0.009367 -0.003318 -0.002803 0.000000 0.000175 0.000000
# 2 -0.003318 0.010076 -0.000476 0.000000 -0.004264 0.000000
# 3 -0.002803 -0.000476 0.013287 0.000000 0.007475 0.000000
# 4 0.000000 0.000000 0.000000 0.181311 0.000000 0.044840
# 5 0.000175 -0.004264 0.007475 0.000000 0.047315 0.000000
# 6 0.000000 0.000000 0.000000 0.044840 0.000000 0.012977
#
#
# Mechanical properties :
#
#
# Convention : Reuss Voigt Hill
#
# Bulk Modulus (GPa) = 51.18734 56.00674 53.59704
# Shear Modulus (GPa) = 17.00456 135.43686 76.22071
#
# Velocity S-wave (km/s) = 2.68497 7.57749 5.68452
# Velocity P-wave (km/s) = 5.59580 10.01509 8.11218
#
# Compressibility (1/GPa) = 0.01953608
#
# Stress axis : x y z
#
# Youngs Moduli (GPa) = 106.75903 99.24378 75.26149
#
# Poissons Ratio (x) = 0.32928 0.21098
# Poissons Ratio (y) = 0.35421 0.03581
# Poissons Ratio (z) = 0.29928 0.04722
#
# Static dielectric constant tensor:
#      x y z
#    x 1.931850 0.000000 0.027070 
#    y 0.000000 1.922520 0.000000 
#    z 0.027070 0.000000 1.899520 
# 
# From -- ./inp_files/201269.got.cif
#   From: 2010.05.17/outbox.cif.g08.bks.cpg/sg12_101_cif.got.tgz:201269.got - 2010.06.03 13:09:07.
