data_PCOD9214183
_publ_section_title
;
Structure prediction by ZEFSAII (Michael W. Deem and Ramdas Pophale) SiO2 
 PCOD9214183
Probable space group: C 2/M
;
_chemical_formula_sum "Si O2"
_cell_formula_units_Z 56
_cell_length_a 22.157633
_cell_length_b 17.684701
_cell_length_c 23.370843
_cell_angle_alpha 90.000000
_cell_angle_beta 18.781177
_cell_angle_gamma 90.000000
_cell_volume 2948.425840
_symmetry_space_group_name_H-M "C 2/M"
_symmetry_group_IT_number 12
_symmetry_cell_setting 'monoclinic'
loop_
_space_group_symop_operation_xyz
x,y,z
-x,y,-z
-x,-y,-z
x,-y,z
1/2+x,1/2+y,z
1/2-x,1/2+y,-z
1/2-x,1/2-y,-z
1/2+x,1/2-y,z
loop_
_atom_site_type_symbol
_atom_site_label
_atom_site_fract_x
_atom_site_fract_y
_atom_site_fract_z
Si Si1 0.861080 0.237210 0.773567
Si Si2 0.637531 0.701197 0.424958
Si Si3 0.075277 0.911362 0.758467
Si Si4 0.632449 0.086083 0.704337
Si Si5 0.527127 0.691164 0.910246
Si Si6 0.650074 0.827999 0.571433
Si Si7 0.315708 0.585421 0.882691
O O1 0.879423 0.154822 0.786054
O O2 0.000701 0.238411 0.594554
O O3 0.940173 0.301866 0.744788
O O4 0.649215 0.254973 0.946587
O O5 0.500000 0.668916 0.500000
O O6 0.760832 0.639355 0.347119
O O7 0.781531 0.761320 0.268712
O O8 0.030378 0.874193 0.859632
O O9 0.244415 0.865671 0.576602
O O10 0.906133 0.904234 0.864284
O O11 0.119305 0.000000 0.724462
O O12 0.664625 0.115886 0.611434
O O13 0.694957 0.000000 0.654127
O O14 0.408857 0.089273 0.914098
O O15 0.500000 0.665300 0.000000
O O16 0.750000 0.750000 0.500000
O O17 0.369271 0.500000 0.815335
#
# Coordination Sequence:
#
# PCOD9214183 Si02
#       7
#     8   8   8   8   8   8   8
#     4  12  23  39  68  97 128 168 218 269 316 387
#     4  12  24  42  66  95 124 170 225 265 319 374
#     4  11  23  41  64  97 137 170 210 265 327 388
#     4  11  23  40  62  95 136 171 211 261 327 392
#     4  12  25  43  68  91 126 173 223 271 311 375
#     4  12  21  36  65  99 126 166 210 263 324 385
#     4  10  22  39  64 100 137 170 206 263 329 391
#
# _framework density 18.993186999999999
#
# number of rings (size 3 to 8) (size 9 to 14) (size 15 to 20)
#    0.000    0.571    7.143    1.286    0.000    3.429 
#    0.000    0.714    0.000    3.857    0.000    0.000 
#    0.000    0.000    0.000    0.000    0.000    0.000 
#
# Total GULP energy -156476.014634 kJ/mol
# GULP energy per Si atom -5588.429094 kJ/mol
# Density = 1.894996 g / cm^3
# Si number density = 18.993187 Si / 1000 Ang^3
#
#
#
# Elastic Constant Matrix: (Units=GPa)
#
#
# Indices 1 2 3 4 5 6 
#
# 1 115.4102 48.5484 38.3666 0.0075 6.5979 -0.0056
# 2 48.5484 98.1932 46.2249 -0.0028 13.7180 -0.0013
# 3 38.3666 46.2249 96.2144 -0.0593 7.4962 0.0076
# 4 0.0075 -0.0028 -0.0593 27.3334 0.0119 -2.0921
# 5 6.5979 13.7180 7.4962 0.0119 36.2516 0.0044
# 6 -0.0056 -0.0013 0.0076 -2.0921 0.0044 13.3365
#
#
#
# Elastic Compliance Matrix: (Units=1/GPa)
#
#
# Indices 1 2 3 4 5 6 
#
# 1 0.011342 -0.004513 -0.002365 -0.000008 0.000132 0.000004
# 2 -0.004513 0.015473 -0.005328 -0.000007 -0.003932 0.000003
# 3 -0.002365 -0.005328 0.013930 0.000030 -0.000434 -0.000005
# 4 -0.000008 -0.000007 0.000030 0.037030 -0.000015 0.005809
# 5 0.000132 -0.003932 -0.000434 -0.000015 0.029139 -0.000012
# 6 0.000004 0.000003 -0.000005 0.005809 -0.000012 0.075893
#
#
# Mechanical properties :
#
#
# Convention : Reuss Voigt Hill
#
# Bulk Modulus (GPa) = 61.22394 64.01087 62.61741
# Shear Modulus (GPa) = 23.51157 27.16282 25.33720
#
# Velocity S-wave (km/s) = 3.52219 3.78582 3.65638
# Velocity P-wave (km/s) = 6.98897 7.27221 7.13200
#
# Compressibility (1/GPa) = 0.01633348
#
# Stress axis : x y z
#
# Youngs Moduli (GPa) = 88.17041 64.63055 71.78783
#
# Poissons Ratio (x) = 0.29166 0.16977
# Poissons Ratio (y) = 0.39789 0.38247
# Poissons Ratio (z) = 0.20851 0.34433
#
# Static dielectric constant tensor:
#      x y z
#    x 1.668340 -0.000010 -0.009100 
#    y -0.000010 1.636110 0.000020 
#    z -0.009100 0.000020 1.675000 
# 
# From -- ./inp_files/322654.got.cif
#   From: 2010.05.17/outbox.cif.g08.bks.cpg/sg12_162_cif.got.tgz:322654.got - 2010.06.03 13:09:07.
