data_PCOD9214436
_publ_section_title
;
Structure prediction by ZEFSAII (Michael W. Deem and Ramdas Pophale) SiO2 
 PCOD9214436
Probable space group: C 2/M
;
_chemical_formula_sum "Si O2"
_cell_formula_units_Z 34
_cell_length_a 18.381858
_cell_length_b 13.620458
_cell_length_c 9.625174
_cell_angle_alpha 90.000000
_cell_angle_beta 40.706047
_cell_angle_gamma 90.000000
_cell_volume 1571.651052
_symmetry_space_group_name_H-M "C 2/M"
_symmetry_group_IT_number 12
_symmetry_cell_setting 'monoclinic'
loop_
_space_group_symop_operation_xyz
x,y,z
-x,y,-z
-x,-y,-z
x,-y,z
1/2+x,1/2+y,z
1/2-x,1/2+y,-z
1/2-x,1/2-y,-z
1/2+x,1/2-y,z
loop_
_atom_site_type_symbol
_atom_site_label
_atom_site_fract_x
_atom_site_fract_y
_atom_site_fract_z
Si Si1 0.579898 0.112697 0.015266
Si Si2 0.287440 0.286392 0.596007
Si Si3 0.028261 0.784346 0.299502
Si Si4 0.500000 0.500000 0.000000
Si Si5 0.692670 0.605877 0.889161
O O1 0.703395 0.134502 0.780381
O O2 0.563941 0.000000 0.076399
O O3 0.500000 0.135802 0.000000
O O4 0.553427 0.185218 0.179311
O O5 0.250000 0.250000 0.500000
O O6 0.412202 0.326064 0.407758
O O7 0.272777 0.189591 0.714026
O O8 0.000000 0.769874 0.500000
O O9 0.131425 0.855405 0.116317
O O10 0.589804 0.583945 0.930903
O O11 0.748222 0.500000 0.829849
#
# Coordination Sequence:
#
# PCOD9214436 Si02
#       5
#     8   8   8   2   8
#     4  10  22  40  60  90 122 152 200 250 288 347
#     4  11  21  37  64  90 114 158 203 238 292 354
#     4  11  24  41  60  88 125 157 192 246 302 348
#     4   8  16  36  58  84 116 150 182 254 282 328
#     4   9  21  36  59  85 123 148 195 244 291 343
#
# _framework density 21.633299999999998
#
# number of rings (size 3 to 8) (size 9 to 14) (size 15 to 20)
#    0.706    1.176    2.353    1.412    3.294    7.529 
#    0.000    2.353    0.000    0.000    0.000    0.000 
#    0.000    0.000    0.000    0.000    0.000    0.000 
#
# Total GULP energy -94671.957132 kJ/mol
# GULP energy per Si atom -5568.938655 kJ/mol
# Density = 2.158406 g / cm^3
# Si number density = 21.633300 Si / 1000 Ang^3
#
#
#
# Elastic Constant Matrix: (Units=GPa)
#
#
# Indices 1 2 3 4 5 6 
#
# 1 23.5628 -12.5643 0.4790 0.0000 4.7777 0.0000
# 2 -12.5643 60.9198 -1.2035 0.0000 8.2844 0.0000
# 3 0.4790 -1.2035 87.6480 0.0000 8.3440 0.0000
# 4 0.0000 0.0000 0.0000 -7.8993 0.0000 11.0078
# 5 4.7777 8.2844 8.3440 0.0000 33.0044 0.0000
# 6 0.0000 0.0000 0.0000 11.0078 0.0000 -12.2915
#
#
#
# Elastic Compliance Matrix: (Units=1/GPa)
#
#
# Indices 1 2 3 4 5 6 
#
# 1 0.050955 0.011969 0.000896 0.000000 -0.010607 0.000000
# 2 0.011969 0.019843 0.000867 0.000000 -0.006933 0.000000
# 3 0.000896 0.000867 0.011732 0.000000 -0.003313 0.000000
# 4 0.000000 0.000000 0.000000 0.510502 0.000000 0.457187
# 5 -0.010607 -0.006933 -0.003313 0.000000 0.034412 0.000000
# 6 0.000000 0.000000 0.000000 0.457187 0.000000 0.328083
#
#
# Mechanical properties :
#
#
# Convention : Reuss Voigt Hill
#
# Bulk Modulus (GPa) = 9.09146 16.17257 12.63202
# Shear Modulus (GPa) = 5.18281 14.92402 10.05342
#
# Velocity S-wave (km/s) = 1.54950 2.62937 2.15807
# Velocity P-wave (km/s) = 2.72267 4.08781 3.47297
#
# Compressibility (1/GPa) = 0.10999331
#
# Stress axis : x y z
#
# Youngs Moduli (GPa) = 19.62533 50.39442 85.23919
#
# Poissons Ratio (x) = -0.60318 -0.07634
# Poissons Ratio (y) = -0.23490 -0.07391
# Poissons Ratio (z) = -0.01758 -0.04369
#
# Static dielectric constant tensor:
#      x y z
#    x 1.857840 0.000000 0.017200 
#    y 0.000000 1.770520 0.000000 
#    z 0.017200 0.000000 1.758780 
# 
# From -- ./inp_files/72770.got.cif
#   From: 2010.05.17/outbox.cif.g08.bks.cpg/sg12_37_cif.got.tgz:72770.got - 2010.06.03 13:09:07.
