data_PCOD9214389
_publ_section_title
;
Structure prediction by ZEFSAII (Michael W. Deem and Ramdas Pophale) SiO2 
 PCOD9214389
Probable space group: C 2/M
;
_chemical_formula_sum "Si O2"
_cell_formula_units_Z 40
_cell_length_a 6.702516
_cell_length_b 13.393932
_cell_length_c 23.407946
_cell_angle_alpha 90.000000
_cell_angle_beta 140.938706
_cell_angle_gamma 90.000000
_cell_volume 1324.201778
_symmetry_space_group_name_H-M "C 2/M"
_symmetry_group_IT_number 12
_symmetry_cell_setting 'monoclinic'
loop_
_space_group_symop_operation_xyz
x,y,z
-x,y,-z
-x,-y,-z
x,-y,z
1/2+x,1/2+y,z
1/2-x,1/2+y,-z
1/2-x,1/2-y,-z
1/2+x,1/2-y,z
loop_
_atom_site_type_symbol
_atom_site_label
_atom_site_fract_x
_atom_site_fract_y
_atom_site_fract_z
Si Si1 0.307853 0.618883 0.027249
Si Si2 0.075045 0.885298 0.367505
Si Si3 0.130078 0.380371 0.166222
Si Si4 0.234694 0.118707 0.220055
Si Si5 0.352791 0.168746 0.586181
O O1 0.362232 0.500000 0.032798
O O2 0.612561 0.654905 0.131015
O O3 0.000000 0.626952 0.000000
O O4 0.177345 0.656998 0.937281
O O5 0.381208 0.883481 0.393259
O O6 0.139202 0.788888 0.420818
O O7 0.767337 0.859554 0.259734
O O8 0.048509 0.000000 0.382829
O O9 0.092522 0.500000 0.158388
O O10 0.432958 0.359735 0.193424
O O11 0.530896 0.154775 0.322421
O O12 0.266689 0.000000 0.222902
O O13 0.000000 0.128951 0.500000
#
# Coordination Sequence:
#
# PCOD9214389 Si02
#       5
#     8   8   8   8   8
#     4   7   9  17  38  69 102 135 172 215 265 320
#     4  10  22  40  60  84 115 148 185 233 284 333
#     4   7  11  23  45  71 102 139 174 216 271 324
#     4   8  14  25  45  75 108 141 179 224 272 323
#     4  11  22  38  58  83 114 148 191 236 277 332
#
# _framework density 30.206879000000001
#
# number of rings (size 3 to 8) (size 9 to 14) (size 15 to 20)
#    0.000    3.400    0.000    4.800    0.000    2.000 
#    0.000    3.000    0.000    0.000    0.000    0.000 
#    0.000   26.400    0.000    0.000    0.000    0.000 
#
# Total GULP energy -112157.259639 kJ/mol
# GULP energy per Si atom -5607.862982 kJ/mol
# Density = 3.013813 g / cm^3
# Si number density = 30.206879 Si / 1000 Ang^3
#
#
#
# Elastic Constant Matrix: (Units=GPa)
#
#
# Indices 1 2 3 4 5 6 
#
# 1 103.4782 20.1477 60.3205 0.0001 -0.2252 0.0001
# 2 20.1477 189.7724 48.5180 0.0004 0.1454 0.0000
# 3 60.3205 48.5180 302.1360 0.0023 33.6010 -0.0003
# 4 0.0001 0.0004 0.0023 76.9935 0.0003 -19.9403
# 5 -0.2252 0.1454 33.6010 0.0003 72.7996 0.0001
# 6 0.0001 0.0000 -0.0003 -19.9403 0.0001 41.2487
#
#
#
# Elastic Compliance Matrix: (Units=1/GPa)
#
#
# Indices 1 2 3 4 5 6 
#
# 1 0.011087 -0.000607 -0.002235 0.000000 0.001067 0.000000
# 2 -0.000607 0.005540 -0.000809 0.000000 0.000360 0.000000
# 3 -0.002235 -0.000809 0.004097 0.000000 -0.001896 0.000000
# 4 0.000000 0.000000 0.000000 0.014847 0.000000 0.007177
# 5 0.001067 0.000360 -0.001896 0.000000 0.014614 0.000000
# 6 0.000000 0.000000 0.000000 0.007177 0.000000 0.027713
#
#
# Mechanical properties :
#
#
# Convention : Reuss Voigt Hill
#
# Bulk Modulus (GPa) = 74.49305 94.81768 84.65536
# Shear Modulus (GPa) = 55.75852 69.30170 62.53011
#
# Velocity S-wave (km/s) = 4.30104 4.79501 4.55473
# Velocity P-wave (km/s) = 7.02707 7.88123 7.46638
#
# Compressibility (1/GPa) = 0.01342407
#
# Stress axis : x y z
#
# Youngs Moduli (GPa) = 90.19588 180.49444 244.10167
#
# Poissons Ratio (x) = 0.10948 0.54550
# Poissons Ratio (y) = 0.05471 0.19739
# Poissons Ratio (z) = 0.20156 0.14596
#
# Static dielectric constant tensor:
#      x y z
#    x 2.439120 0.000000 -0.038760 
#    y 0.000000 2.221970 0.000000 
#    z -0.038760 0.000000 2.298090 
# 
# From -- ./inp_files/372690.got.cif
#   From: 2010.05.17/outbox.cif.g08.bks.cpg/sg12_187_cif.got.tgz:372690.got - 2010.06.03 13:09:07.
