data_PCOD9214404
_publ_section_title
;
Structure prediction by ZEFSAII (Michael W. Deem and Ramdas Pophale) SiO2 
 PCOD9214404
Probable space group: C 2/M
;
_chemical_formula_sum "Si O2"
_cell_formula_units_Z 40
_cell_length_a 9.984432
_cell_length_b 9.036405
_cell_length_c 23.116609
_cell_angle_alpha 90.000000
_cell_angle_beta 70.217748
_cell_angle_gamma 90.000000
_cell_volume 1962.574625
_symmetry_space_group_name_H-M "C 2/M"
_symmetry_group_IT_number 12
_symmetry_cell_setting 'monoclinic'
loop_
_space_group_symop_operation_xyz
x,y,z
-x,y,-z
-x,-y,-z
x,-y,z
1/2+x,1/2+y,z
1/2-x,1/2+y,-z
1/2-x,1/2-y,-z
1/2+x,1/2-y,z
loop_
_atom_site_type_symbol
_atom_site_label
_atom_site_fract_x
_atom_site_fract_y
_atom_site_fract_z
Si Si1 0.682397 0.323872 0.334276
Si Si2 0.495760 0.823993 0.736985
Si Si3 0.010914 0.323679 0.066435
Si Si4 0.833126 0.328871 0.539597
Si Si5 0.811425 0.176166 0.864377
O O1 0.659509 0.500000 0.339914
O O2 0.561608 0.246268 0.314001
O O3 0.688073 0.256828 0.397386
O O4 0.835885 0.296191 0.282250
O O5 0.405200 0.754050 0.801832
O O6 0.474695 0.000000 0.738883
O O7 0.037837 0.500000 0.068770
O O8 0.855998 0.290339 0.116151
O O9 0.129999 0.233108 0.082759
O O10 0.000000 0.290945 0.000000
O O11 0.787194 0.500000 0.552074
O O12 0.750000 0.250000 0.500000
O O13 0.000000 0.327208 0.500000
O O14 0.827741 0.000000 0.857770
#
# Coordination Sequence:
#
# PCOD9214404 Si02
#       5
#     8   8   8   8   8
#     4  11  24  41  62  89 119 154 198 243 290 347
#     4  11  24  41  61  87 120 156 195 242 294 347
#     4  10  22  40  60  85 119 155 193 241 293 346
#     4  11  24  41  62  90 122 156 196 241 291 347
#     4  11  23  38  60  89 117 152 198 241 289 350
#
# _framework density 20.38139
#
# number of rings (size 3 to 8) (size 9 to 14) (size 15 to 20)
#    0.000    1.200    0.000    5.400    0.000   16.400 
#    0.000    0.000    0.000    0.000    0.000    0.000 
#    0.000    0.000    0.000    0.000    0.000    0.000 
#
# Total GULP energy -111957.976229 kJ/mol
# GULP energy per Si atom -5597.898811 kJ/mol
# Density = 2.033500 g / cm^3
# Si number density = 20.381390 Si / 1000 Ang^3
#
#
#
# Elastic Constant Matrix: (Units=GPa)
#
#
# Indices 1 2 3 4 5 6 
#
# 1 61.5799 30.4003 -16.0067 0.0000 9.4961 0.0000
# 2 30.4003 53.8885 -0.1625 0.0000 -7.0057 0.0000
# 3 -16.0067 -0.1625 53.8975 0.0000 -3.4309 0.0000
# 4 0.0000 0.0000 0.0000 40.1230 0.0000 6.8725
# 5 9.4961 -7.0057 -3.4309 0.0000 35.3162 0.0000
# 6 0.0000 0.0000 0.0000 6.8725 0.0000 32.1107
#
#
#
# Elastic Compliance Matrix: (Units=1/GPa)
#
#
# Indices 1 2 3 4 5 6 
#
# 1 0.028400 -0.017340 0.007725 0.000000 -0.010326 0.000000
# 2 -0.017340 0.029641 -0.004417 0.000000 0.010113 0.000000
# 3 0.007725 -0.004417 0.020775 0.000000 -0.000935 0.000000
# 4 0.000000 0.000000 0.000000 0.025872 0.000000 -0.005537
# 5 -0.010326 0.010113 -0.000935 0.000000 0.033007 0.000000
# 6 0.000000 0.000000 0.000000 -0.005537 0.000000 0.032327
#
#
# Mechanical properties :
#
#
# Convention : Reuss Voigt Hill
#
# Bulk Modulus (GPa) = 19.70416 21.98091 20.84254
# Shear Modulus (GPa) = 23.25545 31.85230 27.55387
#
# Velocity S-wave (km/s) = 3.38155 3.95753 3.68083
# Velocity P-wave (km/s) = 4.99352 5.62947 5.32101
#
# Compressibility (1/GPa) = 0.05075069
#
# Stress axis : x y z
#
# Youngs Moduli (GPa) = 35.21164 33.73757 48.13471
#
# Poissons Ratio (x) = 0.58502 -0.37183
# Poissons Ratio (y) = 0.61058 0.21260
# Poissons Ratio (z) = -0.27200 0.14901
#
# Static dielectric constant tensor:
#      x y z
#    x 1.702610 0.000000 -0.010920 
#    y 0.000000 1.676160 0.000000 
#    z -0.010920 0.000000 1.718750 
# 
# From -- ./inp_files/261072.got.cif
#   From: 2010.05.17/outbox.cif.g08.bks.cpg/sg12_131_cif.got.tgz:261072.got - 2010.06.03 13:09:07.
