data_PCOD9214282
_publ_section_title
;
Structure prediction by ZEFSAII (Michael W. Deem and Ramdas Pophale) SiO2 
 PCOD9214282
Probable space group: C 2/M
;
_chemical_formula_sum "Si O2"
_cell_formula_units_Z 36
_cell_length_a 12.176244
_cell_length_b 24.516978
_cell_length_c 5.027582
_cell_angle_alpha 90.000000
_cell_angle_beta 115.008105
_cell_angle_gamma 90.000000
_cell_volume 1360.149045
_symmetry_space_group_name_H-M "C 2/M"
_symmetry_group_IT_number 12
_symmetry_cell_setting 'monoclinic'
loop_
_space_group_symop_operation_xyz
x,y,z
-x,y,-z
-x,-y,-z
x,-y,z
1/2+x,1/2+y,z
1/2-x,1/2+y,-z
1/2-x,1/2-y,-z
1/2+x,1/2-y,z
loop_
_atom_site_type_symbol
_atom_site_label
_atom_site_fract_x
_atom_site_fract_y
_atom_site_fract_z
Si Si1 0.867999 0.790293 0.748270
Si Si2 0.683864 0.938877 0.334896
Si Si3 0.379010 0.175258 0.536278
Si Si4 0.651684 0.560976 0.993935
Si Si5 0.500000 0.358339 0.500000
O O1 0.749024 0.817803 0.751940
O O2 0.858414 0.725120 0.719430
O O3 0.890497 0.820048 0.488363
O O4 0.000000 0.799592 0.000000
O O5 0.609190 0.885055 0.332221
O O6 0.732666 0.934751 0.085739
O O7 0.630514 0.000000 0.319724
O O8 0.797948 0.935253 0.655686
O O9 0.500000 0.187973 0.500000
O O10 0.602839 0.500000 0.904494
O O11 0.554664 0.602842 0.782825
#
# Coordination Sequence:
#
# PCOD9214282 Si02
#       5
#     8   8   8   8   4
#     4  11  25  44  68 101 138 180 230 291 350 412
#     4  10  22  43  66  97 137 182 231 286 346 412
#     4  11  24  45  67 103 135 184 232 287 346 422
#     4  10  22  39  67 101 137 178 230 289 349 412
#     4  12  21  40  66  98 135 182 226 292 342 426
#
# _framework density 26.467689
#
# number of rings (size 3 to 8) (size 9 to 14) (size 15 to 20)
#    0.000    1.333    3.333    1.667    0.000    3.111 
#    0.000    3.333    0.000    4.667    0.000    0.000 
#    0.000    0.000    0.000    0.000    0.000    0.000 
#
# Total GULP energy -100749.132743 kJ/mol
# GULP energy per Si atom -5597.174041 kJ/mol
# Density = 2.640745 g / cm^3
# Si number density = 26.467689 Si / 1000 Ang^3
#
#
#
# Elastic Constant Matrix: (Units=GPa)
#
#
# Indices 1 2 3 4 5 6 
#
# 1 159.6261 41.8259 20.3674 0.0000 5.7949 0.0000
# 2 41.8259 216.1049 0.2644 0.0000 -0.6405 0.0000
# 3 20.3674 0.2644 68.3086 0.0000 8.9865 0.0000
# 4 0.0000 0.0000 0.0000 14.8861 0.0000 0.1132
# 5 5.7949 -0.6405 8.9865 0.0000 35.7243 0.0000
# 6 0.0000 0.0000 0.0000 0.1132 0.0000 40.4680
#
#
#
# Elastic Compliance Matrix: (Units=1/GPa)
#
#
# Indices 1 2 3 4 5 6 
#
# 1 0.006888 -0.001333 -0.001963 0.000000 -0.000647 0.000000
# 2 -0.001333 0.004886 0.000350 0.000000 0.000216 0.000000
# 3 -0.001963 0.000350 0.015700 0.000000 -0.003625 0.000000
# 4 0.000000 0.000000 0.000000 0.067178 0.000000 -0.000188
# 5 -0.000647 0.000216 -0.003625 0.000000 0.029013 0.000000
# 6 0.000000 0.000000 0.000000 -0.000188 0.000000 0.024711
#
#
# Mechanical properties :
#
#
# Convention : Reuss Voigt Hill
#
# Bulk Modulus (GPa) = 46.33540 63.21722 54.77631
# Shear Modulus (GPa) = 30.96704 43.65446 37.31075
#
# Velocity S-wave (km/s) = 3.42423 4.06562 3.75863
# Velocity P-wave (km/s) = 5.76005 6.78053 6.29102
#
# Compressibility (1/GPa) = 0.02158177
#
# Stress axis : x y z
#
# Youngs Moduli (GPa) = 145.18346 204.68670 63.69276
#
# Poissons Ratio (x) = 0.27277 0.12506
# Poissons Ratio (y) = 0.19347 -0.02230
# Poissons Ratio (z) = 0.28505 -0.07165
#
# Static dielectric constant tensor:
#      x y z
#    x 2.087010 0.000000 0.036690 
#    y 0.000000 2.072880 0.000000 
#    z 0.036690 0.000000 2.242220 
# 
# From -- ./inp_files/7057.got.cif
#   From: 2010.05.17/outbox.cif.g08.bks.cpg/sg12_4_cif.got.tgz:7057.got - 2010.06.03 13:09:07.
