data_PCOD9214476
_publ_section_title
;
Structure prediction by ZEFSAII (Michael W. Deem and Ramdas Pophale) SiO2 
 PCOD9214476
Probable space group: C 2/M
;
_chemical_formula_sum "Si O2"
_cell_formula_units_Z 40
_cell_length_a 16.442572
_cell_length_b 25.804419
_cell_length_c 5.301559
_cell_angle_alpha 90.000000
_cell_angle_beta 122.003282
_cell_angle_gamma 90.000000
_cell_volume 1907.534379
_symmetry_space_group_name_H-M "C 2/M"
_symmetry_group_IT_number 12
_symmetry_cell_setting 'monoclinic'
loop_
_space_group_symop_operation_xyz
x,y,z
-x,y,-z
-x,-y,-z
x,-y,z
1/2+x,1/2+y,z
1/2-x,1/2+y,-z
1/2-x,1/2-y,-z
1/2+x,1/2-y,z
loop_
_atom_site_type_symbol
_atom_site_label
_atom_site_fract_x
_atom_site_fract_y
_atom_site_fract_z
Si Si1 0.142733 0.771688 0.835892
Si Si2 0.387977 0.609481 0.352077
Si Si3 0.281405 0.882960 0.602792
Si Si4 0.290996 0.059550 0.114344
Si Si5 0.904104 0.285016 0.746391
O O1 0.135538 0.832917 0.787326
O O2 0.092400 0.741921 0.519468
O O3 0.250000 0.750000 0.000000
O O4 0.106174 0.757542 0.052360
O O5 0.500000 0.600688 0.500000
O O6 0.333387 0.611159 0.535081
O O7 0.324282 0.566998 0.102765
O O8 0.315856 0.916170 0.423033
O O9 0.315231 0.824487 0.614640
O O10 0.325328 0.905357 0.935760
O O11 0.318393 0.000000 0.134890
O O12 0.000000 0.314202 0.000000
#
# Coordination Sequence:
#
# PCOD9214476 Si02
#       5
#     8   8   8   8   8
#     4  12  23  40  61  90 131 166 202 242 299 362
#     4  10  23  38  59  89 121 158 202 245 297 361
#     4  10  22  40  61  87 115 160 197 249 297 359
#     4  10  22  41  62  85 117 157 199 250 313 357
#     4  12  24  40  63  93 126 165 202 246 301 362
#
# _framework density 20.969477999999999
#
# number of rings (size 3 to 8) (size 9 to 14) (size 15 to 20)
#    1.200    0.000    2.000    5.400    2.800    1.200 
#    0.000    1.000    0.000    3.600    0.000    0.000 
#    0.000    0.000    0.000    0.000    0.000    0.000 
#
# Total GULP energy -111500.476707 kJ/mol
# GULP energy per Si atom -5575.023835 kJ/mol
# Density = 2.092175 g / cm^3
# Si number density = 20.969478 Si / 1000 Ang^3
#
#
#
# Elastic Constant Matrix: (Units=GPa)
#
#
# Indices 1 2 3 4 5 6 
#
# 1 55.1144 -5.0627 34.4068 0.0000 -20.7758 0.0000
# 2 -5.0627 73.9896 12.2862 0.0000 -32.6517 0.0000
# 3 34.4068 12.2862 86.9039 0.0000 -28.5658 0.0000
# 4 0.0000 0.0000 0.0000 0.6721 0.0000 -21.5921
# 5 -20.7758 -32.6517 -28.5658 0.0000 45.0474 0.0000
# 6 0.0000 0.0000 0.0000 -21.5921 0.0000 -1.4981
#
#
#
# Elastic Compliance Matrix: (Units=1/GPa)
#
#
# Indices 1 2 3 4 5 6 
#
# 1 0.030534 0.010855 -0.008096 0.000000 0.016816 0.000000
# 2 0.010855 0.024146 -0.000395 0.000000 0.022257 0.000000
# 3 -0.008096 -0.000395 0.016988 0.000000 0.006752 0.000000
# 4 0.000000 0.000000 0.000000 0.003206 0.000000 -0.046213
# 5 0.016816 0.022257 0.006752 0.000000 0.050369 0.000000
# 6 0.000000 0.000000 0.000000 -0.046213 0.000000 -0.001439
#
#
# Mechanical properties :
#
#
# Convention : Reuss Voigt Hill
#
# Bulk Modulus (GPa) = 13.08986 33.25204 23.17095
# Shear Modulus (GPa) = 34.59185 20.46947 27.53066
#
# Velocity S-wave (km/s) = 4.06597 3.12774 3.62732
# Velocity P-wave (km/s) = 5.31965 5.37917 5.34949
#
# Compressibility (1/GPa) = 0.07639499
#
# Stress axis : x y z
#
# Youngs Moduli (GPa) = 32.74990 41.41486 58.86631
#
# Poissons Ratio (x) = -0.44955 0.47659
# Poissons Ratio (y) = -0.35549 0.02326
# Poissons Ratio (z) = 0.26515 0.01636
#
# Static dielectric constant tensor:
#      x y z
#    x 1.866100 0.000000 0.054700 
#    y 0.000000 1.691440 0.000000 
#    z 0.054700 0.000000 1.798970 
# 
# From -- ./inp_files/16752.got.cif
#   From: 2010.05.17/outbox.cif.g08.bks.cpg/sg12_9_cif.got.tgz:16752.got - 2010.06.03 13:09:07.
