data_PCOD9214225
_publ_section_title
;
Structure prediction by ZEFSAII (Michael W. Deem and Ramdas Pophale) SiO2 
 PCOD9214225
Probable space group: C 2/M
;
_chemical_formula_sum "Si O2"
_cell_formula_units_Z 58
_cell_length_a 21.621482
_cell_length_b 22.409768
_cell_length_c 8.916201
_cell_angle_alpha 90.000000
_cell_angle_beta 137.928431
_cell_angle_gamma 90.000000
_cell_volume 2894.778227
_symmetry_space_group_name_H-M "C 2/M"
_symmetry_group_IT_number 12
_symmetry_cell_setting 'monoclinic'
loop_
_space_group_symop_operation_xyz
x,y,z
-x,y,-z
-x,-y,-z
x,-y,z
1/2+x,1/2+y,z
1/2-x,1/2+y,-z
1/2-x,1/2-y,-z
1/2+x,1/2-y,z
loop_
_atom_site_type_symbol
_atom_site_label
_atom_site_fract_x
_atom_site_fract_y
_atom_site_fract_z
Si Si1 0.561083 0.384431 0.982360
Si Si2 0.812704 0.220389 0.741888
Si Si3 0.041794 0.676292 0.914385
Si Si4 0.134681 0.608041 0.831181
Si Si5 0.000000 0.500000 0.500000
Si Si6 0.862485 0.710736 0.394993
Si Si7 0.934018 0.169138 0.501324
Si Si8 0.843426 0.069347 0.141685
O O1 0.490807 0.347104 0.750078
O O2 0.621889 0.419100 0.967257
O O3 0.500000 0.416958 0.000000
O O4 0.625206 0.336850 0.184638
O O5 0.750000 0.250000 0.500000
O O6 0.737935 0.194242 0.723274
O O7 0.884317 0.270171 0.930627
O O8 0.095291 0.623095 0.925448
O O9 0.950750 0.697163 0.658998
O O10 0.000000 0.658534 0.000000
O O11 0.121029 0.671120 0.721232
O O12 0.077464 0.553198 0.661910
O O13 0.240035 0.589822 0.993897
O O14 0.854696 0.782486 0.375437
O O15 0.902458 0.109873 0.360759
O O16 0.000000 0.201738 0.500000
O O17 0.854941 0.000000 0.194797
#
# Coordination Sequence:
#
# PCOD9214225 Si02
#       8
#     8   8   8   8   2   8   8   8
#     4  11  23  41  65  96 137 175 217 276 340 396
#     4  12  23  37  64  99 141 177 214 274 346 403
#     4  12  24  41  65 101 140 177 218 275 345 406
#     4  12  25  43  71  96 132 177 235 279 331 401
#     4  12  24  44  74  96 132 184 222 286 340 384
#     4  12  22  40  67 100 132 177 224 277 334 405
#     4  10  22  39  64  97 134 171 217 274 335 395
#     4  11  25  45  69  96 130 178 232 281 327 398
#
# _framework density 20.036076000000001
#
# number of rings (size 3 to 8) (size 9 to 14) (size 15 to 20)
#    0.000    0.552    6.207    2.897    1.931    3.862 
#    0.000    0.345    0.000    0.000    0.000    0.000 
#    0.000    0.000    0.000    0.000    0.000    0.000 
#
# Total GULP energy -161520.783416 kJ/mol
# GULP energy per Si atom -5569.682187 kJ/mol
# Density = 1.999047 g / cm^3
# Si number density = 20.036076 Si / 1000 Ang^3
#
#
#
# Elastic Constant Matrix: (Units=GPa)
#
#
# Indices 1 2 3 4 5 6 
#
# 1 144.7930 29.6957 36.5974 0.0000 12.4726 0.0000
# 2 29.6957 103.9730 24.5265 0.0000 6.0975 0.0000
# 3 36.5974 24.5265 70.2436 0.0000 18.4927 0.0000
# 4 0.0000 0.0000 0.0000 22.7968 0.0000 6.5039
# 5 12.4726 6.0975 18.4927 0.0000 35.3882 0.0000
# 6 0.0000 0.0000 0.0000 6.5039 0.0000 21.3431
#
#
#
# Elastic Compliance Matrix: (Units=1/GPa)
#
#
# Indices 1 2 3 4 5 6 
#
# 1 0.008167 -0.001451 -0.003544 0.000000 -0.000776 0.000000
# 2 -0.001451 0.010739 -0.003063 0.000000 0.000261 0.000000
# 3 -0.003544 -0.003063 0.019346 0.000000 -0.008333 0.000000
# 4 0.000000 0.000000 0.000000 0.048043 0.000000 -0.014640
# 5 -0.000776 0.000261 -0.008333 0.000000 0.032841 0.000000
# 6 0.000000 0.000000 0.000000 -0.014640 0.000000 0.051315
#
#
# Mechanical properties :
#
#
# Convention : Reuss Voigt Hill
#
# Bulk Modulus (GPa) = 45.17386 55.62764 50.40075
# Shear Modulus (GPa) = 25.78066 31.11830 28.44948
#
# Velocity S-wave (km/s) = 3.59097 3.94523 3.77226
# Velocity P-wave (km/s) = 6.30782 6.96973 6.64702
#
# Compressibility (1/GPa) = 0.02213670
#
# Stress axis : x y z
#
# Youngs Moduli (GPa) = 122.45002 93.11494 51.69141
#
# Poissons Ratio (x) = 0.13511 0.18319
# Poissons Ratio (y) = 0.17767 0.15831
# Poissons Ratio (z) = 0.43394 0.28518
#
# Static dielectric constant tensor:
#      x y z
#    x 2.468550 0.000000 0.371130 
#    y 0.000000 1.675080 0.000000 
#    z 0.371130 0.000000 1.921530 
# 
# From -- ./inp_files/65347.got.cif
#   From: 2010.05.17/outbox.cif.g08.bks.cpg/sg12_33_cif.got.tgz:65347.got - 2010.06.03 13:09:07.
