data_PCOD9214919
_publ_section_title
;
Structure prediction by ZEFSAII (Michael W. Deem and Ramdas Pophale) SiO2 
 PCOD9214919
Probable space group: C 2/M
;
_chemical_formula_sum "Si O2"
_cell_formula_units_Z 56
_cell_length_a 20.903091
_cell_length_b 23.774376
_cell_length_c 9.839966
_cell_angle_alpha 90.000000
_cell_angle_beta 147.694995
_cell_angle_gamma 90.000000
_cell_volume 2613.370378
_symmetry_space_group_name_H-M "C 2/M"
_symmetry_group_IT_number 12
_symmetry_cell_setting 'monoclinic'
loop_
_space_group_symop_operation_xyz
x,y,z
-x,y,-z
-x,-y,-z
x,-y,z
1/2+x,1/2+y,z
1/2-x,1/2+y,-z
1/2-x,1/2-y,-z
1/2+x,1/2-y,z
loop_
_atom_site_type_symbol
_atom_site_label
_atom_site_fract_x
_atom_site_fract_y
_atom_site_fract_z
Si Si1 0.319425 0.435287 0.536450
Si Si2 0.428940 0.729688 0.504669
Si Si3 0.727372 0.390980 0.260841
Si Si4 0.960790 0.933159 0.276733
Si Si5 0.533383 0.859264 0.413651
Si Si6 0.691367 0.167848 0.177943
Si Si7 0.595857 0.718636 0.065544
O O1 0.285016 0.500000 0.446994
O O2 0.327340 0.427261 0.713453
O O3 0.436252 0.423741 0.652606
O O4 0.227809 0.387305 0.324921
O O5 0.500000 0.710869 0.500000
O O6 0.409656 0.796985 0.456919
O O7 0.307251 0.695757 0.313181
O O8 0.522031 0.721472 0.794067
O O9 0.868580 0.395609 0.490189
O O10 0.699499 0.326474 0.247063
O O11 0.656874 0.404323 0.995331
O O12 0.000000 0.916431 0.500000
O O13 0.939085 0.000000 0.243281
O O14 0.500000 0.883878 0.500000
O O15 0.412860 0.848539 0.113327
O O16 0.641765 0.219003 0.180866
O O17 0.500000 0.697640 0.000000
#
# Coordination Sequence:
#
# PCOD9214919 Si02
#       7
#     8   8   8   8   8   8   8
#     4  11  26  45  69  99 132 176 230 285 337 391
#     4  10  22  40  65  97 135 178 219 264 328 404
#     4  12  23  42  69 101 138 176 219 280 341 407
#     4  10  23  44  73 104 133 173 228 286 335 389
#     4  10  25  40  62 101 143 180 219 272 335 403
#     4  11  24  42  67  93 139 181 218 276 330 406
#     4  11  24  37  63  99 133 172 221 272 336 399
#
# _framework density 21.428266000000001
#
# number of rings (size 3 to 8) (size 9 to 14) (size 15 to 20)
#    0.000    1.286    1.429    3.429    8.000    5.143 
#    0.000    2.143    0.000    2.143    0.000    0.000 
#    0.000    0.000    0.000    0.000    0.000    0.000 
#
# Total GULP energy -156526.020874 kJ/mol
# GULP energy per Si atom -5590.215031 kJ/mol
# Density = 2.137949 g / cm^3
# Si number density = 21.428266 Si / 1000 Ang^3
#
#
#
# Elastic Constant Matrix: (Units=GPa)
#
#
# Indices 1 2 3 4 5 6 
#
# 1 108.4239 6.0723 28.6397 0.0000 -0.1616 0.0000
# 2 6.0723 69.8982 30.6544 0.0000 5.1207 0.0000
# 3 28.6397 30.6544 96.1422 0.0000 -1.1932 0.0000
# 4 0.0000 0.0000 0.0000 19.6025 0.0000 -7.0423
# 5 -0.1616 5.1207 -1.1932 0.0000 33.7001 0.0000
# 6 0.0000 0.0000 0.0000 -7.0423 0.0000 26.0388
#
#
#
# Elastic Compliance Matrix: (Units=1/GPa)
#
#
# Indices 1 2 3 4 5 6 
#
# 1 0.010027 0.000523 -0.003156 0.000000 -0.000143 0.000000
# 2 0.000523 0.016912 -0.005582 0.000000 -0.002765 0.000000
# 3 -0.003156 -0.005582 0.013137 0.000000 0.001298 0.000000
# 4 0.000000 0.000000 0.000000 0.056504 0.000000 0.015282
# 5 -0.000143 -0.002765 0.001298 0.000000 0.030139 0.000000
# 6 0.000000 0.000000 0.000000 0.015282 0.000000 0.042537
#
#
# Mechanical properties :
#
#
# Convention : Reuss Voigt Hill
#
# Bulk Modulus (GPa) = 42.28905 45.02190 43.65547
# Shear Modulus (GPa) = 25.83071 29.80812 27.81942
#
# Velocity S-wave (km/s) = 3.47573 3.73375 3.60704
# Velocity P-wave (km/s) = 5.99046 6.29634 6.14530
#
# Compressibility (1/GPa) = 0.02364679
#
# Stress axis : x y z
#
# Youngs Moduli (GPa) = 99.73002 59.13014 76.11905
#
# Poissons Ratio (x) = -0.03094 0.24020
# Poissons Ratio (y) = -0.05219 0.42493
# Poissons Ratio (z) = 0.31471 0.33009
#
# Static dielectric constant tensor:
#      x y z
#    x 1.792070 0.000000 -0.006410 
#    y 0.000000 1.789590 0.000000 
#    z -0.006410 0.000000 1.744710 
# 
# From -- ./inp_files/80069.got.cif
#   From: 2010.05.17/outbox.cif.g08.bks.cpg/sg12_41_cif.got.tgz:80069.got - 2010.06.03 13:09:07.
