data_PCOD9214219
_publ_section_title
;
Structure prediction by ZEFSAII (Michael W. Deem and Ramdas Pophale) SiO2 
 PCOD9214219
Probable space group: C 2/M
;
_chemical_formula_sum "Si O2"
_cell_formula_units_Z 64
_cell_length_a 14.861020
_cell_length_b 16.534984
_cell_length_c 19.286818
_cell_angle_alpha 90.000000
_cell_angle_beta 39.169388
_cell_angle_gamma 90.000000
_cell_volume 2993.405385
_symmetry_space_group_name_H-M "C 2/M"
_symmetry_group_IT_number 12
_symmetry_cell_setting 'monoclinic'
loop_
_space_group_symop_operation_xyz
x,y,z
-x,y,-z
-x,-y,-z
x,-y,z
1/2+x,1/2+y,z
1/2-x,1/2+y,-z
1/2-x,1/2-y,-z
1/2+x,1/2-y,z
loop_
_atom_site_type_symbol
_atom_site_label
_atom_site_fract_x
_atom_site_fract_y
_atom_site_fract_z
Si Si1 0.664216 0.094792 0.411927
Si Si2 0.332819 0.411257 0.594298
Si Si3 0.734731 0.595602 0.975461
Si Si4 0.157984 0.410218 0.937125
Si Si5 0.754272 0.707995 0.231463
Si Si6 0.423734 0.795668 0.765854
Si Si7 0.050020 0.818063 0.811233
Si Si8 0.792570 0.656120 0.462275
O O1 0.500000 0.124228 0.500000
O O2 0.797243 0.140266 0.296353
O O3 0.696627 0.109179 0.473058
O O4 0.667413 0.000000 0.391077
O O5 0.500000 0.417521 0.500000
O O6 0.266661 0.500000 0.647694
O O7 0.278768 0.344125 0.680641
O O8 0.314010 0.383983 0.526944
O O9 0.742664 0.500000 0.954135
O O10 0.826090 0.610335 0.991542
O O11 0.572880 0.622323 0.088656
O O12 0.801759 0.653332 0.877197
O O13 0.221299 0.500000 0.892523
O O14 0.236535 0.349030 0.840695
O O15 0.000000 0.412592 0.000000
O O16 0.631625 0.766980 0.276481
O O17 0.902525 0.753225 0.158947
O O18 0.484469 0.727378 0.782771
O O19 0.559537 0.849459 0.667322
O O20 0.750000 0.750000 0.500000
#
# Coordination Sequence:
#
# PCOD9214219 Si02
#       8
#     8   8   8   8   8   8   8   8
#     4  11  25  46  72 102 139 186 239 290 351 418
#     4  11  25  42  64  99 138 175 223 285 354 417
#     4  11  26  47  70 102 144 184 234 292 353 421
#     4  10  22  39  64  96 133 175 221 279 347 415
#     4  12  24  41  68  96 133 175 228 284 339 414
#     4  12  25  43  70 102 139 181 231 282 351 420
#     4  12  24  46  70 104 137 183 235 293 346 421
#     4  12  23  44  69 101 138 182 228 288 351 412
#
# _framework density 21.380331999999999
#
# number of rings (size 3 to 8) (size 9 to 14) (size 15 to 20)
#    0.000    0.625    3.750    3.750    1.750    2.000 
#    0.000    1.875    0.000    0.000    0.000    0.000 
#    0.000    0.000    0.000    0.000    0.000    0.000 
#
# Total GULP energy -178768.624929 kJ/mol
# GULP energy per Si atom -5586.519529 kJ/mol
# Density = 2.133167 g / cm^3
# Si number density = 21.380332 Si / 1000 Ang^3
#
#
#
# Elastic Constant Matrix: (Units=GPa)
#
#
# Indices 1 2 3 4 5 6 
#
# 1 131.8726 38.3445 12.8559 -0.0001 -1.5297 0.0001
# 2 38.3445 67.6062 30.4276 0.0000 -3.4304 0.0001
# 3 12.8559 30.4276 84.0658 0.0000 -12.6231 0.0001
# 4 -0.0001 0.0000 0.0000 32.6901 0.0001 4.9572
# 5 -1.5297 -3.4304 -12.6231 0.0001 34.6619 -0.0001
# 6 0.0001 0.0001 0.0001 4.9572 -0.0001 27.7477
#
#
#
# Elastic Compliance Matrix: (Units=1/GPa)
#
#
# Indices 1 2 3 4 5 6 
#
# 1 0.009104 -0.005421 0.000582 0.000000 0.000077 0.000000
# 2 -0.005421 0.020911 -0.006839 0.000000 -0.000660 0.000000
# 3 0.000582 -0.006839 0.015005 0.000000 0.004813 0.000000
# 4 0.000000 0.000000 0.000000 0.031442 0.000000 -0.005617
# 5 0.000077 -0.000660 0.004813 0.000000 0.030541 0.000000
# 6 0.000000 0.000000 0.000000 -0.005617 0.000000 0.037043
#
#
# Mechanical properties :
#
#
# Convention : Reuss Voigt Hill
#
# Bulk Modulus (GPa) = 46.16345 49.64453 47.90399
# Shear Modulus (GPa) = 28.63331 32.48104 30.55717
#
# Velocity S-wave (km/s) = 3.66353 3.90192 3.78460
# Velocity P-wave (km/s) = 6.28758 6.60077 6.44608
#
# Compressibility (1/GPa) = 0.02166216
#
# Stress axis : x y z
#
# Youngs Moduli (GPa) = 109.84698 47.82244 66.64660
#
# Poissons Ratio (x) = 0.25925 -0.03876
# Poissons Ratio (y) = 0.59550 0.45578
# Poissons Ratio (z) = -0.06388 0.32704
#
# Static dielectric constant tensor:
#      x y z
#    x 1.809230 0.000000 -0.031470 
#    y 0.000000 1.865700 0.000000 
#    z -0.031470 0.000000 1.795990 
# 
# From -- ./inp_files/271683.got.cif
#   From: 2010.05.17/outbox.cif.g08.bks.cpg/sg12_136_cif.got.tgz:271683.got - 2010.06.03 13:09:07.
