data_PCOD9214972
_publ_section_title
;
Structure prediction by ZEFSAII (Michael W. Deem and Ramdas Pophale) SiO2 
 PCOD9214972
Probable space group: C 2/M
;
_chemical_formula_sum "Si O2"
_cell_formula_units_Z 56
_cell_length_a 25.521170
_cell_length_b 17.918183
_cell_length_c 8.529661
_cell_angle_alpha 90.000000
_cell_angle_beta 43.036183
_cell_angle_gamma 90.000000
_cell_volume 2661.972557
_symmetry_space_group_name_H-M "C 2/M"
_symmetry_group_IT_number 12
_symmetry_cell_setting 'monoclinic'
loop_
_space_group_symop_operation_xyz
x,y,z
-x,y,-z
-x,-y,-z
x,-y,z
1/2+x,1/2+y,z
1/2-x,1/2+y,-z
1/2-x,1/2-y,-z
1/2+x,1/2-y,z
loop_
_atom_site_type_symbol
_atom_site_label
_atom_site_fract_x
_atom_site_fract_y
_atom_site_fract_z
Si Si1 0.646531 0.414999 0.423970
Si Si2 0.313480 0.145955 0.034912
Si Si3 0.662818 0.152710 0.392068
Si Si4 0.076345 0.085066 0.246513
Si Si5 0.408645 0.000000 0.858406
Si Si6 0.419975 0.715307 0.264110
Si Si7 0.827349 0.803987 0.162401
Si Si8 0.419608 0.000000 0.452721
O O1 0.645898 0.500000 0.483844
O O2 0.636109 0.417978 0.259519
O O3 0.581521 0.363785 0.643281
O O4 0.727248 0.374702 0.271855
O O5 0.319459 0.152496 0.832927
O O6 0.364283 0.077076 0.985649
O O7 0.335716 0.225410 0.055688
O O8 0.604198 0.218956 0.564799
O O9 0.742324 0.165244 0.311488
O O10 0.622899 0.073706 0.514422
O O11 0.000000 0.113251 0.500000
O O12 0.061224 0.000000 0.225071
O O13 0.111367 0.137343 0.039644
O O14 0.415494 0.000000 0.652784
O O15 0.489288 0.000000 0.771604
O O16 0.351508 0.710090 0.286995
O O17 0.500000 0.728828 0.000000
#
# Coordination Sequence:
#
# PCOD9214972 Si02
#       8
#     8   8   8   8   4   8   8   4
#     4  11  22  42  68  95 128 168 218 277 334 395
#     4  11  21  39  72 100 129 164 225 284 335 395
#     4  11  23  43  68  98 132 173 224 282 332 400
#     4  10  22  40  66  98 128 162 220 281 335 389
#     4   9  20  40  65 104 134 162 211 282 350 389
#     4  12  28  45  60  92 141 183 223 270 332 402
#     4  12  24  40  66  96 131 180 227 267 334 399
#     4   9  22  40  66 101 133 167 216 277 339 395
#
# _framework density 21.037032
#
# number of rings (size 3 to 8) (size 9 to 14) (size 15 to 20)
#    0.000    1.143    3.571    2.571    3.000    0.857 
#    2.571    1.071    0.000    0.000    0.000    0.000 
#    0.000    0.000    0.000    0.000    0.000    0.000 
#
# Total GULP energy -156518.073008 kJ/mol
# GULP energy per Si atom -5589.931179 kJ/mol
# Density = 2.098915 g / cm^3
# Si number density = 21.037032 Si / 1000 Ang^3
#
#
#
# Elastic Constant Matrix: (Units=GPa)
#
#
# Indices 1 2 3 4 5 6 
#
# 1 75.1201 29.6789 14.6374 0.0000 -4.9090 0.0000
# 2 29.6789 120.8842 61.7602 0.0000 -2.8111 0.0000
# 3 14.6374 61.7602 100.4431 0.0000 -25.9509 0.0000
# 4 0.0000 0.0000 0.0000 -13.7068 0.0000 -33.3100
# 5 -4.9090 -2.8111 -25.9509 0.0000 18.9897 0.0000
# 6 0.0000 0.0000 0.0000 -33.3100 0.0000 -12.4785
#
#
#
# Elastic Compliance Matrix: (Units=1/GPa)
#
#
# Indices 1 2 3 4 5 6 
#
# 1 0.015168 -0.004822 0.002447 0.000000 0.006552 0.000000
# 2 -0.004822 0.016059 -0.013725 0.000000 -0.017626 0.000000
# 3 0.002447 -0.013725 0.027325 0.000000 0.035942 0.000000
# 4 0.000000 0.000000 0.000000 0.013296 0.000000 -0.035492
# 5 0.006552 -0.017626 0.035942 0.000000 0.100862 0.000000
# 6 0.000000 0.000000 0.000000 -0.035492 0.000000 0.014605
#
#
# Mechanical properties :
#
#
# Convention : Reuss Voigt Hill
#
# Bulk Modulus (GPa) = 37.94839 56.51115 47.22977
# Shear Modulus (GPa) = 21.90113 11.25229 16.57671
#
# Velocity S-wave (km/s) = 3.23007 2.31526 2.81014
# Velocity P-wave (km/s) = 5.65590 5.83680 5.74706
#
# Compressibility (1/GPa) = 0.02635158
#
# Stress axis : x y z
#
# Youngs Moduli (GPa) = 65.92651 62.27172 36.59680
#
# Poissons Ratio (x) = 0.30027 -0.08956
# Poissons Ratio (y) = 0.31789 0.50230
# Poissons Ratio (z) = -0.16133 0.85470
#
# Static dielectric constant tensor:
#      x y z
#    x 1.769210 0.000000 -0.010580 
#    y 0.000000 1.737430 0.000000 
#    z -0.010580 0.000000 1.744250 
# 
# From -- ./inp_files/105993.got.cif
#   From: 2010.05.17/outbox.cif.g08.bks.cpg/sg12_53_cif.got.tgz:105993.got - 2010.06.03 13:09:07.
