data_PCOD9214190
_publ_section_title
;
Structure prediction by ZEFSAII (Michael W. Deem and Ramdas Pophale) SiO2 
 PCOD9214190
Probable space group: C 2/M
;
_chemical_formula_sum "Si O2"
_cell_formula_units_Z 46
_cell_length_a 15.110263
_cell_length_b 10.310359
_cell_length_c 17.964102
_cell_angle_alpha 90.000000
_cell_angle_beta 121.450149
_cell_angle_gamma 90.000000
_cell_volume 2387.527811
_symmetry_space_group_name_H-M "C 2/M"
_symmetry_group_IT_number 12
_symmetry_cell_setting 'monoclinic'
loop_
_space_group_symop_operation_xyz
x,y,z
-x,y,-z
-x,-y,-z
x,-y,z
1/2+x,1/2+y,z
1/2-x,1/2+y,-z
1/2-x,1/2-y,-z
1/2+x,1/2-y,z
loop_
_atom_site_type_symbol
_atom_site_label
_atom_site_fract_x
_atom_site_fract_y
_atom_site_fract_z
Si Si1 0.711001 0.259085 0.788979
Si Si2 0.063130 0.351722 0.840987
Si Si3 0.500000 0.500000 0.000000
Si Si4 0.391247 0.229371 0.979360
Si Si5 0.146032 0.000000 0.402497
Si Si6 0.247351 0.000000 0.603318
Si Si7 0.593335 0.500000 0.665147
Si Si8 0.153642 0.763992 0.292206
O O1 0.636786 0.164390 0.802169
O O2 0.797922 0.308807 0.884781
O O3 0.640722 0.375166 0.727162
O O4 0.773738 0.202601 0.746290
O O5 0.028411 0.500000 0.833084
O O6 0.963120 0.259328 0.788030
O O7 0.123063 0.309196 0.941597
O O8 0.414536 0.383276 0.980563
O O9 0.500000 0.166737 0.000000
O O10 0.158465 0.874719 0.355889
O O11 0.029549 0.000000 0.383412
O O12 0.224473 0.000000 0.505975
O O13 0.307921 0.128321 0.655948
O O14 0.139932 0.000000 0.602641
#
# Coordination Sequence:
#
# PCOD9214190 Si02
#       8
#     8   8   2   8   4   4   4   8
#     4  11  24  42  62  95 128 171 216 265 315 374
#     4  12  25  40  63  92 133 171 214 265 317 378
#     4   8  20  40  60  84 120 158 230 266 304 360
#     4  10  22  39  64  89 123 175 212 265 304 369
#     4  12  23  43  71  97 124 171 216 264 333 398
#     4  10  23  44  67  98 132 163 208 274 334 391
#     4  10  23  41  68  93 128 164 220 265 316 397
#     4  11  23  43  68  96 129 169 213 266 325 390
#
# _framework density 19.266791999999999
#
# number of rings (size 3 to 8) (size 9 to 14) (size 15 to 20)
#    0.522    0.696    4.348    1.304    3.652    3.130 
#    0.000    0.000    0.000    1.043    0.000    0.000 
#    0.000    0.000    0.000    0.000    0.000    0.000 
#
# Total GULP energy -128199.198827 kJ/mol
# GULP energy per Si atom -5573.878210 kJ/mol
# Density = 1.922294 g / cm^3
# Si number density = 19.266792 Si / 1000 Ang^3
#
#
#
# Elastic Constant Matrix: (Units=GPa)
#
#
# Indices 1 2 3 4 5 6 
#
# 1 63.3482 5.6551 12.1226 0.0000 -3.0823 0.0000
# 2 5.6551 62.1043 13.5654 0.0000 -15.7351 0.0000
# 3 12.1226 13.5654 99.7347 0.0000 -12.7169 0.0000
# 4 0.0000 0.0000 0.0000 2.9409 0.0000 -0.3451
# 5 -3.0823 -15.7351 -12.7169 0.0000 25.0284 0.0000
# 6 0.0000 0.0000 0.0000 -0.3451 0.0000 12.5700
#
#
#
# Elastic Compliance Matrix: (Units=1/GPa)
#
#
# Indices 1 2 3 4 5 6 
#
# 1 0.016236 -0.000966 -0.001780 0.000000 0.000488 0.000000
# 2 -0.000966 0.019333 -0.001045 0.000000 0.011504 0.000000
# 3 -0.001780 -0.001045 0.010985 0.000000 0.004705 0.000000
# 4 0.000000 0.000000 0.000000 0.341136 0.000000 0.009367
# 5 0.000488 0.011504 0.004705 0.000000 0.049638 0.000000
# 6 0.000000 0.000000 0.000000 0.009367 0.000000 0.079812
#
#
# Mechanical properties :
#
#
# Convention : Reuss Voigt Hill
#
# Bulk Modulus (GPa) = 25.65943 31.98593 28.82268
# Shear Modulus (GPa) = 9.29862 21.03078 15.16470
#
# Velocity S-wave (km/s) = 2.19925 3.30745 2.80856
# Velocity P-wave (km/s) = 4.44925 5.58778 5.05070
#
# Compressibility (1/GPa) = 0.03897203
#
# Stress axis : x y z
#
# Youngs Moduli (GPa) = 61.59017 51.72486 91.03277
#
# Poissons Ratio (x) = 0.04997 0.16203
# Poissons Ratio (y) = 0.05950 0.09515
# Poissons Ratio (z) = 0.10962 0.05407
#
# Static dielectric constant tensor:
#      x y z
#    x 1.693830 0.000000 -0.011740 
#    y 0.000000 1.640950 0.000000 
#    z -0.011740 0.000000 1.644720 
# 
# From -- ./inp_files/213568.got.cif
#   From: 2010.05.17/outbox.cif.g08.bks.cpg/sg12_107_cif.got.tgz:213568.got - 2010.06.03 13:09:07.
