data_PCOD9214563
_publ_section_title
;
Structure prediction by ZEFSAII (Michael W. Deem and Ramdas Pophale) SiO2 
 PCOD9214563
Probable space group: C 2/M
;
_chemical_formula_sum "Si O2"
_cell_formula_units_Z 32
_cell_length_a 19.659899
_cell_length_b 8.700971
_cell_length_c 17.072776
_cell_angle_alpha 90.000000
_cell_angle_beta 30.045051
_cell_angle_gamma 90.000000
_cell_volume 1462.224564
_symmetry_space_group_name_H-M "C 2/M"
_symmetry_group_IT_number 12
_symmetry_cell_setting 'monoclinic'
loop_
_space_group_symop_operation_xyz
x,y,z
-x,y,-z
-x,-y,-z
x,-y,z
1/2+x,1/2+y,z
1/2-x,1/2+y,-z
1/2-x,1/2-y,-z
1/2+x,1/2-y,z
loop_
_atom_site_type_symbol
_atom_site_label
_atom_site_fract_x
_atom_site_fract_y
_atom_site_fract_z
Si Si1 0.590761 0.818095 0.985216
Si Si2 0.099909 0.181886 0.141158
Si Si3 0.339417 0.183896 0.654386
Si Si4 0.155326 0.316456 0.526834
O O1 0.744687 0.773889 0.808765
O O2 0.578727 0.000000 0.012269
O O3 0.500000 0.778399 0.000000
O O4 0.550815 0.726615 0.102738
O O5 0.995953 0.256479 0.305715
O O6 0.102383 0.000000 0.148285
O O7 0.250000 0.250000 0.000000
O O8 0.500000 0.214020 0.500000
O O9 0.298649 0.227236 0.606271
O O10 0.319643 0.000000 0.685513
O O11 0.155279 0.500000 0.530931
O O12 0.250000 0.250000 0.500000
#
# Coordination Sequence:
#
# PCOD9214563 Si02
#       4
#     8   8   8   8
#     4  11  24  41  63  92 125 161 205 255 306 366
#     4  12  25  42  65  92 125 164 208 258 312 370
#     4  10  22  40  62  88 119 158 203 251 303 360
#     4  11  23  40  63  92 126 163 205 253 307 367
#
# _framework density 21.884464999999999
#
# number of rings (size 3 to 8) (size 9 to 14) (size 15 to 20)
#    0.000    1.000    0.000    6.750    0.000   10.500 
#    0.000    0.000    0.000    0.000    0.000    0.000 
#    0.000    0.000    0.000    0.000    0.000    0.000 
#
# Total GULP energy -89636.840215 kJ/mol
# GULP energy per Si atom -5602.302513 kJ/mol
# Density = 2.183465 g / cm^3
# Si number density = 21.884465 Si / 1000 Ang^3
#
#
#
# Elastic Constant Matrix: (Units=GPa)
#
#
# Indices 1 2 3 4 5 6 
#
# 1 63.3378 7.8209 -14.8374 0.0000 1.2434 0.0000
# 2 7.8209 45.1498 0.2136 0.0000 14.4194 0.0000
# 3 -14.8374 0.2136 70.0413 0.0000 6.2783 0.0000
# 4 0.0000 0.0000 0.0000 35.6019 0.0000 -3.7406
# 5 1.2434 14.4194 6.2783 0.0000 39.3543 0.0000
# 6 0.0000 0.0000 0.0000 -3.7406 0.0000 35.1600
#
#
#
# Elastic Compliance Matrix: (Units=1/GPa)
#
#
# Indices 1 2 3 4 5 6 
#
# 1 0.017000 -0.002952 0.003613 0.000000 -0.000032 0.000000
# 2 -0.002952 0.025636 0.000132 0.000000 -0.009321 0.000000
# 3 0.003613 0.000132 0.015275 0.000000 -0.002599 0.000000
# 4 0.000000 0.000000 0.000000 0.028406 0.000000 0.003022
# 5 -0.000032 -0.009321 -0.002599 0.000000 0.029241 0.000000
# 6 0.000000 0.000000 0.000000 0.003022 0.000000 0.028763
#
#
# Mechanical properties :
#
#
# Convention : Reuss Voigt Hill
#
# Bulk Modulus (GPa) = 16.80722 18.32476 17.56599
# Shear Modulus (GPa) = 30.75665 34.37871 32.56768
#
# Velocity S-wave (km/s) = 3.75295 3.96778 3.86186
# Velocity P-wave (km/s) = 5.14550 5.42058 5.28483
#
# Compressibility (1/GPa) = 0.05949823
#
# Stress axis : x y z
#
# Youngs Moduli (GPa) = 58.82404 39.00778 65.46518
#
# Poissons Ratio (x) = 0.11513 -0.23653
# Poissons Ratio (y) = 0.17362 -0.00865
# Poissons Ratio (z) = -0.21254 -0.00515
#
# Static dielectric constant tensor:
#      x y z
#    x 1.844370 0.000000 -0.013190 
#    y 0.000000 1.720850 0.000000 
#    z -0.013190 0.000000 1.766520 
# 
# From -- ./inp_files/151440.got.cif
#   From: 2010.05.17/outbox.cif.g08.bks.cpg/sg12_76_cif.got.tgz:151440.got - 2010.06.03 13:09:07.
