data_PCOD9214561
_publ_section_title
;
Structure prediction by ZEFSAII (Michael W. Deem and Ramdas Pophale) SiO2 
 PCOD9214561
Probable space group: C 2/M
;
_chemical_formula_sum "Si O2"
_cell_formula_units_Z 40
_cell_length_a 10.529251
_cell_length_b 18.657567
_cell_length_c 10.551754
_cell_angle_alpha 90.000000
_cell_angle_beta 102.868328
_cell_angle_gamma 90.000000
_cell_volume 2020.832375
_symmetry_space_group_name_H-M "C 2/M"
_symmetry_group_IT_number 12
_symmetry_cell_setting 'monoclinic'
loop_
_space_group_symop_operation_xyz
x,y,z
-x,y,-z
-x,-y,-z
x,-y,z
1/2+x,1/2+y,z
1/2-x,1/2+y,-z
1/2-x,1/2-y,-z
1/2+x,1/2-y,z
loop_
_atom_site_type_symbol
_atom_site_label
_atom_site_fract_x
_atom_site_fract_y
_atom_site_fract_z
Si Si1 0.117654 0.421003 0.926107
Si Si2 0.903674 0.731795 0.204592
Si Si3 0.685142 0.276663 0.358118
Si Si4 0.553771 0.582518 0.370974
Si Si5 0.602046 0.379679 0.912743
O O1 0.117285 0.500000 0.863190
O O2 0.099636 0.350161 0.838866
O O3 0.257003 0.410322 0.024571
O O4 0.000000 0.420430 0.000000
O O5 0.779032 0.744663 0.265061
O O6 0.895282 0.792717 0.094376
O O7 0.039856 0.746631 0.305934
O O8 0.750000 0.250000 0.500000
O O9 0.667184 0.362251 0.361652
O O10 0.500000 0.600173 0.500000
O O11 0.594073 0.500000 0.380740
O O12 0.448004 0.594192 0.235776
O O13 0.500000 0.400549 0.000000
#
# Coordination Sequence:
#
# PCOD9214561 Si02
#       5
#     8   8   8   8   8
#     4  11  23  37  55  85 124 156 186 236 303 361
#     4  11  22  38  61  86 118 155 198 245 294 353
#     4  11  22  39  62  87 117 155 200 246 294 352
#     4  10  22  40  62  88 118 155 202 251 296 347
#     4  11  22  39  64  89 116 155 205 251 290 345
#
# _framework density 19.793821999999999
#
# number of rings (size 3 to 8) (size 9 to 14) (size 15 to 20)
#    0.000    1.200    0.000    8.400    0.000    4.000 
#    0.000    3.000    0.000    2.400    0.000    0.000 
#    0.000    0.000    0.000    0.000    0.000    0.000 
#
# Total GULP energy -111759.061447 kJ/mol
# GULP energy per Si atom -5587.953072 kJ/mol
# Density = 1.974877 g / cm^3
# Si number density = 19.793822 Si / 1000 Ang^3
#
#
#
# Elastic Constant Matrix: (Units=GPa)
#
#
# Indices 1 2 3 4 5 6 
#
# 1 124.0249 19.7229 30.1543 0.0000 5.2856 0.0000
# 2 19.7229 110.3568 22.4062 0.0000 10.7507 0.0000
# 3 30.1543 22.4062 69.2990 0.0000 -2.8864 0.0000
# 4 0.0000 0.0000 0.0000 110.7123 0.0000 621.0780
# 5 5.2856 10.7507 -2.8864 0.0000 28.5948 0.0000
# 6 0.0000 0.0000 0.0000 621.0780 0.0000 4712.5048
#
#
#
# Elastic Compliance Matrix: (Units=1/GPa)
#
#
# Indices 1 2 3 4 5 6 
#
# 1 0.009186 -0.000681 -0.003853 0.000000 -0.001831 0.000000
# 2 -0.000681 0.010222 -0.003177 0.000000 -0.004038 0.000000
# 3 -0.003853 -0.003177 0.017286 0.000000 0.003651 0.000000
# 4 0.000000 0.000000 0.000000 0.034652 0.000000 -0.004567
# 5 -0.001831 -0.004038 0.003651 0.000000 0.037196 0.000000
# 6 0.000000 0.000000 0.000000 -0.004567 0.000000 0.000814
#
#
# Mechanical properties :
#
#
# Convention : Reuss Voigt Hill
#
# Bulk Modulus (GPa) = 47.01074 49.80527 48.40801
# Shear Modulus (GPa) = 37.91640 985.78888 511.85264
#
# Velocity S-wave (km/s) = 4.38147 22.34076 16.09825
# Velocity P-wave (km/s) = 7.02838 26.28110 19.23661
#
# Compressibility (1/GPa) = 0.02127174
#
# Stress axis : x y z
#
# Youngs Moduli (GPa) = 108.86064 97.83243 57.84999
#
# Poissons Ratio (x) = 0.06663 0.22291
# Poissons Ratio (y) = 0.07414 0.18377
# Poissons Ratio (z) = 0.41946 0.31079
#
# Static dielectric constant tensor:
#      x y z
#    x 1.676670 0.000000 -0.017140 
#    y 0.000000 1.728740 0.000000 
#    z -0.017140 0.000000 1.724240 
# 
# From -- ./inp_files/119155.got.cif
#   From: 2010.05.17/outbox.cif.g08.bks.cpg/sg12_60_cif.got.tgz:119155.got - 2010.06.03 13:09:07.
