data_PCOD9214980
_publ_section_title
;
Structure prediction by ZEFSAII (Michael W. Deem and Ramdas Pophale) SiO2 
 PCOD9214980
Probable space group: C 2/M
;
_chemical_formula_sum "Si O2"
_cell_formula_units_Z 44
_cell_length_a 17.596007
_cell_length_b 12.709462
_cell_length_c 28.981041
_cell_angle_alpha 90.000000
_cell_angle_beta 20.736486
_cell_angle_gamma 90.000000
_cell_volume 2294.800701
_symmetry_space_group_name_H-M "C 2/M"
_symmetry_group_IT_number 12
_symmetry_cell_setting 'monoclinic'
loop_
_space_group_symop_operation_xyz
x,y,z
-x,y,-z
-x,-y,-z
x,-y,z
1/2+x,1/2+y,z
1/2-x,1/2+y,-z
1/2-x,1/2-y,-z
1/2+x,1/2-y,z
loop_
_atom_site_type_symbol
_atom_site_label
_atom_site_fract_x
_atom_site_fract_y
_atom_site_fract_z
Si Si1 0.996554 0.727303 0.371569
Si Si2 0.936645 0.227667 0.857373
Si Si3 0.139471 0.000000 0.736546
Si Si4 0.461551 0.000000 0.431901
Si Si5 0.253636 0.715088 0.858003
Si Si6 0.148258 0.873071 0.369832
Si Si7 0.518023 0.500000 0.278804
O O1 0.750000 0.750000 0.500000
O O2 0.026151 0.612304 0.375537
O O3 0.130871 0.722141 0.248087
O O4 0.060511 0.815097 0.373518
O O5 0.839767 0.231902 0.860738
O O6 0.033019 0.110728 0.812881
O O7 0.123856 0.314963 0.752612
O O8 0.750000 0.250000 0.000000
O O9 0.390819 0.000000 0.605741
O O10 0.085955 0.000000 0.712997
O O11 0.204359 0.000000 0.567974
O O12 0.331223 0.598602 0.800673
O O13 0.000000 0.727476 0.000000
O O14 0.000000 0.854158 0.500000
O O15 0.164883 0.000000 0.354470
#
# Coordination Sequence:
#
# PCOD9214980 Si02
#       7
#     8   8   4   4   8   8   4
#     4  12  25  43  67  99 139 173 220 274 336 396
#     4  11  24  46  68  96 135 178 229 275 333 399
#     4  10  23  39  68 100 126 174 228 281 327 385
#     4  12  23  41  69 100 134 169 224 272 331 389
#     4  11  24  43  65  99 134 175 221 271 335 395
#     4  11  26  45  69  98 133 180 225 272 333 408
#     4  10  22  40  66  99 130 170 217 282 326 390
#
# _framework density 19.173777999999999
#
# number of rings (size 3 to 8) (size 9 to 14) (size 15 to 20)
#    0.000    0.909    3.636    2.727    6.364    0.000 
#    4.909    0.455    0.000    0.000    0.000    0.000 
#    0.000    0.000    0.000    0.000    0.000    0.000 
#
# Total GULP energy -122629.996895 kJ/mol
# GULP energy per Si atom -5574.090768 kJ/mol
# Density = 1.913014 g / cm^3
# Si number density = 19.173778 Si / 1000 Ang^3
#
#
#
# Elastic Constant Matrix: (Units=GPa)
#
#
# Indices 1 2 3 4 5 6 
#
# 1 98.4530 55.1105 80.4175 0.0216 -1.5456 -0.0004
# 2 55.1105 145.0320 59.3659 0.0021 6.0405 0.0061
# 3 80.4175 59.3659 165.0852 -0.0323 -4.6123 -0.0154
# 4 0.0216 0.0021 -0.0323 14.3862 -0.0084 -8.7072
# 5 -1.5456 6.0405 -4.6123 -0.0084 38.4471 0.0150
# 6 -0.0004 0.0061 -0.0154 -8.7072 0.0150 14.7782
#
#
#
# Elastic Compliance Matrix: (Units=1/GPa)
#
#
# Indices 1 2 3 4 5 6 
#
# 1 0.018619 -0.003971 -0.007629 -0.000075 0.000457 -0.000050
# 2 -0.003971 0.009035 -0.001363 -0.000002 -0.001743 -0.000005
# 3 -0.007629 -0.001363 0.010296 0.000064 0.001143 0.000048
# 4 -0.000075 -0.000002 0.000064 0.108039 0.000004 0.063656
# 5 0.000457 -0.001743 0.001143 0.000004 0.026439 -0.000023
# 6 -0.000050 -0.000005 0.000048 0.063656 -0.000023 0.105173
#
#
# Mechanical properties :
#
#
# Convention : Reuss Voigt Hill
#
# Bulk Modulus (GPa) = 83.17569 88.70647 85.94108
# Shear Modulus (GPa) = 16.25841 27.76738 22.01290
#
# Velocity S-wave (km/s) = 2.91512 3.80965 3.39200
# Velocity P-wave (km/s) = 7.40302 8.10655 7.76276
#
# Compressibility (1/GPa) = 0.01202274
#
# Stress axis : x y z
#
# Youngs Moduli (GPa) = 53.70995 110.68581 97.12708
#
# Poissons Ratio (x) = 0.43955 0.74096
# Poissons Ratio (y) = 0.21329 0.13240
# Poissons Ratio (z) = 0.40974 0.15088
#
# Static dielectric constant tensor:
#      x y z
#    x 1.710200 -0.000740 0.031760 
#    y -0.000740 1.366490 -0.000060 
#    z 0.031760 -0.000060 1.698900 
# 
# From -- ./inp_files/154439.got.cif
#   From: 2010.05.17/outbox.cif.g08.bks.cpg/sg12_78_cif.got.tgz:154439.got - 2010.06.03 13:09:07.
