data_PCOD9214421
_publ_section_title
;
Structure prediction by ZEFSAII (Michael W. Deem and Ramdas Pophale) SiO2 
 PCOD9214421
Probable space group: C 2/M
;
_chemical_formula_sum "Si O2"
_cell_formula_units_Z 28
_cell_length_a 5.423165
_cell_length_b 17.924994
_cell_length_c 14.203541
_cell_angle_alpha 90.000000
_cell_angle_beta 112.109966
_cell_angle_gamma 90.000000
_cell_volume 1279.194633
_symmetry_space_group_name_H-M "C 2/M"
_symmetry_group_IT_number 12
_symmetry_cell_setting 'monoclinic'
loop_
_space_group_symop_operation_xyz
x,y,z
-x,y,-z
-x,-y,-z
x,-y,z
1/2+x,1/2+y,z
1/2-x,1/2+y,-z
1/2-x,1/2-y,-z
1/2+x,1/2-y,z
loop_
_atom_site_type_symbol
_atom_site_label
_atom_site_fract_x
_atom_site_fract_y
_atom_site_fract_z
Si Si1 0.833678 0.584314 0.295795
Si Si2 0.142544 0.718998 0.384898
Si Si3 0.880963 0.798515 0.882297
Si Si4 0.680445 0.500000 0.435098
O O1 0.905218 0.500000 0.276266
O O2 0.082549 0.631914 0.370127
O O3 0.698733 0.631751 0.194635
O O4 0.645298 0.570694 0.359981
O O5 0.750000 0.750000 0.500000
O O6 0.852129 0.755866 0.338036
O O7 0.614975 0.751232 0.869132
O O8 0.000000 0.824163 0.000000
O O9 0.500000 0.500000 0.500000
O O10 0.000000 0.500000 0.500000
#
# Coordination Sequence:
#
# PCOD9214421 Si02
#       4
#     8   8   8   4
#     4  10  24  44  66 100 131 183 223 288 332 400
#     4  10  22  40  60  86 123 170 221 268 322 391
#     4  10  22  44  73 102 135 174 221 279 346 413
#     4  10  26  44  61  92 139 180 222 274 334 393
#
# _framework density 21.888773
#
# number of rings (size 3 to 8) (size 9 to 14) (size 15 to 20)
#    0.857    1.143    0.000    1.714    4.000    5.143 
#    0.000    2.857    0.000    5.143    0.000    0.000 
#    0.000    0.000    0.000    0.000    0.000    0.000 
#
# Total GULP energy -78167.621494 kJ/mol
# GULP energy per Si atom -5583.401535 kJ/mol
# Density = 2.183895 g / cm^3
# Si number density = 21.888773 Si / 1000 Ang^3
#
#
#
# Elastic Constant Matrix: (Units=GPa)
#
#
# Indices 1 2 3 4 5 6 
#
# 1 172.2859 66.3724 54.5800 0.0000 -15.4735 0.0000
# 2 66.3724 186.6897 87.5446 0.0000 2.9563 0.0000
# 3 54.5800 87.5446 180.3748 0.0000 -6.1344 0.0000
# 4 0.0000 0.0000 0.0000 53.4659 0.0000 -0.5087
# 5 -15.4735 2.9563 -6.1344 0.0000 36.5866 0.0000
# 6 0.0000 0.0000 0.0000 -0.5087 0.0000 26.5166
#
#
#
# Elastic Compliance Matrix: (Units=1/GPa)
#
#
# Indices 1 2 3 4 5 6 
#
# 1 0.007231 -0.002126 -0.001053 0.000000 0.003053 0.000000
# 2 -0.002126 0.007606 -0.003118 0.000000 -0.002036 0.000000
# 3 -0.001053 -0.003118 0.007411 0.000000 0.001049 0.000000
# 4 0.000000 0.000000 0.000000 0.018707 0.000000 0.000359
# 5 0.003053 -0.002036 0.001049 0.000000 0.028964 0.000000
# 6 0.000000 0.000000 0.000000 0.000359 0.000000 0.037719
#
#
# Mechanical properties :
#
#
# Convention : Reuss Voigt Hill
#
# Bulk Modulus (GPa) = 103.55291 106.26048 104.90669
# Shear Modulus (GPa) = 40.50227 45.37071 42.93649
#
# Velocity S-wave (km/s) = 4.30626 4.55772 4.43377
# Velocity P-wave (km/s) = 8.49332 8.73774 8.61640
#
# Compressibility (1/GPa) = 0.00965690
#
# Stress axis : x y z
#
# Youngs Moduli (GPa) = 138.29680 131.46717 134.92644
#
# Poissons Ratio (x) = 0.27943 0.14201
# Poissons Ratio (y) = 0.29395 0.42068
# Poissons Ratio (z) = 0.14556 0.40990
#
# Static dielectric constant tensor:
#      x y z
#    x 1.849130 0.000000 0.086440 
#    y 0.000000 1.840080 0.000000 
#    z 0.086440 0.000000 3.404690 
# 
# From -- ./inp_files/190904.got.cif
#   From: 2010.05.17/outbox.cif.g08.bks.cpg/sg12_96_cif.got.tgz:190904.got - 2010.06.03 13:09:07.
