data_PCOD9214654
_publ_section_title
;
Structure prediction by ZEFSAII (Michael W. Deem and Ramdas Pophale) SiO2 
 PCOD9214654
Probable space group: C 2/M
;
_chemical_formula_sum "Si O2"
_cell_formula_units_Z 40
_cell_length_a 22.180763
_cell_length_b 11.619123
_cell_length_c 12.079039
_cell_angle_alpha 90.000000
_cell_angle_beta 34.772369
_cell_angle_gamma 90.000000
_cell_volume 1775.411025
_symmetry_space_group_name_H-M "C 2/M"
_symmetry_group_IT_number 12
_symmetry_cell_setting 'monoclinic'
loop_
_space_group_symop_operation_xyz
x,y,z
-x,y,-z
-x,-y,-z
x,-y,z
1/2+x,1/2+y,z
1/2-x,1/2+y,-z
1/2-x,1/2-y,-z
1/2+x,1/2-y,z
loop_
_atom_site_type_symbol
_atom_site_label
_atom_site_fract_x
_atom_site_fract_y
_atom_site_fract_z
Si Si1 0.824579 0.743308 0.557547
Si Si2 0.164866 0.867639 0.223868
Si Si3 0.968510 0.136098 0.776113
Si Si4 0.381154 0.636392 0.139845
Si Si5 0.842590 0.500000 0.841219
Si Si6 0.587183 0.000000 0.518857
O O1 0.819198 0.794275 0.690665
O O2 0.915529 0.820552 0.366721
O O3 0.872027 0.615756 0.488228
O O4 0.707896 0.724540 0.685328
O O5 0.076073 0.819532 0.273870
O O6 0.134862 0.000000 0.303463
O O7 0.271213 0.892978 0.991882
O O8 0.887555 0.155730 0.997723
O O9 0.973101 0.000000 0.756836
O O10 0.357762 0.500000 0.195686
O O11 0.500000 0.657025 0.000000
O O12 0.863028 0.500000 0.679851
O O13 0.960225 0.500000 0.711762
#
# Coordination Sequence:
#
# PCOD9214654 Si02
#       6
#     8   8   8   8   4   4
#     4  12  23  37  63  90 125 151 203 248 299 358
#     4   9  21  39  60  85 124 166 193 227 294 366
#     4  10  22  40  63  89 120 163 202 240 293 360
#     4  10  23  44  64  85 116 159 207 253 302 352
#     4   9  22  38  51  80 132 164 201 222 298 354
#     4  11  24  34  49  94 120 160 197 248 291 349
#
# _framework density 22.529993999999999
#
# number of rings (size 3 to 8) (size 9 to 14) (size 15 to 20)
#    0.600    1.200    1.000    2.400    8.400    4.000 
#    0.000    0.000    0.000    2.400    0.000    0.000 
#    0.000    0.000    0.000    0.000    0.000    0.000 
#
# Total GULP energy -111722.660374 kJ/mol
# GULP energy per Si atom -5586.133019 kJ/mol
# Density = 2.247872 g / cm^3
# Si number density = 22.529994 Si / 1000 Ang^3
#
#
#
# Elastic Constant Matrix: (Units=GPa)
#
#
# Indices 1 2 3 4 5 6 
#
# 1 54.8559 16.7652 18.8791 0.0000 -17.6656 0.0000
# 2 16.7652 27.2422 22.1023 0.0000 -2.1815 0.0000
# 3 18.8791 22.1023 123.2525 0.0000 -18.2406 0.0000
# 4 0.0000 0.0000 0.0000 14.7531 0.0000 -44.5423
# 5 -17.6656 -2.1815 -18.2406 0.0000 36.6248 0.0000
# 6 0.0000 0.0000 0.0000 -44.5423 0.0000 -11.6961
#
#
#
# Elastic Compliance Matrix: (Units=1/GPa)
#
#
# Indices 1 2 3 4 5 6 
#
# 1 0.026894 -0.016033 0.000577 0.000000 0.012304 0.000000
# 2 -0.016033 0.052581 -0.008263 0.000000 -0.008717 0.000000
# 3 0.000577 -0.008263 0.010229 0.000000 0.004881 0.000000
# 4 0.000000 0.000000 0.000000 0.005423 0.000000 -0.020654
# 5 0.012304 -0.008717 0.004881 0.000000 0.035150 0.000000
# 6 0.000000 0.000000 0.000000 -0.020654 0.000000 -0.006841
#
#
# Mechanical properties :
#
#
# Convention : Reuss Voigt Hill
#
# Bulk Modulus (GPa) = 23.66076 35.64932 29.65504
# Shear Modulus (GPa) = 27.03222 17.77662 22.40442
#
# Velocity S-wave (km/s) = 3.46762 2.81200 3.15687
# Velocity P-wave (km/s) = 5.15337 5.13814 5.14576
#
# Compressibility (1/GPa) = 0.04226408
#
# Stress axis : x y z
#
# Youngs Moduli (GPa) = 37.18354 19.01823 97.75928
#
# Poissons Ratio (x) = 0.30493 -0.05638
# Poissons Ratio (y) = 0.59618 0.80782
# Poissons Ratio (z) = -0.02144 0.15715
#
# Static dielectric constant tensor:
#      x y z
#    x 1.875800 0.000000 0.000780 
#    y 0.000000 1.815810 0.000000 
#    z 0.000780 0.000000 1.883610 
# 
# From -- ./inp_files/239883.got.cif
#   From: 2010.05.17/outbox.cif.g08.bks.cpg/sg12_120_cif.got.tgz:239883.got - 2010.06.03 13:09:07.
