data_PCOD9214801
_publ_section_title
;
Structure prediction by ZEFSAII (Michael W. Deem and Ramdas Pophale) SiO2 
 PCOD9214801
Probable space group: C 2/M
;
_chemical_formula_sum "Si O2"
_cell_formula_units_Z 64
_cell_length_a 26.575970
_cell_length_b 12.879297
_cell_length_c 14.069373
_cell_angle_alpha 90.000000
_cell_angle_beta 41.676693
_cell_angle_gamma 90.000000
_cell_volume 3202.061878
_symmetry_space_group_name_H-M "C 2/M"
_symmetry_group_IT_number 12
_symmetry_cell_setting 'monoclinic'
loop_
_space_group_symop_operation_xyz
x,y,z
-x,y,-z
-x,-y,-z
x,-y,z
1/2+x,1/2+y,z
1/2-x,1/2+y,-z
1/2-x,1/2-y,-z
1/2+x,1/2-y,z
loop_
_atom_site_type_symbol
_atom_site_label
_atom_site_fract_x
_atom_site_fract_y
_atom_site_fract_z
Si Si1 0.602764 0.378979 0.743792
Si Si2 0.809769 0.117235 0.577720
Si Si3 0.426216 0.710857 0.544983
Si Si4 0.681401 0.717792 0.814554
Si Si5 0.982105 0.303083 0.921641
Si Si6 0.357136 0.188122 0.823680
Si Si7 0.303247 0.382511 0.008347
Si Si8 0.989407 0.612200 0.319928
O O1 0.581479 0.500000 0.778415
O O2 0.651046 0.362350 0.579541
O O3 0.653223 0.347136 0.763304
O O4 0.529376 0.304909 0.848513
O O5 0.875371 0.126531 0.564569
O O6 0.746618 0.202251 0.691894
O O7 0.778702 0.000000 0.620557
O O8 0.500000 0.674414 0.500000
O O9 0.376761 0.773618 0.690706
O O10 0.451081 0.793114 0.429428
O O11 0.706059 0.645678 0.867589
O O12 0.606984 0.780038 0.954968
O O13 0.009621 0.369398 0.793844
O O14 0.000000 0.349028 0.000000
O O15 0.276461 0.132651 0.933560
O O16 0.423968 0.117345 0.767514
O O17 0.354756 0.292838 0.890082
O O18 0.331048 0.500000 0.957905
O O19 0.955918 0.500000 0.391461
#
# Coordination Sequence:
#
# PCOD9214801 Si02
#       8
#     8   8   8   8   8   8   8   8
#     4  10  22  42  69  94 125 170 215 268 328 380
#     4  11  23  42  67  95 133 173 209 265 332 381
#     4  10  22  41  64  89 125 161 221 269 306 377
#     4  11  22  41  63  97 132 162 214 267 314 394
#     4  10  22  40  64  93 130 163 209 268 313 389
#     4  10  22  41  55  89 125 155 209 262 308 380
#     4  11  22  37  62  90 122 163 203 258 318 373
#     4  11  22  40  64  87 120 168 211 260 318 372
#
# _framework density 19.987120999999998
#
# number of rings (size 3 to 8) (size 9 to 14) (size 15 to 20)
#    0.000    1.500    3.750    1.125    0.000    7.000 
#    0.000    3.750    0.000    0.000    0.000    0.000 
#    0.000    0.000    0.000    0.000    0.000    0.000 
#
# Total GULP energy -178695.835764 kJ/mol
# GULP energy per Si atom -5584.244868 kJ/mol
# Density = 1.994163 g / cm^3
# Si number density = 19.987121 Si / 1000 Ang^3
#
#
#
# Elastic Constant Matrix: (Units=GPa)
#
#
# Indices 1 2 3 4 5 6 
#
# 1 55.3642 8.9848 15.4185 0.0000 20.7455 0.0000
# 2 8.9848 67.8016 20.7586 0.0000 5.7290 0.0000
# 3 15.4185 20.7586 66.1879 0.0000 13.7355 0.0000
# 4 0.0000 0.0000 0.0000 15.8540 0.0000 2.4500
# 5 20.7455 5.7290 13.7355 0.0000 35.1955 0.0000
# 6 0.0000 0.0000 0.0000 2.4500 0.0000 2.2959
#
#
#
# Elastic Compliance Matrix: (Units=1/GPa)
#
#
# Indices 1 2 3 4 5 6 
#
# 1 0.023771 -0.001312 -0.002462 0.000000 -0.012837 0.000000
# 2 -0.001312 0.016405 -0.004838 0.000000 -0.000009 0.000000
# 3 -0.002462 -0.004838 0.018209 0.000000 -0.004868 0.000000
# 4 0.000000 0.000000 0.000000 0.075531 0.000000 -0.080599
# 5 -0.012837 -0.000009 -0.004868 0.000000 0.037881 0.000000
# 6 0.000000 0.000000 0.000000 -0.080599 0.000000 0.521562
#
#
# Mechanical properties :
#
#
# Convention : Reuss Voigt Hill
#
# Bulk Modulus (GPa) = 24.29392 31.07526 27.68459
# Shear Modulus (GPa) = 6.90321 20.28187 13.59254
#
# Velocity S-wave (km/s) = 1.86046 3.18897 2.61063
# Velocity P-wave (km/s) = 4.09833 5.39822 4.79255
#
# Compressibility (1/GPa) = 0.04116255
#
# Stress axis : x y z
#
# Youngs Moduli (GPa) = 42.06826 60.95851 54.91661
#
# Poissons Ratio (x) = 0.07995 0.13521
# Poissons Ratio (y) = 0.05517 0.26566
# Poissons Ratio (z) = 0.10358 0.29489
#
# Static dielectric constant tensor:
#      x y z
#    x 1.710680 0.000000 0.005660 
#    y 0.000000 1.676610 0.000000 
#    z 0.005660 0.000000 1.694570 
# 
# From -- ./inp_files/245952.got.cif
#   From: 2010.05.17/outbox.cif.g08.bks.cpg/sg12_123_cif.got.tgz:245952.got - 2010.06.03 13:09:07.
