data_PCOD9214723
_publ_section_title
;
Structure prediction by ZEFSAII (Michael W. Deem and Ramdas Pophale) SiO2 
 PCOD9214723
Probable space group: C 2/M
;
_chemical_formula_sum "Si O2"
_cell_formula_units_Z 56
_cell_length_a 17.140422
_cell_length_b 15.627932
_cell_length_c 19.525503
_cell_angle_alpha 90.000000
_cell_angle_beta 34.489398
_cell_angle_gamma 90.000000
_cell_volume 2961.667709
_symmetry_space_group_name_H-M "C 2/M"
_symmetry_group_IT_number 12
_symmetry_cell_setting 'monoclinic'
loop_
_space_group_symop_operation_xyz
x,y,z
-x,y,-z
-x,-y,-z
x,-y,z
1/2+x,1/2+y,z
1/2-x,1/2+y,-z
1/2-x,1/2-y,-z
1/2+x,1/2-y,z
loop_
_atom_site_type_symbol
_atom_site_label
_atom_site_fract_x
_atom_site_fract_y
_atom_site_fract_z
Si Si1 0.383690 0.771233 0.728682
Si Si2 0.174501 0.171069 0.093064
Si Si3 0.810772 0.713550 0.525253
Si Si4 0.830924 0.500000 0.034367
Si Si5 0.394724 0.402324 0.247677
Si Si6 0.343614 0.655046 0.624842
Si Si7 0.153997 0.901432 0.875070
Si Si8 0.838417 0.500000 0.194439
O O1 0.384851 0.708868 0.792763
O O2 0.531784 0.811040 0.604114
O O3 0.344129 0.716390 0.690611
O O4 0.270033 0.843329 0.823657
O O5 0.042023 0.143746 0.144589
O O6 0.265899 0.086536 0.046853
O O7 0.250000 0.250000 0.000000
O O8 0.750000 0.750000 0.500000
O O9 0.714612 0.638978 0.622486
O O10 0.809943 0.787256 0.583547
O O11 0.807049 0.500000 0.134749
O O12 0.997825 0.500000 0.909678
O O13 0.420880 0.500000 0.247531
O O14 0.331796 0.399336 0.217207
O O15 0.500000 0.621641 0.500000
O O16 0.234312 0.581781 0.719011
O O17 0.160679 0.000000 0.894126
O O18 0.000000 0.868897 0.000000
#
# Coordination Sequence:
#
# PCOD9214723 Si02
#       8
#     8   8   8   4   8   8   8   4
#     4  11  22  40  67  93 128 166 214 269 319 389
#     4  12  25  43  67  91 131 179 214 270 326 388
#     4  11  23  41  63  93 128 169 216 264 322 382
#     4  11  26  42  64 100 131 170 223 267 329 387
#     4  11  23  42  67  91 129 170 213 262 326 391
#     4  10  22  40  65  94 125 167 212 263 327 389
#     4  10  22  40  63  94 125 162 212 267 315 381
#     4  11  23  42  66  96 133 160 215 279 314 391
#
# _framework density 18.908266000000001
#
# number of rings (size 3 to 8) (size 9 to 14) (size 15 to 20)
#    0.000    1.143    5.000    1.071    2.000    1.714 
#    2.571    1.429    0.000    0.000    0.000    0.000 
#    0.000    0.000    0.000    0.000    0.000    0.000 
#
# Total GULP energy -156369.136442 kJ/mol
# GULP energy per Si atom -5584.612016 kJ/mol
# Density = 1.886523 g / cm^3
# Si number density = 18.908266 Si / 1000 Ang^3
#
#
#
# Elastic Constant Matrix: (Units=GPa)
#
#
# Indices 1 2 3 4 5 6 
#
# 1 42.1580 10.6473 -7.1356 -0.0001 2.4097 0.0000
# 2 10.6473 85.9713 45.4781 0.0000 -17.6852 0.0001
# 3 -7.1356 45.4781 91.7133 -0.0001 -9.0374 0.0002
# 4 -0.0001 0.0000 -0.0001 36.7053 0.0001 -9.4722
# 5 2.4097 -17.6852 -9.0374 0.0001 38.1252 -0.0001
# 6 0.0000 0.0001 0.0002 -9.4722 -0.0001 22.5249
#
#
#
# Elastic Compliance Matrix: (Units=1/GPa)
#
#
# Indices 1 2 3 4 5 6 
#
# 1 0.026455 -0.006662 0.005009 0.000000 -0.003575 0.000000
# 2 -0.006662 0.018702 -0.009109 0.000000 0.006937 0.000000
# 3 0.005009 -0.009109 0.015730 0.000000 -0.000813 0.000000
# 4 0.000000 0.000000 0.000000 0.030560 0.000000 0.012851
# 5 -0.003575 0.006937 -0.000813 0.000000 0.029481 0.000000
# 6 0.000000 0.000000 0.000000 0.012851 0.000000 0.049800
#
#
# Mechanical properties :
#
#
# Convention : Reuss Voigt Hill
#
# Bulk Modulus (GPa) = 25.40315 35.31358 30.35837
# Shear Modulus (GPa) = 24.34612 30.86124 27.60368
#
# Velocity S-wave (km/s) = 3.59220 4.04438 3.82497
# Velocity P-wave (km/s) = 5.53798 6.36601 5.96638
#
# Compressibility (1/GPa) = 0.03936520
#
# Stress axis : x y z
#
# Youngs Moduli (GPa) = 37.80019 53.46940 63.57323
#
# Poissons Ratio (x) = 0.35619 -0.31846
# Poissons Ratio (y) = 0.25181 0.57907
# Poissons Ratio (z) = -0.18935 0.48703
#
# Static dielectric constant tensor:
#      x y z
#    x 1.636220 0.000000 0.008080 
#    y 0.000000 1.631800 0.000000 
#    z 0.008080 0.000000 1.641860 
# 
# From -- ./inp_files/316739.got.cif
#   From: 2010.05.17/outbox.cif.g08.bks.cpg/sg12_159_cif.got.tgz:316739.got - 2010.06.03 13:09:07.
