data_PCOD9214859
_publ_section_title
;
Structure prediction by ZEFSAII (Michael W. Deem and Ramdas Pophale) SiO2 
 PCOD9214859
Probable space group: C 2/M
;
_chemical_formula_sum "Si O2"
_cell_formula_units_Z 48
_cell_length_a 17.067543
_cell_length_b 14.635127
_cell_length_c 34.171342
_cell_angle_alpha 90.000000
_cell_angle_beta 16.900588
_cell_angle_gamma 90.000000
_cell_volume 2481.375640
_symmetry_space_group_name_H-M "C 2/M"
_symmetry_group_IT_number 12
_symmetry_cell_setting 'monoclinic'
loop_
_space_group_symop_operation_xyz
x,y,z
-x,y,-z
-x,-y,-z
x,-y,z
1/2+x,1/2+y,z
1/2-x,1/2+y,-z
1/2-x,1/2-y,-z
1/2+x,1/2-y,z
loop_
_atom_site_type_symbol
_atom_site_label
_atom_site_fract_x
_atom_site_fract_y
_atom_site_fract_z
Si Si1 0.044650 0.743272 0.377662
Si Si2 0.017431 0.245456 0.898221
Si Si3 0.772646 0.394647 0.641735
Si Si4 0.229082 0.605459 0.857556
Si Si5 0.783122 0.100312 0.069992
Si Si6 0.326082 0.390676 0.621369
O O1 0.245996 0.727072 0.245498
O O2 0.119415 0.666278 0.374195
O O3 0.084730 0.837281 0.382553
O O4 0.750000 0.750000 0.500000
O O5 0.120195 0.332183 0.874407
O O6 0.750000 0.250000 0.000000
O O7 0.924399 0.168764 0.972999
O O8 0.722633 0.500000 0.678342
O O9 0.500184 0.361215 0.750154
O O10 0.000000 0.395123 0.500000
O O11 0.277581 0.500000 0.821633
O O12 0.000000 0.605251 0.000000
O O13 0.495575 0.128300 0.226069
O O14 0.737515 0.000000 0.073287
O O15 0.000000 0.091828 0.000000
O O16 0.500000 0.360902 0.500000
O O17 0.362956 0.500000 0.607000
#
# Coordination Sequence:
#
# PCOD9214859 Si02
#       6
#     8   8   8   8   8   8
#     4  12  26  39  61  98 130 164 204 257 325 377
#     4  12  24  39  62  93 132 164 197 258 325 372
#     4  10  22  43  66  88 119 164 215 258 299 364
#     4  10  22  40  65  90 117 163 213 252 299 367
#     4  10  23  42  66  93 121 165 216 256 306 375
#     4  10  23  44  67  90 122 167 214 258 306 372
#
# _framework density 19.344107999999999
#
# number of rings (size 3 to 8) (size 9 to 14) (size 15 to 20)
#    0.000    1.333    1.667    3.000    4.667    2.667 
#    0.000    0.000    0.000    0.000    0.000    0.000 
#    0.000    0.000    0.000    0.000    0.000    0.000 
#
# Total GULP energy -133859.273798 kJ/mol
# GULP energy per Si atom -5577.469742 kJ/mol
# Density = 1.930008 g / cm^3
# Si number density = 19.344108 Si / 1000 Ang^3
#
#
#
# Elastic Constant Matrix: (Units=GPa)
#
#
# Indices 1 2 3 4 5 6 
#
# 1 135.9215 72.0961 70.5531 0.0200 -18.0781 0.5612
# 2 72.0961 96.8330 44.1009 -0.0905 2.9361 0.4895
# 3 70.5531 44.1009 176.0955 0.1135 -13.3208 1.5286
# 4 0.0200 -0.0905 0.1135 14.4837 0.0907 -24.6211
# 5 -18.0781 2.9361 -13.3208 0.0907 53.1682 -0.1571
# 6 0.5612 0.4895 1.5286 -24.6211 -0.1571 90.1326
#
#
#
# Elastic Compliance Matrix: (Units=1/GPa)
#
#
# Indices 1 2 3 4 5 6 
#
# 1 0.014768 -0.009718 -0.003121 -0.000092 0.004776 -0.000003
# 2 -0.009718 0.018156 -0.000998 0.000212 -0.004557 0.000029
# 3 -0.003121 -0.000998 0.007243 -0.000425 0.000808 -0.000213
# 4 -0.000092 0.000212 -0.000425 0.128930 -0.000265 0.035225
# 5 0.004776 -0.004557 0.000808 -0.000265 0.020887 -0.000055
# 6 -0.000003 0.000029 -0.000213 0.035225 -0.000055 0.020720
#
#
# Mechanical properties :
#
#
# Convention : Reuss Voigt Hill
#
# Bulk Modulus (GPa) = 80.06625 86.92779 83.49702
# Shear Modulus (GPa) = 20.61500 46.36357 33.48929
#
# Velocity S-wave (km/s) = 3.26805 4.90100 4.16533
# Velocity P-wave (km/s) = 7.46462 8.77847 8.14807
#
# Compressibility (1/GPa) = 0.01248966
#
# Stress axis : x y z
#
# Youngs Moduli (GPa) = 67.71615 55.07934 138.07104
#
# Poissons Ratio (x) = 0.53528 0.43098
# Poissons Ratio (y) = 0.65809 0.13784
# Poissons Ratio (z) = 0.21137 0.05499
#
# Static dielectric constant tensor:
#      x y z
#    x 1.593210 0.000530 -0.020910 
#    y 0.000530 1.780680 -0.000280 
#    z -0.020910 -0.000280 1.667630 
# 
# From -- ./inp_files/376564.got.cif
#   From: 2010.05.17/outbox.cif.g08.bks.cpg/sg12_189_cif.got.tgz:376564.got - 2010.06.03 13:09:07.
