data_PCOD9214831
_publ_section_title
;
Structure prediction by ZEFSAII (Michael W. Deem and Ramdas Pophale) SiO2 
 PCOD9214831
Probable space group: C 2/M
;
_chemical_formula_sum "Si O2"
_cell_formula_units_Z 52
_cell_length_a 20.151406
_cell_length_b 21.957430
_cell_length_c 5.011768
_cell_angle_alpha 90.000000
_cell_angle_beta 96.057842
_cell_angle_gamma 90.000000
_cell_volume 2205.189230
_symmetry_space_group_name_H-M "C 2/M"
_symmetry_group_IT_number 12
_symmetry_cell_setting 'monoclinic'
loop_
_space_group_symop_operation_xyz
x,y,z
-x,y,-z
-x,-y,-z
x,-y,z
1/2+x,1/2+y,z
1/2-x,1/2+y,-z
1/2-x,1/2-y,-z
1/2+x,1/2-y,z
loop_
_atom_site_type_symbol
_atom_site_label
_atom_site_fract_x
_atom_site_fract_y
_atom_site_fract_z
Si Si1 0.000000 0.329648 0.000000
Si Si2 0.363544 0.686836 0.125245
Si Si3 0.712023 0.069586 0.747935
Si Si4 0.892984 0.738568 0.632968
Si Si5 0.951184 0.069424 0.231841
Si Si6 0.272887 0.852673 0.719074
Si Si7 0.063646 0.433913 0.720440
O O1 0.961142 0.290813 0.765734
O O2 0.054021 0.375725 0.898947
O O3 0.396613 0.736596 0.335625
O O4 0.394926 0.620613 0.188556
O O5 0.286791 0.686421 0.181075
O O6 0.376021 0.706584 0.828405
O O7 0.751001 0.110268 0.551926
O O8 0.635181 0.069689 0.610794
O O9 0.735307 0.000000 0.770850
O O10 0.709794 0.099810 0.038060
O O11 0.833336 0.690323 0.652500
O O12 0.000000 0.080975 0.500000
O O13 0.924654 0.000000 0.239242
O O14 0.000000 0.073194 0.000000
O O15 0.064513 0.500000 0.863553
O O16 0.000000 0.433520 0.500000
#
# Coordination Sequence:
#
# PCOD9214831 Si02
#       7
#     4   8   8   8   8   8   8
#     4  12  25  40  68  96 137 180 234 286 330 400
#     4  12  27  46  71 100 134 183 226 279 339 424
#     4  11  24  42  69 103 137 178 231 289 334 392
#     4  12  27  43  69 100 140 181 233 280 335 397
#     4  10  23  45  72 101 135 168 215 284 352 412
#     4  12  24  48  68  96 143 185 228 279 342 408
#     4  10  22  40  64  96 137 182 230 281 341 393
#
# _framework density 23.580742999999998
#
# number of rings (size 3 to 8) (size 9 to 14) (size 15 to 20)
#    0.000    0.769    1.538    5.308    5.385    1.231 
#    0.000    1.538    0.000    0.000    0.000    0.000 
#    0.000    0.000    0.000    0.000    0.000    0.000 
#
# Total GULP energy -145658.080821 kJ/mol
# GULP energy per Si atom -5602.233878 kJ/mol
# Density = 2.352707 g / cm^3
# Si number density = 23.580743 Si / 1000 Ang^3
#
#
#
# Elastic Constant Matrix: (Units=GPa)
#
#
# Indices 1 2 3 4 5 6 
#
# 1 51.2166 21.8151 -14.3736 0.0000 -1.8935 0.0000
# 2 21.8151 109.7688 10.3232 0.0000 10.8787 0.0000
# 3 -14.3736 10.3232 72.0324 0.0000 -5.6587 0.0000
# 4 0.0000 0.0000 0.0000 22.8519 0.0000 -12.1207
# 5 -1.8935 10.8787 -5.6587 0.0000 25.5923 0.0000
# 6 0.0000 0.0000 0.0000 -12.1207 0.0000 25.1571
#
#
#
# Elastic Compliance Matrix: (Units=1/GPa)
#
#
# Indices 1 2 3 4 5 6 
#
# 1 0.023940 -0.005884 0.006061 0.000000 0.005612 0.000000
# 2 -0.005884 0.011169 -0.003238 0.000000 -0.005899 0.000000
# 3 0.006061 -0.003238 0.015977 0.000000 0.005358 0.000000
# 4 0.000000 0.000000 0.000000 0.058782 0.000000 0.028321
# 5 0.005612 -0.005899 0.005358 0.000000 0.043181 0.000000
# 6 0.000000 0.000000 0.000000 0.028321 0.000000 0.053395
#
#
# Mechanical properties :
#
#
# Convention : Reuss Voigt Hill
#
# Bulk Modulus (GPa) = 22.24028 29.83858 26.03943
# Shear Modulus (GPa) = 21.97288 29.07048 25.52168
#
# Velocity S-wave (km/s) = 3.05588 3.51494 3.29342
# Velocity P-wave (km/s) = 4.68008 5.39948 5.05260
#
# Compressibility (1/GPa) = 0.04496346
#
# Stress axis : x y z
#
# Youngs Moduli (GPa) = 41.77173 89.53726 62.58981
#
# Poissons Ratio (x) = 0.52683 -0.37937
# Poissons Ratio (y) = 0.24578 0.20267
# Poissons Ratio (z) = -0.25318 0.28993
#
# Static dielectric constant tensor:
#      x y z
#    x 1.896610 0.000000 0.011910 
#    y 0.000000 1.908530 0.000000 
#    z 0.011910 0.000000 1.877740 
# 
# From -- ./inp_files/21264.got.cif
#   From: 2010.05.17/outbox.cif.g08.bks.cpg/sg12_11_cif.got.tgz:21264.got - 2010.06.03 13:09:07.
