data_PCOD9214927
_publ_section_title
;
Structure prediction by ZEFSAII (Michael W. Deem and Ramdas Pophale) SiO2 
 PCOD9214927
Probable space group: C 2/M
;
_chemical_formula_sum "Si O2"
_cell_formula_units_Z 56
_cell_length_a 17.060026
_cell_length_b 15.534875
_cell_length_c 15.601823
_cell_angle_alpha 90.000000
_cell_angle_beta 33.174726
_cell_angle_gamma 90.000000
_cell_volume 2262.581198
_symmetry_space_group_name_H-M "C 2/M"
_symmetry_group_IT_number 12
_symmetry_cell_setting 'monoclinic'
loop_
_space_group_symop_operation_xyz
x,y,z
-x,y,-z
-x,-y,-z
x,-y,z
1/2+x,1/2+y,z
1/2-x,1/2+y,-z
1/2-x,1/2-y,-z
1/2+x,1/2-y,z
loop_
_atom_site_type_symbol
_atom_site_label
_atom_site_fract_x
_atom_site_fract_y
_atom_site_fract_z
Si Si1 0.802946 0.903750 0.436986
Si Si2 0.300867 0.228158 0.159074
Si Si3 0.483013 0.701396 0.841531
Si Si4 0.150318 0.102191 0.411183
Si Si5 0.350556 0.905987 0.686739
Si Si6 0.293148 0.404871 0.893173
Si Si7 0.970382 0.622511 0.763463
O O1 0.868051 0.881498 0.470594
O O2 0.633985 0.903476 0.605595
O O3 0.860385 0.838528 0.313551
O O4 0.846628 0.000000 0.372983
O O5 0.281342 0.160726 0.255585
O O6 0.234567 0.318337 0.249443
O O7 0.209234 0.171562 0.173672
O O8 0.435331 0.259793 0.976491
O O9 0.377227 0.627736 0.900768
O O10 0.470104 0.777050 0.784546
O O11 0.000000 0.120359 0.500000
O O12 0.182240 0.000000 0.372046
O O13 0.500000 0.901994 0.500000
O O14 0.393074 0.902505 0.747231
O O15 0.282714 0.000000 0.729390
O O16 0.342957 0.500000 0.818628
O O17 0.126694 0.413020 0.071541
#
# Coordination Sequence:
#
# PCOD9214927 Si02
#       7
#     8   8   8   8   8   8   8
#     4  11  24  41  67  98 129 172 221 276 343 394
#     4  11  21  38  62  90 129 168 214 264 331 385
#     4  11  22  38  59  96 130 170 215 263 326 394
#     4  10  22  40  65  99 136 173 217 274 337 405
#     4  11  23  38  62  93 124 167 222 271 318 379
#     4  11  20  36  65  96 129 166 214 270 324 394
#     4  11  22  42  64  94 131 171 216 273 323 389
#
# _framework density 24.750492999999999
#
# number of rings (size 3 to 8) (size 9 to 14) (size 15 to 20)
#    0.000    1.143    2.857    4.714    2.000    1.714 
#    0.000    2.857    0.000    7.714    0.000    3.000 
#    0.000    0.000    0.000    0.000    0.000    0.000 
#
# Total GULP energy -156489.492396 kJ/mol
# GULP energy per Si atom -5588.910443 kJ/mol
# Density = 2.469416 g / cm^3
# Si number density = 24.750493 Si / 1000 Ang^3
#
#
#
# Elastic Constant Matrix: (Units=GPa)
#
#
# Indices 1 2 3 4 5 6 
#
# 1 75.4024 27.1100 17.3886 -0.0001 14.2849 0.0002
# 2 27.1100 178.7588 73.2492 0.0000 14.7786 0.0003
# 3 17.3886 73.2492 131.9914 0.0000 9.0461 0.0004
# 4 -0.0001 0.0000 0.0000 -73.8944 0.0001 -30.5476
# 5 14.2849 14.7786 9.0461 0.0001 37.6926 -0.0002
# 6 0.0002 0.0003 0.0004 -30.5476 -0.0002 14.5220
#
#
#
# Elastic Compliance Matrix: (Units=1/GPa)
#
#
# Indices 1 2 3 4 5 6 
#
# 1 0.014917 -0.001542 -0.000776 0.000000 -0.004862 0.000000
# 2 -0.001542 0.007537 -0.003881 0.000000 -0.001439 0.000000
# 3 -0.000776 -0.003881 0.009870 0.000000 -0.000553 0.000000
# 4 0.000000 0.000000 0.000000 -0.007238 0.000000 -0.015226
# 5 -0.004862 -0.001439 -0.000553 0.000000 0.029070 0.000000
# 6 0.000000 0.000000 0.000000 -0.015226 0.000000 0.036832
#
#
# Mechanical properties :
#
#
# Convention : Reuss Voigt Hill
#
# Bulk Modulus (GPa) = 50.18659 69.07203 59.62931
# Shear Modulus (GPa) = 45.44263 13.55769 29.50016
#
# Velocity S-wave (km/s) = 4.28954 2.34300 3.45614
# Velocity P-wave (km/s) = 6.69735 5.94032 6.33017
#
# Compressibility (1/GPa) = 0.01992564
#
# Stress axis : x y z
#
# Youngs Moduli (GPa) = 67.03855 132.67273 101.31507
#
# Poissons Ratio (x) = 0.20462 0.07862
# Poissons Ratio (y) = 0.10339 0.39321
# Poissons Ratio (z) = 0.05202 0.51491
#
# Static dielectric constant tensor:
#      x y z
#    x 1.979550 0.000000 -0.047150 
#    y 0.000000 1.952620 0.000000 
#    z -0.047150 0.000000 2.034720 
# 
# From -- ./inp_files/284510.got.cif
#   From: 2010.05.17/outbox.cif.g08.bks.cpg/sg12_143_cif.got.tgz:284510.got - 2010.06.03 13:09:07.
