data_PCOD9214589
_publ_section_title
;
Structure prediction by ZEFSAII (Michael W. Deem and Ramdas Pophale) SiO2 
 PCOD9214589
Probable space group: C 2/M
;
_chemical_formula_sum "Si O2"
_cell_formula_units_Z 48
_cell_length_a 29.297594
_cell_length_b 8.971007
_cell_length_c 14.826867
_cell_angle_alpha 90.000000
_cell_angle_beta 38.252536
_cell_angle_gamma 90.000000
_cell_volume 2412.700898
_symmetry_space_group_name_H-M "C 2/M"
_symmetry_group_IT_number 12
_symmetry_cell_setting 'monoclinic'
loop_
_space_group_symop_operation_xyz
x,y,z
-x,y,-z
-x,-y,-z
x,-y,z
1/2+x,1/2+y,z
1/2-x,1/2+y,-z
1/2-x,1/2-y,-z
1/2+x,1/2-y,z
loop_
_atom_site_type_symbol
_atom_site_label
_atom_site_fract_x
_atom_site_fract_y
_atom_site_fract_z
Si Si1 0.501858 0.177628 0.601740
Si Si2 0.263138 0.171451 0.884680
Si Si3 0.725889 0.820665 0.632196
Si Si4 0.574178 0.680061 0.938989
Si Si5 0.905309 0.171172 0.891598
Si Si6 0.151909 0.177664 0.405779
O O1 0.500000 0.227319 0.500000
O O2 0.431566 0.231068 0.767243
O O3 0.572525 0.248298 0.541385
O O4 0.507309 0.000000 0.594008
O O5 0.317886 0.260521 0.735844
O O6 0.287685 0.000000 0.857426
O O7 0.250000 0.250000 0.000000
O O8 0.182798 0.171683 0.963241
O O9 0.750000 0.750000 0.500000
O O10 0.647011 0.756499 0.785884
O O11 0.788518 0.784017 0.609654
O O12 0.721899 0.000000 0.631401
O O13 0.584593 0.500000 0.920063
O O14 0.500000 0.716544 0.000000
O O15 0.564289 0.722400 0.059240
O O16 0.928616 0.000000 0.838677
O O17 0.144709 0.000000 0.413952
#
# Coordination Sequence:
#
# PCOD9214589 Si02
#       6
#     8   8   8   8   8   8
#     4  11  25  42  62  91 127 168 211 259 312 367
#     4  11  22  38  63  92 124 162 204 253 309 368
#     4  11  25  43  66  95 127 164 208 258 314 374
#     4  10  22  42  67  94 126 162 203 253 313 377
#     4  10  22  40  62  90 125 164 203 252 310 368
#     4  11  24  42  64  91 125 165 209 257 311 372
#
# _framework density 19.894715000000001
#
# number of rings (size 3 to 8) (size 9 to 14) (size 15 to 20)
#    0.000    1.333    1.667    3.000    2.333    8.333 
#    0.000    0.000    0.000    0.000    0.000    0.000 
#    0.000    0.000    0.000    0.000    0.000    0.000 
#
# Total GULP energy -134200.210856 kJ/mol
# GULP energy per Si atom -5591.675452 kJ/mol
# Density = 1.984943 g / cm^3
# Si number density = 19.894715 Si / 1000 Ang^3
#
#
#
# Elastic Constant Matrix: (Units=GPa)
#
#
# Indices 1 2 3 4 5 6 
#
# 1 83.2170 27.6495 7.5823 0.0000 3.9882 0.0000
# 2 27.6495 54.0864 24.6961 0.0002 2.0485 0.0000
# 3 7.5823 24.6961 74.6051 0.0001 1.0197 0.0000
# 4 0.0000 0.0002 0.0001 37.2090 0.0000 -3.5121
# 5 3.9882 2.0485 1.0197 0.0000 37.1053 0.0000
# 6 0.0000 0.0000 0.0000 -3.5121 0.0000 26.6138
#
#
#
# Elastic Compliance Matrix: (Units=1/GPa)
#
#
# Indices 1 2 3 4 5 6 
#
# 1 0.014610 -0.007957 0.001165 0.000000 -0.001163 0.000000
# 2 -0.007957 0.026152 -0.007843 0.000000 -0.000373 0.000000
# 3 0.001165 -0.007843 0.015884 0.000000 -0.000129 0.000000
# 4 0.000000 0.000000 0.000000 0.027214 0.000000 0.003591
# 5 -0.001163 -0.000373 -0.000129 0.000000 0.027099 0.000000
# 6 0.000000 0.000000 0.000000 0.003591 0.000000 0.038048
#
#
# Mechanical properties :
#
#
# Convention : Reuss Voigt Hill
#
# Bulk Modulus (GPa) = 36.52887 36.86270 36.69578
# Shear Modulus (GPa) = 26.68053 30.31764 28.49908
#
# Velocity S-wave (km/s) = 3.66606 3.90796 3.78894
# Velocity P-wave (km/s) = 6.02668 6.23955 6.13404
#
# Compressibility (1/GPa) = 0.02737561
#
# Stress axis : x y z
#
# Youngs Moduli (GPa) = 68.44612 38.23825 62.95822
#
# Poissons Ratio (x) = 0.30425 -0.07334
# Poissons Ratio (y) = 0.54460 0.49379
# Poissons Ratio (z) = -0.07973 0.29991
#
# Static dielectric constant tensor:
#      x y z
#    x 1.716000 0.000000 -0.016690 
#    y 0.000000 1.673040 0.000000 
#    z -0.016690 0.000000 1.687850 
# 
# From -- ./inp_files/244687.got.cif
#   From: 2010.05.17/outbox.cif.g08.bks.cpg/sg12_123_cif.got.tgz:244687.got - 2010.06.03 13:09:07.
