data_PCOD9214748
_publ_section_title
;
Structure prediction by ZEFSAII (Michael W. Deem and Ramdas Pophale) SiO2 
 PCOD9214748
Probable space group: C 2/M
;
_chemical_formula_sum "Si O2"
_cell_formula_units_Z 28
_cell_length_a 21.704637
_cell_length_b 10.035226
_cell_length_c 5.506982
_cell_angle_alpha 90.000000
_cell_angle_beta 75.093437
_cell_angle_gamma 90.000000
_cell_volume 1159.114325
_symmetry_space_group_name_H-M "C 2/M"
_symmetry_group_IT_number 12
_symmetry_cell_setting 'monoclinic'
loop_
_space_group_symop_operation_xyz
x,y,z
-x,y,-z
-x,-y,-z
x,-y,z
1/2+x,1/2+y,z
1/2-x,1/2+y,-z
1/2-x,1/2-y,-z
1/2+x,1/2-y,z
loop_
_atom_site_type_symbol
_atom_site_label
_atom_site_fract_x
_atom_site_fract_y
_atom_site_fract_z
Si Si1 0.249847 0.500000 0.849578
Si Si2 0.189039 0.500000 0.332723
Si Si3 0.857435 0.197293 0.626751
Si Si4 0.425623 0.706073 0.065743
Si Si5 0.874189 0.500000 0.142706
O O1 0.288758 0.630772 0.731013
O O2 0.174196 0.500000 0.034528
O O3 0.261318 0.500000 0.148321
O O4 0.150696 0.356011 0.387633
O O5 0.194886 0.500000 0.636020
O O6 0.890947 0.153618 0.342950
O O7 0.896803 0.168190 0.833190
O O8 0.414916 0.867786 0.096519
O O9 0.500000 0.675285 0.000000
#
# Coordination Sequence:
#
# PCOD9214748 Si02
#       5
#     4   4   8   8   4
#     4  12  24  41  65  99 136 164 213 265 336 387
#     4  10  22  40  63  98 133 164 211 262 327 387
#     4  11  25  41  67  98 129 173 211 268 324 382
#     4  11  23  44  65  94 129 174 222 263 313 382
#     4  10  23  37  69  98 129 166 214 277 327 372
#
# _framework density 24.156374
#
# number of rings (size 3 to 8) (size 9 to 14) (size 15 to 20)
#    0.000    1.143    2.857    2.143    4.000    2.286 
#    0.000   10.000    0.000    0.000    0.000    0.000 
#    0.000    0.000    0.000    0.000    0.000    0.000 
#
# Total GULP energy -77968.653057 kJ/mol
# GULP energy per Si atom -5569.189504 kJ/mol
# Density = 2.410139 g / cm^3
# Si number density = 24.156374 Si / 1000 Ang^3
#
#
#
# Elastic Constant Matrix: (Units=GPa)
#
#
# Indices 1 2 3 4 5 6 
#
# 1 135.5369 30.5375 61.1747 0.0000 13.4389 0.0000
# 2 30.5375 91.9530 20.6104 0.0000 -1.0790 0.0000
# 3 61.1747 20.6104 231.9653 0.0000 24.7704 0.0000
# 4 0.0000 0.0000 0.0000 -2.8153 0.0000 15.3378
# 5 13.4389 -1.0790 24.7704 0.0000 47.3968 0.0000
# 6 0.0000 0.0000 0.0000 15.3378 0.0000 -16.7090
#
#
#
# Elastic Compliance Matrix: (Units=1/GPa)
#
#
# Indices 1 2 3 4 5 6 
#
# 1 0.009006 -0.002566 -0.001979 0.000000 -0.001578 0.000000
# 2 -0.002566 0.011857 -0.000512 0.000000 0.001265 0.000000
# 3 -0.001979 -0.000512 0.005104 0.000000 -0.002118 0.000000
# 4 0.000000 0.000000 0.000000 0.088780 0.000000 0.081494
# 5 -0.001578 0.001265 -0.002118 0.000000 0.022682 0.000000
# 6 0.000000 0.000000 0.000000 0.081494 0.000000 0.014959
#
#
# Mechanical properties :
#
#
# Convention : Reuss Voigt Hill
#
# Bulk Modulus (GPa) = 63.07395 76.01116 69.54255
# Shear Modulus (GPa) = 29.80012 28.71667 29.25839
#
# Velocity S-wave (km/s) = 3.51612 3.45161 3.48402
# Velocity P-wave (km/s) = 6.53081 6.88618 6.71085
#
# Compressibility (1/GPa) = 0.01585441
#
# Stress axis : x y z
#
# Youngs Moduli (GPa) = 111.04180 84.33975 195.90688
#
# Poissons Ratio (x) = 0.21640 0.38761
# Poissons Ratio (y) = 0.28491 0.10029
# Poissons Ratio (z) = 0.21970 0.04317
#
# Static dielectric constant tensor:
#      x y z
#    x 1.883970 0.000000 0.154630 
#    y 0.000000 1.674890 0.000000 
#    z 0.154630 0.000000 2.095090 
# 
# From -- ./inp_files/18931.got.cif
#   From: 2010.05.17/outbox.cif.g08.bks.cpg/sg12_10_cif.got.tgz:18931.got - 2010.06.03 13:09:07.
