data_PCOD9214356
_publ_section_title
;
Structure prediction by ZEFSAII (Michael W. Deem and Ramdas Pophale) SiO2 
 PCOD9214356
Probable space group: C 2/M
;
_chemical_formula_sum "Si O2"
_cell_formula_units_Z 48
_cell_length_a 16.230804
_cell_length_b 7.921448
_cell_length_c 14.922718
_cell_angle_alpha 90.000000
_cell_angle_beta 103.702790
_cell_angle_gamma 90.000000
_cell_volume 1864.026782
_symmetry_space_group_name_H-M "C 2/M"
_symmetry_group_IT_number 12
_symmetry_cell_setting 'monoclinic'
loop_
_space_group_symop_operation_xyz
x,y,z
-x,y,-z
-x,-y,-z
x,-y,z
1/2+x,1/2+y,z
1/2-x,1/2+y,-z
1/2-x,1/2-y,-z
1/2+x,1/2-y,z
loop_
_atom_site_type_symbol
_atom_site_label
_atom_site_fract_x
_atom_site_fract_y
_atom_site_fract_z
Si Si1 0.781600 0.204670 0.222475
Si Si2 0.840692 0.193845 0.561487
Si Si3 0.403857 0.802273 0.394316
Si Si4 0.473875 0.196521 0.725584
Si Si5 0.907319 0.297839 0.887743
Si Si6 0.154716 0.799576 0.944532
O O1 0.812938 0.283055 0.322472
O O2 0.687345 0.253926 0.168398
O O3 0.783914 0.000000 0.229328
O O4 0.844689 0.262200 0.157899
O O5 0.750000 0.250000 0.500000
O O6 0.900601 0.218043 0.489690
O O7 0.881361 0.295663 0.654141
O O8 0.837533 0.000000 0.587165
O O9 0.465778 0.725239 0.334718
O O10 0.422821 0.000000 0.412570
O O11 0.467195 0.271973 0.823823
O O12 0.498046 0.000000 0.739706
O O13 0.912570 0.500000 0.882862
O O14 0.908619 0.259779 0.993937
O O15 0.149527 0.000000 0.940877
O O16 0.250000 0.750000 0.000000
#
# Coordination Sequence:
#
# PCOD9214356 Si02
#       6
#     8   8   8   8   8   8
#     4   9  18  33  54  80 110 146 189 234 278 327
#     4  12  25  41  63  87 111 143 184 230 278 330
#     4  11  23  38  58  84 115 151 187 226 275 331
#     4  10  22  40  59  83 117 151 184 226 276 330
#     4   9  18  34  56  80 108 144 185 231 279 326
#     4   9  17  30  51  79 109 142 182 231 281 326
#
# _framework density 25.750703000000001
#
# number of rings (size 3 to 8) (size 9 to 14) (size 15 to 20)
#    0.000    2.000    0.000    5.000    0.000    8.667 
#    0.000    0.833    0.000    5.000    0.000    0.000 
#    0.000    0.000    0.000    0.000    0.000    0.000 
#
# Total GULP energy -134258.514359 kJ/mol
# GULP energy per Si atom -5594.104765 kJ/mol
# Density = 2.569209 g / cm^3
# Si number density = 25.750703 Si / 1000 Ang^3
#
#
#
# Elastic Constant Matrix: (Units=GPa)
#
#
# Indices 1 2 3 4 5 6 
#
# 1 81.9299 1.6830 25.5551 0.0000 -24.5684 0.0000
# 2 1.6830 51.9799 -4.3533 0.0000 -8.3408 0.0000
# 3 25.5551 -4.3533 181.6256 0.0000 -16.6464 0.0000
# 4 0.0000 0.0000 0.0000 31.3078 0.0000 -5.1252
# 5 -24.5684 -8.3408 -16.6464 0.0000 56.9801 0.0000
# 6 0.0000 0.0000 0.0000 -5.1252 0.0000 15.7763
#
#
#
# Elastic Compliance Matrix: (Units=1/GPa)
#
#
# Indices 1 2 3 4 5 6 
#
# 1 0.014410 0.000345 -0.001485 0.000000 0.005830 0.000000
# 2 0.000345 0.019811 0.000725 0.000000 0.003260 0.000000
# 3 -0.001485 0.000725 0.005840 0.000000 0.001172 0.000000
# 4 0.000000 0.000000 0.000000 0.033735 0.000000 0.010959
# 5 0.005830 0.003260 0.001172 0.000000 0.020883 0.000000
# 6 0.000000 0.000000 0.000000 0.010959 0.000000 0.066947
#
#
# Mechanical properties :
#
#
# Convention : Reuss Voigt Hill
#
# Bulk Modulus (GPa) = 25.49076 40.14501 32.81789
# Shear Modulus (GPa) = 28.48480 40.32288 34.40384
#
# Velocity S-wave (km/s) = 3.32953 3.96143 3.65915
# Velocity P-wave (km/s) = 4.97007 6.04546 5.53395
#
# Compressibility (1/GPa) = 0.03922990
#
# Stress axis : x y z
#
# Youngs Moduli (GPa) = 69.39705 50.47717 171.24606
#
# Poissons Ratio (x) = -0.01739 0.25429
# Poissons Ratio (y) = -0.02391 -0.12418
# Poissons Ratio (z) = 0.10305 -0.03660
#
# Static dielectric constant tensor:
#      x y z
#    x 2.172420 0.000000 -0.037270 
#    y 0.000000 1.896820 0.000000 
#    z -0.037270 0.000000 2.019490 
# 
# From -- ./inp_files/221599.got.cif
#   From: 2010.05.17/outbox.cif.g08.bks.cpg/sg12_111_cif.got.tgz:221599.got - 2010.06.03 13:09:07.
