data_PCOD9214465
_publ_section_title
;
Structure prediction by ZEFSAII (Michael W. Deem and Ramdas Pophale) SiO2 
 PCOD9214465
Probable space group: C 2/M
;
_chemical_formula_sum "Si O2"
_cell_formula_units_Z 64
_cell_length_a 9.817745
_cell_length_b 14.006880
_cell_length_c 32.921132
_cell_angle_alpha 90.000000
_cell_angle_beta 46.209086
_cell_angle_gamma 90.000000
_cell_volume 3268.036489
_symmetry_space_group_name_H-M "C 2/M"
_symmetry_group_IT_number 12
_symmetry_cell_setting 'monoclinic'
loop_
_space_group_symop_operation_xyz
x,y,z
-x,y,-z
-x,-y,-z
x,-y,z
1/2+x,1/2+y,z
1/2-x,1/2+y,-z
1/2-x,1/2-y,-z
1/2+x,1/2-y,z
loop_
_atom_site_type_symbol
_atom_site_label
_atom_site_fract_x
_atom_site_fract_y
_atom_site_fract_z
Si Si1 0.652834 0.785523 0.224031
Si Si2 0.610400 0.109585 0.854542
Si Si3 0.362734 0.616067 0.492649
Si Si4 0.466884 0.778377 0.961155
Si Si5 0.429917 0.114510 0.595432
Si Si6 0.083828 0.886346 0.611126
Si Si7 0.766068 0.891134 0.121620
Si Si8 0.277472 0.758620 0.699773
O O1 0.730945 0.682479 0.193446
O O2 0.733579 0.860184 0.174839
O O3 0.722245 0.802320 0.255320
O O4 0.427250 0.782265 0.268732
O O5 0.534994 0.146103 0.913533
O O6 0.434186 0.116972 0.859995
O O7 0.672976 0.000000 0.843169
O O8 0.500000 0.651263 0.500000
O O9 0.363766 0.500000 0.494249
O O10 0.430233 0.639613 0.433422
O O11 0.145590 0.644809 0.543528
O O12 0.591581 0.683556 0.927910
O O13 0.500000 0.813028 0.000000
O O14 0.250000 0.750000 0.000000
O O15 0.291501 0.134277 0.586097
O O16 0.344329 0.166234 0.652232
O O17 0.430018 0.000000 0.601301
O O18 0.930340 0.826462 0.667279
O O19 0.052426 0.000000 0.621651
O O20 0.831984 0.000000 0.104695
#
# Coordination Sequence:
#
# PCOD9214465 Si02
#       8
#     8   8   8   8   8   8   8   8
#     4  11  24  42  61  88 123 158 199 261 305 347
#     4  10  22  41  66  91 122 168 210 244 298 362
#     4   9  19  36  59  88 121 152 190 246 304 364
#     4  11  22  39  63  98 136 163 197 255 302 345
#     4  10  22  40  61  86 118 156 197 243 303 371
#     4  10  22  40  62  86 116 158 199 240 302 374
#     4  10  22  41  66  92 121 168 212 242 297 364
#     4  12  24  40  61  90 121 152 202 257 308 356
#
# _framework density 19.583624
#
# number of rings (size 3 to 8) (size 9 to 14) (size 15 to 20)
#    0.000    1.625    3.750    0.375    1.750    5.000 
#    0.000    1.250    0.000    0.000    0.000    0.000 
#    0.000    0.000    0.000    0.000    0.000    0.000 
#
# Total GULP energy -178877.741274 kJ/mol
# GULP energy per Si atom -5589.929415 kJ/mol
# Density = 1.953905 g / cm^3
# Si number density = 19.583624 Si / 1000 Ang^3
#
#
#
# Elastic Constant Matrix: (Units=GPa)
#
#
# Indices 1 2 3 4 5 6 
#
# 1 81.3423 8.9175 7.8105 -0.0001 12.5717 0.0001
# 2 8.9175 74.1904 3.7275 0.0000 0.9799 0.0000
# 3 7.8105 3.7275 60.9256 -0.0002 13.9071 0.0002
# 4 -0.0001 0.0000 -0.0002 9.9534 0.0001 -1.8464
# 5 12.5717 0.9799 13.9071 0.0001 50.6235 -0.0001
# 6 0.0001 0.0000 0.0002 -1.8464 -0.0001 23.2144
#
#
#
# Elastic Compliance Matrix: (Units=1/GPa)
#
#
# Indices 1 2 3 4 5 6 
#
# 1 0.012999 -0.001478 -0.000902 0.000000 -0.002952 0.000000
# 2 -0.001478 0.013689 -0.000716 0.000000 0.000299 0.000000
# 3 -0.000902 -0.000716 0.017624 0.000000 -0.004604 0.000000
# 4 0.000000 0.000000 0.000000 0.101973 0.000000 0.008111
# 5 -0.002952 0.000299 -0.004604 0.000000 0.021746 0.000000
# 6 0.000000 0.000000 0.000000 0.008111 0.000000 0.043722
#
#
# Mechanical properties :
#
#
# Convention : Reuss Voigt Hill
#
# Bulk Modulus (GPa) = 26.23442 28.59658 27.41550
# Shear Modulus (GPa) = 21.67783 29.82512 25.75148
#
# Velocity S-wave (km/s) = 3.33067 3.90675 3.63016
# Velocity P-wave (km/s) = 5.31191 5.91475 5.62142
#
# Compressibility (1/GPa) = 0.03811786
#
# Stress axis : x y z
#
# Youngs Moduli (GPa) = 76.93156 73.05389 56.74151
#
# Poissons Ratio (x) = 0.10798 0.05119
# Poissons Ratio (y) = 0.11371 0.04064
# Poissons Ratio (z) = 0.06941 0.05232
#
# Static dielectric constant tensor:
#      x y z
#    x 1.671670 0.000000 0.009050 
#    y 0.000000 1.676270 0.000000 
#    z 0.009050 0.000000 1.653080 
# 
# From -- ./inp_files/372560.got.cif
#   From: 2010.05.17/outbox.cif.g08.bks.cpg/sg12_187_cif.got.tgz:372560.got - 2010.06.03 13:09:07.
