data_PCOD9214139
_publ_section_title
;
Structure prediction by ZEFSAII (Michael W. Deem and Ramdas Pophale) SiO2 
 PCOD9214139
Probable space group: C 2/M
;
_chemical_formula_sum "Si O2"
_cell_formula_units_Z 40
_cell_length_a 8.222227
_cell_length_b 17.259529
_cell_length_c 14.757222
_cell_angle_alpha 90.000000
_cell_angle_beta 50.514723
_cell_angle_gamma 90.000000
_cell_volume 1616.296525
_symmetry_space_group_name_H-M "C 2/M"
_symmetry_group_IT_number 12
_symmetry_cell_setting 'monoclinic'
loop_
_space_group_symop_operation_xyz
x,y,z
-x,y,-z
-x,-y,-z
x,-y,z
1/2+x,1/2+y,z
1/2-x,1/2+y,-z
1/2-x,1/2-y,-z
1/2+x,1/2-y,z
loop_
_atom_site_type_symbol
_atom_site_label
_atom_site_fract_x
_atom_site_fract_y
_atom_site_fract_z
Si Si1 0.230284 0.910290 0.528042
Si Si2 0.304703 0.339115 0.717793
Si Si3 0.741044 0.171346 0.944945
Si Si4 0.356837 0.162651 0.670983
Si Si5 0.839643 0.410369 0.858944
O O1 0.391397 0.855253 0.416687
O O2 0.282618 0.890687 0.614632
O O3 0.985923 0.889353 0.607240
O O4 0.270850 0.000000 0.492959
O O5 0.311394 0.252911 0.674547
O O6 0.357527 0.329145 0.807389
O O7 0.078800 0.380000 0.790499
O O8 0.783770 0.105427 0.004083
O O9 0.500000 0.162873 0.000000
O O10 0.750000 0.250000 0.000000
O O11 0.260762 0.138123 0.801034
O O12 0.841280 0.500000 0.835603
#
# Coordination Sequence:
#
# PCOD9214139 Si02
#       5
#     8   8   8   8   8
#     4  11  24  41  61  89 126 161 202 257 307 354
#     4  11  23  39  65  89 121 162 207 245 304 368
#     4  10  22  39  63  89 123 157 200 249 300 360
#     4  11  22  41  62  88 122 164 206 248 303 362
#     4  11  23  40  64  93 124 159 201 254 306 356
#
# _framework density 24.747934999999998
#
# number of rings (size 3 to 8) (size 9 to 14) (size 15 to 20)
#    0.000    1.200    2.000    4.800    2.800    6.800 
#    0.000    2.000    0.000    3.000    0.000    0.000 
#    0.000    0.000    0.000    0.000    0.000    0.000 
#
# Total GULP energy -112020.865576 kJ/mol
# GULP energy per Si atom -5601.043279 kJ/mol
# Density = 2.469161 g / cm^3
# Si number density = 24.747935 Si / 1000 Ang^3
#
#
#
# Elastic Constant Matrix: (Units=GPa)
#
#
# Indices 1 2 3 4 5 6 
#
# 1 48.4859 -9.6946 22.4641 0.0000 15.1335 0.0000
# 2 -9.6946 107.8559 -4.1543 0.0000 -1.6606 0.0000
# 3 22.4641 -4.1543 107.2556 0.0000 0.9272 0.0000
# 4 0.0000 0.0000 0.0000 28.5112 0.0000 -5.4794
# 5 15.1335 -1.6606 0.9272 0.0000 57.6665 0.0000
# 6 0.0000 0.0000 0.0000 -5.4794 0.0000 21.7493
#
#
#
# Elastic Compliance Matrix: (Units=1/GPa)
#
#
# Indices 1 2 3 4 5 6 
#
# 1 0.025475 0.001989 -0.005202 0.000000 -0.006545 0.000000
# 2 0.001989 0.009445 -0.000049 0.000000 -0.000249 0.000000
# 3 -0.005202 -0.000049 0.010401 0.000000 0.001197 0.000000
# 4 0.000000 0.000000 0.000000 0.036859 0.000000 0.009286
# 5 -0.006545 -0.000249 0.001197 0.000000 0.019032 0.000000
# 6 0.000000 0.000000 0.000000 0.009286 0.000000 0.048318
#
#
# Mechanical properties :
#
#
# Convention : Reuss Voigt Hill
#
# Bulk Modulus (GPa) = 25.77528 31.20307 28.48918
# Shear Modulus (GPa) = 29.58839 38.58420 34.08629
#
# Velocity S-wave (km/s) = 3.46148 3.95281 3.71528
# Velocity P-wave (km/s) = 5.13941 5.78521 5.47185
#
# Compressibility (1/GPa) = 0.03879686
#
# Stress axis : x y z
#
# Youngs Moduli (GPa) = 39.25407 105.87974 96.14619
#
# Poissons Ratio (x) = -0.21056 0.50015
# Poissons Ratio (y) = -0.07806 0.00467
# Poissons Ratio (z) = 0.20420 0.00514
#
# Static dielectric constant tensor:
#      x y z
#    x 2.042670 0.000000 0.014680 
#    y 0.000000 1.850630 0.000000 
#    z 0.014680 0.000000 2.041350 
# 
# From -- ./inp_files/256373.got.cif
#   From: 2010.05.17/outbox.cif.g08.bks.cpg/sg12_129_cif.got.tgz:256373.got - 2010.06.03 13:09:07.
