data_PCOD9214032
_publ_section_title
;
Structure prediction by ZEFSAII (Michael W. Deem and Ramdas Pophale) SiO2 
 PCOD9214032
Probable space group: C 2/M
;
_chemical_formula_sum "Si O2"
_cell_formula_units_Z 48
_cell_length_a 14.656513
_cell_length_b 15.535557
_cell_length_c 12.613956
_cell_angle_alpha 90.000000
_cell_angle_beta 59.997487
_cell_angle_gamma 90.000000
_cell_volume 2487.301500
_symmetry_space_group_name_H-M "C 2/M"
_symmetry_group_IT_number 12
_symmetry_cell_setting 'monoclinic'
loop_
_space_group_symop_operation_xyz
x,y,z
-x,y,-z
-x,-y,-z
x,-y,z
1/2+x,1/2+y,z
1/2-x,1/2+y,-z
1/2-x,1/2-y,-z
1/2+x,1/2-y,z
loop_
_atom_site_type_symbol
_atom_site_label
_atom_site_fract_x
_atom_site_fract_y
_atom_site_fract_z
Si Si1 0.727593 0.648681 0.497303
Si Si2 0.576742 0.259479 0.046253
Si Si3 0.198043 0.321878 0.165412
Si Si4 0.973135 0.900910 0.255683
Si Si5 0.628435 0.000000 0.295221
Si Si6 0.096834 0.819129 0.374164
Si Si7 0.113567 0.500000 0.557768
O O1 0.750000 0.750000 0.500000
O O2 0.644732 0.619488 0.635568
O O3 0.671361 0.636785 0.416605
O O4 0.827727 0.587068 0.441583
O O5 0.621800 0.193750 0.108130
O O6 0.511952 0.334031 0.144936
O O7 0.500000 0.223312 0.000000
O O8 0.682617 0.300082 0.935167
O O9 0.185189 0.416213 0.218289
O O10 0.158199 0.254815 0.276883
O O11 0.046807 0.882102 0.315751
O O12 0.981262 0.000000 0.218207
O O13 0.622920 0.000000 0.425186
O O14 0.505794 0.000000 0.333942
O O15 0.000000 0.781658 0.500000
#
# Coordination Sequence:
#
# PCOD9214032 Si02
#       7
#     8   8   8   8   4   8   4
#     4  11  23  37  62  92 126 157 203 245 304 367
#     4  10  24  41  66  88 117 158 214 254 301 357
#     4  10  23  44  61  90 120 168 200 251 307 360
#     4  10  22  39  61  92 122 153 201 253 305 356
#     4  11  26  40  61  81 136 155 200 248 303 366
#     4   9  21  37  64  86 123 160 195 248 306 359
#     4  11  26  38  58  98 121 166 200 242 306 375
#
# _framework density 19.298024000000002
#
# number of rings (size 3 to 8) (size 9 to 14) (size 15 to 20)
#    0.000    1.833    0.833    1.000   16.333    1.333 
#    0.000    0.417    0.000    0.000    0.000    0.000 
#    0.000    0.000    0.000    0.000    0.000    0.000 
#
# Total GULP energy -134109.179865 kJ/mol
# GULP energy per Si atom -5587.882494 kJ/mol
# Density = 1.925410 g / cm^3
# Si number density = 19.298024 Si / 1000 Ang^3
#
#
#
# Elastic Constant Matrix: (Units=GPa)
#
#
# Indices 1 2 3 4 5 6 
#
# 1 64.0476 -13.1999 6.2372 0.0000 7.2287 0.0000
# 2 -13.1999 48.6235 -11.6393 0.0000 0.1036 0.0000
# 3 6.2372 -11.6393 67.2053 0.0000 4.6247 0.0000
# 4 0.0000 0.0000 0.0000 20.3164 0.0000 -10.2738
# 5 7.2287 0.1036 4.6247 0.0000 17.9648 0.0000
# 6 0.0000 0.0000 0.0000 -10.2738 0.0000 20.5243
#
#
#
# Elastic Compliance Matrix: (Units=1/GPa)
#
#
# Indices 1 2 3 4 5 6 
#
# 1 0.017388 0.004656 -0.000330 0.000000 -0.006939 0.000000
# 2 0.004656 0.022724 0.003707 0.000000 -0.002959 0.000000
# 3 -0.000330 0.003707 0.015825 0.000000 -0.003963 0.000000
# 4 0.000000 0.000000 0.000000 0.065904 0.000000 0.032989
# 5 -0.006939 -0.002959 -0.003963 0.000000 0.059494 0.000000
# 6 0.000000 0.000000 0.000000 0.032989 0.000000 0.065236
#
#
# Mechanical properties :
#
#
# Convention : Reuss Voigt Hill
#
# Bulk Modulus (GPa) = 13.88810 15.85248 14.87029
# Shear Modulus (GPa) = 19.64597 24.99298 22.31948
#
# Velocity S-wave (km/s) = 3.19412 3.60266 3.40452
# Velocity P-wave (km/s) = 4.56240 5.05351 4.81422
#
# Compressibility (1/GPa) = 0.07200407
#
# Stress axis : x y z
#
# Youngs Moduli (GPa) = 57.51002 44.00657 63.19072
#
# Poissons Ratio (x) = -0.20490 0.02084
# Poissons Ratio (y) = -0.26778 -0.23425
# Poissons Ratio (z) = 0.01897 -0.16313
#
# Static dielectric constant tensor:
#      x y z
#    x 1.702900 0.000000 0.016970 
#    y 0.000000 1.653960 0.000000 
#    z 0.016970 0.000000 1.655770 
# 
# From -- ./inp_files/143611.got.cif
#   From: 2010.05.17/outbox.cif.g08.bks.cpg/sg12_72_cif.got.tgz:143611.got - 2010.06.03 13:09:07.
