data_PCOD9214570
_publ_section_title
;
Structure prediction by ZEFSAII (Michael W. Deem and Ramdas Pophale) SiO2 
 PCOD9214570
Probable space group: C 2/M
;
_chemical_formula_sum "Si O2"
_cell_formula_units_Z 48
_cell_length_a 23.633837
_cell_length_b 8.847248
_cell_length_c 12.438471
_cell_angle_alpha 90.000000
_cell_angle_beta 111.413167
_cell_angle_gamma 90.000000
_cell_volume 2421.285640
_symmetry_space_group_name_H-M "C 2/M"
_symmetry_group_IT_number 12
_symmetry_cell_setting 'monoclinic'
loop_
_space_group_symop_operation_xyz
x,y,z
-x,y,-z
-x,-y,-z
x,-y,z
1/2+x,1/2+y,z
1/2-x,1/2+y,-z
1/2-x,1/2-y,-z
1/2+x,1/2-y,z
loop_
_atom_site_type_symbol
_atom_site_label
_atom_site_fract_x
_atom_site_fract_y
_atom_site_fract_z
Si Si1 0.605274 0.319003 0.034665
Si Si2 0.570559 0.318264 0.244644
Si Si3 0.856133 0.819957 0.325488
Si Si4 0.947491 0.679517 0.221291
Si Si5 0.265594 0.819828 0.895252
Si Si6 0.816870 0.182003 0.534772
O O1 0.604579 0.500000 0.021434
O O2 0.567964 0.280283 0.116323
O O3 0.673578 0.261470 0.101401
O O4 0.581549 0.245592 0.908704
O O5 0.564221 0.500000 0.249814
O O6 0.516151 0.240036 0.270042
O O7 0.636042 0.276003 0.338671
O O8 0.908137 0.737762 0.294229
O O9 0.791748 0.794182 0.221584
O O10 0.847335 0.772848 0.442571
O O11 0.868315 0.000000 0.330701
O O12 0.946023 0.500000 0.216187
O O13 0.275510 0.000000 0.911199
O O14 0.250000 0.750000 0.000000
O O15 0.750000 0.250000 0.500000
O O16 0.810999 0.000000 0.529930
#
# Coordination Sequence:
#
# PCOD9214570 Si02
#       6
#     8   8   8   8   8   8
#     4  11  22  38  61  88 122 161 200 249 305 361
#     4  10  23  42  63  87 120 162 202 243 301 363
#     4  10  22  40  62  88 123 162 200 243 298 360
#     4  12  25  39  60  89 121 158 203 254 303 355
#     4  11  21  34  57  88 121 158 198 245 297 350
#     4  10  22  42  67  93 120 157 199 245 298 356
#
# _framework density 19.824179999999998
#
# number of rings (size 3 to 8) (size 9 to 14) (size 15 to 20)
#    0.000    1.333    1.667    4.000    0.000    6.000 
#    0.000    3.333    0.000    0.000    0.000    0.000 
#    0.000    0.000    0.000    0.000    0.000    0.000 
#
# Total GULP energy -134214.193371 kJ/mol
# GULP energy per Si atom -5592.258057 kJ/mol
# Density = 1.977906 g / cm^3
# Si number density = 19.824180 Si / 1000 Ang^3
#
#
#
# Elastic Constant Matrix: (Units=GPa)
#
#
# Indices 1 2 3 4 5 6 
#
# 1 144.0786 43.5753 44.0498 0.0000 -5.6983 0.0000
# 2 43.5753 38.6664 30.3681 0.0000 -1.5589 0.0000
# 3 44.0498 30.3681 93.9143 0.0000 -16.7269 0.0000
# 4 0.0000 0.0000 0.0000 16.3383 0.0000 5.2338
# 5 -5.6983 -1.5589 -16.7269 0.0000 26.2061 0.0000
# 6 0.0000 0.0000 0.0000 5.2338 0.0000 36.7118
#
#
#
# Elastic Compliance Matrix: (Units=1/GPa)
#
#
# Indices 1 2 3 4 5 6 
#
# 1 0.010700 -0.010991 -0.001316 0.000000 0.000833 0.000000
# 2 -0.010991 0.046740 -0.011157 0.000000 -0.006731 0.000000
# 3 -0.001316 -0.011157 0.016590 0.000000 0.009639 0.000000
# 4 0.000000 0.000000 0.000000 0.064135 0.000000 -0.009143
# 5 0.000833 -0.006731 0.009639 0.000000 0.044092 0.000000
# 6 0.000000 0.000000 0.000000 -0.009143 0.000000 0.028543
#
#
# Mechanical properties :
#
#
# Convention : Reuss Voigt Hill
#
# Bulk Modulus (GPa) = 36.89968 56.96065 46.93016
# Shear Modulus (GPa) = 18.74315 26.42899 22.58607
#
# Velocity S-wave (km/s) = 3.07818 3.65522 3.37904
# Velocity P-wave (km/s) = 5.59352 6.82711 6.24087
#
# Compressibility (1/GPa) = 0.02710051
#
# Stress axis : x y z
#
# Youngs Moduli (GPa) = 93.45557 21.39480 60.27659
#
# Poissons Ratio (x) = 0.23515 0.07935
# Poissons Ratio (y) = 1.02719 0.67253
# Poissons Ratio (z) = 0.12303 0.23871
#
# Static dielectric constant tensor:
#      x y z
#    x 1.696050 0.000000 0.002630 
#    y 0.000000 1.567090 0.000000 
#    z 0.002630 0.000000 1.702210 
# 
# From -- ./inp_files/172950.got.cif
#   From: 2010.05.17/outbox.cif.g08.bks.cpg/sg12_87_cif.got.tgz:172950.got - 2010.06.03 13:09:07.
