data_PCOD9214921
_publ_section_title
;
Structure prediction by ZEFSAII (Michael W. Deem and Ramdas Pophale) SiO2 
 PCOD9214921
Probable space group: C 2/M
;
_chemical_formula_sum "Si O2"
_cell_formula_units_Z 56
_cell_length_a 20.691650
_cell_length_b 15.407297
_cell_length_c 13.362520
_cell_angle_alpha 90.000000
_cell_angle_beta 41.969520
_cell_angle_gamma 90.000000
_cell_volume 2848.814128
_symmetry_space_group_name_H-M "C 2/M"
_symmetry_group_IT_number 12
_symmetry_cell_setting 'monoclinic'
loop_
_space_group_symop_operation_xyz
x,y,z
-x,y,-z
-x,-y,-z
x,-y,z
1/2+x,1/2+y,z
1/2-x,1/2+y,-z
1/2-x,1/2-y,-z
1/2+x,1/2-y,z
loop_
_atom_site_type_symbol
_atom_site_label
_atom_site_fract_x
_atom_site_fract_y
_atom_site_fract_z
Si Si1 0.955259 0.266190 0.945469
Si Si2 0.765076 0.836256 0.548775
Si Si3 0.071210 0.597432 0.693229
Si Si4 0.608619 0.899983 0.415361
Si Si5 0.579882 0.600600 0.322624
Si Si6 0.272819 0.732034 0.765006
Si Si7 0.968072 0.097421 0.241587
O O1 0.995010 0.331142 0.815396
O O2 0.997846 0.171571 0.872487
O O3 0.840123 0.264093 0.080946
O O4 0.000000 0.295245 0.000000
O O5 0.750000 0.750000 0.500000
O O6 0.667027 0.890190 0.649524
O O7 0.782702 0.807600 0.641943
O O8 0.857062 0.886362 0.399705
O O9 0.032567 0.500000 0.747932
O O10 0.103071 0.610066 0.541728
O O11 0.500000 0.886620 0.500000
O O12 0.679280 0.827267 0.290694
O O13 0.636789 0.000000 0.360493
O O14 0.500000 0.620890 0.500000
O O15 0.610113 0.500000 0.303585
O O16 0.666990 0.667639 0.233610
O O17 0.529488 0.606833 0.272988
O O18 0.980432 0.000000 0.188564
#
# Coordination Sequence:
#
# PCOD9214921 Si02
#       7
#     8   8   8   8   8   8   8
#     4  12  26  44  59  93 134 168 209 252 311 385
#     4  12  20  39  65  96 123 158 214 264 307 369
#     4  11  24  43  66  92 126 168 212 260 313 367
#     4  10  23  43  68  97 124 161 215 264 310 371
#     4  10  22  40  65  98 124 156 212 264 315 372
#     4  12  23  38  68  91 129 169 202 260 319 367
#     4  11  24  43  67  93 126 165 208 262 317 372
#
# _framework density 19.657302000000001
#
# number of rings (size 3 to 8) (size 9 to 14) (size 15 to 20)
#    0.000    0.857    5.714    0.857    2.000    2.857 
#    0.000    0.000    0.000    0.000    0.000    0.000 
#    0.000    0.000    0.000    0.000    0.000    0.000 
#
# Total GULP energy -156597.452465 kJ/mol
# GULP energy per Si atom -5592.766159 kJ/mol
# Density = 1.961256 g / cm^3
# Si number density = 19.657302 Si / 1000 Ang^3
#
#
#
# Elastic Constant Matrix: (Units=GPa)
#
#
# Indices 1 2 3 4 5 6 
#
# 1 54.3616 24.0005 6.5306 0.0000 -22.1543 0.0000
# 2 24.0005 118.8313 50.5328 0.0000 -25.6665 0.0000
# 3 6.5306 50.5328 78.4230 0.0000 -36.9092 0.0000
# 4 0.0000 0.0000 0.0000 -3.1591 0.0000 4.7693
# 5 -22.1543 -25.6665 -36.9092 0.0000 31.6564 0.0000
# 6 0.0000 0.0000 0.0000 4.7693 0.0000 27.3023
#
#
#
# Elastic Compliance Matrix: (Units=1/GPa)
#
#
# Indices 1 2 3 4 5 6 
#
# 1 0.040222 -0.008078 0.026639 0.000000 0.052658 0.000000
# 2 -0.008078 0.013247 -0.012119 0.000000 -0.009043 0.000000
# 3 0.026639 -0.012119 0.049842 0.000000 0.066929 0.000000
# 4 0.000000 0.000000 0.000000 -0.250486 0.000000 0.043756
# 5 0.052658 -0.009043 0.066929 0.000000 0.139143 0.000000
# 6 0.000000 0.000000 0.000000 0.043756 0.000000 0.028983
#
#
# Mechanical properties :
#
#
# Convention : Reuss Voigt Hill
#
# Bulk Modulus (GPa) = 8.60634 45.97152 27.28893
# Shear Modulus (GPa) = 106.83766 22.53006 64.68386
#
# Velocity S-wave (km/s) = 7.38025 3.38914 5.74258
# Velocity P-wave (km/s) = 8.77564 6.22514 7.60803
#
# Compressibility (1/GPa) = 0.11619347
#
# Stress axis : x y z
#
# Youngs Moduli (GPa) = 24.86229 75.48655 20.06350
#
# Poissons Ratio (x) = 0.60979 -0.53447
# Poissons Ratio (y) = 0.20084 0.24316
# Poissons Ratio (z) = -0.66230 0.91485
#
# Static dielectric constant tensor:
#      x y z
#    x 1.689870 0.000000 0.004510 
#    y 0.000000 1.699610 0.000000 
#    z 0.004510 0.000000 1.657370 
# 
# From -- ./inp_files/233677.got.cif
#   From: 2010.05.17/outbox.cif.g08.bks.cpg/sg12_117_cif.got.tgz:233677.got - 2010.06.03 13:09:07.
