data_PCOD9214842
_publ_section_title
;
Structure prediction by ZEFSAII (Michael W. Deem and Ramdas Pophale) SiO2 
 PCOD9214842
Probable space group: C 2/M
;
_chemical_formula_sum "Si O2"
_cell_formula_units_Z 28
_cell_length_a 12.758512
_cell_length_b 15.943100
_cell_length_c 6.671683
_cell_angle_alpha 90.000000
_cell_angle_beta 73.298507
_cell_angle_gamma 90.000000
_cell_volume 1299.839818
_symmetry_space_group_name_H-M "C 2/M"
_symmetry_group_IT_number 12
_symmetry_cell_setting 'monoclinic'
loop_
_space_group_symop_operation_xyz
x,y,z
-x,y,-z
-x,-y,-z
x,-y,z
1/2+x,1/2+y,z
1/2-x,1/2+y,-z
1/2-x,1/2-y,-z
1/2+x,1/2-y,z
loop_
_atom_site_type_symbol
_atom_site_label
_atom_site_fract_x
_atom_site_fract_y
_atom_site_fract_z
Si Si1 0.907019 0.094773 0.719066
Si Si2 0.000000 0.357889 0.500000
Si Si3 0.120781 0.737989 0.080672
Si Si4 0.846511 0.407560 0.239583
O O1 0.920415 0.166597 0.877742
O O2 0.785583 0.102828 0.684225
O O3 0.000000 0.104826 0.500000
O O4 0.913539 0.000000 0.796182
O O5 0.926003 0.303939 0.692642
O O6 0.911841 0.406231 0.412048
O O7 0.250000 0.750000 0.000000
O O8 0.107276 0.671885 0.907701
O O9 0.865704 0.500000 0.133509
#
# Coordination Sequence:
#
# PCOD9214842 Si02
#       4
#     8   4   8   8
#     4   9  18  39  69  96 126 168 219 273 323 378
#     4  12  23  40  63  94 134 180 209 266 331 386
#     4  10  22  40  64  98 130 172 215 268 324 390
#     4  10  23  41  65  98 134 171 218 268 323 394
#
# _framework density 21.541115000000001
#
# number of rings (size 3 to 8) (size 9 to 14) (size 15 to 20)
#    0.000    2.000    1.429    1.286    0.000    8.000 
#    5.143    0.000    0.000    5.143    0.000    0.000 
#    0.000    0.000    0.000    0.000    0.000    0.000 
#
# Total GULP energy -77975.429840 kJ/mol
# GULP energy per Si atom -5569.673560 kJ/mol
# Density = 2.149209 g / cm^3
# Si number density = 21.541115 Si / 1000 Ang^3
#
#
#
# Elastic Constant Matrix: (Units=GPa)
#
#
# Indices 1 2 3 4 5 6 
#
# 1 148.7001 55.6013 59.9859 0.0000 -6.7693 0.0000
# 2 55.6013 204.3517 69.8727 0.0000 9.4031 0.0000
# 3 59.9859 69.8727 91.7528 0.0000 -6.3728 0.0000
# 4 0.0000 0.0000 0.0000 42.2322 0.0000 29.6989
# 5 -6.7693 9.4031 -6.3728 0.0000 44.2366 0.0000
# 6 0.0000 0.0000 0.0000 29.6989 0.0000 150.8273
#
#
#
# Elastic Compliance Matrix: (Units=1/GPa)
#
#
# Indices 1 2 3 4 5 6 
#
# 1 0.009213 -0.000677 -0.005455 0.000000 0.000768 0.000000
# 2 -0.000677 0.006876 -0.004952 0.000000 -0.002278 0.000000
# 3 -0.005455 -0.004952 0.018435 0.000000 0.002874 0.000000
# 4 0.000000 0.000000 0.000000 0.027484 0.000000 -0.005412
# 5 0.000768 -0.002278 0.002874 0.000000 0.023622 0.000000
# 6 0.000000 0.000000 0.000000 -0.005412 0.000000 0.007696
#
#
# Mechanical properties :
#
#
# Convention : Reuss Voigt Hill
#
# Bulk Modulus (GPa) = 80.92011 90.63604 85.77808
# Shear Modulus (GPa) = 41.80185 64.74888 53.27537
#
# Velocity S-wave (km/s) = 4.40996 5.48849 4.97852
# Velocity P-wave (km/s) = 7.97354 9.07369 8.54135
#
# Compressibility (1/GPa) = 0.01235787
#
# Stress axis : x y z
#
# Youngs Moduli (GPa) = 108.53664 145.44016 54.24382
#
# Poissons Ratio (x) = 0.09849 0.29587
# Poissons Ratio (y) = 0.07350 0.26859
# Poissons Ratio (z) = 0.59202 0.72016
#
# Static dielectric constant tensor:
#      x y z
#    x 1.818780 0.000000 0.029520 
#    y 0.000000 1.821780 0.000000 
#    z 0.029520 0.000000 1.709650 
# 
# From -- ./inp_files/9903.got.cif
#   From: 2010.05.17/outbox.cif.g08.bks.cpg/sg12_5_cif.got.tgz:9903.got - 2010.06.03 13:09:07.
