data_PCOD9214759
_publ_section_title
;
Structure prediction by ZEFSAII (Michael W. Deem and Ramdas Pophale) SiO2 
 PCOD9214759
Probable space group: C 2/M
;
_chemical_formula_sum "Si O2"
_cell_formula_units_Z 40
_cell_length_a 12.335714
_cell_length_b 15.532857
_cell_length_c 9.911709
_cell_angle_alpha 90.000000
_cell_angle_beta 64.416409
_cell_angle_gamma 90.000000
_cell_volume 1712.969554
_symmetry_space_group_name_H-M "C 2/M"
_symmetry_group_IT_number 12
_symmetry_cell_setting 'monoclinic'
loop_
_space_group_symop_operation_xyz
x,y,z
-x,y,-z
-x,-y,-z
x,-y,z
1/2+x,1/2+y,z
1/2-x,1/2+y,-z
1/2-x,1/2-y,-z
1/2+x,1/2-y,z
loop_
_atom_site_type_symbol
_atom_site_label
_atom_site_fract_x
_atom_site_fract_y
_atom_site_fract_z
Si Si1 0.008638 0.398708 0.146909
Si Si2 0.100630 0.896027 0.752268
Si Si3 0.265395 0.815282 0.868222
Si Si4 0.598100 0.333520 0.330642
Si Si5 0.715342 0.098357 0.581506
O O1 0.979982 0.500000 0.151795
O O2 0.909576 0.359559 0.302925
O O3 0.141476 0.387007 0.132046
O O4 0.000000 0.361556 0.000000
O O5 0.147298 0.854400 0.864886
O O6 0.202442 0.869273 0.585536
O O7 0.973369 0.863832 0.763231
O O8 0.097916 0.000000 0.761455
O O9 0.337061 0.756806 0.723045
O O10 0.250000 0.750000 0.000000
O O11 0.500000 0.329662 0.500000
O O12 0.700364 0.397544 0.330995
O O13 0.688991 0.000000 0.556661
#
# Coordination Sequence:
#
# PCOD9214759 Si02
#       5
#     8   8   8   8   8
#     4  10  22  40  64  89 125 170 214 260 320 387
#     4  10  23  44  68  94 129 170 219 265 317 388
#     4  12  27  40  61  92 132 168 214 274 324 377
#     4  10  23  39  66  96 131 168 208 262 323 387
#     4   9  19  39  68  97 125 165 213 263 316 385
#
# _framework density 23.351262999999999
#
# number of rings (size 3 to 8) (size 9 to 14) (size 15 to 20)
#    0.000    1.800    0.000    2.400    8.400    4.000 
#    0.000    7.000    0.000    0.000    0.000    0.000 
#    0.000    0.000    0.000    0.000    0.000    0.000 
#
# Total GULP energy -111743.007866 kJ/mol
# GULP energy per Si atom -5587.150393 kJ/mol
# Density = 2.329811 g / cm^3
# Si number density = 23.351263 Si / 1000 Ang^3
#
#
#
# Elastic Constant Matrix: (Units=GPa)
#
#
# Indices 1 2 3 4 5 6 
#
# 1 101.5505 26.2791 27.9878 0.0000 27.0550 0.0000
# 2 26.2791 47.2687 8.1981 0.0000 13.2008 0.0000
# 3 27.9878 8.1981 50.3759 0.0000 14.5577 0.0000
# 4 0.0000 0.0000 0.0000 22.7764 0.0000 7.8974
# 5 27.0550 13.2008 14.5577 0.0000 39.0061 0.0000
# 6 0.0000 0.0000 0.0000 7.8974 0.0000 35.9647
#
#
#
# Elastic Compliance Matrix: (Units=1/GPa)
#
#
# Indices 1 2 3 4 5 6 
#
# 1 0.014330 -0.005327 -0.005317 0.000000 -0.006153 0.000000
# 2 -0.005327 0.025474 0.000266 0.000000 -0.005026 0.000000
# 3 -0.005317 0.000266 0.024348 0.000000 -0.005489 0.000000
# 4 0.000000 0.000000 0.000000 0.047523 0.000000 -0.010436
# 5 -0.006153 -0.005026 -0.005489 0.000000 0.033654 0.000000
# 6 0.000000 0.000000 0.000000 -0.010436 0.000000 0.030097
#
#
# Mechanical properties :
#
#
# Convention : Reuss Voigt Hill
#
# Bulk Modulus (GPa) = 23.04261 36.01390 29.52826
# Shear Modulus (GPa) = 23.73641 28.66477 26.20059
#
# Velocity S-wave (km/s) = 3.19171 3.50744 3.35329
# Velocity P-wave (km/s) = 4.84478 5.64438 5.25980
#
# Compressibility (1/GPa) = 0.04339786
#
# Stress axis : x y z
#
# Youngs Moduli (GPa) = 69.78260 39.25502 41.07178
#
# Poissons Ratio (x) = 0.20909 0.21837
# Poissons Ratio (y) = 0.37170 -0.01093
# Poissons Ratio (z) = 0.37102 -0.01044
#
# Static dielectric constant tensor:
#      x y z
#    x 1.841540 0.000000 -0.016740 
#    y 0.000000 1.885060 0.000000 
#    z -0.016740 0.000000 1.956370 
# 
# From -- ./inp_files/46957.got.cif
#   From: 2010.05.17/outbox.cif.g08.bks.cpg/sg12_24_cif.got.tgz:46957.got - 2010.06.03 13:09:07.
