data_PCOD9214644
_publ_section_title
;
Structure prediction by ZEFSAII (Michael W. Deem and Ramdas Pophale) SiO2 
 PCOD9214644
Probable space group: C 2/M
;
_chemical_formula_sum "Si O2"
_cell_formula_units_Z 46
_cell_length_a 19.260518
_cell_length_b 13.022232
_cell_length_c 23.777154
_cell_angle_alpha 90.000000
_cell_angle_beta 20.897468
_cell_angle_gamma 90.000000
_cell_volume 2127.219824
_symmetry_space_group_name_H-M "C 2/M"
_symmetry_group_IT_number 12
_symmetry_cell_setting 'monoclinic'
loop_
_space_group_symop_operation_xyz
x,y,z
-x,y,-z
-x,-y,-z
x,-y,z
1/2+x,1/2+y,z
1/2-x,1/2+y,-z
1/2-x,1/2-y,-z
1/2+x,1/2-y,z
loop_
_atom_site_type_symbol
_atom_site_label
_atom_site_fract_x
_atom_site_fract_y
_atom_site_fract_z
Si Si1 0.500000 0.217539 0.500000
Si Si2 0.052067 0.116498 0.644792
Si Si3 0.685046 0.200609 0.991284
Si Si4 0.500000 0.000000 0.000000
Si Si5 0.155853 0.886534 0.931832
Si Si6 0.072440 0.673057 0.567183
Si Si7 0.808376 0.608763 0.246075
O O1 0.568347 0.157112 0.503464
O O2 0.328087 0.294105 0.648230
O O3 0.072380 0.204432 0.582002
O O4 0.239754 0.128000 0.543267
O O5 0.859776 0.142691 0.826812
O O6 0.036258 0.000000 0.635122
O O7 0.619960 0.295186 0.001750
O O8 0.750000 0.250000 0.000000
O O9 0.499646 0.128294 0.138716
O O10 0.391593 0.087647 0.120836
O O11 0.373945 0.871654 0.743045
O O12 0.140696 0.000000 0.969415
O O13 0.000000 0.880684 0.000000
O O14 0.717643 0.500000 0.332804
#
# Coordination Sequence:
#
# PCOD9214644 Si02
#       7
#     4   8   8   2   8   8   8
#     4  12  23  38  63  94 128 160 203 258 315 358
#     4  10  22  40  63  85 119 165 203 242 308 370
#     4  11  23  39  61  89 123 158 206 257 306 364
#     4   8  24  38  64  92 122 166 202 246 314 368
#     4  10  22  40  64  87 118 166 212 255 309 371
#     4  10  23  40  60  91 123 157 202 259 305 366
#     4  10  23  38  61  94 125 159 201 253 307 370
#
# _framework density 21.624469000000001
#
# number of rings (size 3 to 8) (size 9 to 14) (size 15 to 20)
#    0.522    1.217    0.000    3.391    6.087    2.783 
#    0.000    3.478    0.000    0.522    0.000    0.000 
#    0.000    0.000    0.000    0.000    0.000    0.000 
#
# Total GULP energy -128325.615134 kJ/mol
# GULP energy per Si atom -5579.374571 kJ/mol
# Density = 2.157525 g / cm^3
# Si number density = 21.624469 Si / 1000 Ang^3
#
#
#
# Elastic Constant Matrix: (Units=GPa)
#
#
# Indices 1 2 3 4 5 6 
#
# 1 65.1517 2.3640 9.2026 0.0361 -8.9887 -0.0060
# 2 2.3640 97.8825 5.3047 0.0779 -5.5229 0.0740
# 3 9.2026 5.3047 76.3462 0.1303 -26.2577 0.1018
# 4 0.0361 0.0779 0.1303 18.4429 0.0134 -11.2347
# 5 -8.9887 -5.5229 -26.2577 0.0134 31.6178 0.0184
# 6 -0.0060 0.0740 0.1018 -11.2347 0.0184 -40.1086
#
#
#
# Elastic Compliance Matrix: (Units=1/GPa)
#
#
# Indices 1 2 3 4 5 6 
#
# 1 0.015991 -0.000127 -0.000508 -0.000027 0.004102 0.000005
# 2 -0.000127 0.010320 -0.000132 -0.000027 0.001657 0.000027
# 3 -0.000508 -0.000132 0.018353 -0.000091 0.015074 0.000079
# 4 -0.000027 -0.000027 -0.000091 0.046319 -0.000100 -0.012975
# 5 0.004102 0.001657 0.015074 -0.000100 0.045602 0.000090
# 6 0.000005 0.000027 0.000079 -0.012975 0.000090 -0.021298
#
#
# Mechanical properties :
#
#
# Convention : Reuss Voigt Hill
#
# Bulk Modulus (GPa) = 23.18531 30.34700 26.76615
# Shear Modulus (GPa) = 38.11029 16.82436 27.46733
#
# Velocity S-wave (km/s) = 4.20261 2.79233 3.56785
# Velocity P-wave (km/s) = 5.85614 4.94573 5.42008
#
# Compressibility (1/GPa) = 0.04313076
#
# Stress axis : x y z
#
# Youngs Moduli (GPa) = 62.53469 96.89877 54.48648
#
# Poissons Ratio (x) = 0.01233 0.02767
# Poissons Ratio (y) = 0.00795 0.00718
# Poissons Ratio (z) = 0.03175 0.01277
#
# Static dielectric constant tensor:
#      x y z
#    x 1.861600 -0.000040 -0.056110 
#    y -0.000040 1.785260 0.000020 
#    z -0.056110 0.000020 1.766580 
# 
# From -- ./inp_files/366164.got.cif
#   From: 2010.05.17/outbox.cif.g08.bks.cpg/sg12_184_cif.got.tgz:366164.got - 2010.06.03 13:09:07.
