data_PCOD9214954
_publ_section_title
;
Structure prediction by ZEFSAII (Michael W. Deem and Ramdas Pophale) SiO2 
 PCOD9214954
Probable space group: C 2/M
;
_chemical_formula_sum "Si O2"
_cell_formula_units_Z 44
_cell_length_a 8.740838
_cell_length_b 15.687829
_cell_length_c 17.627226
_cell_angle_alpha 90.000000
_cell_angle_beta 77.370599
_cell_angle_gamma 90.000000
_cell_volume 2358.646161
_symmetry_space_group_name_H-M "C 2/M"
_symmetry_group_IT_number 12
_symmetry_cell_setting 'monoclinic'
loop_
_space_group_symop_operation_xyz
x,y,z
-x,y,-z
-x,-y,-z
x,-y,z
1/2+x,1/2+y,z
1/2-x,1/2+y,-z
1/2-x,1/2-y,-z
1/2+x,1/2-y,z
loop_
_atom_site_type_symbol
_atom_site_label
_atom_site_fract_x
_atom_site_fract_y
_atom_site_fract_z
Si Si1 0.530735 0.146116 0.699968
Si Si2 0.055852 0.500000 0.408152
Si Si3 0.654494 0.000000 0.195103
Si Si4 0.500000 0.247573 0.000000
Si Si5 0.700034 0.653471 0.090954
Si Si6 0.320606 0.000000 0.987364
Si Si7 0.380159 0.337121 0.724615
Si Si8 0.104835 0.000000 0.693569
O O1 0.453636 0.241318 0.706948
O O2 0.715687 0.155598 0.697249
O O3 0.503866 0.085748 0.628969
O O4 0.444445 0.085200 0.771880
O O5 0.244218 0.500000 0.377804
O O6 0.000000 0.500000 0.500000
O O7 0.810325 0.000000 0.231753
O O8 0.681026 0.000000 0.102894
O O9 0.434799 0.296301 0.935352
O O10 0.637055 0.197975 0.944144
O O11 0.665787 0.646014 0.182696
O O12 0.723417 0.574468 0.034745
O O13 0.500000 0.000000 0.000000
O O14 0.501310 0.414385 0.693331
#
# Coordination Sequence:
#
# PCOD9214954 Si02
#       8
#     8   4   4   4   8   4   8   4
#     4  10  22  40  66  95 124 171 208 256 322 383
#     4  10  23  48  73 102 134 156 192 254 313 387
#     4  10  23  38  57  84 126 164 225 275 324 375
#     4  10  24  38  50  82 110 162 222 268 330 358
#     4  11  24  37  57  78 123 163 219 269 321 353
#     4  12  23  36  53  79 116 163 217 273 326 362
#     4  12  22  40  66  93 131 169 222 262 311 378
#     4  10  23  41  64  97 124 167 210 258 315 385
#
# _framework density 18.654769000000002
#
# number of rings (size 3 to 8) (size 9 to 14) (size 15 to 20)
#    0.000    1.455    0.909    6.000    7.636    0.364 
#    0.000    5.455    0.000    0.000    0.000    0.000 
#    0.000    0.000    0.000    0.000    0.000    0.000 
#
# Total GULP energy -122574.630123 kJ/mol
# GULP energy per Si atom -5571.574096 kJ/mol
# Density = 1.861231 g / cm^3
# Si number density = 18.654769 Si / 1000 Ang^3
#
#
#
# Elastic Constant Matrix: (Units=GPa)
#
#
# Indices 1 2 3 4 5 6 
#
# 1 141.9520 91.4418 44.6441 0.0000 -8.0978 0.0000
# 2 91.4418 173.6561 61.4644 0.0000 -8.1476 0.0000
# 3 44.6441 61.4644 156.5484 0.0000 -16.6379 0.0000
# 4 0.0000 0.0000 0.0000 50.6112 0.0000 23.1046
# 5 -8.0978 -8.1476 -16.6379 0.0000 17.2721 0.0000
# 6 0.0000 0.0000 0.0000 23.1046 0.0000 60.5046
#
#
#
# Elastic Compliance Matrix: (Units=1/GPa)
#
#
# Indices 1 2 3 4 5 6 
#
# 1 0.010839 -0.005339 -0.000805 0.000000 0.001788 0.000000
# 2 -0.005339 0.009325 -0.002158 0.000000 -0.000183 0.000000
# 3 -0.000805 -0.002158 0.008151 0.000000 0.006456 0.000000
# 4 0.000000 0.000000 0.000000 0.023930 0.000000 -0.009138
# 5 0.001788 -0.000183 0.006456 0.000000 0.064868 0.000000
# 6 0.000000 0.000000 0.000000 -0.009138 0.000000 0.020017
#
#
# Mechanical properties :
#
#
# Convention : Reuss Voigt Hill
#
# Bulk Modulus (GPa) = 85.38843 96.36189 90.87516
# Shear Modulus (GPa) = 31.71855 43.98467 37.85161
#
# Velocity S-wave (km/s) = 4.12793 4.86101 4.50939
# Velocity P-wave (km/s) = 8.28204 9.12543 8.71394
#
# Compressibility (1/GPa) = 0.01171119
#
# Stress axis : x y z
#
# Youngs Moduli (GPa) = 92.26176 107.23969 122.68661
#
# Poissons Ratio (x) = 0.57250 0.09875
# Poissons Ratio (y) = 0.49254 0.26478
# Poissons Ratio (z) = 0.07426 0.23144
#
# Static dielectric constant tensor:
#      x y z
#    x 1.639440 0.000000 0.040800 
#    y 0.000000 1.619480 0.000000 
#    z 0.040800 0.000000 1.510460 
# 
# From -- ./inp_files/255403.got.cif
#   From: 2010.05.17/outbox.cif.g08.bks.cpg/sg12_128_cif.got.tgz:255403.got - 2010.06.03 13:09:07.
