data_PCOD9214192
_publ_section_title
;
Structure prediction by ZEFSAII (Michael W. Deem and Ramdas Pophale) SiO2 
 PCOD9214192
Probable space group: C 2/M
;
_chemical_formula_sum "Si O2"
_cell_formula_units_Z 58
_cell_length_a 12.251391
_cell_length_b 16.675227
_cell_length_c 14.961957
_cell_angle_alpha 90.000000
_cell_angle_beta 99.091621
_cell_angle_gamma 90.000000
_cell_volume 3018.247997
_symmetry_space_group_name_H-M "C 2/M"
_symmetry_group_IT_number 12
_symmetry_cell_setting 'monoclinic'
loop_
_space_group_symop_operation_xyz
x,y,z
-x,y,-z
-x,-y,-z
x,-y,z
1/2+x,1/2+y,z
1/2-x,1/2+y,-z
1/2-x,1/2-y,-z
1/2+x,1/2-y,z
loop_
_atom_site_type_symbol
_atom_site_label
_atom_site_fract_x
_atom_site_fract_y
_atom_site_fract_z
Si Si1 0.171021 0.404397 0.261462
Si Si2 0.317357 0.640885 0.445119
Si Si3 0.524012 0.591825 0.109718
Si Si4 0.000000 0.000000 0.500000
Si Si5 0.620699 0.174023 0.551220
Si Si6 0.212049 0.845428 0.895681
Si Si7 0.255381 0.155796 0.105721
Si Si8 0.580205 0.094342 0.729679
O O1 0.177405 0.500000 0.271489
O O2 0.256945 0.366740 0.341851
O O3 0.205525 0.380579 0.166356
O O4 0.045956 0.380026 0.268213
O O5 0.405795 0.570946 0.470036
O O6 0.368482 0.729984 0.456864
O O7 0.219590 0.636353 0.506081
O O8 0.542493 0.500000 0.139911
O O9 0.412980 0.625619 0.139075
O O10 0.635913 0.641459 0.135812
O O11 0.500000 0.592731 0.000000
O O12 0.500000 0.148558 0.500000
O O13 0.628220 0.145598 0.654282
O O14 0.216145 0.749491 0.891710
O O15 0.244556 0.870684 0.000820
O O16 0.346823 0.108900 0.173033
O O17 0.581300 0.000000 0.706858
#
# Coordination Sequence:
#
# PCOD9214192 Si02
#       8
#     8   8   8   2   8   8   8   8
#     4  11  23  40  62  93 131 170 207 262 326 392
#     4  11  24  44  69 100 136 170 219 280 332 397
#     4   9  18  36  60  84 114 157 209 262 311 371
#     4  12  24  44  70 104 134 168 216 288 330 392
#     4  11  23  45  71  94 130 182 220 268 339 402
#     4  10  22  39  64  89 126 175 211 259 341 382
#     4  10  22  41  61  91 127 165 219 274 313 390
#     4  11  25  41  64  95 129 173 225 270 321 393
#
# _framework density 19.216446000000001
#
# number of rings (size 3 to 8) (size 9 to 14) (size 15 to 20)
#    0.000    1.517    2.759    1.655    2.897    2.483 
#    2.483    1.379    0.000    0.000    0.000    0.000 
#    0.000    0.000    0.000    0.000    0.000    0.000 
#
# Total GULP energy -161727.805351 kJ/mol
# GULP energy per Si atom -5576.820874 kJ/mol
# Density = 1.917271 g / cm^3
# Si number density = 19.216446 Si / 1000 Ang^3
#
#
#
# Elastic Constant Matrix: (Units=GPa)
#
#
# Indices 1 2 3 4 5 6 
#
# 1 101.2804 29.3626 45.4228 0.0000 6.8665 0.0000
# 2 29.3626 49.1897 10.5388 0.0000 1.7400 0.0000
# 3 45.4228 10.5388 70.6304 0.0000 -2.4132 0.0000
# 4 0.0000 0.0000 0.0000 214.7798 0.0000 95.6365
# 5 6.8665 1.7400 -2.4132 0.0000 29.0111 0.0000
# 6 0.0000 0.0000 0.0000 95.6365 0.0000 73.1387
#
#
#
# Elastic Compliance Matrix: (Units=1/GPa)
#
#
# Indices 1 2 3 4 5 6 
#
# 1 0.016822 -0.007788 -0.009804 0.000000 -0.004330 0.000000
# 2 -0.007788 0.024674 0.001343 0.000000 0.000475 0.000000
# 3 -0.009804 0.001343 0.020397 0.000000 0.003937 0.000000
# 4 0.000000 0.000000 0.000000 0.011145 0.000000 -0.014573
# 5 -0.004330 0.000475 0.003937 0.000000 0.035793 0.000000
# 6 0.000000 0.000000 0.000000 -0.014573 0.000000 0.032729
#
#
# Mechanical properties :
#
#
# Convention : Reuss Voigt Hill
#
# Bulk Modulus (GPa) = 34.01924 43.52766 38.77345
# Shear Modulus (GPa) = 27.19507 72.43768 49.81638
#
# Velocity S-wave (km/s) = 3.76599 6.14634 5.09707
# Velocity P-wave (km/s) = 6.05408 8.54812 7.40683
#
# Compressibility (1/GPa) = 0.02939513
#
# Stress axis : x y z
#
# Youngs Moduli (GPa) = 59.44598 40.52913 49.02563
#
# Poissons Ratio (x) = 0.31563 0.48066
# Poissons Ratio (y) = 0.46295 -0.06584
# Poissons Ratio (z) = 0.58282 -0.05443
#
# Static dielectric constant tensor:
#      x y z
#    x 1.656920 0.000000 -0.003190 
#    y 0.000000 1.647160 0.000000 
#    z -0.003190 0.000000 1.654150 
# 
# From -- ./inp_files/206208.got.cif
#   From: 2010.05.17/outbox.cif.g08.bks.cpg/sg12_104_cif.got.tgz:206208.got - 2010.06.03 13:09:07.
