data_PCOD9214447
_publ_section_title
;
Structure prediction by ZEFSAII (Michael W. Deem and Ramdas Pophale) SiO2 
 PCOD9214447
Probable space group: C 2/M
;
_chemical_formula_sum "Si O2"
_cell_formula_units_Z 36
_cell_length_a 9.155902
_cell_length_b 30.376519
_cell_length_c 8.148626
_cell_angle_alpha 90.000000
_cell_angle_beta 54.725822
_cell_angle_gamma 90.000000
_cell_volume 1850.228741
_symmetry_space_group_name_H-M "C 2/M"
_symmetry_group_IT_number 12
_symmetry_cell_setting 'monoclinic'
loop_
_space_group_symop_operation_xyz
x,y,z
-x,y,-z
-x,-y,-z
x,-y,z
1/2+x,1/2+y,z
1/2-x,1/2+y,-z
1/2-x,1/2-y,-z
1/2+x,1/2-y,z
loop_
_atom_site_type_symbol
_atom_site_label
_atom_site_fract_x
_atom_site_fract_y
_atom_site_fract_z
Si Si1 0.735791 0.611256 0.065506
Si Si2 0.425134 0.450282 0.360424
Si Si3 0.500000 0.177794 0.500000
Si Si4 0.701957 0.707426 0.927202
Si Si5 0.599235 0.102033 0.679793
O O1 0.552687 0.583749 0.181953
O O2 0.806077 0.611629 0.207384
O O3 0.716633 0.661079 0.015044
O O4 0.895087 0.589276 0.855357
O O5 0.500000 0.451022 0.500000
O O6 0.436033 0.500000 0.289751
O O7 0.222851 0.432847 0.506022
O O8 0.343422 0.204703 0.687381
O O9 0.587230 0.145775 0.579061
O O10 0.500000 0.711314 0.000000
O O11 0.750000 0.750000 0.000000
#
# Coordination Sequence:
#
# PCOD9214447 Si02
#       5
#     8   8   4   8   8
#     4   9  19  36  57  80 116 151 190 235 295 335
#     4   9  17  31  54  85 112 145 194 238 285 344
#     4  10  22  40  61  82 118 154 193 236 304 344
#     4  11  25  41  61  89 119 152 198 245 291 353
#     4   9  18  34  58  80 110 156 188 234 283 348
#
# _framework density 19.457053999999999
#
# number of rings (size 3 to 8) (size 9 to 14) (size 15 to 20)
#    0.000    2.444    0.000    1.333    6.222    1.778 
#    6.000    5.000    0.000   12.667    0.000    0.000 
#    0.000    0.000    0.000    0.000    0.000    0.000 
#
# Total GULP energy -100465.439681 kJ/mol
# GULP energy per Si atom -5581.413316 kJ/mol
# Density = 1.941277 g / cm^3
# Si number density = 19.457054 Si / 1000 Ang^3
#
#
#
# Elastic Constant Matrix: (Units=GPa)
#
#
# Indices 1 2 3 4 5 6 
#
# 1 45.5492 37.2888 43.7637 0.0000 -21.4615 0.0000
# 2 37.2888 117.9120 86.4546 0.0000 -30.5615 0.0000
# 3 43.7637 86.4546 159.1519 0.0000 -27.6708 0.0000
# 4 0.0000 0.0000 0.0000 -76.6467 0.0000 76.8246
# 5 -21.4615 -30.5615 -27.6708 0.0000 27.5915 0.0000
# 6 0.0000 0.0000 0.0000 76.8246 0.0000 -49.2546
#
#
#
# Elastic Compliance Matrix: (Units=1/GPa)
#
#
# Indices 1 2 3 4 5 6 
#
# 1 0.040295 -0.002718 -0.005666 0.000000 0.022650 0.000000
# 2 -0.002718 0.016750 -0.006654 0.000000 0.009766 0.000000
# 3 -0.005666 -0.006654 0.011395 0.000000 -0.000349 0.000000
# 4 0.000000 0.000000 0.000000 0.023159 0.000000 0.036122
# 5 0.022650 0.009766 -0.000349 0.000000 0.064328 0.000000
# 6 0.000000 0.000000 0.000000 0.036122 0.000000 0.036038
#
#
# Mechanical properties :
#
#
# Convention : Reuss Voigt Hill
#
# Bulk Modulus (GPa) = 26.06530 73.06970 49.56750
# Shear Modulus (GPa) = 21.29203 -9.32155 5.98524
#
# Velocity S-wave (km/s) = 3.31162 -2.19117 1.75579
# Velocity P-wave (km/s) = 5.29602 5.58876 5.44436
#
# Compressibility (1/GPa) = 0.03836519
#
# Stress axis : x y z
#
# Youngs Moduli (GPa) = 24.81682 59.69998 87.75770
#
# Poissons Ratio (x) = 0.16228 0.49722
# Poissons Ratio (y) = 0.06746 0.58391
# Poissons Ratio (z) = 0.14061 0.39723
#
# Static dielectric constant tensor:
#      x y z
#    x 1.674720 0.000000 0.003010 
#    y 0.000000 1.649530 0.000000 
#    z 0.003010 0.000000 1.695820 
# 
# From -- ./inp_files/41323.got.cif
#   From: 2010.05.17/outbox.cif.g08.bks.cpg/sg12_21_cif.got.tgz:41323.got - 2010.06.03 13:09:07.
