data_PCOD9214107
_publ_section_title
;
Structure prediction by ZEFSAII (Michael W. Deem and Ramdas Pophale) SiO2 
 PCOD9214107
Probable space group: C 2/M
;
_chemical_formula_sum "Si O2"
_cell_formula_units_Z 42
_cell_length_a 13.193187
_cell_length_b 12.542869
_cell_length_c 12.155467
_cell_angle_alpha 90.000000
_cell_angle_beta 68.198350
_cell_angle_gamma 90.000000
_cell_volume 1867.620057
_symmetry_space_group_name_H-M "C 2/M"
_symmetry_group_IT_number 12
_symmetry_cell_setting 'monoclinic'
loop_
_space_group_symop_operation_xyz
x,y,z
-x,y,-z
-x,-y,-z
x,-y,z
1/2+x,1/2+y,z
1/2-x,1/2+y,-z
1/2-x,1/2-y,-z
1/2+x,1/2-y,z
loop_
_atom_site_type_symbol
_atom_site_label
_atom_site_fract_x
_atom_site_fract_y
_atom_site_fract_z
Si Si1 0.685806 0.879616 0.512254
Si Si2 0.262909 0.725229 0.685869
Si Si3 0.197566 0.623777 0.935319
Si Si4 0.489983 0.295838 0.348907
Si Si5 0.000000 0.000000 0.500000
Si Si6 0.565764 0.304823 0.081420
O O1 0.754215 0.829536 0.383536
O O2 0.751883 0.869454 0.600399
O O3 0.585838 0.799186 0.575945
O O4 0.653955 0.000000 0.503866
O O5 0.198741 0.689332 0.819924
O O6 0.385467 0.737211 0.677874
O O7 0.174848 0.500000 0.926029
O O8 0.319170 0.635214 0.939490
O O9 0.108266 0.683558 0.045121
O O10 0.475869 0.406014 0.417750
O O11 0.488987 0.310506 0.218383
O O12 0.500000 0.340774 0.000000
#
# Coordination Sequence:
#
# PCOD9214107 Si02
#       6
#     8   8   8   8   2   8
#     4  11  23  39  64  97 131 165 218 275 326 374
#     4  10  22  39  62  94 125 172 218 257 317 398
#     4  10  22  41  65  89 126 170 212 259 319 388
#     4  11  24  41  68  93 129 172 219 260 320 392
#     4  12  24  44  68  92 128 182 218 252 316 408
#     4  10  23  41  63  95 128 157 213 267 316 376
#
# _framework density 22.488513000000001
#
# number of rings (size 3 to 8) (size 9 to 14) (size 15 to 20)
#    0.000    1.524    1.905    1.714    6.667    3.048 
#    0.000    7.619    0.000    0.000    0.000    0.000 
#    0.000    0.000    0.000    0.000    0.000    0.000 
#
# Total GULP energy -117063.297897 kJ/mol
# GULP energy per Si atom -5574.442757 kJ/mol
# Density = 2.243733 g / cm^3
# Si number density = 22.488513 Si / 1000 Ang^3
#
#
#
# Elastic Constant Matrix: (Units=GPa)
#
#
# Indices 1 2 3 4 5 6 
#
# 1 65.1368 22.3371 43.2186 0.0000 8.8060 0.0000
# 2 22.3371 175.9093 76.2875 0.0000 -11.4747 0.0000
# 3 43.2186 76.2875 185.2949 0.0000 11.9335 0.0000
# 4 0.0000 0.0000 0.0000 13.3320 0.0000 9.0736
# 5 8.8060 -11.4747 11.9335 0.0000 47.8179 0.0000
# 6 0.0000 0.0000 0.0000 9.0736 0.0000 6.0484
#
#
#
# Elastic Compliance Matrix: (Units=1/GPa)
#
#
# Indices 1 2 3 4 5 6 
#
# 1 0.018530 -0.000887 -0.003784 0.000000 -0.002681 0.000000
# 2 -0.000887 0.007247 -0.002947 0.000000 0.002638 0.000000
# 3 -0.003784 -0.002947 0.007616 0.000000 -0.001911 0.000000
# 4 0.000000 0.000000 0.000000 -3.571876 0.000000 5.358439
# 5 -0.002681 0.002638 -0.001911 0.000000 0.022516 0.000000
# 6 0.000000 0.000000 0.000000 5.358439 0.000000 -7.873264
#
#
# Mechanical properties :
#
#
# Convention : Reuss Voigt Hill
#
# Bulk Modulus (GPa) = 55.07436 78.89194 66.98315
# Shear Modulus (GPa) = -0.43983 32.40618 15.98317
#
# Velocity S-wave (km/s) = -0.44273 3.80018 2.66884
# Velocity P-wave (km/s) = 4.92766 7.37647 6.27272
#
# Compressibility (1/GPa) = 0.01815727
#
# Stress axis : x y z
#
# Youngs Moduli (GPa) = 53.96771 137.98055 131.30669
#
# Poissons Ratio (x) = 0.12234 0.49689
# Poissons Ratio (y) = 0.04785 0.38695
# Poissons Ratio (z) = 0.20422 0.40661
#
# Static dielectric constant tensor:
#      x y z
#    x 1.976300 0.000000 0.010510 
#    y 0.000000 1.760440 0.000000 
#    z 0.010510 0.000000 1.864990 
# 
# From -- ./inp_files/140946.got.cif
#   From: 2010.05.17/outbox.cif.g08.bks.cpg/sg12_71_cif.got.tgz:140946.got - 2010.06.03 13:09:07.
