data_PCOD9214242
_publ_section_title
;
Structure prediction by ZEFSAII (Michael W. Deem and Ramdas Pophale) SiO2 
 PCOD9214242
Probable space group: C 2/M
;
_chemical_formula_sum "Si O2"
_cell_formula_units_Z 36
_cell_length_a 15.364931
_cell_length_b 10.836686
_cell_length_c 20.986331
_cell_angle_alpha 90.000000
_cell_angle_beta 28.976288
_cell_angle_gamma 90.000000
_cell_volume 1692.818687
_symmetry_space_group_name_H-M "C 2/M"
_symmetry_group_IT_number 12
_symmetry_cell_setting 'monoclinic'
loop_
_space_group_symop_operation_xyz
x,y,z
-x,y,-z
-x,-y,-z
x,-y,z
1/2+x,1/2+y,z
1/2-x,1/2+y,-z
1/2-x,1/2-y,-z
1/2+x,1/2-y,z
loop_
_atom_site_type_symbol
_atom_site_label
_atom_site_fract_x
_atom_site_fract_y
_atom_site_fract_z
Si Si1 0.551928 0.640191 0.090191
Si Si2 0.040865 0.500000 0.399479
Si Si3 0.735970 0.747962 0.229912
Si Si4 0.929759 0.000000 0.616205
Si Si5 0.430712 0.787261 0.798577
Si Si6 0.178921 0.500000 0.583533
O O1 0.495562 0.500000 0.117223
O O2 0.444998 0.725097 0.108782
O O3 0.505903 0.687420 0.190549
O O4 0.764843 0.646375 0.941027
O O5 0.143297 0.372637 0.316638
O O6 0.000000 0.500000 0.500000
O O7 0.875020 0.500000 0.456091
O O8 0.681356 0.623763 0.300545
O O9 0.661472 0.735272 0.206160
O O10 0.109104 0.000000 0.544113
O O11 0.000000 0.000000 0.500000
O O12 0.585052 0.881597 0.677426
#
# Coordination Sequence:
#
# PCOD9214242 Si02
#       6
#     8   4   8   4   8   4
#     4  11  22  41  70  97 132 170 216 272 326 395
#     4  10  22  39  65  93 122 168 231 270 313 384
#     4  11  24  42  65  98 131 174 218 268 330 385
#     4  12  26  42  63  90 137 180 215 264 327 388
#     4  10  23  40  67 101 127 169 218 273 328 386
#     4  10  22  43  65  89 136 174 213 264 330 386
#
# _framework density 21.266306
#
# number of rings (size 3 to 8) (size 9 to 14) (size 15 to 20)
#    0.000    1.333    2.222    2.667    1.556    6.222 
#    2.000    1.111    0.000    0.000    0.000    0.000 
#    0.000    0.000    0.000    0.000    0.000    0.000 
#
# Total GULP energy -100576.432289 kJ/mol
# GULP energy per Si atom -5587.579572 kJ/mol
# Density = 2.121790 g / cm^3
# Si number density = 21.266306 Si / 1000 Ang^3
#
#
#
# Elastic Constant Matrix: (Units=GPa)
#
#
# Indices 1 2 3 4 5 6 
#
# 1 64.5086 17.5950 18.8385 -0.0029 12.4813 -0.0001
# 2 17.5950 124.6936 31.4452 0.0002 -0.3765 0.0007
# 3 18.8385 31.4452 43.6559 -0.0013 -5.3170 0.0010
# 4 -0.0029 0.0002 -0.0013 11.3938 -0.0003 -12.5218
# 5 12.4813 -0.3765 -5.3170 -0.0003 49.4761 0.0000
# 6 -0.0001 0.0007 0.0010 -12.5218 0.0000 26.6037
#
#
#
# Elastic Compliance Matrix: (Units=1/GPa)
#
#
# Indices 1 2 3 4 5 6 
#
# 1 0.019297 -0.000565 -0.008627 0.000009 -0.005799 0.000005
# 2 -0.000565 0.009840 -0.006908 -0.000002 -0.000525 -0.000001
# 3 -0.008627 -0.006908 0.032286 0.000001 0.005593 -0.000001
# 4 0.000009 -0.000002 0.000001 0.181815 -0.000001 0.085576
# 5 -0.005799 -0.000525 0.005593 -0.000001 0.022272 -0.000001
# 6 0.000005 -0.000001 -0.000001 0.085576 -0.000001 0.077868
#
#
# Mechanical properties :
#
#
# Convention : Reuss Voigt Hill
#
# Bulk Modulus (GPa) = 34.21811 40.95728 37.58769
# Shear Modulus (GPa) = 12.97633 28.49337 20.73485
#
# Velocity S-wave (km/s) = 2.47287 3.66435 3.12590
# Velocity P-wave (km/s) = 4.92734 6.09953 5.54450
#
# Compressibility (1/GPa) = 0.02922429
#
# Stress axis : x y z
#
# Youngs Moduli (GPa) = 51.82096 101.62828 30.97343
#
# Poissons Ratio (x) = 0.05742 0.26719
# Poissons Ratio (y) = 0.02928 0.21395
# Poissons Ratio (z) = 0.44703 0.70202
#
# Static dielectric constant tensor:
#      x y z
#    x 1.817580 0.000000 -0.046790 
#    y 0.000000 1.747450 0.000000 
#    z -0.046790 0.000000 1.786370 
# 
# From -- ./inp_files/232745.got.cif
#   From: 2010.05.17/outbox.cif.g08.bks.cpg/sg12_117_cif.got.tgz:232745.got - 2010.06.03 13:09:07.
