data_PCOD9214791
_publ_section_title
;
Structure prediction by ZEFSAII (Michael W. Deem and Ramdas Pophale) SiO2 
 PCOD9214791
Probable space group: C 2/M
;
_chemical_formula_sum "Si O2"
_cell_formula_units_Z 64
_cell_length_a 28.745498
_cell_length_b 14.206114
_cell_length_c 11.260071
_cell_angle_alpha 90.000000
_cell_angle_beta 140.524389
_cell_angle_gamma 90.000000
_cell_volume 2923.293559
_symmetry_space_group_name_H-M "C 2/M"
_symmetry_group_IT_number 12
_symmetry_cell_setting 'monoclinic'
loop_
_space_group_symop_operation_xyz
x,y,z
-x,y,-z
-x,-y,-z
x,-y,z
1/2+x,1/2+y,z
1/2-x,1/2+y,-z
1/2-x,1/2-y,-z
1/2+x,1/2-y,z
loop_
_atom_site_type_symbol
_atom_site_label
_atom_site_fract_x
_atom_site_fract_y
_atom_site_fract_z
Si Si1 0.063535 0.228571 0.294457
Si Si2 0.417295 0.610301 0.983561
Si Si3 0.676749 0.893892 0.136446
Si Si4 0.085810 0.394534 0.163081
Si Si5 0.198870 0.837061 0.447864
Si Si6 0.068671 0.718074 0.571972
Si Si7 0.629202 0.610871 0.834702
Si Si8 0.291647 0.886753 0.064967
O O1 0.096017 0.314987 0.280487
O O2 0.135291 0.164783 0.423856
O O3 0.050958 0.263861 0.401297
O O4 0.989859 0.174674 0.108495
O O5 0.437848 0.500000 0.010896
O O6 0.349838 0.630393 0.760822
O O7 0.388731 0.624366 0.061901
O O8 0.609515 0.854605 0.081091
O O9 0.739818 0.894378 0.359767
O O10 0.653888 0.000000 0.062999
O O11 0.700603 0.852389 0.057454
O O12 0.117417 0.500000 0.245943
O O13 0.000000 0.406077 0.000000
O O14 0.250000 0.750000 0.500000
O O15 0.081868 0.817558 0.663865
O O16 0.142156 0.658712 0.732913
O O17 0.000000 0.669488 0.500000
O O18 0.616711 0.500000 0.782085
O O19 0.713057 0.634542 0.966562
O O20 0.297318 0.000000 0.078459
#
# Coordination Sequence:
#
# PCOD9214791 Si02
#       8
#     8   8   8   8   8   8   8   8
#     4  12  26  44  66  98 136 182 225 277 338 403
#     4  11  26  47  72  99 138 182 226 281 339 403
#     4  10  22  42  67  97 132 175 226 278 339 403
#     4  10  22  40  64  92 130 178 223 275 336 403
#     4  12  25  39  67 102 134 172 225 279 336 398
#     4  12  26  41  67 100 135 176 228 278 332 400
#     4  10  23  46  72  97 131 178 227 276 334 402
#     4  10  24  44  70  99 136 180 221 276 340 402
#
# _framework density 21.893113
#
# number of rings (size 3 to 8) (size 9 to 14) (size 15 to 20)
#    0.000    1.125    2.500    2.625    5.250    3.000 
#    0.000    0.000    0.000    0.000    0.000    0.000 
#    0.000    0.000    0.000    0.000    0.000    0.000 
#
# Total GULP energy -178470.934943 kJ/mol
# GULP energy per Si atom -5577.216717 kJ/mol
# Density = 2.184328 g / cm^3
# Si number density = 21.893113 Si / 1000 Ang^3
#
#
#
# Elastic Constant Matrix: (Units=GPa)
#
#
# Indices 1 2 3 4 5 6 
#
# 1 148.7341 29.7442 36.6015 0.0000 7.4982 0.0000
# 2 29.7442 59.4466 24.2999 0.0000 5.3090 0.0000
# 3 36.6015 24.2999 89.4062 0.0000 15.0612 0.0000
# 4 0.0000 0.0000 0.0000 11.3359 0.0000 -8.9373
# 5 7.4982 5.3090 15.0612 0.0000 44.0116 0.0000
# 6 0.0000 0.0000 0.0000 -8.9373 0.0000 22.5822
#
#
#
# Elastic Compliance Matrix: (Units=1/GPa)
#
#
# Indices 1 2 3 4 5 6 
#
# 1 0.007917 -0.002962 -0.002408 0.000000 -0.000168 0.000000
# 2 -0.002962 0.020045 -0.004153 0.000000 -0.000492 0.000000
# 3 -0.002408 -0.004153 0.013950 0.000000 -0.003863 0.000000
# 4 0.000000 0.000000 0.000000 0.128225 0.000000 0.050747
# 5 -0.000168 -0.000492 -0.003863 0.000000 0.024131 0.000000
# 6 0.000000 0.000000 0.000000 0.050747 0.000000 0.064367
#
#
# Mechanical properties :
#
#
# Convention : Reuss Voigt Hill
#
# Bulk Modulus (GPa) = 43.73060 53.20867 48.46964
# Shear Modulus (GPa) = 17.52532 29.38204 23.45368
#
# Velocity S-wave (km/s) = 2.83237 3.66740 3.27659
# Velocity P-wave (km/s) = 5.54206 6.50305 6.04169
#
# Compressibility (1/GPa) = 0.02286728
#
# Stress axis : x y z
#
# Youngs Moduli (GPa) = 126.31523 49.88705 71.68492
#
# Poissons Ratio (x) = 0.14776 0.17260
# Poissons Ratio (y) = 0.37414 0.29768
# Poissons Ratio (z) = 0.30413 0.20716
#
# Static dielectric constant tensor:
#      x y z
#    x 1.799790 0.000000 -0.020700 
#    y 0.000000 2.074690 0.000000 
#    z -0.020700 0.000000 1.740670 
# 
# From -- ./inp_files/183826.got.cif
#   From: 2010.05.17/outbox.cif.g08.bks.cpg/sg12_92_cif.got.tgz:183826.got - 2010.06.03 13:09:07.
