data_PCOD9214852
_publ_section_title
;
Structure prediction by ZEFSAII (Michael W. Deem and Ramdas Pophale) SiO2 
 PCOD9214852
Probable space group: C 2/M
;
_chemical_formula_sum "Si O2"
_cell_formula_units_Z 40
_cell_length_a 24.392950
_cell_length_b 13.534657
_cell_length_c 5.002402
_cell_angle_alpha 90.000000
_cell_angle_beta 96.042909
_cell_angle_gamma 90.000000
_cell_volume 1642.367001
_symmetry_space_group_name_H-M "C 2/M"
_symmetry_group_IT_number 12
_symmetry_cell_setting 'monoclinic'
loop_
_space_group_symop_operation_xyz
x,y,z
-x,y,-z
-x,-y,-z
x,-y,z
1/2+x,1/2+y,z
1/2-x,1/2+y,-z
1/2-x,1/2-y,-z
1/2+x,1/2-y,z
loop_
_atom_site_type_symbol
_atom_site_label
_atom_site_fract_x
_atom_site_fract_y
_atom_site_fract_z
Si Si1 0.218766 0.112735 0.515406
Si Si2 0.963188 0.176767 0.213512
Si Si3 0.943313 0.606997 0.311379
Si Si4 0.658490 0.306932 0.970983
Si Si5 0.156522 0.613284 0.319704
O O1 0.184113 0.134812 0.233713
O O2 0.284068 0.124170 0.510351
O O3 0.208926 0.000000 0.596578
O O4 0.199367 0.182956 0.744328
O O5 0.953888 0.293966 0.153843
O O6 0.000000 0.166406 0.500000
O O7 0.899344 0.145957 0.163327
O O8 0.000000 0.131847 0.000000
O O9 0.935531 0.500000 0.171939
O O10 0.000000 0.598643 0.500000
O O11 0.893468 0.624903 0.495517
O O12 0.653235 0.195554 0.086765
O O13 0.155849 0.500000 0.220515
#
# Coordination Sequence:
#
# PCOD9214852 Si02
#       5
#     8   8   8   8   8
#     4  11  25  44  67  96 131 172 223 278 329 384
#     4  11  23  40  63  93 127 168 218 271 329 388
#     4   9  18  35  58  88 130 175 215 254 304 377
#     4  12  23  43  70  95 130 175 219 268 331 393
#     4  10  22  40  65 101 140 177 218 263 317 390
#
# _framework density 24.355090000000001
#
# number of rings (size 3 to 8) (size 9 to 14) (size 15 to 20)
#    0.000    1.400    0.000    6.600    0.000    2.800 
#    0.000    7.000    0.000   12.000    0.000    0.000 
#    0.000    0.000    0.000    0.000    0.000    0.000 
#
# Total GULP energy -111844.412391 kJ/mol
# GULP energy per Si atom -5592.220620 kJ/mol
# Density = 2.429966 g / cm^3
# Si number density = 24.355090 Si / 1000 Ang^3
#
#
#
# Elastic Constant Matrix: (Units=GPa)
#
#
# Indices 1 2 3 4 5 6 
#
# 1 174.2494 36.5969 49.7804 0.0000 21.6571 0.0000
# 2 36.5969 77.3561 30.2040 0.0000 -3.6818 0.0000
# 3 49.7804 30.2040 126.0038 0.0000 30.5144 0.0000
# 4 0.0000 0.0000 0.0000 9.8145 0.0000 0.7039
# 5 21.6571 -3.6818 30.5144 0.0000 37.8097 0.0000
# 6 0.0000 0.0000 0.0000 0.7039 0.0000 40.2102
#
#
#
# Elastic Compliance Matrix: (Units=1/GPa)
#
#
# Indices 1 2 3 4 5 6 
#
# 1 0.007164 -0.003047 -0.001285 0.000000 -0.003363 0.000000
# 2 -0.003047 0.016416 -0.004401 0.000000 0.006896 0.000000
# 3 -0.001285 -0.004401 0.011714 0.000000 -0.009146 0.000000
# 4 0.000000 0.000000 0.000000 0.102018 0.000000 -0.001786
# 5 -0.003363 0.006896 -0.009146 0.000000 0.036427 0.000000
# 6 0.000000 0.000000 0.000000 -0.001786 0.000000 0.024901
#
#
# Mechanical properties :
#
#
# Convention : Reuss Voigt Hill
#
# Bulk Modulus (GPa) = 56.09804 67.86353 61.98078
# Shear Modulus (GPa) = 22.51753 34.96876 28.74314
#
# Velocity S-wave (km/s) = 3.04394 3.79329 3.43909
# Velocity P-wave (km/s) = 5.95294 6.86368 6.42447
#
# Compressibility (1/GPa) = 0.01782594
#
# Stress axis : x y z
#
# Youngs Moduli (GPa) = 139.58387 60.91784 85.36830
#
# Poissons Ratio (x) = 0.18565 0.10974
# Poissons Ratio (y) = 0.42538 0.37570
# Poissons Ratio (z) = 0.17943 0.26810
#
# Static dielectric constant tensor:
#      x y z
#    x 1.953390 0.000000 0.063810 
#    y 0.000000 2.001880 0.000000 
#    z 0.063810 0.000000 1.903780 
# 
# From -- ./inp_files/24064.got.cif
#   From: 2010.05.17/outbox.cif.g08.bks.cpg/sg12_13_cif.got.tgz:24064.got - 2010.06.03 13:09:07.
