data_PCOD9214845
_publ_section_title
;
Structure prediction by ZEFSAII (Michael W. Deem and Ramdas Pophale) SiO2 
 PCOD9214845
Probable space group: C 2/M
;
_chemical_formula_sum "Si O2"
_cell_formula_units_Z 56
_cell_length_a 21.087902
_cell_length_b 30.213084
_cell_length_c 8.572390
_cell_angle_alpha 90.000000
_cell_angle_beta 149.277280
_cell_angle_gamma 90.000000
_cell_volume 2790.310424
_symmetry_space_group_name_H-M "C 2/M"
_symmetry_group_IT_number 12
_symmetry_cell_setting 'monoclinic'
loop_
_space_group_symop_operation_xyz
x,y,z
-x,y,-z
-x,-y,-z
x,-y,z
1/2+x,1/2+y,z
1/2-x,1/2+y,-z
1/2-x,1/2-y,-z
1/2+x,1/2-y,z
loop_
_atom_site_type_symbol
_atom_site_label
_atom_site_fract_x
_atom_site_fract_y
_atom_site_fract_z
Si Si1 0.534331 0.833606 0.755048
Si Si2 0.800730 0.000000 0.469506
Si Si3 0.419250 0.500000 0.060849
Si Si4 0.633505 0.412578 0.853608
Si Si5 0.737172 0.088775 0.191034
Si Si6 0.272444 0.762050 0.729979
Si Si7 0.630675 0.339976 0.359074
Si Si8 0.265786 0.164028 0.323126
O O1 0.500000 0.827495 0.500000
O O2 0.410083 0.841508 0.590362
O O3 0.625305 0.876032 0.960338
O O4 0.605625 0.790280 0.971688
O O5 0.845561 0.000000 0.742295
O O6 0.725921 0.956104 0.264169
O O7 0.932094 0.000000 0.653270
O O8 0.384043 0.456189 0.080533
O O9 0.500000 0.401264 0.500000
O O10 0.728631 0.421806 0.913982
O O11 0.686661 0.371915 0.063840
O O12 0.853816 0.115663 0.510696
O O13 0.250000 0.750000 0.500000
O O14 0.162406 0.797151 0.530654
O O15 0.268105 0.714245 0.799382
O O16 0.731778 0.341895 0.433150
O O17 0.500000 0.335293 0.000000
#
# Coordination Sequence:
#
# PCOD9214845 Si02
#       8
#     8   4   4   8   8   8   8   8
#     4  11  24  46  64  96 139 177 232 273 338 402
#     4  11  23  42  67  97 134 169 220 278 337 396
#     4  11  24  39  67  99 131 169 215 281 342 409
#     4  12  22  40  64  98 132 169 220 273 344 405
#     4  11  23  41  65  96 132 175 215 276 330 400
#     4   9  23  40  65  96 128 180 229 276 330 393
#     4  10  22  40  64  98 133 169 226 277 331 396
#     4  11  24  41  68  92 134 185 216 280 332 393
#
# _framework density 20.069451000000001
#
# number of rings (size 3 to 8) (size 9 to 14) (size 15 to 20)
#    0.000    1.286    2.857    2.357    6.000    5.714 
#    0.000    1.071    0.000    1.714    0.000    0.000 
#    0.000    0.000    0.000    0.000    0.000    0.000 
#
# Total GULP energy -156441.140100 kJ/mol
# GULP energy per Si atom -5587.183575 kJ/mol
# Density = 2.002377 g / cm^3
# Si number density = 20.069451 Si / 1000 Ang^3
#
#
#
# Elastic Constant Matrix: (Units=GPa)
#
#
# Indices 1 2 3 4 5 6 
#
# 1 90.5306 20.8288 38.8486 0.0000 9.8900 0.0000
# 2 20.8288 142.6118 77.8483 0.0000 -6.5749 0.0000
# 3 38.8486 77.8483 111.7699 0.0000 0.7988 0.0000
# 4 0.0000 0.0000 0.0000 31.8632 0.0000 -13.2781
# 5 9.8900 -6.5749 0.7988 0.0000 30.8547 0.0000
# 6 0.0000 0.0000 0.0000 -13.2781 0.0000 5.9745
#
#
#
# Elastic Compliance Matrix: (Units=1/GPa)
#
#
# Indices 1 2 3 4 5 6 
#
# 1 0.013541 0.000626 -0.005113 0.000000 -0.004075 0.000000
# 2 0.000626 0.011557 -0.008285 0.000000 0.002477 0.000000
# 3 -0.005113 -0.008285 0.016499 0.000000 -0.000554 0.000000
# 4 0.000000 0.000000 0.000000 0.424970 0.000000 0.944482
# 5 -0.004075 0.002477 -0.000554 0.000000 0.034258 0.000000
# 6 0.000000 0.000000 0.000000 0.944482 0.000000 2.266456
#
#
# Mechanical properties :
#
#
# Convention : Reuss Voigt Hill
#
# Bulk Modulus (GPa) = 62.29658 68.88484 65.59071
# Shear Modulus (GPa) = 1.78688 27.56423 14.67555
#
# Velocity S-wave (km/s) = 0.94461 3.71002 2.70708
# Velocity P-wave (km/s) = 5.68310 7.26292 6.52103
#
# Compressibility (1/GPa) = 0.01605224
#
# Stress axis : x y z
#
# Youngs Moduli (GPa) = 73.84743 86.52453 60.61085
#
# Poissons Ratio (x) = -0.05413 0.30992
# Poissons Ratio (y) = -0.04620 0.50216
# Poissons Ratio (z) = 0.37760 0.71685
#
# Static dielectric constant tensor:
#      x y z
#    x 1.733950 0.000000 -0.004310 
#    y 0.000000 1.727080 0.000000 
#    z -0.004310 0.000000 1.708660 
# 
# From -- ./inp_files/91671.got.cif
#   From: 2010.05.17/outbox.cif.g08.bks.cpg/sg12_46_cif.got.tgz:91671.got - 2010.06.03 13:09:07.
