data_PCOD9214709
_publ_section_title
;
Structure prediction by ZEFSAII (Michael W. Deem and Ramdas Pophale) SiO2 
 PCOD9214709
Probable space group: C 2/M
;
_chemical_formula_sum "Si O2"
_cell_formula_units_Z 32
_cell_length_a 15.443110
_cell_length_b 24.882860
_cell_length_c 10.473933
_cell_angle_alpha 90.000000
_cell_angle_beta 24.104876
_cell_angle_gamma 90.000000
_cell_volume 1643.763169
_symmetry_space_group_name_H-M "C 2/M"
_symmetry_group_IT_number 12
_symmetry_cell_setting 'monoclinic'
loop_
_space_group_symop_operation_xyz
x,y,z
-x,y,-z
-x,-y,-z
x,-y,z
1/2+x,1/2+y,z
1/2-x,1/2+y,-z
1/2-x,1/2-y,-z
1/2+x,1/2-y,z
loop_
_atom_site_type_symbol
_atom_site_label
_atom_site_fract_x
_atom_site_fract_y
_atom_site_fract_z
Si Si1 0.086420 0.701668 0.242249
Si Si2 0.186408 0.163527 0.644194
Si Si3 0.526260 0.358531 0.320134
Si Si4 0.282056 0.937100 0.370486
O O1 0.000000 0.706114 0.500000
O O2 0.889811 0.697177 0.411218
O O3 0.250000 0.750000 0.000000
O O4 0.227831 0.647624 0.041555
O O5 0.261114 0.101500 0.521975
O O6 0.096758 0.175730 0.623173
O O7 0.000000 0.167729 0.000000
O O8 0.500000 0.339880 0.500000
O O9 0.414425 0.416112 0.451941
O O10 0.272002 0.000000 0.411184
O O11 0.500000 0.925612 0.000000
#
# Coordination Sequence:
#
# PCOD9214709 Si02
#       4
#     8   8   8   8
#     4  12  24  42  63  93 124 162 212 260 312 375
#     4  10  22  43  63  90 130 164 203 261 313 362
#     4  10  22  40  63  93 127 167 206 257 305 370
#     4   9  19  37  64  93 127 166 209 253 308 368
#
# _framework density 19.467524000000001
#
# number of rings (size 3 to 8) (size 9 to 14) (size 15 to 20)
#    1.500    0.250    2.500    2.250    0.000    2.000 
#    0.000    1.250    0.000    3.000    0.000    0.000 
#    0.000    0.000    0.000    0.000    0.000    0.000 
#
# Total GULP energy -89079.926727 kJ/mol
# GULP energy per Si atom -5567.495420 kJ/mol
# Density = 1.942322 g / cm^3
# Si number density = 19.467524 Si / 1000 Ang^3
#
#
#
# Elastic Constant Matrix: (Units=GPa)
#
#
# Indices 1 2 3 4 5 6 
#
# 1 146.8370 19.3268 48.5010 0.0063 -8.4117 0.0165
# 2 19.3268 85.7848 51.9258 0.0000 1.5599 0.0011
# 3 48.5010 51.9258 130.7697 -0.0236 -1.0167 -0.1057
# 4 0.0063 0.0000 -0.0236 26.6392 0.0057 -40.5588
# 5 -8.4117 1.5599 -1.0167 0.0057 38.4688 0.0257
# 6 0.0165 0.0011 -0.1057 -40.5588 0.0257 -155.6094
#
#
#
# Elastic Compliance Matrix: (Units=1/GPa)
#
#
# Indices 1 2 3 4 5 6 
#
# 1 0.007864 -0.000058 -0.002881 0.000000 0.001646 0.000003
# 2 -0.000058 0.015369 -0.006088 0.000001 -0.000797 0.000004
# 3 -0.002881 -0.006088 0.011132 -0.000001 -0.000089 -0.000008
# 4 0.000000 0.000001 -0.000001 0.026874 0.000001 -0.007005
# 5 0.001646 -0.000797 -0.000089 0.000001 0.026385 0.000004
# 6 0.000003 0.000004 -0.000008 -0.007005 0.000004 -0.004601
#
#
# Mechanical properties :
#
#
# Convention : Reuss Voigt Hill
#
# Bulk Modulus (GPa) = 61.30183 66.98875 64.14529
# Shear Modulus (GPa) = 46.94238 -1.85775 22.54231
#
# Velocity S-wave (km/s) = 4.91584 -0.97793 3.40655
# Velocity P-wave (km/s) = 7.98613 5.76282 6.96378
#
# Compressibility (1/GPa) = 0.01631273
#
# Stress axis : x y z
#
# Youngs Moduli (GPa) = 127.16651 65.06416 89.83068
#
# Poissons Ratio (x) = 0.00376 0.25878
# Poissons Ratio (y) = 0.00735 0.54686
# Poissons Ratio (z) = 0.36634 0.39609
#
# Static dielectric constant tensor:
#      x y z
#    x 1.680180 0.000000 -0.033670 
#    y 0.000000 1.726360 0.000000 
#    z -0.033670 0.000000 1.679530 
# 
# From -- ./inp_files/123257.got.cif
#   From: 2010.05.17/outbox.cif.g08.bks.cpg/sg12_62_cif.got.tgz:123257.got - 2010.06.03 13:09:07.
