data_PCOD9214624
_publ_section_title
;
Structure prediction by ZEFSAII (Michael W. Deem and Ramdas Pophale) SiO2 
 PCOD9214624
Probable space group: C 2/M
;
_chemical_formula_sum "Si O2"
_cell_formula_units_Z 40
_cell_length_a 8.321942
_cell_length_b 18.919713
_cell_length_c 11.072847
_cell_angle_alpha 90.000000
_cell_angle_beta 91.760962
_cell_angle_gamma 90.000000
_cell_volume 1742.582607
_symmetry_space_group_name_H-M "C 2/M"
_symmetry_group_IT_number 12
_symmetry_cell_setting 'monoclinic'
loop_
_space_group_symop_operation_xyz
x,y,z
-x,y,-z
-x,-y,-z
x,-y,z
1/2+x,1/2+y,z
1/2-x,1/2+y,-z
1/2-x,1/2-y,-z
1/2+x,1/2-y,z
loop_
_atom_site_type_symbol
_atom_site_label
_atom_site_fract_x
_atom_site_fract_y
_atom_site_fract_z
Si Si1 0.523869 0.796017 0.825469
Si Si2 0.332102 0.183862 0.434587
Si Si3 0.265453 0.920852 0.071305
Si Si4 0.663213 0.651868 0.833818
Si Si5 0.077444 0.080522 0.321759
O O1 0.608023 0.794621 0.697060
O O2 0.612509 0.856690 0.902999
O O3 0.552032 0.717093 0.872440
O O4 0.338798 0.816308 0.813472
O O5 0.500000 0.160435 0.500000
O O6 0.250000 0.250000 0.500000
O O7 0.196583 0.124295 0.410037
O O8 0.155090 0.919641 0.188330
O O9 0.336161 0.000000 0.068795
O O10 0.179911 0.904144 0.942723
O O11 0.590389 0.618562 0.710484
O O12 0.059782 0.000000 0.360676
#
# Coordination Sequence:
#
# PCOD9214624 Si02
#       5
#     8   8   8   8   8
#     4  11  24  39  62  95 127 164 218 267 311 377
#     4  11  23  43  70  93 121 164 212 268 325 373
#     4  10  22  40  62  92 134 177 211 252 311 377
#     4  12  22  38  62  93 132 171 209 256 314 378
#     4  10  23  42  65  96 130 167 214 261 311 377
#
# _framework density 22.954433999999999
#
# number of rings (size 3 to 8) (size 9 to 14) (size 15 to 20)
#    0.000    1.200    0.000    7.200    0.000    6.000 
#    0.000    0.000    0.000   17.400    0.000    0.000 
#    0.000    0.000    0.000    0.000    0.000    0.000 
#
# Total GULP energy -111974.674528 kJ/mol
# GULP energy per Si atom -5598.733726 kJ/mol
# Density = 2.290219 g / cm^3
# Si number density = 22.954434 Si / 1000 Ang^3
#
#
#
# Elastic Constant Matrix: (Units=GPa)
#
#
# Indices 1 2 3 4 5 6 
#
# 1 115.4037 50.8176 38.2965 0.0000 33.4229 0.0000
# 2 50.8176 180.6642 50.7522 0.0000 34.0507 0.0000
# 3 38.2965 50.7522 113.6180 0.0000 15.4945 0.0000
# 4 0.0000 0.0000 0.0000 30.0445 0.0000 10.6808
# 5 33.4229 34.0507 15.4945 0.0000 58.4469 0.0000
# 6 0.0000 0.0000 0.0000 10.6808 0.0000 14.1473
#
#
#
# Elastic Compliance Matrix: (Units=1/GPa)
#
#
# Indices 1 2 3 4 5 6 
#
# 1 0.011685 -0.001623 -0.002522 0.000000 -0.005068 0.000000
# 2 -0.001623 0.007125 -0.002279 0.000000 -0.002619 0.000000
# 3 -0.002522 -0.002279 0.010678 0.000000 -0.000061 0.000000
# 4 0.000000 0.000000 0.000000 0.045494 0.000000 -0.034346
# 5 -0.005068 -0.002619 -0.000061 0.000000 0.021549 0.000000
# 6 0.000000 0.000000 0.000000 -0.034346 0.000000 0.096615
#
#
# Mechanical properties :
#
#
# Convention : Reuss Voigt Hill
#
# Bulk Modulus (GPa) = 60.09705 76.60205 68.34955
# Shear Modulus (GPa) = 23.63609 38.51574 31.07592
#
# Velocity S-wave (km/s) = 3.21237 4.10069 3.68341
# Velocity P-wave (km/s) = 6.32431 7.47427 6.92321
#
# Compressibility (1/GPa) = 0.01663975
#
# Stress axis : x y z
#
# Youngs Moduli (GPa) = 85.58255 140.34348 93.65253
#
# Poissons Ratio (x) = 0.22777 0.23623
# Poissons Ratio (y) = 0.13890 0.21340
# Poissons Ratio (z) = 0.21587 0.31979
#
# Static dielectric constant tensor:
#      x y z
#    x 1.880840 0.000000 -0.006460 
#    y 0.000000 1.811150 0.000000 
#    z -0.006460 0.000000 1.895530 
# 
# From -- ./inp_files/119144.got.cif
#   From: 2010.05.17/outbox.cif.g08.bks.cpg/sg12_60_cif.got.tgz:119144.got - 2010.06.03 13:09:07.
