data_PCOD9214147
_publ_section_title
;
Structure prediction by ZEFSAII (Michael W. Deem and Ramdas Pophale) SiO2 
 PCOD9214147
Probable space group: C 2/M
;
_chemical_formula_sum "Si O2"
_cell_formula_units_Z 64
_cell_length_a 8.469421
_cell_length_b 21.086128
_cell_length_c 20.785489
_cell_angle_alpha 90.000000
_cell_angle_beta 59.196369
_cell_angle_gamma 90.000000
_cell_volume 3188.359517
_symmetry_space_group_name_H-M "C 2/M"
_symmetry_group_IT_number 12
_symmetry_cell_setting 'monoclinic'
loop_
_space_group_symop_operation_xyz
x,y,z
-x,y,-z
-x,-y,-z
x,-y,z
1/2+x,1/2+y,z
1/2-x,1/2+y,-z
1/2-x,1/2-y,-z
1/2+x,1/2-y,z
loop_
_atom_site_type_symbol
_atom_site_label
_atom_site_fract_x
_atom_site_fract_y
_atom_site_fract_z
Si Si1 0.382580 0.429437 0.721711
Si Si2 0.633270 0.692161 0.702080
Si Si3 0.942366 0.929326 0.084808
Si Si4 0.534200 0.111640 0.182383
Si Si5 0.467648 0.801739 0.078048
Si Si6 0.475906 0.824290 0.333843
Si Si7 0.941621 0.809941 0.866456
Si Si8 0.674980 0.571720 0.417919
O O1 0.443278 0.500000 0.730964
O O2 0.504888 0.369737 0.718729
O O3 0.389009 0.427674 0.642881
O O4 0.165550 0.421081 0.783468
O O5 0.585903 0.751676 0.666600
O O6 0.594591 0.712679 0.784177
O O7 0.847135 0.675263 0.657233
O O8 0.721867 0.927768 0.139936
O O9 0.026537 0.881148 0.118327
O O10 0.012490 0.000000 0.081027
O O11 0.000000 0.911419 0.000000
O O12 0.550737 0.158470 0.118475
O O13 0.526426 0.146889 0.252829
O O14 0.249206 0.799656 0.129155
O O15 0.547047 0.731864 0.071730
O O16 0.500000 0.827277 0.000000
O O17 0.320280 0.871363 0.393576
O O18 0.500000 0.580449 0.500000
O O19 0.751578 0.500000 0.413730
#
# Coordination Sequence:
#
# PCOD9214147 Si02
#       8
#     8   8   8   8   8   8   8   8
#     4  10  22  39  63  91 121 160 204 250 298 362
#     4  12  22  40  61  91 124 160 207 257 302 353
#     4  11  24  40  56  79 115 156 201 256 314 374
#     4  11  20  40  60  83 115 153 205 251 314 369
#     4  12  23  36  59  85 112 149 202 261 317 371
#     4  11  22  38  65  91 124 162 204 249 300 360
#     4  12  22  39  56  82 115 153 199 256 313 360
#     4   9  20  42  70 100 133 165 196 236 292 357
#
# _framework density 20.073018999999999
#
# number of rings (size 3 to 8) (size 9 to 14) (size 15 to 20)
#    0.000    1.000    3.750    4.875    0.000    1.500 
#    0.000    3.125    0.000    4.875    0.000    0.000 
#    0.000    0.000    0.000    0.000    0.000    0.000 
#
# Total GULP energy -178682.342069 kJ/mol
# GULP energy per Si atom -5583.823190 kJ/mol
# Density = 2.002733 g / cm^3
# Si number density = 20.073019 Si / 1000 Ang^3
#
#
#
# Elastic Constant Matrix: (Units=GPa)
#
#
# Indices 1 2 3 4 5 6 
#
# 1 87.4095 50.8559 -0.4789 0.0000 -15.3655 0.0000
# 2 50.8559 126.5990 18.0398 0.0000 -14.7903 0.0000
# 3 -0.4789 18.0398 67.5799 0.0000 -16.5721 0.0000
# 4 0.0000 0.0000 0.0000 15.2955 0.0000 3.3564
# 5 -15.3655 -14.7903 -16.5721 0.0000 16.6853 0.0000
# 6 0.0000 0.0000 0.0000 3.3564 0.0000 26.8556
#
#
#
# Elastic Compliance Matrix: (Units=1/GPa)
#
#
# Indices 1 2 3 4 5 6 
#
# 1 0.018023 -0.006089 0.005948 0.000000 0.017108 0.000000
# 2 -0.006089 0.010886 -0.002588 0.000000 0.001472 0.000000
# 3 0.005948 -0.002588 0.021563 0.000000 0.024600 0.000000
# 4 0.000000 0.000000 0.000000 0.067222 0.000000 -0.008401
# 5 0.017108 0.001472 0.024600 0.000000 0.101426 0.000000
# 6 0.000000 0.000000 0.000000 -0.008401 0.000000 0.038286
#
#
# Mechanical properties :
#
#
# Convention : Reuss Voigt Hill
#
# Bulk Modulus (GPa) = 22.21515 46.49130 34.35323
# Shear Modulus (GPa) = 17.99416 25.97872 21.98644
#
# Velocity S-wave (km/s) = 2.99730 3.60142 3.31316
# Velocity P-wave (km/s) = 4.80308 6.36435 5.63802
#
# Compressibility (1/GPa) = 0.04501432
#
# Stress axis : x y z
#
# Youngs Moduli (GPa) = 55.48471 91.86435 46.37591
#
# Poissons Ratio (x) = 0.55935 -0.27586
# Poissons Ratio (y) = 0.33784 0.12003
# Poissons Ratio (z) = -0.33005 0.23776
#
# Static dielectric constant tensor:
#      x y z
#    x 1.704520 0.000000 -0.027480 
#    y 0.000000 1.747150 0.000000 
#    z -0.027480 0.000000 1.728600 
# 
# From -- ./inp_files/301692.got.cif
#   From: 2010.05.17/outbox.cif.g08.bks.cpg/sg12_151_cif.got.tgz:301692.got - 2010.06.03 13:09:07.
