data_PCOD9214810
_publ_section_title
;
Structure prediction by ZEFSAII (Michael W. Deem and Ramdas Pophale) SiO2 
 PCOD9214810
Probable space group: C 2/M
;
_chemical_formula_sum "Si O2"
_cell_formula_units_Z 44
_cell_length_a 8.513424
_cell_length_b 24.945326
_cell_length_c 12.222885
_cell_angle_alpha 90.000000
_cell_angle_beta 125.912452
_cell_angle_gamma 90.000000
_cell_volume 2102.355614
_symmetry_space_group_name_H-M "C 2/M"
_symmetry_group_IT_number 12
_symmetry_cell_setting 'monoclinic'
loop_
_space_group_symop_operation_xyz
x,y,z
-x,y,-z
-x,-y,-z
x,-y,z
1/2+x,1/2+y,z
1/2-x,1/2+y,-z
1/2-x,1/2-y,-z
1/2+x,1/2-y,z
loop_
_atom_site_type_symbol
_atom_site_label
_atom_site_fract_x
_atom_site_fract_y
_atom_site_fract_z
Si Si1 0.367237 0.114303 0.238832
Si Si2 0.682181 0.500000 0.656177
Si Si3 0.842688 0.400392 0.842437
Si Si4 0.906442 0.796308 0.196296
Si Si5 0.000000 0.177639 0.000000
Si Si6 0.153487 0.286294 0.643323
Si Si7 0.944486 0.500000 0.350321
O O1 0.523990 0.114653 0.206548
O O2 0.435545 0.157060 0.356358
O O3 0.339056 0.055164 0.275422
O O4 0.167315 0.139014 0.114241
O O5 0.500000 0.500000 0.500000
O O6 0.705768 0.448410 0.744273
O O7 0.865720 0.500000 0.649227
O O8 0.713088 0.350367 0.828364
O O9 0.000000 0.416261 0.000000
O O10 0.914681 0.790136 0.068295
O O11 0.822101 0.749608 0.237765
O O12 0.135406 0.797302 0.320240
O O13 0.000000 0.259347 0.500000
O O14 0.000000 0.500000 0.500000
#
# Coordination Sequence:
#
# PCOD9214810 Si02
#       7
#     8   4   8   8   4   8   4
#     4  10  22  40  64  94 128 171 216 272 329 392
#     4  10  25  41  67 101 132 177 228 272 330 402
#     4  11  22  44  67  96 135 176 222 279 335 394
#     4  11  24  41  67  95 128 178 218 273 335 396
#     4  10  22  41  60  98 124 165 226 266 332 390
#     4  11  24  43  64  97 134 174 220 276 338 405
#     4  10  22  42  65  94 132 174 210 266 331 393
#
# _framework density 20.928905
#
# number of rings (size 3 to 8) (size 9 to 14) (size 15 to 20)
#    0.000    1.455    1.818    2.455    0.000    9.818 
#    8.182    0.000    0.000    0.000    0.000    0.000 
#    0.000    0.000    0.000    0.000    0.000    0.000 
#
# Total GULP energy -122848.428192 kJ/mol
# GULP energy per Si atom -5584.019463 kJ/mol
# Density = 2.088127 g / cm^3
# Si number density = 20.928905 Si / 1000 Ang^3
#
#
#
# Elastic Constant Matrix: (Units=GPa)
#
#
# Indices 1 2 3 4 5 6 
#
# 1 82.1964 48.6978 42.8655 0.0000 -6.4190 0.0000
# 2 48.6978 127.5102 61.2420 0.0000 -7.2550 0.0000
# 3 42.8655 61.2420 144.0253 0.0000 2.8069 0.0000
# 4 0.0000 0.0000 0.0000 27.4666 0.0000 2.8837
# 5 -6.4190 -7.2550 2.8069 0.0000 37.7523 0.0000
# 6 0.0000 0.0000 0.0000 2.8837 0.0000 26.4936
#
#
#
# Elastic Compliance Matrix: (Units=1/GPa)
#
#
# Indices 1 2 3 4 5 6 
#
# 1 0.016754 -0.004853 -0.002964 0.000000 0.002136 0.000000
# 2 -0.004853 0.011449 -0.003455 0.000000 0.001632 0.000000
# 3 -0.002964 -0.003455 0.009331 0.000000 -0.001862 0.000000
# 4 0.000000 0.000000 0.000000 0.036829 0.000000 -0.004009
# 5 0.002136 0.001632 -0.001862 0.000000 0.027304 0.000000
# 6 0.000000 0.000000 0.000000 -0.004009 0.000000 0.038181
#
#
# Mechanical properties :
#
#
# Convention : Reuss Voigt Hill
#
# Bulk Modulus (GPa) = 66.72225 73.26025 69.99125
# Shear Modulus (GPa) = 29.87043 31.73759 30.80401
#
# Velocity S-wave (km/s) = 3.78197 3.89838 3.84062
# Velocity P-wave (km/s) = 7.14288 7.43932 7.29261
#
# Compressibility (1/GPa) = 0.01498750
#
# Stress axis : x y z
#
# Youngs Moduli (GPa) = 59.68683 87.34765 107.16860
#
# Poissons Ratio (x) = 0.42392 0.31769
# Poissons Ratio (y) = 0.28968 0.37031
# Poissons Ratio (z) = 0.17693 0.30182
#
# Static dielectric constant tensor:
#      x y z
#    x 1.741110 0.000000 0.002010 
#    y 0.000000 1.756670 0.000000 
#    z 0.002010 0.000000 1.823500 
# 
# From -- ./inp_files/122680.got.cif
#   From: 2010.05.17/outbox.cif.g08.bks.cpg/sg12_62_cif.got.tgz:122680.got - 2010.06.03 13:09:07.
