data_PCOD9214580
_publ_section_title
;
Structure prediction by ZEFSAII (Michael W. Deem and Ramdas Pophale) SiO2 
 PCOD9214580
Probable space group: C 2/M
;
_chemical_formula_sum "Si O2"
_cell_formula_units_Z 40
_cell_length_a 9.823288
_cell_length_b 13.715792
_cell_length_c 15.613160
_cell_angle_alpha 90.000000
_cell_angle_beta 63.877528
_cell_angle_gamma 90.000000
_cell_volume 1888.751241
_symmetry_space_group_name_H-M "C 2/M"
_symmetry_group_IT_number 12
_symmetry_cell_setting 'monoclinic'
loop_
_space_group_symop_operation_xyz
x,y,z
-x,y,-z
-x,-y,-z
x,-y,z
1/2+x,1/2+y,z
1/2-x,1/2+y,-z
1/2-x,1/2-y,-z
1/2+x,1/2-y,z
loop_
_atom_site_type_symbol
_atom_site_label
_atom_site_fract_x
_atom_site_fract_y
_atom_site_fract_z
Si Si1 0.027603 0.381506 0.126994
Si Si2 0.075038 0.223998 0.563489
Si Si3 0.604759 0.116098 0.297368
Si Si4 0.556072 0.382798 0.749534
Si Si5 0.745723 0.881080 0.919345
O O1 0.026037 0.500000 0.125275
O O2 0.038268 0.356246 0.223133
O O3 0.875957 0.350301 0.119331
O O4 0.173597 0.351782 0.030255
O O5 0.250000 0.250000 0.500000
O O6 0.053381 0.160139 0.654749
O O7 0.000000 0.177388 0.500000
O O8 0.983736 0.323369 0.607362
O O9 0.782324 0.140992 0.253296
O O10 0.588876 0.000000 0.313540
O O11 0.547305 0.500000 0.745651
O O12 0.413817 0.350101 0.846686
O O13 0.747264 0.000000 0.919403
#
# Coordination Sequence:
#
# PCOD9214580 Si02
#       5
#     8   8   8   8   8
#     4   8  15  30  55  88 122 156 190 231 287 346
#     4  12  26  44  62  85 117 154 197 251 303 348
#     4  10  22  40  63  89 119 156 195 239 296 353
#     4  10  22  40  62  90 120 153 196 243 292 350
#     4   8  15  30  55  88 123 154 190 235 283 344
#
# _framework density 21.178013
#
# number of rings (size 3 to 8) (size 9 to 14) (size 15 to 20)
#    0.000    2.400    2.000    1.200    2.800    2.400 
#    0.000    5.000    0.000    0.000    0.000    0.000 
#    0.000    0.000    0.000    0.000    0.000    0.000 
#
# Total GULP energy -111769.380858 kJ/mol
# GULP energy per Si atom -5588.469043 kJ/mol
# Density = 2.112981 g / cm^3
# Si number density = 21.178013 Si / 1000 Ang^3
#
#
#
# Elastic Constant Matrix: (Units=GPa)
#
#
# Indices 1 2 3 4 5 6 
#
# 1 71.1489 -5.1854 28.8810 0.0000 -26.7719 0.0000
# 2 -5.1854 51.4250 3.9379 0.0000 -13.1728 0.0000
# 3 28.8810 3.9379 93.8626 0.0000 -15.9815 0.0000
# 4 0.0000 0.0000 0.0000 36.4947 0.0000 0.9793
# 5 -26.7719 -13.1728 -15.9815 0.0000 51.8096 0.0000
# 6 0.0000 0.0000 0.0000 0.9793 0.0000 15.7394
#
#
#
# Elastic Compliance Matrix: (Units=1/GPa)
#
#
# Indices 1 2 3 4 5 6 
#
# 1 0.020179 0.005021 -0.004672 0.000000 0.010263 0.000000
# 2 0.005021 0.022050 -0.001133 0.000000 0.007851 0.000000
# 3 -0.004672 -0.001133 0.012326 0.000000 0.001100 0.000000
# 4 0.000000 0.000000 0.000000 0.027447 0.000000 -0.001708
# 5 0.010263 0.007851 0.001100 0.000000 0.026940 0.000000
# 6 0.000000 0.000000 0.000000 -0.001708 0.000000 0.063641
#
#
# Mechanical properties :
#
#
# Convention : Reuss Voigt Hill
#
# Bulk Modulus (GPa) = 18.87245 30.18927 24.53086
# Shear Modulus (GPa) = 26.06678 33.39559 29.73118
#
# Velocity S-wave (km/s) = 3.51214 3.97533 3.75089
# Velocity P-wave (km/s) = 5.03761 5.94617 5.51065
#
# Compressibility (1/GPa) = 0.05298730
#
# Stress axis : x y z
#
# Youngs Moduli (GPa) = 49.55571 45.35123 81.12728
#
# Poissons Ratio (x) = -0.22773 0.37905
# Poissons Ratio (y) = -0.24884 0.09194
# Poissons Ratio (z) = 0.23154 0.05140
#
# Static dielectric constant tensor:
#      x y z
#    x 1.732100 0.000000 -0.002740 
#    y 0.000000 1.795510 0.000000 
#    z -0.002740 0.000000 1.713870 
# 
# From -- ./inp_files/119025.got.cif
#   From: 2010.05.17/outbox.cif.g08.bks.cpg/sg12_60_cif.got.tgz:119025.got - 2010.06.03 13:09:07.
