data_PCOD9214577
_publ_section_title
;
Structure prediction by ZEFSAII (Michael W. Deem and Ramdas Pophale) SiO2 
 PCOD9214577
Probable space group: C 2/M
;
_chemical_formula_sum "Si O2"
_cell_formula_units_Z 64
_cell_length_a 30.833340
_cell_length_b 8.768619
_cell_length_c 19.026609
_cell_angle_alpha 90.000000
_cell_angle_beta 141.128565
_cell_angle_gamma 90.000000
_cell_volume 3228.336447
_symmetry_space_group_name_H-M "C 2/M"
_symmetry_group_IT_number 12
_symmetry_cell_setting 'monoclinic'
loop_
_space_group_symop_operation_xyz
x,y,z
-x,y,-z
-x,-y,-z
x,-y,z
1/2+x,1/2+y,z
1/2-x,1/2+y,-z
1/2-x,1/2-y,-z
1/2+x,1/2-y,z
loop_
_atom_site_type_symbol
_atom_site_label
_atom_site_fract_x
_atom_site_fract_y
_atom_site_fract_z
Si Si1 0.106385 0.679901 0.902983
Si Si2 0.034308 0.180609 0.681970
Si Si3 0.752184 0.314849 0.423736
Si Si4 0.752409 0.817931 0.924984
Si Si5 0.470407 0.684147 0.070182
Si Si6 0.886513 0.316567 0.502005
Si Si7 0.611651 0.684331 0.170242
Si Si8 0.383010 0.817208 0.333223
O O1 0.114431 0.500000 0.910282
O O2 0.088052 0.742464 0.803141
O O3 0.046492 0.731761 0.879675
O O4 0.176518 0.757940 0.017750
O O5 0.054749 0.238305 0.630215
O O6 0.958642 0.235784 0.609550
O O7 0.039675 0.000000 0.692630
O O8 0.750382 0.500000 0.425114
O O9 0.750000 0.250000 0.500000
O O10 0.822144 0.272116 0.470014
O O11 0.684516 0.263262 0.293825
O O12 0.686892 0.773145 0.795813
O O13 0.753589 0.000000 0.931090
O O14 0.750000 0.750000 0.000000
O O15 0.466335 0.500000 0.073541
O O16 0.546835 0.721405 0.138643
O O17 0.414317 0.731693 0.939939
O O18 0.895156 0.500000 0.518872
O O19 0.874446 0.280979 0.404373
O O20 0.615285 0.500000 0.171743
O O21 0.392643 0.000000 0.339549
#
# Coordination Sequence:
#
# PCOD9214577 Si02
#       8
#     8   8   8   8   8   8   8   8
#     4  12  25  39  58  88 126 164 202 250 304 363
#     4  12  25  41  63  89 121 162 210 261 307 362
#     4  10  22  40  62  89 122 162 203 248 300 360
#     4  11  22  38  62  91 122 160 200 241 295 358
#     4   9  18  36  63  92 118 153 200 251 302 363
#     4  10  23  42  64  90 122 163 206 252 309 369
#     4   8  17  36  63  90 119 153 197 249 305 364
#     4  10  22  41  66  92 123 161 201 250 307 371
#
# _framework density 19.824452000000001
#
# number of rings (size 3 to 8) (size 9 to 14) (size 15 to 20)
#    0.000    1.750    1.250    3.750    3.500    3.000 
#    0.000    1.875    0.000    0.000    0.000    0.000 
#    0.000    0.000    0.000    0.000    0.000    0.000 
#
# Total GULP energy -178760.006606 kJ/mol
# GULP energy per Si atom -5586.250206 kJ/mol
# Density = 1.977933 g / cm^3
# Si number density = 19.824452 Si / 1000 Ang^3
#
#
#
# Elastic Constant Matrix: (Units=GPa)
#
#
# Indices 1 2 3 4 5 6 
#
# 1 105.4422 23.8404 25.5111 0.0000 2.8205 0.0000
# 2 23.8404 26.8919 21.9727 0.0000 4.4311 0.0000
# 3 25.5111 21.9727 81.0173 0.0000 17.3358 0.0000
# 4 0.0000 0.0000 0.0000 21.9733 0.0000 -2.4210
# 5 2.8205 4.4311 17.3358 0.0000 28.9858 0.0000
# 6 0.0000 0.0000 0.0000 -2.4210 0.0000 30.6722
#
#
#
# Elastic Compliance Matrix: (Units=1/GPa)
#
#
# Indices 1 2 3 4 5 6 
#
# 1 0.011976 -0.009666 -0.001395 0.000000 0.001147 0.000000
# 2 -0.009666 0.055581 -0.011942 0.000000 -0.000414 0.000000
# 3 -0.001395 -0.011942 0.017891 0.000000 -0.008739 0.000000
# 4 0.000000 0.000000 0.000000 0.045909 0.000000 0.003624
# 5 0.001147 -0.000414 -0.008739 0.000000 0.039678 0.000000
# 6 0.000000 0.000000 0.000000 0.003624 0.000000 0.032889
#
#
# Mechanical properties :
#
#
# Convention : Reuss Voigt Hill
#
# Bulk Modulus (GPa) = 25.35366 39.55554 32.45460
# Shear Modulus (GPa) = 19.00584 25.79475 22.40030
#
# Velocity S-wave (km/s) = 3.09966 3.61107 3.36509
# Velocity P-wave (km/s) = 5.06235 6.11414 5.61293
#
# Compressibility (1/GPa) = 0.03944204
#
# Stress axis : x y z
#
# Youngs Moduli (GPa) = 83.49862 17.99180 55.89440
#
# Poissons Ratio (x) = 0.17392 0.07796
# Poissons Ratio (y) = 0.80714 0.66747
# Poissons Ratio (z) = 0.11647 0.21485
#
# Static dielectric constant tensor:
#      x y z
#    x 1.680380 0.000000 -0.033130 
#    y 0.000000 1.660760 0.000000 
#    z -0.033130 0.000000 1.661370 
# 
# From -- ./inp_files/295683.got.cif
#   From: 2010.05.17/outbox.cif.g08.bks.cpg/sg12_148_cif.got.tgz:295683.got - 2010.06.03 13:09:07.
