data_PCOD9214414
_publ_section_title
;
Structure prediction by ZEFSAII (Michael W. Deem and Ramdas Pophale) SiO2 
 PCOD9214414
Probable space group: C 2/M
;
_chemical_formula_sum "Si O2"
_cell_formula_units_Z 48
_cell_length_a 23.858787
_cell_length_b 13.738155
_cell_length_c 11.437512
_cell_angle_alpha 90.000000
_cell_angle_beta 144.833774
_cell_angle_gamma 90.000000
_cell_volume 2159.203230
_symmetry_space_group_name_H-M "C 2/M"
_symmetry_group_IT_number 12
_symmetry_cell_setting 'monoclinic'
loop_
_space_group_symop_operation_xyz
x,y,z
-x,y,-z
-x,-y,-z
x,-y,z
1/2+x,1/2+y,z
1/2-x,1/2+y,-z
1/2-x,1/2-y,-z
1/2+x,1/2-y,z
loop_
_atom_site_type_symbol
_atom_site_label
_atom_site_fract_x
_atom_site_fract_y
_atom_site_fract_z
Si Si1 0.493951 0.888845 0.121179
Si Si2 0.560152 0.885033 0.488899
Si Si3 0.866160 0.883423 0.691597
Si Si4 0.763800 0.390016 0.732139
Si Si5 0.424309 0.382619 0.044634
Si Si6 0.245951 0.787205 0.123211
O O1 0.537308 0.848712 0.317346
O O2 0.534579 0.000000 0.178211
O O3 0.500000 0.844500 0.000000
O O4 0.378747 0.893652 0.944565
O O5 0.500000 0.845820 0.500000
O O6 0.672940 0.867427 0.709688
O O7 0.537233 0.000000 0.443996
O O8 0.769169 0.862644 0.455017
O O9 0.873210 0.849151 0.835937
O O10 0.872991 0.000000 0.715552
O O11 0.962515 0.857166 0.781946
O O12 0.725646 0.500000 0.689750
O O13 0.726900 0.306130 0.752497
O O14 0.417886 0.500000 0.047651
O O15 0.361260 0.328482 0.033196
O O16 0.250000 0.750000 0.000000
#
# Coordination Sequence:
#
# PCOD9214414 Si02
#       6
#     8   8   8   8   8   8
#     4   9  19  37  62  91 122 158 204 258 312 371
#     4  10  22  42  66  90 125 170 209 255 316 379
#     4   8  17  37  65  91 120 157 197 252 317 379
#     4  10  22  40  60  85 124 161 200 255 315 364
#     4   9  19  39  64  91 121 156 202 255 314 375
#     4  12  26  39  60  91 123 166 216 256 302 373
#
# _framework density 22.230422000000001
#
# number of rings (size 3 to 8) (size 9 to 14) (size 15 to 20)
#    0.000    2.333    0.000    2.500    2.333    6.000 
#    3.000    0.000    0.000    3.500    0.000    0.000 
#    0.000    0.000    0.000    0.000    0.000    0.000 
#
# Total GULP energy -133927.331639 kJ/mol
# GULP energy per Si atom -5580.305485 kJ/mol
# Density = 2.217982 g / cm^3
# Si number density = 22.230422 Si / 1000 Ang^3
#
#
#
# Elastic Constant Matrix: (Units=GPa)
#
#
# Indices 1 2 3 4 5 6 
#
# 1 97.2051 16.3135 9.6848 0.0000 -24.6455 0.0000
# 2 16.3135 67.6687 -8.7762 0.0000 -16.1035 0.0000
# 3 9.6848 -8.7762 84.4423 0.0000 -20.3643 0.0000
# 4 0.0000 0.0000 0.0000 -11.8486 0.0000 4.0378
# 5 -24.6455 -16.1035 -20.3643 0.0000 32.5183 0.0000
# 6 0.0000 0.0000 0.0000 4.0378 0.0000 29.7894
#
#
#
# Elastic Compliance Matrix: (Units=1/GPa)
#
#
# Indices 1 2 3 4 5 6 
#
# 1 0.012830 -0.000609 0.000869 0.000000 0.009967 0.000000
# 2 -0.000609 0.018300 0.004766 0.000000 0.011585 0.000000
# 3 0.000869 0.004766 0.015273 0.000000 0.012583 0.000000
# 4 0.000000 0.000000 0.000000 -0.080672 0.000000 0.010935
# 5 0.009967 0.011585 0.012583 0.000000 0.051923 0.000000
# 6 0.000000 0.000000 0.000000 0.010935 0.000000 0.032087
#
#
# Mechanical properties :
#
#
# Convention : Reuss Voigt Hill
#
# Bulk Modulus (GPa) = 17.71348 31.52892 24.62120
# Shear Modulus (GPa) = 85.46104 25.56475 55.51290
#
# Velocity S-wave (km/s) = 6.20699 3.39483 5.00258
# Velocity P-wave (km/s) = 7.70418 5.43875 6.66838
#
# Compressibility (1/GPa) = 0.05645418
#
# Stress axis : x y z
#
# Youngs Moduli (GPa) = 77.94222 54.64556 65.47687
#
# Poissons Ratio (x) = 0.03326 -0.05689
# Poissons Ratio (y) = 0.04743 -0.31204
# Poissons Ratio (z) = -0.06772 -0.26042
#
# Static dielectric constant tensor:
#      x y z
#    x 1.814260 0.000000 -0.017240 
#    y 0.000000 1.872010 0.000000 
#    z -0.017240 0.000000 1.763500 
# 
# From -- ./inp_files/183896.got.cif
#   From: 2010.05.17/outbox.cif.g08.bks.cpg/sg12_92_cif.got.tgz:183896.got - 2010.06.03 13:09:07.
