data_PCOD9214156
_publ_section_title
;
Structure prediction by ZEFSAII (Michael W. Deem and Ramdas Pophale) SiO2 
 PCOD9214156
Probable space group: C 2/M
;
_chemical_formula_sum "Si O2"
_cell_formula_units_Z 64
_cell_length_a 27.638467
_cell_length_b 14.535603
_cell_length_c 19.960353
_cell_angle_alpha 90.000000
_cell_angle_beta 158.014133
_cell_angle_gamma 90.000000
_cell_volume 3002.101678
_symmetry_space_group_name_H-M "C 2/M"
_symmetry_group_IT_number 12
_symmetry_cell_setting 'monoclinic'
loop_
_space_group_symop_operation_xyz
x,y,z
-x,y,-z
-x,-y,-z
x,-y,z
1/2+x,1/2+y,z
1/2-x,1/2+y,-z
1/2-x,1/2-y,-z
1/2+x,1/2-y,z
loop_
_atom_site_type_symbol
_atom_site_label
_atom_site_fract_x
_atom_site_fract_y
_atom_site_fract_z
Si Si1 0.303688 0.892019 0.097021
Si Si2 0.021123 0.391912 0.801109
Si Si3 0.745423 0.391760 0.493424
Si Si4 0.454221 0.607554 0.317957
Si Si5 0.134304 0.318046 0.079877
Si Si6 0.916886 0.829788 0.835088
Si Si7 0.365179 0.760985 0.298336
Si Si8 0.276765 0.683305 0.385204
O O1 0.398630 0.856320 0.159446
O O2 0.318570 0.827736 0.179840
O O3 0.332180 0.000000 0.147873
O O4 0.158926 0.888672 0.882331
O O5 0.008034 0.500000 0.771463
O O6 0.877666 0.353853 0.629679
O O7 0.098079 0.378088 0.969024
O O8 0.762372 0.500000 0.525750
O O9 0.628012 0.377792 0.290761
O O10 0.730499 0.348637 0.547387
O O11 0.484463 0.500000 0.369144
O O12 0.398143 0.660796 0.309822
O O13 0.579400 0.663306 0.454718
O O14 0.253522 0.254395 0.208826
O O15 0.183532 0.366872 0.210777
O O16 0.010216 0.255311 0.935899
O O17 0.785657 0.785304 0.696414
O O18 0.000000 0.880056 0.000000
O O19 0.500000 0.797691 0.500000
#
# Coordination Sequence:
#
# PCOD9214156 Si02
#       8
#     8   8   8   8   8   8   8   8
#     4  10  24  43  66  94 127 170 222 271 322 387
#     4  10  22  39  63  93 125 167 214 265 325 389
#     4  11  24  40  64  96 127 168 214 264 326 382
#     4  11  24  41  64  95 128 166 213 264 324 391
#     4  11  23  41  63  94 125 169 218 260 320 394
#     4  10  24  42  65  90 126 169 216 266 316 380
#     4  12  25  42  65  95 129 170 214 269 329 389
#     4  11  23  41  62  92 128 166 209 263 319 382
#
# _framework density 21.318397999999998
#
# number of rings (size 3 to 8) (size 9 to 14) (size 15 to 20)
#    0.000    1.250    3.750    1.125    3.500    1.750 
#    0.000    1.250    0.000    0.750    0.000    0.000 
#    0.000    0.000    0.000    0.000    0.000    0.000 
#
# Total GULP energy -178677.671883 kJ/mol
# GULP energy per Si atom -5583.677246 kJ/mol
# Density = 2.126988 g / cm^3
# Si number density = 21.318398 Si / 1000 Ang^3
#
#
#
# Elastic Constant Matrix: (Units=GPa)
#
#
# Indices 1 2 3 4 5 6 
#
# 1 107.0043 22.9519 49.5486 0.0000 -2.0876 0.0000
# 2 22.9519 45.2633 14.7022 0.0000 -5.7213 0.0000
# 3 49.5486 14.7022 110.5340 0.0000 -17.6896 0.0000
# 4 0.0000 0.0000 0.0000 2.4079 0.0000 8.8936
# 5 -2.0876 -5.7213 -17.6896 0.0000 48.0779 0.0000
# 6 0.0000 0.0000 0.0000 8.8936 0.0000 6.8928
#
#
#
# Elastic Compliance Matrix: (Units=1/GPa)
#
#
# Indices 1 2 3 4 5 6 
#
# 1 0.012905 -0.005034 -0.005442 0.000000 -0.002041 0.000000
# 2 -0.005034 0.025189 -0.000690 0.000000 0.002525 0.000000
# 3 -0.005442 -0.000690 0.012248 0.000000 0.004188 0.000000
# 4 0.000000 0.000000 0.000000 -0.110286 0.000000 0.142299
# 5 -0.002041 0.002525 0.004188 0.000000 0.022552 0.000000
# 6 0.000000 0.000000 0.000000 0.142299 0.000000 -0.038526
#
#
# Mechanical properties :
#
#
# Convention : Reuss Voigt Hill
#
# Bulk Modulus (GPa) = 35.70039 48.57854 42.13947
# Shear Modulus (GPa) = -112.99993 23.18232 -44.90881
#
# Velocity S-wave (km/s) = -7.28841 3.30120 -4.59472
# Velocity P-wave (km/s) = 7.35155 6.11287 2.88774
#
# Compressibility (1/GPa) = 0.02801090
#
# Stress axis : x y z
#
# Youngs Moduli (GPa) = 77.48699 39.69999 81.64272
#
# Poissons Ratio (x) = 0.19986 0.44431
# Poissons Ratio (y) = 0.39009 0.05630
# Poissons Ratio (z) = 0.42169 0.02738
#
# Static dielectric constant tensor:
#      x y z
#    x 1.782480 0.000000 -0.011670 
#    y 0.000000 1.761730 0.000000 
#    z -0.011670 0.000000 1.814560 
# 
# From -- ./inp_files/330383.got.cif
#   From: 2010.05.17/outbox.cif.g08.bks.cpg/sg12_166_cif.got.tgz:330383.got - 2010.06.03 13:09:07.
