data_PCOD9214393
_publ_section_title
;
Structure prediction by ZEFSAII (Michael W. Deem and Ramdas Pophale) SiO2 
 PCOD9214393
Probable space group: C 2/M
;
_chemical_formula_sum "Si O2"
_cell_formula_units_Z 48
_cell_length_a 9.977052
_cell_length_b 9.016951
_cell_length_c 26.364655
_cell_angle_alpha 90.000000
_cell_angle_beta 79.533548
_cell_angle_gamma 90.000000
_cell_volume 2332.368748
_symmetry_space_group_name_H-M "C 2/M"
_symmetry_group_IT_number 12
_symmetry_cell_setting 'monoclinic'
loop_
_space_group_symop_operation_xyz
x,y,z
-x,y,-z
-x,-y,-z
x,-y,z
1/2+x,1/2+y,z
1/2-x,1/2+y,-z
1/2-x,1/2-y,-z
1/2+x,1/2-y,z
loop_
_atom_site_type_symbol
_atom_site_label
_atom_site_fract_x
_atom_site_fract_y
_atom_site_fract_z
Si Si1 0.567501 0.676557 0.774541
Si Si2 0.738221 0.176002 0.446001
Si Si3 0.500572 0.823946 0.385713
Si Si4 0.678804 0.323129 0.053208
Si Si5 0.884422 0.822259 0.111637
Si Si6 0.668285 0.676102 0.283482
O O1 0.591425 0.500000 0.768141
O O2 0.583884 0.716272 0.832287
O O3 0.418977 0.706188 0.761631
O O4 0.681317 0.760848 0.734363
O O5 0.750000 0.250000 0.500000
O O6 0.592082 0.200422 0.429797
O O7 0.855950 0.245608 0.402864
O O8 0.758899 0.000000 0.448784
O O9 0.586626 0.755396 0.333968
O O10 0.482996 0.000000 0.379919
O O11 0.690549 0.500000 0.049224
O O12 0.757621 0.263822 0.097142
O O13 0.519305 0.286874 0.069644
O O14 0.750000 0.250000 0.000000
O O15 0.861636 0.000000 0.110212
O O16 0.671682 0.500000 0.292058
#
# Coordination Sequence:
#
# PCOD9214393 Si02
#       6
#     8   8   8   8   8   8
#     4  10  22  40  60  85 118 153 192 240 291 344
#     4  11  24  41  62  89 120 155 197 244 294 350
#     4  11  24  41  61  88 121 156 196 242 292 347
#     4  11  23  39  60  87 118 153 195 241 290 347
#     4  10  22  40  60  84 117 154 192 239 292 344
#     4  11  23  39  61  89 119 154 197 241 288 346
#
# _framework density 20.579934999999999
#
# number of rings (size 3 to 8) (size 9 to 14) (size 15 to 20)
#    0.000    1.333    0.000    5.000    0.000   15.333 
#    0.000    0.000    0.000    0.000    0.000    0.000 
#    0.000    0.000    0.000    0.000    0.000    0.000 
#
# Total GULP energy -134319.444382 kJ/mol
# GULP energy per Si atom -5596.643516 kJ/mol
# Density = 2.053309 g / cm^3
# Si number density = 20.579935 Si / 1000 Ang^3
#
#
#
# Elastic Constant Matrix: (Units=GPa)
#
#
# Indices 1 2 3 4 5 6 
#
# 1 65.9567 22.8661 -18.3661 0.0000 -2.7639 0.0000
# 2 22.8661 33.9162 7.9420 0.0000 7.4700 0.0000
# 3 -18.3661 7.9420 55.6479 0.0000 0.5638 0.0000
# 4 0.0000 0.0000 0.0000 36.2537 0.0000 1.0510
# 5 -2.7639 7.4700 0.5638 0.0000 36.6426 0.0000
# 6 0.0000 0.0000 0.0000 1.0510 0.0000 34.7514
#
#
#
# Elastic Compliance Matrix: (Units=1/GPa)
#
#
# Indices 1 2 3 4 5 6 
#
# 1 0.026247 -0.021814 0.011713 0.000000 0.006247 0.000000
# 2 -0.021814 0.050087 -0.014230 0.000000 -0.011637 0.000000
# 3 0.011713 -0.014230 0.023832 0.000000 0.003418 0.000000
# 4 0.000000 0.000000 0.000000 0.027608 0.000000 -0.000835
# 5 0.006247 -0.011637 0.003418 0.000000 0.030082 0.000000
# 6 0.000000 0.000000 0.000000 -0.000835 0.000000 0.028801
#
#
# Mechanical properties :
#
#
# Convention : Reuss Voigt Hill
#
# Bulk Modulus (GPa) = 19.41637 20.04498 19.73068
# Shear Modulus (GPa) = 19.80296 31.06811 25.43553
#
# Velocity S-wave (km/s) = 3.10537 3.88961 3.51941
# Velocity P-wave (km/s) = 4.72365 5.47113 5.11108
#
# Compressibility (1/GPa) = 0.05150292
#
# Stress axis : x y z
#
# Youngs Moduli (GPa) = 38.09904 19.96534 41.96025
#
# Poissons Ratio (x) = 0.43553 -0.49147
# Poissons Ratio (y) = 0.83111 0.59710
# Poissons Ratio (z) = -0.44624 0.28411
#
# Static dielectric constant tensor:
#      x y z
#    x 1.703510 0.000000 0.023170 
#    y 0.000000 1.677830 0.000000 
#    z 0.023170 0.000000 1.741610 
# 
# From -- ./inp_files/334628.got.cif
#   From: 2010.05.17/outbox.cif.g08.bks.cpg/sg12_168_cif.got.tgz:334628.got - 2010.06.03 13:09:07.
