data_PCOD9214324
_publ_section_title
;
Structure prediction by ZEFSAII (Michael W. Deem and Ramdas Pophale) SiO2 
 PCOD9214324
Probable space group: C 2/M
;
_chemical_formula_sum "Si O2"
_cell_formula_units_Z 48
_cell_length_a 16.566471
_cell_length_b 34.939190
_cell_length_c 7.707615
_cell_angle_alpha 90.000000
_cell_angle_beta 144.946413
_cell_angle_gamma 90.000000
_cell_volume 2562.321752
_symmetry_space_group_name_H-M "C 2/M"
_symmetry_group_IT_number 12
_symmetry_cell_setting 'monoclinic'
loop_
_space_group_symop_operation_xyz
x,y,z
-x,y,-z
-x,-y,-z
x,-y,z
1/2+x,1/2+y,z
1/2-x,1/2+y,-z
1/2-x,1/2-y,-z
1/2+x,1/2-y,z
loop_
_atom_site_type_symbol
_atom_site_label
_atom_site_fract_x
_atom_site_fract_y
_atom_site_fract_z
Si Si1 0.378505 0.324891 0.535531
Si Si2 0.646048 0.758756 0.663586
Si Si3 0.318076 0.895368 0.879959
Si Si4 0.655093 0.095812 0.476424
Si Si5 0.313165 0.669526 0.828442
Si Si6 0.170607 0.543253 0.806024
O O1 0.358169 0.280543 0.451359
O O2 0.272152 0.355821 0.260504
O O3 0.352344 0.328929 0.694597
O O4 0.545951 0.331226 0.807807
O O5 0.500000 0.767844 0.500000
O O6 0.711883 0.794647 0.681770
O O7 0.750000 0.750000 0.000000
O O8 0.299583 0.907277 0.644883
O O9 0.488790 0.893573 0.193724
O O10 0.280178 0.927332 0.957185
O O11 0.730179 0.130624 0.704837
O O12 0.700244 0.058988 0.665870
O O13 0.219646 0.500000 0.923027
O O14 0.000000 0.542898 0.500000
#
# Coordination Sequence:
#
# PCOD9214324 Si02
#       6
#     8   8   8   8   8   8
#     4  10  22  40  57  78 109 148 188 229 280 333
#     4  12  25  38  54  83 113 145 188 234 280 326
#     4   9  19  34  56  82 110 143 185 230 275 328
#     4   9  19  34  55  83 109 143 185 228 277 329
#     4  10  22  40  58  77 109 150 187 229 280 333
#     4   9  18  32  54  83 114 144 177 225 280 332
#
# _framework density 18.733011000000001
#
# number of rings (size 3 to 8) (size 9 to 14) (size 15 to 20)
#    0.000    2.167    1.667    0.500    4.667    1.333 
#    0.000    3.333    0.000    2.000    0.000    4.667 
#    0.000    0.000    0.000    0.000    0.000    0.000 
#
# Total GULP energy -133673.208053 kJ/mol
# GULP energy per Si atom -5569.717002 kJ/mol
# Density = 1.869037 g / cm^3
# Si number density = 18.733011 Si / 1000 Ang^3
#
#
#
# Elastic Constant Matrix: (Units=GPa)
#
#
# Indices 1 2 3 4 5 6 
#
# 1 52.2761 39.4082 22.5984 0.0000 5.0715 0.0000
# 2 39.4082 113.0923 30.7755 0.0000 1.1982 0.0000
# 3 22.5984 30.7755 70.3562 0.0000 4.3494 0.0000
# 4 0.0000 0.0000 0.0000 42.3216 0.0000 -6.3495
# 5 5.0715 1.1982 4.3494 0.0000 17.2687 0.0000
# 6 0.0000 0.0000 0.0000 -6.3495 0.0000 26.6649
#
#
#
# Elastic Compliance Matrix: (Units=1/GPa)
#
#
# Indices 1 2 3 4 5 6 
#
# 1 0.028263 -0.008421 -0.004995 0.000000 -0.006458 0.000000
# 2 -0.008421 0.012549 -0.002929 0.000000 0.002340 0.000000
# 3 -0.004995 -0.002929 0.017265 0.000000 -0.002678 0.000000
# 4 0.000000 0.000000 0.000000 0.024504 0.000000 0.005835
# 5 -0.006458 0.002340 -0.002678 0.000000 0.060317 0.000000
# 6 0.000000 0.000000 0.000000 0.005835 0.000000 0.038892
#
#
# Mechanical properties :
#
#
# Convention : Reuss Voigt Hill
#
# Bulk Modulus (GPa) = 39.39154 46.80988 43.10071
# Shear Modulus (GPa) = 22.42732 26.78054 24.60393
#
# Velocity S-wave (km/s) = 3.46382 3.78509 3.62802
# Velocity P-wave (km/s) = 6.08859 6.64415 6.37243
#
# Compressibility (1/GPa) = 0.02538616
#
# Stress axis : x y z
#
# Youngs Moduli (GPa) = 35.38174 79.68796 57.92149
#
# Poissons Ratio (x) = 0.67104 0.28934
# Poissons Ratio (y) = 0.29794 0.16966
# Poissons Ratio (z) = 0.17675 0.23342
#
# Static dielectric constant tensor:
#      x y z
#    x 1.670950 0.000000 -0.009030 
#    y 0.000000 1.360100 0.000000 
#    z -0.009030 0.000000 1.615690 
# 
# From -- ./inp_files/80849.got.cif
#   From: 2010.05.17/outbox.cif.g08.bks.cpg/sg12_41_cif.got.tgz:80849.got - 2010.06.03 13:09:07.
