data_PCOD9214368
_publ_section_title
;
Structure prediction by ZEFSAII (Michael W. Deem and Ramdas Pophale) SiO2 
 PCOD9214368
Probable space group: C 2/M
;
_chemical_formula_sum "Si O2"
_cell_formula_units_Z 44
_cell_length_a 28.100379
_cell_length_b 14.102336
_cell_length_c 19.759823
_cell_angle_alpha 90.000000
_cell_angle_beta 17.098978
_cell_angle_gamma 90.000000
_cell_volume 2302.332257
_symmetry_space_group_name_H-M "C 2/M"
_symmetry_group_IT_number 12
_symmetry_cell_setting 'monoclinic'
loop_
_space_group_symop_operation_xyz
x,y,z
-x,y,-z
-x,-y,-z
x,-y,z
1/2+x,1/2+y,z
1/2-x,1/2+y,-z
1/2-x,1/2-y,-z
1/2+x,1/2-y,z
loop_
_atom_site_type_symbol
_atom_site_label
_atom_site_fract_x
_atom_site_fract_y
_atom_site_fract_z
Si Si1 0.530933 0.000000 0.537935
Si Si2 0.320103 0.500000 0.773322
Si Si3 0.629565 0.112702 0.763290
Si Si4 0.668063 0.500000 0.082927
Si Si5 0.106379 0.682370 0.028470
Si Si6 0.605719 0.792087 0.425501
Si Si7 0.979591 0.807726 0.322142
O O1 0.500000 0.000000 0.500000
O O2 0.615698 0.900404 0.437765
O O3 0.355031 0.000000 0.809841
O O4 0.500000 0.500000 0.500000
O O5 0.341237 0.500000 0.824233
O O6 0.219613 0.591603 0.887265
O O7 0.546245 0.150261 0.808463
O O8 0.794881 0.166747 0.554905
O O9 0.662246 0.000000 0.713821
O O10 0.500000 0.125463 0.000000
O O11 0.582201 0.404119 0.174975
O O12 0.051718 0.730668 0.172590
O O13 0.218392 0.753518 0.833067
O O14 0.500000 0.788004 0.500000
O O15 0.522839 0.730310 0.597383
#
# Coordination Sequence:
#
# PCOD9214368 Si02
#       7
#     4   4   8   4   8   8   8
#     4  10  22  40  59  86 131 170 206 240 300 388
#     4  12  26  39  63  99 133 164 208 267 320 373
#     4  11  23  44  70  92 123 166 213 272 330 368
#     4  12  24  39  62  97 128 168 208 255 316 383
#     4  12  24  42  67  93 129 169 213 267 320 373
#     4  11  23  41  64  94 132 170 207 257 317 381
#     4  12  24  41  67  95 128 166 216 265 318 379
#
# _framework density 19.111056000000001
#
# number of rings (size 3 to 8) (size 9 to 14) (size 15 to 20)
#    0.000    0.545    3.636    6.545    0.000    2.182 
#    0.000    0.000    0.000    1.091    0.000    0.000 
#    0.000    0.000    0.000    0.000    0.000    0.000 
#
# Total GULP energy -123075.385534 kJ/mol
# GULP energy per Si atom -5594.335706 kJ/mol
# Density = 1.906756 g / cm^3
# Si number density = 19.111056 Si / 1000 Ang^3
#
#
#
# Elastic Constant Matrix: (Units=GPa)
#
#
# Indices 1 2 3 4 5 6 
#
# 1 99.1976 42.7457 38.7395 -0.0007 10.8107 0.0003
# 2 42.7457 143.2194 76.2262 -0.0009 -1.6928 0.0003
# 3 38.7395 76.2262 113.0393 -0.0012 15.4032 0.0004
# 4 -0.0007 -0.0009 -0.0012 79.9670 0.0004 -18.2778
# 5 10.8107 -1.6928 15.4032 0.0004 40.5604 -0.0002
# 6 0.0003 0.0003 0.0004 -18.2778 -0.0002 29.8441
#
#
#
# Elastic Compliance Matrix: (Units=1/GPa)
#
#
# Indices 1 2 3 4 5 6 
#
# 1 0.012301 -0.002566 -0.002135 0.000000 -0.002575 0.000000
# 2 -0.002566 0.011896 -0.007702 0.000000 0.004105 0.000000
# 3 -0.002135 -0.007702 0.015542 0.000000 -0.005655 0.000000
# 4 0.000000 0.000000 0.000000 0.014541 0.000000 0.008905
# 5 -0.002575 0.004105 -0.005655 0.000000 0.027660 0.000000
# 6 0.000000 0.000000 0.000000 0.008905 0.000000 0.038962
#
#
# Mechanical properties :
#
#
# Convention : Reuss Voigt Hill
#
# Bulk Modulus (GPa) = 66.95891 74.54211 70.75051
# Shear Modulus (GPa) = 33.18235 43.25728 38.21982
#
# Velocity S-wave (km/s) = 4.17140 4.76275 4.47685
# Velocity P-wave (km/s) = 7.63633 8.32673 7.98900
#
# Compressibility (1/GPa) = 0.01493453
#
# Stress axis : x y z
#
# Youngs Moduli (GPa) = 81.29618 84.06388 64.34130
#
# Poissons Ratio (x) = 0.21568 0.13734
# Poissons Ratio (y) = 0.20858 0.49554
# Poissons Ratio (z) = 0.17353 0.64744
#
# Static dielectric constant tensor:
#      x y z
#    x 1.646030 0.000000 -0.003760 
#    y 0.000000 1.698490 0.000000 
#    z -0.003760 0.000000 1.627190 
# 
# From -- ./inp_files/290031.got.cif
#   From: 2010.05.17/outbox.cif.g08.bks.cpg/sg12_146_cif.got.tgz:290031.got - 2010.06.03 13:09:07.
