data_PCOD9214255
_publ_section_title
;
Structure prediction by ZEFSAII (Michael W. Deem and Ramdas Pophale) SiO2 
 PCOD9214255
Probable space group: C 2/M
;
_chemical_formula_sum "Si O2"
_cell_formula_units_Z 48
_cell_length_a 23.134616
_cell_length_b 20.661464
_cell_length_c 10.397678
_cell_angle_alpha 90.000000
_cell_angle_beta 25.739656
_cell_angle_gamma 90.000000
_cell_volume 2158.401431
_symmetry_space_group_name_H-M "C 2/M"
_symmetry_group_IT_number 12
_symmetry_cell_setting 'monoclinic'
loop_
_space_group_symop_operation_xyz
x,y,z
-x,y,-z
-x,-y,-z
x,-y,z
1/2+x,1/2+y,z
1/2-x,1/2+y,-z
1/2-x,1/2-y,-z
1/2+x,1/2-y,z
loop_
_atom_site_type_symbol
_atom_site_label
_atom_site_fract_x
_atom_site_fract_y
_atom_site_fract_z
Si Si1 0.457653 0.889081 0.221362
Si Si2 0.596307 0.256889 0.695296
Si Si3 0.640436 0.430365 0.298213
Si Si4 0.711884 0.171756 0.839019
Si Si5 0.572543 0.291235 0.215498
Si Si6 0.780257 0.927580 0.126389
O O1 0.393323 0.819731 0.313621
O O2 0.346546 0.923588 0.528570
O O3 0.500000 0.919591 0.000000
O O4 0.586094 0.871685 0.050765
O O5 0.733945 0.293596 0.398563
O O6 0.525060 0.267942 0.701264
O O7 0.500000 0.282075 0.000000
O O8 0.500000 0.427900 0.500000
O O9 0.645206 0.500000 0.353570
O O10 0.676814 0.374344 0.322240
O O11 0.749831 0.428084 0.965777
O O12 0.676047 0.230918 0.006699
O O13 0.500000 0.295271 0.500000
O O14 0.637552 0.359214 0.034876
O O15 0.842932 0.000000 0.025117
#
# Coordination Sequence:
#
# PCOD9214255 Si02
#       6
#     8   8   8   8   8   8
#     4  10  24  40  61  94 132 173 216 269 328 392
#     4  10  22  39  65  96 129 171 216 275 335 386
#     4  10  23  43  66  95 132 172 214 269 335 393
#     4  11  23  40  68  98 132 167 217 278 325 386
#     4  11  24  39  66 101 132 166 225 276 325 386
#     4  11  23  41  64  90 131 175 214 264 329 396
#
# _framework density 22.238682000000001
#
# number of rings (size 3 to 8) (size 9 to 14) (size 15 to 20)
#    0.000    1.500    1.667    2.500    7.000    5.333 
#    0.000    1.667    0.000    1.000    0.000    0.000 
#    0.000    0.000    0.000    0.000    0.000    0.000 
#
# Total GULP energy -133805.839904 kJ/mol
# GULP energy per Si atom -5575.243329 kJ/mol
# Density = 2.218807 g / cm^3
# Si number density = 22.238682 Si / 1000 Ang^3
#
#
#
# Elastic Constant Matrix: (Units=GPa)
#
#
# Indices 1 2 3 4 5 6 
#
# 1 74.1872 20.6493 26.3140 -0.0002 2.2189 0.0000
# 2 20.6493 135.4051 41.6189 0.0000 -3.9374 0.0000
# 3 26.3140 41.6189 163.7875 0.0000 34.2124 -0.0001
# 4 -0.0002 0.0000 0.0000 27.4026 0.0000 2.5835
# 5 2.2189 -3.9374 34.2124 0.0000 37.4012 0.0000
# 6 0.0000 0.0000 -0.0001 2.5835 0.0000 13.1001
#
#
#
# Elastic Compliance Matrix: (Units=1/GPa)
#
#
# Indices 1 2 3 4 5 6 
#
# 1 0.014646 -0.001543 -0.002158 0.000000 0.000943 0.000000
# 2 -0.001543 0.008527 -0.002627 0.000000 0.003393 0.000000
# 3 -0.002158 -0.002627 0.008840 0.000000 -0.008235 0.000000
# 4 0.000000 0.000000 0.000000 0.037184 0.000000 -0.007333
# 5 0.000943 0.003393 -0.008235 0.000000 0.034571 0.000000
# 6 0.000000 0.000000 0.000000 -0.007333 0.000000 0.077781
#
#
# Mechanical properties :
#
#
# Convention : Reuss Voigt Hill
#
# Bulk Modulus (GPa) = 51.66262 61.17156 56.41709
# Shear Modulus (GPa) = 24.91805 34.56731 29.74268
#
# Velocity S-wave (km/s) = 3.35099 3.94684 3.66106
# Velocity P-wave (km/s) = 6.18495 6.95245 6.57990
#
# Compressibility (1/GPa) = 0.01935636
#
# Stress axis : x y z
#
# Youngs Moduli (GPa) = 68.27784 117.27755 113.12339
#
# Poissons Ratio (x) = 0.18094 0.24410
# Poissons Ratio (y) = 0.10534 0.29723
# Poissons Ratio (z) = 0.14733 0.30814
#
# Static dielectric constant tensor:
#      x y z
#    x 1.836460 0.000000 -0.053170 
#    y 0.000000 1.873850 0.000000 
#    z -0.053170 0.000000 1.961990 
# 
# From -- ./inp_files/190254.got.cif
#   From: 2010.05.17/outbox.cif.g08.bks.cpg/sg12_96_cif.got.tgz:190254.got - 2010.06.03 13:09:07.
