data_PCOD9214232
_publ_section_title
;
Structure prediction by ZEFSAII (Michael W. Deem and Ramdas Pophale) SiO2 
 PCOD9214232
Probable space group: C 2/M
;
_chemical_formula_sum "Si O2"
_cell_formula_units_Z 48
_cell_length_a 15.562974
_cell_length_b 26.776210
_cell_length_c 9.472736
_cell_angle_alpha 90.000000
_cell_angle_beta 33.234814
_cell_angle_gamma 90.000000
_cell_volume 2163.487523
_symmetry_space_group_name_H-M "C 2/M"
_symmetry_group_IT_number 12
_symmetry_cell_setting 'monoclinic'
loop_
_space_group_symop_operation_xyz
x,y,z
-x,y,-z
-x,-y,-z
x,-y,z
1/2+x,1/2+y,z
1/2-x,1/2+y,-z
1/2-x,1/2-y,-z
1/2+x,1/2-y,z
loop_
_atom_site_type_symbol
_atom_site_label
_atom_site_fract_x
_atom_site_fract_y
_atom_site_fract_z
Si Si1 0.766121 0.616840 0.947297
Si Si2 0.162426 0.700510 0.362092
Si Si3 0.138846 0.653149 0.699265
Si Si4 0.676261 0.312045 0.316052
Si Si5 0.400058 0.443589 0.009901
Si Si6 0.428940 0.057227 0.376190
O O1 0.756383 0.654651 0.828083
O O2 0.617903 0.581909 0.117289
O O3 0.921932 0.583582 0.754702
O O4 0.761935 0.651987 0.088681
O O5 0.136062 0.685755 0.560426
O O6 0.237169 0.754943 0.239090
O O7 0.000000 0.702710 0.500000
O O8 0.297780 0.664948 0.565471
O O9 0.119228 0.595401 0.681718
O O10 0.000000 0.666143 0.000000
O O11 0.500000 0.310500 0.500000
O O12 0.460353 0.500000 0.909108
O O13 0.221815 0.445238 0.314252
O O14 0.500000 0.419865 0.000000
O O15 0.465451 0.000000 0.284914
#
# Coordination Sequence:
#
# PCOD9214232 Si02
#       6
#     8   8   8   8   8   8
#     4  12  21  42  69  96 133 174 227 282 333 398
#     4  11  21  42  68  97 129 176 224 282 337 400
#     4  12  23  44  67  97 136 175 222 284 335 406
#     4  11  27  42  62  95 136 176 228 276 346 400
#     4  10  22  39  65 102 138 173 221 273 334 405
#     4  11  23  41  70 100 133 174 224 276 336 398
#
# _framework density 22.186401
#
# number of rings (size 3 to 8) (size 9 to 14) (size 15 to 20)
#    0.000    0.833    5.000    2.000    2.333    3.000 
#    0.000    0.833    0.000    2.500    0.000    0.000 
#    0.000    0.000    0.000    0.000    0.000    0.000 
#
# Total GULP energy -133998.998448 kJ/mol
# GULP energy per Si atom -5583.291602 kJ/mol
# Density = 2.213590 g / cm^3
# Si number density = 22.186401 Si / 1000 Ang^3
#
#
#
# Elastic Constant Matrix: (Units=GPa)
#
#
# Indices 1 2 3 4 5 6 
#
# 1 168.8808 72.9645 20.3095 0.0000 19.5824 0.0000
# 2 72.9645 157.2541 10.7539 0.0000 5.4664 0.0000
# 3 20.3095 10.7539 24.2595 -0.0001 9.3283 0.0000
# 4 0.0000 0.0000 -0.0001 19.3506 0.0000 -3.4826
# 5 19.5824 5.4664 9.3283 0.0000 35.9233 0.0000
# 6 0.0000 0.0000 0.0000 -3.4826 0.0000 33.9254
#
#
#
# Elastic Compliance Matrix: (Units=1/GPa)
#
#
# Indices 1 2 3 4 5 6 
#
# 1 0.008254 -0.003437 -0.004285 0.000000 -0.002863 0.000000
# 2 -0.003437 0.007992 -0.001020 0.000000 0.000922 0.000000
# 3 -0.004285 -0.001020 0.049217 0.000000 -0.010289 0.000000
# 4 0.000000 0.000000 0.000000 0.052651 0.000000 0.005405
# 5 -0.002863 0.000922 -0.010289 0.000000 0.031929 0.000000
# 6 0.000000 0.000000 0.000000 0.005405 0.000000 0.030031
#
#
# Mechanical properties :
#
#
# Convention : Reuss Voigt Hill
#
# Bulk Modulus (GPa) = 20.84280 62.05002 41.44641
# Shear Modulus (GPa) = 23.41369 34.26429 28.83899
#
# Velocity S-wave (km/s) = 3.25209 3.93413 3.60925
# Velocity P-wave (km/s) = 4.84935 6.97601 6.00754
#
# Compressibility (1/GPa) = 0.04797820
#
# Stress axis : x y z
#
# Youngs Moduli (GPa) = 121.15835 125.13185 20.31823
#
# Poissons Ratio (x) = 0.43008 0.08707
# Poissons Ratio (y) = 0.41643 0.02072
# Poissons Ratio (z) = 0.51918 0.12761
#
# Static dielectric constant tensor:
#      x y z
#    x 1.849130 0.000000 -0.016390 
#    y 0.000000 1.905570 0.000000 
#    z -0.016390 0.000000 1.855330 
# 
# From -- ./inp_files/67294.got.cif
#   From: 2010.05.17/outbox.cif.g08.bks.cpg/sg12_34_cif.got.tgz:67294.got - 2010.06.03 13:09:07.
