data_PCOD9214113
_publ_section_title
;
Structure prediction by ZEFSAII (Michael W. Deem and Ramdas Pophale) SiO2 
 PCOD9214113
Probable space group: C 2/M
;
_chemical_formula_sum "Si O2"
_cell_formula_units_Z 56
_cell_length_a 20.187521
_cell_length_b 11.573079
_cell_length_c 12.356478
_cell_angle_alpha 90.000000
_cell_angle_beta 70.274024
_cell_angle_gamma 90.000000
_cell_volume 2717.457732
_symmetry_space_group_name_H-M "C 2/M"
_symmetry_group_IT_number 12
_symmetry_cell_setting 'monoclinic'
loop_
_space_group_symop_operation_xyz
x,y,z
-x,y,-z
-x,-y,-z
x,-y,z
1/2+x,1/2+y,z
1/2-x,1/2+y,-z
1/2-x,1/2-y,-z
1/2+x,1/2-y,z
loop_
_atom_site_type_symbol
_atom_site_label
_atom_site_fract_x
_atom_site_fract_y
_atom_site_fract_z
Si Si1 0.679723 0.369637 0.308747
Si Si2 0.253028 0.874469 0.933010
Si Si3 0.582360 0.867246 0.970966
Si Si4 0.033601 0.636007 0.595918
Si Si5 0.168771 0.793242 0.550235
Si Si6 0.321214 0.715850 0.218883
Si Si7 0.899024 0.706351 0.802987
O O1 0.696287 0.500000 0.270984
O O2 0.656181 0.364030 0.447351
O O3 0.749825 0.292078 0.265092
O O4 0.623255 0.317074 0.255827
O O5 0.194422 0.866952 0.872719
O O6 0.329213 0.872747 0.832122
O O7 0.245865 0.000000 0.993984
O O8 0.250000 0.750000 0.000000
O O9 0.594525 0.790360 0.071238
O O10 0.608041 0.000000 0.972336
O O11 0.500000 0.873629 0.000000
O O12 0.619186 0.805808 0.850091
O O13 0.046476 0.500000 0.581173
O O14 0.107814 0.696343 0.578763
O O15 0.000000 0.675546 0.500000
O O16 0.972080 0.658595 0.716799
O O17 0.250000 0.750000 0.500000
O O18 0.163583 0.842888 0.674587
#
# Coordination Sequence:
#
# PCOD9214113 Si02
#       7
#     8   8   8   8   8   8   8
#     4  10  22  40  64  90 125 176 222 267 331 407
#     4  11  23  40  66  99 134 175 223 277 337 407
#     4  11  22  37  61  92 129 168 212 274 342 405
#     4  11  22  39  66  95 129 170 218 281 345 397
#     4  10  22  42  62  94 133 169 217 272 327 404
#     4  10  22  39  62  94 129 168 217 275 334 400
#     4  11  22  40  62  98 131 163 218 283 330 396
#
# _framework density 20.607496000000001
#
# number of rings (size 3 to 8) (size 9 to 14) (size 15 to 20)
#    0.000    1.429    2.857    2.571    0.000    6.857 
#    0.000    1.429    0.000    3.429    0.000    0.000 
#    0.000    0.000    0.000    0.000    0.000    0.000 
#
# Total GULP energy -155993.290787 kJ/mol
# GULP energy per Si atom -5571.188957 kJ/mol
# Density = 2.056059 g / cm^3
# Si number density = 20.607496 Si / 1000 Ang^3
#
#
#
# Elastic Constant Matrix: (Units=GPa)
#
#
# Indices 1 2 3 4 5 6 
#
# 1 97.0366 25.1788 20.1625 0.0000 -9.1906 0.0000
# 2 25.1788 101.3978 28.9282 0.0000 7.5715 0.0000
# 3 20.1625 28.9282 117.9311 0.0000 7.0049 0.0000
# 4 0.0000 0.0000 0.0000 -0.0026 0.0000 -4.7246
# 5 -9.1906 7.5715 7.0049 0.0000 40.9527 0.0000
# 6 0.0000 0.0000 0.0000 -4.7246 0.0000 -1.2859
#
#
#
# Elastic Compliance Matrix: (Units=1/GPa)
#
#
# Indices 1 2 3 4 5 6 
#
# 1 0.011645 -0.002708 -0.001527 0.000000 0.003375 0.000000
# 2 -0.002708 0.011330 -0.002178 0.000000 -0.002330 0.000000
# 3 -0.001527 -0.002178 0.009366 0.000000 -0.001542 0.000000
# 4 0.000000 0.000000 0.000000 0.057614 0.000000 -0.211688
# 5 0.003375 -0.002330 -0.001542 0.000000 0.025870 0.000000
# 6 0.000000 0.000000 0.000000 -0.211688 0.000000 0.000116
#
#
# Mechanical properties :
#
#
# Convention : Reuss Voigt Hill
#
# Bulk Modulus (GPa) = 51.24149 51.65602 51.44876
# Shear Modulus (GPa) = 36.96217 24.07257 30.51737
#
# Velocity S-wave (km/s) = 4.23972 3.42152 3.85240
# Velocity P-wave (km/s) = 6.99188 6.38202 6.69390
#
# Compressibility (1/GPa) = 0.01951543
#
# Stress axis : x y z
#
# Youngs Moduli (GPa) = 85.87332 88.26211 106.76413
#
# Poissons Ratio (x) = 0.23901 0.16305
# Poissons Ratio (y) = 0.23255 0.23251
# Poissons Ratio (z) = 0.13114 0.19222
#
# Static dielectric constant tensor:
#      x y z
#    x 1.749080 0.000000 0.023900 
#    y 0.000000 1.774190 0.000000 
#    z 0.023900 0.000000 1.803110 
# 
# From -- ./inp_files/165628.got.cif
#   From: 2010.05.17/outbox.cif.g08.bks.cpg/sg12_83_cif.got.tgz:165628.got - 2010.06.03 13:09:07.
