data_PCOD9214548
_publ_section_title
;
Structure prediction by ZEFSAII (Michael W. Deem and Ramdas Pophale) SiO2 
 PCOD9214548
Probable space group: C 2/M
;
_chemical_formula_sum "Si O2"
_cell_formula_units_Z 64
_cell_length_a 25.903615
_cell_length_b 24.018287
_cell_length_c 7.659370
_cell_angle_alpha 90.000000
_cell_angle_beta 145.466393
_cell_angle_gamma 90.000000
_cell_volume 2701.431094
_symmetry_space_group_name_H-M "C 2/M"
_symmetry_group_IT_number 12
_symmetry_cell_setting 'monoclinic'
loop_
_space_group_symop_operation_xyz
x,y,z
-x,y,-z
-x,-y,-z
x,-y,z
1/2+x,1/2+y,z
1/2-x,1/2+y,-z
1/2-x,1/2-y,-z
1/2+x,1/2-y,z
loop_
_atom_site_type_symbol
_atom_site_label
_atom_site_fract_x
_atom_site_fract_y
_atom_site_fract_z
Si Si1 0.072695 0.434516 0.862307
Si Si2 0.439712 0.435757 0.085949
Si Si3 0.381185 0.837230 0.764702
Si Si4 0.474825 0.727883 0.133306
Si Si5 0.818621 0.149812 0.660854
Si Si6 0.366996 0.433866 0.279077
Si Si7 0.221705 0.370900 0.081318
Si Si8 0.148800 0.723932 0.691374
O O1 0.068963 0.500000 0.901191
O O2 0.000000 0.426638 0.500000
O O3 0.067578 0.392570 0.016689
O O4 0.170448 0.417808 0.050605
O O5 0.449459 0.500000 0.075784
O O6 0.396216 0.429729 0.158104
O O7 0.542090 0.413035 0.368040
O O8 0.365346 0.409018 0.756666
O O9 0.274591 0.849136 0.495520
O O10 0.378663 0.807278 0.567725
O O11 0.423919 0.787354 0.997263
O O12 0.568864 0.731815 0.498313
O O13 0.500000 0.714889 0.000000
O O14 0.397771 0.684461 0.970890
O O15 0.788265 0.167560 0.384463
O O16 0.352372 0.500000 0.272459
O O17 0.279698 0.398701 0.090083
O O18 0.145307 0.328329 0.809417
O O19 0.250000 0.750000 0.000000
#
# Coordination Sequence:
#
# PCOD9214548 Si02
#       8
#     8   8   8   8   8   8   8   8
#     4  10  22  42  68  98 131 170 220 274 338 408
#     4   9  20  37  58  85 122 164 203 253 311 377
#     4  10  22  43  65  92 129 170 213 266 333 393
#     4  10  22  40  62  86 121 159 204 262 321 378
#     4  11  23  37  62  91 125 164 211 261 317 399
#     4   9  19  37  58  84 120 160 203 251 308 375
#     4  11  22  37  62  92 126 161 213 270 324 386
#     4  11  24  42  64  93 127 169 220 274 331 397
#
# _framework density 23.691147000000001
#
# number of rings (size 3 to 8) (size 9 to 14) (size 15 to 20)
#    0.000    1.875    0.000    4.500    3.500    3.500 
#    0.000    5.000    0.000    4.875    0.000    0.000 
#    0.000    0.000    0.000    0.000    0.000    0.000 
#
# Total GULP energy -178476.544100 kJ/mol
# GULP energy per Si atom -5577.392003 kJ/mol
# Density = 2.363722 g / cm^3
# Si number density = 23.691147 Si / 1000 Ang^3
#
#
#
# Elastic Constant Matrix: (Units=GPa)
#
#
# Indices 1 2 3 4 5 6 
#
# 1 54.0355 14.7049 18.9106 0.0000 3.7447 0.0000
# 2 14.7049 71.4053 34.7068 0.0000 3.5048 0.0000
# 3 18.9106 34.7068 139.5816 0.0000 13.7027 0.0000
# 4 0.0000 0.0000 0.0000 43.6193 0.0000 2.2365
# 5 3.7447 3.5048 13.7027 0.0000 26.5125 0.0000
# 6 0.0000 0.0000 0.0000 2.2365 0.0000 23.7784
#
#
#
# Elastic Compliance Matrix: (Units=1/GPa)
#
#
# Indices 1 2 3 4 5 6 
#
# 1 0.020104 -0.003201 -0.001781 0.000000 -0.001496 0.000000
# 2 -0.003201 0.016440 -0.003671 0.000000 0.000176 0.000000
# 3 -0.001781 -0.003671 0.008687 0.000000 -0.003753 0.000000
# 4 0.000000 0.000000 0.000000 0.023037 0.000000 -0.002167
# 5 -0.001496 0.000176 -0.003753 0.000000 0.039846 0.000000
# 6 0.000000 0.000000 0.000000 -0.002167 0.000000 0.042259
#
#
# Mechanical properties :
#
#
# Convention : Reuss Voigt Hill
#
# Bulk Modulus (GPa) = 35.81142 44.62966 40.22054
# Shear Modulus (GPa) = 28.25069 31.89538 30.07304
#
# Velocity S-wave (km/s) = 3.45694 3.67318 3.56670
# Velocity P-wave (km/s) = 5.57519 6.07196 5.82887
#
# Compressibility (1/GPa) = 0.02792405
#
# Stress axis : x y z
#
# Youngs Moduli (GPa) = 49.74024 60.82878 115.11674
#
# Poissons Ratio (x) = 0.19472 0.20502
# Poissons Ratio (y) = 0.15923 0.42263
# Poissons Ratio (z) = 0.08858 0.22332
#
# Static dielectric constant tensor:
#      x y z
#    x 1.979960 0.000000 -0.055030 
#    y 0.000000 1.948670 0.000000 
#    z -0.055030 0.000000 1.979700 
# 
# From -- ./inp_files/113642.got.cif
#   From: 2010.05.17/outbox.cif.g08.bks.cpg/sg12_57_cif.got.tgz:113642.got - 2010.06.03 13:09:07.
