data_PCOD9214507
_publ_section_title
;
Structure prediction by ZEFSAII (Michael W. Deem and Ramdas Pophale) SiO2 
 PCOD9214507
Probable space group: C 2/M
;
_chemical_formula_sum "Si O2"
_cell_formula_units_Z 44
_cell_length_a 27.830450
_cell_length_b 17.638805
_cell_length_c 10.815590
_cell_angle_alpha 90.000000
_cell_angle_beta 157.132891
_cell_angle_gamma 90.000000
_cell_volume 2063.178930
_symmetry_space_group_name_H-M "C 2/M"
_symmetry_group_IT_number 12
_symmetry_cell_setting 'monoclinic'
loop_
_space_group_symop_operation_xyz
x,y,z
-x,y,-z
-x,-y,-z
x,-y,z
1/2+x,1/2+y,z
1/2-x,1/2+y,-z
1/2-x,1/2-y,-z
1/2+x,1/2-y,z
loop_
_atom_site_type_symbol
_atom_site_label
_atom_site_fract_x
_atom_site_fract_y
_atom_site_fract_z
Si Si1 0.536651 0.582914 0.435145
Si Si2 0.762228 0.411996 0.280081
Si Si3 0.000000 0.218318 0.500000
Si Si4 0.108699 0.147257 0.358602
Si Si5 0.944482 0.701983 0.619593
Si Si6 0.188333 0.666177 0.341322
O O1 0.572620 0.500000 0.568434
O O2 0.584448 0.653825 0.629550
O O3 0.578220 0.588889 0.393353
O O4 0.387324 0.592424 0.076880
O O5 0.795883 0.500000 0.349626
O O6 0.838292 0.361416 0.362248
O O7 0.799963 0.377490 0.502728
O O8 0.008944 0.272716 0.642255
O O9 0.114964 0.226163 0.449423
O O10 0.230171 0.127556 0.571458
O O11 0.000000 0.153229 0.000000
O O12 0.051693 0.674539 0.965705
O O13 0.250000 0.750000 0.500000
#
# Coordination Sequence:
#
# PCOD9214507 Si02
#       6
#     8   8   4   8   8   8
#     4  10  22  40  61  89 122 156 196 244 298 355
#     4  11  23  39  63  91 123 156 191 244 307 359
#     4  10  23  42  61  84 114 162 208 250 285 338
#     4  11  19  34  60  91 121 152 192 244 299 356
#     4  11  23  38  59  87 119 159 204 247 285 350
#     4  12  20  36  60  91 123 154 196 243 299 355
#
# _framework density 21.326312999999999
#
# number of rings (size 3 to 8) (size 9 to 14) (size 15 to 20)
#    0.000    1.091    5.455    1.909    0.000    3.273 
#    3.273    0.455    0.000    0.000    0.000    0.000 
#    0.000    0.000    0.000    0.000    0.000    0.000 
#
# Total GULP energy -122614.420712 kJ/mol
# GULP energy per Si atom -5573.382760 kJ/mol
# Density = 2.127777 g / cm^3
# Si number density = 21.326313 Si / 1000 Ang^3
#
#
#
# Elastic Constant Matrix: (Units=GPa)
#
#
# Indices 1 2 3 4 5 6 
#
# 1 142.7123 34.5828 7.9619 0.0000 -10.2664 0.0000
# 2 34.5828 95.5814 16.9310 0.0000 -2.4707 0.0000
# 3 7.9619 16.9310 67.0506 0.0000 7.5051 0.0000
# 4 0.0000 0.0000 0.0000 10.6528 0.0000 1.9899
# 5 -10.2664 -2.4707 7.5051 0.0000 31.3250 0.0000
# 6 0.0000 0.0000 0.0000 1.9899 0.0000 21.4240
#
#
#
# Elastic Compliance Matrix: (Units=1/GPa)
#
#
# Indices 1 2 3 4 5 6 
#
# 1 0.007868 -0.002687 -0.000535 0.000000 0.002495 0.000000
# 2 -0.002687 0.011946 -0.002779 0.000000 0.000727 0.000000
# 3 -0.000535 -0.002779 0.016157 0.000000 -0.004265 0.000000
# 4 0.000000 0.000000 0.000000 0.095529 0.000000 -0.008873
# 5 0.002495 0.000727 -0.004265 0.000000 0.033820 0.000000
# 6 0.000000 0.000000 0.000000 -0.008873 0.000000 0.047501
#
#
# Mechanical properties :
#
#
# Convention : Reuss Voigt Hill
#
# Bulk Modulus (GPa) = 41.72218 47.14396 44.43307
# Shear Modulus (GPa) = 21.47659 29.07162 25.27411
#
# Velocity S-wave (km/s) = 3.17684 3.69613 3.44628
# Velocity P-wave (km/s) = 5.75001 6.35368 6.05937
#
# Compressibility (1/GPa) = 0.02396807
#
# Stress axis : x y z
#
# Youngs Moduli (GPa) = 127.10305 83.71263 61.89380
#
# Poissons Ratio (x) = 0.22497 0.03311
# Poissons Ratio (y) = 0.34158 0.17198
# Poissons Ratio (z) = 0.06798 0.23261
#
# Static dielectric constant tensor:
#      x y z
#    x 1.827740 0.000000 -0.006710 
#    y 0.000000 1.816820 0.000000 
#    z -0.006710 0.000000 1.798400 
# 
# From -- ./inp_files/190123.got.cif
#   From: 2010.05.17/outbox.cif.g08.bks.cpg/sg12_96_cif.got.tgz:190123.got - 2010.06.03 13:09:07.
