data_PCOD9214907
_publ_section_title
;
Structure prediction by ZEFSAII (Michael W. Deem and Ramdas Pophale) SiO2 
 PCOD9214907
Probable space group: C 2/M
;
_chemical_formula_sum "Si O2"
_cell_formula_units_Z 32
_cell_length_a 15.917336
_cell_length_b 16.898996
_cell_length_c 4.908207
_cell_angle_alpha 90.000000
_cell_angle_beta 92.395142
_cell_angle_gamma 90.000000
_cell_volume 1319.090468
_symmetry_space_group_name_H-M "C 2/M"
_symmetry_group_IT_number 12
_symmetry_cell_setting 'monoclinic'
loop_
_space_group_symop_operation_xyz
x,y,z
-x,y,-z
-x,-y,-z
x,-y,z
1/2+x,1/2+y,z
1/2-x,1/2+y,-z
1/2-x,1/2-y,-z
1/2+x,1/2-y,z
loop_
_atom_site_type_symbol
_atom_site_label
_atom_site_fract_x
_atom_site_fract_y
_atom_site_fract_z
Si Si1 0.186488 0.588922 0.389482
Si Si2 0.442879 0.588058 0.254754
Si Si3 0.691941 0.290961 0.768274
Si Si4 0.412128 0.141947 0.148830
O O1 0.222105 0.500000 0.414698
O O2 0.248208 0.665763 0.452400
O O3 0.106955 0.592593 0.582356
O O4 0.152828 0.606817 0.082710
O O5 0.500000 0.626508 0.500000
O O6 0.421831 0.500000 0.351898
O O7 0.358410 0.630812 0.153755
O O8 0.500000 0.583996 0.000000
O O9 0.614411 0.229044 0.746189
O O10 0.750000 0.250000 0.000000
O O11 0.500000 0.142932 0.000000
#
# Coordination Sequence:
#
# PCOD9214907 Si02
#       4
#     8   8   8   8
#     4  11  24  42  65  92 126 168 213 266 324 387
#     4  10  22  40  65  96 131 173 219 273 335 400
#     4  10  23  43  66  97 132 171 220 275 335 400
#     4  11  24  41  64  93 126 167 213 265 323 386
#
# _framework density 24.259136999999999
#
# number of rings (size 3 to 8) (size 9 to 14) (size 15 to 20)
#    0.000    1.500    0.000    3.750    0.000   13.000 
#    0.000    7.500    0.000    0.000    0.000    0.000 
#    0.000    0.000    0.000    0.000    0.000    0.000 
#
# Total GULP energy -89103.753929 kJ/mol
# GULP energy per Si atom -5568.984621 kJ/mol
# Density = 2.420392 g / cm^3
# Si number density = 24.259137 Si / 1000 Ang^3
#
#
#
# Elastic Constant Matrix: (Units=GPa)
#
#
# Indices 1 2 3 4 5 6 
#
# 1 122.6919 44.4820 26.6333 0.0000 -27.8918 0.0000
# 2 44.4820 139.8638 27.3608 0.0000 -2.2552 0.0000
# 3 26.6333 27.3608 107.0547 0.0000 -16.2553 0.0000
# 4 0.0000 0.0000 0.0000 -31.3754 0.0000 33.7187
# 5 -27.8918 -2.2552 -16.2553 0.0000 47.4266 0.0000
# 6 0.0000 0.0000 0.0000 33.7187 0.0000 50.5060
#
#
#
# Elastic Compliance Matrix: (Units=1/GPa)
#
#
# Indices 1 2 3 4 5 6 
#
# 1 0.010852 -0.003161 -0.000998 0.000000 0.005890 0.000000
# 2 -0.003161 0.008452 -0.001682 0.000000 -0.002034 0.000000
# 3 -0.000998 -0.001682 0.010462 0.000000 0.002919 0.000000
# 4 0.000000 0.000000 0.000000 -0.018558 0.000000 0.012389
# 5 0.005890 -0.002034 0.002919 0.000000 0.025453 0.000000
# 6 0.000000 0.000000 0.000000 0.012389 0.000000 0.011528
#
#
# Mechanical properties :
#
#
# Convention : Reuss Voigt Hill
#
# Bulk Modulus (GPa) = 55.29830 62.95140 59.12485
# Shear Modulus (GPa) = 75.87228 31.38708 53.62968
#
# Velocity S-wave (km/s) = 5.59854 3.60088 4.70691
# Velocity P-wave (km/s) = 8.03964 6.57984 7.34609
#
# Compressibility (1/GPa) = 0.01808374
#
# Stress axis : x y z
#
# Youngs Moduli (GPa) = 92.14777 118.32159 95.57997
#
# Poissons Ratio (x) = 0.37405 0.09534
# Poissons Ratio (y) = 0.29130 0.16080
# Poissons Ratio (z) = 0.09192 0.19906
#
# Static dielectric constant tensor:
#      x y z
#    x 2.004850 0.000000 -0.006970 
#    y 0.000000 2.146230 0.000000 
#    z -0.006970 0.000000 1.900720 
# 
# From -- ./inp_files/9944.got.cif
#   From: 2010.05.17/outbox.cif.g08.bks.cpg/sg12_5_cif.got.tgz:9944.got - 2010.06.03 13:09:07.
