data_PCOD9214084
_publ_section_title
;
Structure prediction by ZEFSAII (Michael W. Deem and Ramdas Pophale) SiO2 
 PCOD9214084
Probable space group: C 2/M
;
_chemical_formula_sum "Si O2"
_cell_formula_units_Z 56
_cell_length_a 9.068322
_cell_length_b 27.833313
_cell_length_c 10.486012
_cell_angle_alpha 90.000000
_cell_angle_beta 105.763803
_cell_angle_gamma 90.000000
_cell_volume 2547.142284
_symmetry_space_group_name_H-M "C 2/M"
_symmetry_group_IT_number 12
_symmetry_cell_setting 'monoclinic'
loop_
_space_group_symop_operation_xyz
x,y,z
-x,y,-z
-x,-y,-z
x,-y,z
1/2+x,1/2+y,z
1/2-x,1/2+y,-z
1/2-x,1/2-y,-z
1/2+x,1/2-y,z
loop_
_atom_site_type_symbol
_atom_site_label
_atom_site_fract_x
_atom_site_fract_y
_atom_site_fract_z
Si Si1 0.976333 0.943919 0.642989
Si Si2 0.294356 0.296014 0.094132
Si Si3 0.590963 0.054819 0.900639
Si Si4 0.426981 0.244985 0.754436
Si Si5 0.131197 0.099300 0.927187
Si Si6 0.644251 0.800673 0.619380
Si Si7 0.636572 0.086542 0.627190
O O1 0.796454 0.939715 0.636269
O O2 0.000000 0.928664 0.500000
O O3 0.068997 0.913312 0.771167
O O4 0.023165 0.000000 0.662918
O O5 0.476673 0.288390 0.159945
O O6 0.181242 0.288704 0.186952
O O7 0.277322 0.350373 0.045889
O O8 0.250000 0.250000 0.000000
O O9 0.585484 0.079567 0.761675
O O10 0.538636 0.000000 0.869469
O O11 0.500000 0.075934 0.000000
O O12 0.763184 0.057366 0.992741
O O13 0.567597 0.213147 0.735912
O O14 0.301300 0.272150 0.638127
O O15 0.000000 0.104856 0.000000
O O16 0.500000 0.785617 0.500000
O O17 0.667752 0.857015 0.611037
O O18 0.500000 0.071414 0.500000
#
# Coordination Sequence:
#
# PCOD9214084 Si02
#       7
#     8   8   8   8   8   8   8
#     4  11  26  47  72 102 139 184 235 292 357 423
#     4  11  24  39  63  96 133 175 223 279 341 406
#     4  11  27  45  68 100 137 178 227 288 353 415
#     4  10  22  39  62  90 131 172 222 274 333 398
#     4  12  25  43  72 101 137 182 233 290 344 417
#     4  10  22  40  63  93 130 175 225 277 334 404
#     4  11  25  44  70 101 139 181 233 282 349 417
#
# _framework density 21.985423999999998
#
# number of rings (size 3 to 8) (size 9 to 14) (size 15 to 20)
#    0.000    1.143    1.429    3.429    8.000    2.857 
#    0.000    3.571    0.000    0.000    0.000    0.000 
#    0.000    0.000    0.000    0.000    0.000    0.000 
#
# Total GULP energy -156184.397620 kJ/mol
# GULP energy per Si atom -5578.014201 kJ/mol
# Density = 2.193538 g / cm^3
# Si number density = 21.985424 Si / 1000 Ang^3
#
#
#
# Elastic Constant Matrix: (Units=GPa)
#
#
# Indices 1 2 3 4 5 6 
#
# 1 69.3557 19.7612 25.0934 0.0000 -4.6206 0.0000
# 2 19.7612 65.2752 18.9745 0.0000 -0.0923 0.0000
# 3 25.0934 18.9745 133.7094 0.0000 -1.0139 0.0000
# 4 0.0000 0.0000 0.0000********** 0.0000 9269.3298
# 5 -4.6206 -0.0923 -1.0139 0.0000 37.9239 0.0000
# 6 0.0000 0.0000 0.0000 9269.3298 0.0000-6523.2205
#
#
#
# Elastic Compliance Matrix: (Units=1/GPa)
#
#
# Indices 1 2 3 4 5 6 
#
# 1 0.016686 -0.004321 -0.002503 0.000000 0.001956 0.000000
# 2 -0.004321 0.017098 -0.001619 0.000000 -0.000528 0.000000
# 3 -0.002503 -0.001619 0.008178 0.000000 -0.000090 0.000000
# 4 0.000000 0.000000 0.000000 0.016122 0.000000 0.022910
# 5 0.001956 -0.000528 -0.000090 0.000000 0.026603 0.000000
# 6 0.000000 0.000000 0.000000 0.022910 0.000000 0.032401
#
#
# Mechanical properties :
#
#
# Convention : Reuss Voigt Hill
#
# Bulk Modulus (GPa) = 39.88220 43.99984 41.94102
# Shear Modulus (GPa) = 35.12888 -3905.31643 -1935.09378
#
# Velocity S-wave (km/s) = 4.00162 -42.19214 -29.69987
# Velocity P-wave (km/s) = 6.28731 48.51302 34.01457
#
# Compressibility (1/GPa) = 0.02507384
#
# Stress axis : x y z
#
# Youngs Moduli (GPa) = 59.93193 58.48691 122.28150
#
# Poissons Ratio (x) = 0.25272 0.30612
# Poissons Ratio (y) = 0.25896 0.19803
# Poissons Ratio (z) = 0.15003 0.09472
#
# Static dielectric constant tensor:
#      x y z
#    x 1.635760 0.000000 -0.090540 
#    y 0.000000 1.813550 0.000000 
#    z -0.090540 0.000000 2.024210 
# 
# From -- ./inp_files/124356.got.cif
#   From: 2010.05.17/outbox.cif.g08.bks.cpg/sg12_63_cif.got.tgz:124356.got - 2010.06.03 13:09:07.
