data_PCOD9214205
_publ_section_title
;
Structure prediction by ZEFSAII (Michael W. Deem and Ramdas Pophale) SiO2 
 PCOD9214205
Probable space group: C 2/M
;
_chemical_formula_sum "Si O2"
_cell_formula_units_Z 64
_cell_length_a 15.218896
_cell_length_b 12.744623
_cell_length_c 27.489960
_cell_angle_alpha 90.000000
_cell_angle_beta 35.981784
_cell_angle_gamma 90.000000
_cell_volume 3132.656873
_symmetry_space_group_name_H-M "C 2/M"
_symmetry_group_IT_number 12
_symmetry_cell_setting 'monoclinic'
loop_
_space_group_symop_operation_xyz
x,y,z
-x,y,-z
-x,-y,-z
x,-y,z
1/2+x,1/2+y,z
1/2-x,1/2+y,-z
1/2-x,1/2-y,-z
1/2+x,1/2-y,z
loop_
_atom_site_type_symbol
_atom_site_label
_atom_site_fract_x
_atom_site_fract_y
_atom_site_fract_z
Si Si1 0.604086 0.253142 0.224370
Si Si2 0.159412 0.882419 0.938756
Si Si3 0.844439 0.622405 0.179533
Si Si4 0.381080 0.619316 0.434767
Si Si5 0.193823 0.195619 0.340145
Si Si6 0.899271 0.878655 0.241996
Si Si7 0.680607 0.191801 0.607923
Si Si8 0.589093 0.699706 0.066719
O O1 0.710029 0.188568 0.140605
O O2 0.703112 0.325347 0.215209
O O3 0.492382 0.325863 0.243808
O O4 0.493644 0.173706 0.301783
O O5 0.167989 0.000000 0.914182
O O6 0.136460 0.886501 0.006163
O O7 0.000000 0.828980 0.000000
O O8 0.865884 0.500000 0.157434
O O9 0.807741 0.631634 0.253792
O O10 0.980307 0.700149 0.105254
O O11 0.413210 0.500000 0.405210
O O12 0.528959 0.666914 0.395157
O O13 0.326878 0.692335 0.414399
O O14 0.254416 0.622664 0.533051
O O15 0.244572 0.314945 0.306796
O O16 0.226858 0.180102 0.382894
O O17 0.002586 0.856849 0.148964
O O18 0.875046 0.000000 0.260527
O O19 0.750000 0.750000 0.000000
#
# Coordination Sequence:
#
# PCOD9214205 Si02
#       8
#     8   8   8   8   8   8   8   8
#     4  11  21  42  64  93 131 163 217 276 322 400
#     4  11  23  40  61  82 118 170 213 262 326 378
#     4  11  23  39  66  95 125 169 216 272 328 381
#     4  11  23  44  73  99 131 177 220 270 334 395
#     4  10  22  41  65  98 135 172 221 270 321 402
#     4  10  22  39  64  93 129 172 210 267 341 394
#     4  10  24  41  65 102 138 164 214 280 329 389
#     4  11  22  41  57  88 128 161 217 272 318 393
#
# _framework density 20.429943000000002
#
# number of rings (size 3 to 8) (size 9 to 14) (size 15 to 20)
#    0.000    1.375    3.750    1.500    0.000    5.000 
#    0.000    5.000    0.000    6.000    0.000    0.000 
#    0.000    0.000    0.000    0.000    0.000    0.000 
#
# Total GULP energy -178269.898149 kJ/mol
# GULP energy per Si atom -5570.934317 kJ/mol
# Density = 2.038344 g / cm^3
# Si number density = 20.429943 Si / 1000 Ang^3
#
#
#
# Elastic Constant Matrix: (Units=GPa)
#
#
# Indices 1 2 3 4 5 6 
#
# 1 70.3690 37.3769 13.9792 0.0000 3.0231 0.0000
# 2 37.3769 102.5090 32.3974 0.0000 -12.5414 0.0000
# 3 13.9792 32.3974 99.8430 -0.0001 6.0142 0.0000
# 4 0.0000 0.0000 -0.0001 20.2278 0.0000 -9.8723
# 5 3.0231 -12.5414 6.0142 0.0000 41.1247 0.0000
# 6 0.0000 0.0000 0.0000 -9.8723 0.0000 23.3072
#
#
#
# Elastic Compliance Matrix: (Units=1/GPa)
#
#
# Indices 1 2 3 4 5 6 
#
# 1 0.018089 -0.007002 -0.000052 0.000000 -0.003457 0.000000
# 2 -0.007002 0.014225 -0.003963 0.000000 0.005432 0.000000
# 3 -0.000052 -0.003963 0.011483 0.000000 -0.002884 0.000000
# 4 0.000000 0.000000 0.000000 0.062320 0.000000 0.026397
# 5 -0.003457 0.005432 -0.002884 0.000000 0.026649 0.000000
# 6 0.000000 0.000000 0.000000 0.026397 0.000000 0.054086
#
#
# Mechanical properties :
#
#
# Convention : Reuss Voigt Hill
#
# Bulk Modulus (GPa) = 45.95043 48.91424 47.43233
# Shear Modulus (GPa) = 23.13304 29.52977 26.33141
#
# Velocity S-wave (km/s) = 3.36863 3.80599 3.59397
# Velocity P-wave (km/s) = 6.13765 6.58092 6.36315
#
# Compressibility (1/GPa) = 0.02176258
#
# Stress axis : x y z
#
# Youngs Moduli (GPa) = 55.28253 70.29700 87.08811
#
# Poissons Ratio (x) = 0.49222 0.00456
# Poissons Ratio (y) = 0.38709 0.34511
# Poissons Ratio (z) = 0.00289 0.27857
#
# Static dielectric constant tensor:
#      x y z
#    x 1.669480 0.000000 -0.022970 
#    y 0.000000 1.753100 0.000000 
#    z -0.022970 0.000000 1.718200 
# 
# From -- ./inp_files/361035.got.cif
#   From: 2010.05.17/outbox.cif.g08.bks.cpg/sg12_181_cif.got.tgz:361035.got - 2010.06.03 13:09:07.
