data_PCOD9214873
_publ_section_title
;
Structure prediction by ZEFSAII (Michael W. Deem and Ramdas Pophale) SiO2 
 PCOD9214873
Probable space group: C 2/M
;
_chemical_formula_sum "Si O2"
_cell_formula_units_Z 64
_cell_length_a 18.393529
_cell_length_b 16.518890
_cell_length_c 15.518635
_cell_angle_alpha 90.000000
_cell_angle_beta 42.118229
_cell_angle_gamma 90.000000
_cell_volume 3162.303591
_symmetry_space_group_name_H-M "C 2/M"
_symmetry_group_IT_number 12
_symmetry_cell_setting 'monoclinic'
loop_
_space_group_symop_operation_xyz
x,y,z
-x,y,-z
-x,-y,-z
x,-y,z
1/2+x,1/2+y,z
1/2-x,1/2+y,-z
1/2-x,1/2-y,-z
1/2+x,1/2-y,z
loop_
_atom_site_type_symbol
_atom_site_label
_atom_site_fract_x
_atom_site_fract_y
_atom_site_fract_z
Si Si1 0.328228 0.593972 0.768404
Si Si2 0.800351 0.338409 0.966446
Si Si3 0.866587 0.403815 0.539985
Si Si4 0.007343 0.407229 0.095648
Si Si5 0.601758 0.902126 0.292225
Si Si6 0.279493 0.152846 0.302567
Si Si7 0.682896 0.696246 0.627144
Si Si8 0.929023 0.903111 0.403475
O O1 0.312951 0.500000 0.758276
O O2 0.257190 0.644854 0.763893
O O3 0.455852 0.612250 0.652422
O O4 0.284800 0.609902 0.902444
O O5 0.827256 0.370075 0.847716
O O6 0.912541 0.349342 0.921904
O O7 0.750000 0.250000 0.000000
O O8 0.874655 0.500000 0.535815
O O9 0.864280 0.375963 0.641444
O O10 0.761090 0.376451 0.584244
O O11 0.976111 0.374270 0.397009
O O12 0.047198 0.500000 0.070729
O O13 0.882993 0.401774 0.234937
O O14 0.000000 0.388976 0.000000
O O15 0.603996 0.000000 0.286947
O O16 0.322388 0.242286 0.288665
O O17 0.173461 0.123587 0.448340
O O18 0.750000 0.750000 0.500000
O O19 0.580659 0.654886 0.671750
O O20 0.923488 0.000000 0.390604
#
# Coordination Sequence:
#
# PCOD9214873 Si02
#       8
#     8   8   8   8   8   8   8   8
#     4  11  23  43  65  90 127 172 220 260 314 391
#     4  12  27  39  64  94 134 172 208 265 329 391
#     4   9  19  39  66  92 126 166 217 270 323 389
#     4  11  23  42  67  94 127 167 216 269 326 386
#     4   9  20  39  65  95 121 164 220 268 318 381
#     4  11  23  39  64  95 129 166 216 273 324 380
#     4  10  23  37  55  93 129 164 201 263 332 380
#     4  10  22  40  65  92 126 170 217 262 317 394
#
# _framework density 20.238412
#
# number of rings (size 3 to 8) (size 9 to 14) (size 15 to 20)
#    0.000    1.625    1.250    3.750    7.000    2.000 
#    4.500    0.000    0.000    0.000    0.000    3.500 
#    0.000    0.000    0.000    0.000    0.000    0.000 
#
# Total GULP energy -178615.044941 kJ/mol
# GULP energy per Si atom -5581.720154 kJ/mol
# Density = 2.019235 g / cm^3
# Si number density = 20.238412 Si / 1000 Ang^3
#
#
#
# Elastic Constant Matrix: (Units=GPa)
#
#
# Indices 1 2 3 4 5 6 
#
# 1 86.6043 40.0905 28.0510 0.0000 -11.4411 0.0000
# 2 40.0905 57.2305 19.4172 0.0000 3.7725 0.0000
# 3 28.0510 19.4172 92.7288 0.0000 0.1090 0.0000
# 4 0.0000 0.0000 0.0000 21.6445 0.0000 8.3459
# 5 -11.4411 3.7725 0.1090 0.0000 31.4505 0.0000
# 6 0.0000 0.0000 0.0000 8.3459 0.0000 30.8161
#
#
#
# Elastic Compliance Matrix: (Units=1/GPa)
#
#
# Indices 1 2 3 4 5 6 
#
# 1 0.020035 -0.013524 -0.003239 0.000000 0.008922 0.000000
# 2 -0.013524 0.028098 -0.001783 0.000000 -0.008284 0.000000
# 3 -0.003239 -0.001783 0.012139 0.000000 -0.001007 0.000000
# 4 0.000000 0.000000 0.000000 0.051589 0.000000 -0.013972
# 5 0.008922 -0.008284 -0.001007 0.000000 0.036039 0.000000
# 6 0.000000 0.000000 0.000000 -0.013972 0.000000 0.036235
#
#
# Mechanical properties :
#
#
# Convention : Reuss Voigt Hill
#
# Bulk Modulus (GPa) = 43.14187 45.74234 44.44211
# Shear Modulus (GPa) = 21.83872 26.71587 24.27729
#
# Velocity S-wave (km/s) = 3.28849 3.63720 3.46723
# Velocity P-wave (km/s) = 5.98180 6.34742 6.16732
#
# Compressibility (1/GPa) = 0.02317934
#
# Stress axis : x y z
#
# Youngs Moduli (GPa) = 49.91273 35.59019 82.38206
#
# Poissons Ratio (x) = 0.48131 0.26686
# Poissons Ratio (y) = 0.67501 0.14687
# Poissons Ratio (z) = 0.16168 0.06345
#
# Static dielectric constant tensor:
#      x y z
#    x 1.725180 0.000000 0.027140 
#    y 0.000000 1.733200 0.000000 
#    z 0.027140 0.000000 1.755930 
# 
# From -- ./inp_files/226817.got.cif
#   From: 2010.05.17/outbox.cif.g08.bks.cpg/sg12_114_cif.got.tgz:226817.got - 2010.06.03 13:09:07.
