data_PCOD9214363
_publ_section_title
;
Structure prediction by ZEFSAII (Michael W. Deem and Ramdas Pophale) SiO2 
 PCOD9214363
Probable space group: C 2/M
;
_chemical_formula_sum "Si O2"
_cell_formula_units_Z 64
_cell_length_a 19.594856
_cell_length_b 7.753491
_cell_length_c 29.434840
_cell_angle_alpha 90.000000
_cell_angle_beta 145.083488
_cell_angle_gamma 90.000000
_cell_volume 2559.688803
_symmetry_space_group_name_H-M "C 2/M"
_symmetry_group_IT_number 12
_symmetry_cell_setting 'monoclinic'
loop_
_space_group_symop_operation_xyz
x,y,z
-x,y,-z
-x,-y,-z
x,-y,z
1/2+x,1/2+y,z
1/2-x,1/2+y,-z
1/2-x,1/2-y,-z
1/2+x,1/2-y,z
loop_
_atom_site_type_symbol
_atom_site_label
_atom_site_fract_x
_atom_site_fract_y
_atom_site_fract_z
Si Si1 0.305302 0.210858 0.962694
Si Si2 0.200816 0.699743 0.370325
Si Si3 0.432669 0.297568 0.125651
Si Si4 0.125563 0.802086 0.611474
Si Si5 0.803138 0.701311 0.862677
Si Si6 0.025500 0.289186 0.703760
Si Si7 0.328395 0.700759 0.778311
Si Si8 0.097984 0.699898 0.457618
O O1 0.168588 0.271546 0.896387
O O2 0.345520 0.265931 0.934877
O O3 0.306815 0.000000 0.965316
O O4 0.378247 0.277632 0.045339
O O5 0.183794 0.500000 0.348864
O O6 0.285858 0.777966 0.377897
O O7 0.070031 0.770180 0.310304
O O8 0.282649 0.708259 0.460263
O O9 0.445826 0.500000 0.142509
O O10 0.564622 0.223504 0.193512
O O11 0.206817 0.795672 0.700768
O O12 0.001353 0.717180 0.556788
O O13 0.101787 0.000000 0.586327
O O14 0.832858 0.500000 0.876022
O O15 0.659162 0.722848 0.782922
O O16 0.854962 0.786179 0.846026
O O17 0.031294 0.500000 0.706813
O O18 0.965691 0.236545 0.623033
O O19 0.310421 0.500000 0.758140
O O20 0.127151 0.500000 0.467251
#
# Coordination Sequence:
#
# PCOD9214363 Si02
#       8
#     8   8   8   8   8   8   8   8
#     4   9  20  39  61  89 120 151 192 237 283 339
#     4  10  23  40  59  85 116 152 196 243 291 348
#     4   9  20  39  62  88 118 154 192 234 286 340
#     4  11  23  39  59  85 117 154 196 241 292 346
#     4  11  23  38  60  87 118 156 195 239 290 343
#     4  10  22  40  59  84 118 154 195 240 289 345
#     4  11  23  39  60  85 118 155 195 242 288 345
#     4  11  22  38  61  86 115 153 196 242 291 346
#
# _framework density 25.003039999999999
#
# number of rings (size 3 to 8) (size 9 to 14) (size 15 to 20)
#    0.000    1.750    1.250    2.250    1.750    6.000 
#    0.000    2.500    0.000    0.000    0.000    0.000 
#    0.000    0.000    0.000    0.000    0.000    0.000 
#
# Total GULP energy -179010.638261 kJ/mol
# GULP energy per Si atom -5594.082446 kJ/mol
# Density = 2.494613 g / cm^3
# Si number density = 25.003040 Si / 1000 Ang^3
#
#
#
# Elastic Constant Matrix: (Units=GPa)
#
#
# Indices 1 2 3 4 5 6 
#
# 1 98.6669 3.3427 -0.0910 -0.0001 3.3937 -0.0002
# 2 3.3427 55.9455 -6.3018 -0.0002 -1.2026 -0.0002
# 3 -0.0910 -6.3018 35.5686 0.0000 6.1856 0.0001
# 4 -0.0001 -0.0002 0.0000 19.3676 0.0000 -2.1598
# 5 3.3937 -1.2026 6.1856 0.0000 48.3524 -0.0001
# 6 -0.0002 -0.0002 0.0001 -2.1598 -0.0001 18.2336
#
#
#
# Elastic Compliance Matrix: (Units=1/GPa)
#
#
# Indices 1 2 3 4 5 6 
#
# 1 0.010181 -0.000619 0.000044 0.000000 -0.000736 0.000000
# 2 -0.000619 0.018276 0.003222 0.000000 0.000086 0.000000
# 3 0.000044 0.003222 0.029325 0.000000 -0.003674 0.000000
# 4 0.000000 0.000000 0.000000 0.052324 0.000000 0.006198
# 5 -0.000736 0.000086 -0.003674 0.000000 0.021205 0.000000
# 6 0.000000 0.000000 0.000000 0.006198 0.000000 0.055578
#
#
# Mechanical properties :
#
#
# Convention : Reuss Voigt Hill
#
# Bulk Modulus (GPa) = 15.85397 20.45341 18.15369
# Shear Modulus (GPa) = 24.67659 30.07280 27.37469
#
# Velocity S-wave (km/s) = 3.14497 3.47185 3.31245
# Velocity P-wave (km/s) = 4.42068 4.92644 4.68040
#
# Compressibility (1/GPa) = 0.06307568
#
# Stress axis : x y z
#
# Youngs Moduli (GPa) = 98.21801 54.71580 34.10108
#
# Poissons Ratio (x) = 0.03388 -0.00151
# Poissons Ratio (y) = 0.06081 -0.10986
# Poissons Ratio (z) = -0.00435 -0.17627
#
# Static dielectric constant tensor:
#      x y z
#    x 2.022270 0.000000 -0.032510 
#    y 0.000000 1.889010 0.000000 
#    z -0.032510 0.000000 1.997050 
# 
# From -- ./inp_files/378299.got.cif
#   From: 2010.05.17/outbox.cif.g08.bks.cpg/sg12_190_cif.got.tgz:378299.got - 2010.06.03 13:09:07.
