data_PCOD9214340
_publ_section_title
;
Structure prediction by ZEFSAII (Michael W. Deem and Ramdas Pophale) SiO2 
 PCOD9214340
Probable space group: C 2/M
;
_chemical_formula_sum "Si O2"
_cell_formula_units_Z 42
_cell_length_a 12.370175
_cell_length_b 13.261893
_cell_length_c 11.868786
_cell_angle_alpha 90.000000
_cell_angle_beta 122.566592
_cell_angle_gamma 90.000000
_cell_volume 1640.948212
_symmetry_space_group_name_H-M "C 2/M"
_symmetry_group_IT_number 12
_symmetry_cell_setting 'monoclinic'
loop_
_space_group_symop_operation_xyz
x,y,z
-x,y,-z
-x,-y,-z
x,-y,z
1/2+x,1/2+y,z
1/2-x,1/2+y,-z
1/2-x,1/2-y,-z
1/2+x,1/2-y,z
loop_
_atom_site_type_symbol
_atom_site_label
_atom_site_fract_x
_atom_site_fract_y
_atom_site_fract_z
Si Si1 0.166260 0.176523 0.727377
Si Si2 0.000000 0.500000 0.000000
Si Si3 0.903782 0.836831 0.653638
Si Si4 0.765439 0.390643 0.259086
Si Si5 0.340472 0.888979 0.636368
Si Si6 0.782305 0.393334 0.001020
O O1 0.164160 0.286729 0.667573
O O2 0.273492 0.114272 0.721308
O O3 0.212499 0.185932 0.882404
O O4 0.027683 0.128312 0.656489
O O5 0.072799 0.412910 0.961395
O O6 0.874547 0.876716 0.762497
O O7 0.778236 0.872262 0.515683
O O8 0.918081 0.714833 0.668158
O O9 0.817125 0.500000 0.324817
O O10 0.767469 0.390193 0.125676
O O11 0.399477 0.000000 0.652767
O O12 0.717097 0.500000 0.928907
#
# Coordination Sequence:
#
# PCOD9214340 Si02
#       6
#     8   2   8   8   8   8
#     4  11  22  38  62  94 122 159 217 259 304 367
#     4   8  20  40  64  90 122 160 198 256 302 370
#     4  10  23  40  61  91 126 165 203 269 314 359
#     4  10  22  40  58  87 129 163 202 253 316 378
#     4  10  22  41  62  88 125 166 216 251 310 378
#     4   9  20  38  61  93 122 155 206 255 300 376
#
# _framework density 25.594957999999998
#
# number of rings (size 3 to 8) (size 9 to 14) (size 15 to 20)
#    0.571    1.524    0.000    2.286    0.000    8.381 
#    0.000    1.905    0.000    6.857    0.000    0.000 
#    0.000    0.000    0.000    0.000    0.000    0.000 
#
# Total GULP energy -116951.316847 kJ/mol
# GULP energy per Si atom -5569.110326 kJ/mol
# Density = 2.553670 g / cm^3
# Si number density = 25.594958 Si / 1000 Ang^3
#
#
#
# Elastic Constant Matrix: (Units=GPa)
#
#
# Indices 1 2 3 4 5 6 
#
# 1 86.6254 -1.2029 12.1539 0.0000 -10.6120 0.0000
# 2 -1.2029 150.3239 -4.6167 0.0000 4.9247 0.0000
# 3 12.1539 -4.6167 83.1762 0.0000 -25.7460 0.0000
# 4 0.0000 0.0000 0.0000 28.8910 0.0000 -10.0382
# 5 -10.6120 4.9247 -25.7460 0.0000 22.5081 0.0000
# 6 0.0000 0.0000 0.0000 -10.0382 0.0000 2.8081
#
#
#
# Elastic Compliance Matrix: (Units=1/GPa)
#
#
# Indices 1 2 3 4 5 6 
#
# 1 0.012253 -0.000092 -0.000002 0.000000 0.005795 0.000000
# 2 -0.000092 0.006702 -0.000127 0.000000 -0.001655 0.000000
# 3 -0.000002 -0.000127 0.018615 0.000000 0.021320 0.000000
# 4 0.000000 0.000000 0.000000 -0.142992 0.000000 -0.511163
# 5 0.005795 -0.001655 0.021320 0.000000 0.071910 0.000000
# 6 0.000000 0.000000 0.000000 -0.511163 0.000000 -1.471174
#
#
# Mechanical properties :
#
#
# Convention : Reuss Voigt Hill
#
# Bulk Modulus (GPa) = 26.93301 36.97712 31.95507
# Shear Modulus (GPa) = -3.35150 31.76084 14.20467
#
# Velocity S-wave (km/s) = -1.14555 3.52647 2.35836
# Velocity P-wave (km/s) = 2.96579 5.57312 4.46406
#
# Compressibility (1/GPa) = 0.03712916
#
# Stress axis : x y z
#
# Youngs Moduli (GPa) = 81.61375 149.21181 53.71955
#
# Poissons Ratio (x) = 0.01371 0.00009
# Poissons Ratio (y) = 0.00750 0.00681
# Poissons Ratio (z) = 0.00014 0.01891
#
# Static dielectric constant tensor:
#      x y z
#    x 2.000750 0.000000 0.000510 
#    y 0.000000 2.125330 0.000000 
#    z 0.000510 0.000000 2.048790 
# 
# From -- ./inp_files/129747.got.cif
#   From: 2010.05.17/outbox.cif.g08.bks.cpg/sg12_65_cif.got.tgz:129747.got - 2010.06.03 13:09:07.
