data_PCOD9214040
_publ_section_title
;
Structure prediction by ZEFSAII (Michael W. Deem and Ramdas Pophale) SiO2 
 PCOD9214040
Probable space group: C 2/M
;
_chemical_formula_sum "Si O2"
_cell_formula_units_Z 64
_cell_length_a 20.108176
_cell_length_b 8.234377
_cell_length_c 30.784339
_cell_angle_alpha 90.000000
_cell_angle_beta 37.674559
_cell_angle_gamma 90.000000
_cell_volume 3115.295896
_symmetry_space_group_name_H-M "C 2/M"
_symmetry_group_IT_number 12
_symmetry_cell_setting 'monoclinic'
loop_
_space_group_symop_operation_xyz
x,y,z
-x,y,-z
-x,-y,-z
x,-y,z
1/2+x,1/2+y,z
1/2-x,1/2+y,-z
1/2-x,1/2-y,-z
1/2+x,1/2-y,z
loop_
_atom_site_type_symbol
_atom_site_label
_atom_site_fract_x
_atom_site_fract_y
_atom_site_fract_z
Si Si1 0.171711 0.198630 0.123455
Si Si2 0.776933 0.805758 0.383811
Si Si3 0.584405 0.193168 0.991866
Si Si4 0.541886 0.308960 0.108880
Si Si5 0.543243 0.692139 0.525254
Si Si6 0.119950 0.312450 0.318833
Si Si7 0.178346 0.311211 0.736131
Si Si8 0.481556 0.696545 0.718061
O O1 0.133269 0.251682 0.095568
O O2 0.083051 0.247214 0.205191
O O3 0.172221 0.000000 0.122318
O O4 0.291879 0.256781 0.073984
O O5 0.671460 0.726264 0.459754
O O6 0.782218 0.758460 0.330343
O O7 0.892360 0.753612 0.344297
O O8 0.767513 0.000000 0.392218
O O9 0.543901 0.221853 0.061679
O O10 0.592002 0.000000 0.980220
O O11 0.500000 0.260652 0.000000
O O12 0.558543 0.500000 0.092678
O O13 0.427176 0.281769 0.192080
O O14 0.500000 0.743069 0.500000
O O15 0.522320 0.500000 0.540647
O O16 0.476653 0.781898 0.596883
O O17 0.152433 0.500000 0.303066
O O18 0.223101 0.209302 0.281140
O O19 0.077626 0.263881 0.293528
O O20 0.151176 0.500000 0.744893
O O21 0.479373 0.500000 0.717548
#
# Coordination Sequence:
#
# PCOD9214040 Si02
#       8
#     8   8   8   8   8   8   8   8
#     4   9  19  39  64  89 124 168 208 252 309 371
#     4  11  22  40  67  95 125 164 210 264 317 370
#     4  10  22  39  61  93 128 167 211 255 310 375
#     4  11  22  40  64  91 124 165 212 263 313 368
#     4  11  23  40  64  93 125 167 212 258 314 379
#     4  12  26  42  63  94 128 165 210 261 316 375
#     4  12  24  40  64  93 125 164 211 263 317 379
#     4  10  22  42  65  91 128 170 209 256 318 376
#
# _framework density 20.543794999999999
#
# number of rings (size 3 to 8) (size 9 to 14) (size 15 to 20)
#    0.000    1.250    2.500    3.750    1.750    2.250 
#    0.000    1.250    0.000    0.000    0.000    0.000 
#    0.000    0.000    0.000    0.000    0.000    0.000 
#
# Total GULP energy -178962.001552 kJ/mol
# GULP energy per Si atom -5592.562549 kJ/mol
# Density = 2.049704 g / cm^3
# Si number density = 20.543795 Si / 1000 Ang^3
#
#
#
# Elastic Constant Matrix: (Units=GPa)
#
#
# Indices 1 2 3 4 5 6 
#
# 1 129.1702 -4.3928 26.1004 -0.0027 -9.8333 0.0179
# 2 -4.3928 15.4266 -9.8350 0.0047 -1.5130 0.0140
# 3 26.1004 -9.8350 60.3165 -0.0043 -12.9534 -0.0001
# 4 -0.0027 0.0047 -0.0043 15.4603 -0.0001 5.5476
# 5 -9.8333 -1.5130 -12.9534 -0.0001 33.4267 0.0012
# 6 0.0179 0.0140 -0.0001 5.5476 0.0012 18.7254
#
#
#
# Elastic Compliance Matrix: (Units=1/GPa)
#
#
# Indices 1 2 3 4 5 6 
#
# 1 0.008528 0.000406 -0.003361 0.000004 0.001225 -0.000010
# 2 0.000406 0.074679 0.013911 0.000002 0.008890 -0.000057
# 3 -0.003361 0.013911 0.022061 0.000005 0.008190 -0.000009
# 4 0.000004 0.000002 0.000005 0.072376 0.000004 -0.021442
# 5 0.001225 0.008890 0.008190 0.000004 0.033853 -0.000011
# 6 -0.000010 -0.000057 -0.000009 -0.021442 -0.000011 0.059756
#
#
# Mechanical properties :
#
#
# Convention : Reuss Voigt Hill
#
# Bulk Modulus (GPa) = 7.86302 25.40651 16.63477
# Shear Modulus (GPa) = 17.13888 26.39185 21.76537
#
# Velocity S-wave (km/s) = 2.89149 3.58811 3.25847
# Velocity P-wave (km/s) = 3.87084 5.43690 4.71928
#
# Compressibility (1/GPa) = 0.12717762
#
# Stress axis : x y z
#
# Youngs Moduli (GPa) = 117.26225 13.39067 45.32957
#
# Poissons Ratio (x) = -0.00543 0.15236
# Poissons Ratio (y) = -0.04757 -0.63056
# Poissons Ratio (z) = 0.39413 -0.18627
#
# Static dielectric constant tensor:
#      x y z
#    x 1.721080 0.000000 -0.022120 
#    y 0.000000 1.707860 0.000000 
#    z -0.022120 0.000000 1.699620 
# 
# From -- ./inp_files/378057.got.cif
#   From: 2010.05.17/outbox.cif.g08.bks.cpg/sg12_190_cif.got.tgz:378057.got - 2010.06.03 13:09:07.
