data_PCOD9214498
_publ_section_title
;
Structure prediction by ZEFSAII (Michael W. Deem and Ramdas Pophale) SiO2 
 PCOD9214498
Probable space group: C 2/M
;
_chemical_formula_sum "Si O2"
_cell_formula_units_Z 48
_cell_length_a 16.221335
_cell_length_b 7.788024
_cell_length_c 29.598305
_cell_angle_alpha 90.000000
_cell_angle_beta 144.411465
_cell_angle_gamma 90.000000
_cell_volume 2176.075912
_symmetry_space_group_name_H-M "C 2/M"
_symmetry_group_IT_number 12
_symmetry_cell_setting 'monoclinic'
loop_
_space_group_symop_operation_xyz
x,y,z
-x,y,-z
-x,-y,-z
x,-y,z
1/2+x,1/2+y,z
1/2-x,1/2+y,-z
1/2-x,1/2-y,-z
1/2+x,1/2-y,z
loop_
_atom_site_type_symbol
_atom_site_label
_atom_site_fract_x
_atom_site_fract_y
_atom_site_fract_z
Si Si1 0.092591 0.801691 0.826303
Si Si2 0.936027 0.703290 0.843067
Si Si3 0.102703 0.290594 0.005056
Si Si4 0.372099 0.798155 0.413363
Si Si5 0.627422 0.208717 0.689246
Si Si6 0.911509 0.696170 0.664212
O O1 0.238842 0.734100 0.912623
O O2 0.978150 0.792881 0.815277
O O3 0.031993 0.703429 0.756534
O O4 0.113902 0.000000 0.822136
O O5 0.959273 0.500000 0.847823
O O6 0.770591 0.733507 0.778148
O O7 0.035962 0.767544 0.928078
O O8 0.104524 0.500000 0.004049
O O9 0.000000 0.240140 0.000000
O O10 0.500000 0.723306 0.500000
O O11 0.364075 0.728162 0.358738
O O12 0.225862 0.783013 0.375516
O O13 0.401965 0.000000 0.420488
O O14 0.487235 0.268243 0.653283
O O15 0.626806 0.000000 0.689929
O O16 0.870889 0.500000 0.637230
#
# Coordination Sequence:
#
# PCOD9214498 Si02
#       6
#     8   8   8   8   8   8
#     4  11  21  36  58  82 116 160 200 246 302 352
#     4  11  21  35  58  86 116 155 204 249 293 351
#     4   9  19  34  52  79 114 153 201 250 292 344
#     4  10  22  42  66  90 120 160 199 239 296 364
#     4  10  22  40  61  88 124 160 196 245 300 352
#     4  11  23  39  61  91 123 157 200 250 298 349
#
# _framework density 22.058053999999998
#
# number of rings (size 3 to 8) (size 9 to 14) (size 15 to 20)
#    0.000    1.667    1.667    3.000    0.000    3.667 
#    0.000    2.500    0.000    6.000    0.000    0.000 
#    0.000    0.000    0.000    0.000    0.000    0.000 
#
# Total GULP energy -134132.509327 kJ/mol
# GULP energy per Si atom -5588.854555 kJ/mol
# Density = 2.200785 g / cm^3
# Si number density = 22.058054 Si / 1000 Ang^3
#
#
#
# Elastic Constant Matrix: (Units=GPa)
#
#
# Indices 1 2 3 4 5 6 
#
# 1 112.2920 -9.7167 29.8971 0.0000 10.0467 0.0001
# 2 -9.7167 36.3496 -2.0129 -0.0001 -2.2717 0.0002
# 3 29.8971 -2.0129 109.0562 0.0000 13.7572 0.0000
# 4 0.0000 -0.0001 0.0000 6.5683 0.0000 1.7702
# 5 10.0467 -2.2717 13.7572 0.0000 11.2581 0.0000
# 6 0.0001 0.0002 0.0000 1.7702 0.0000 12.3912
#
#
#
# Elastic Compliance Matrix: (Units=1/GPa)
#
#
# Indices 1 2 3 4 5 6 
#
# 1 0.010178 0.002222 -0.001963 0.000000 -0.006236 0.000000
# 2 0.002222 0.028352 -0.000659 0.000001 0.004543 -0.000001
# 3 -0.001963 -0.000659 0.011221 0.000000 -0.012093 0.000000
# 4 0.000000 0.000001 0.000000 0.158342 0.000000 -0.022621
# 5 -0.006236 0.004543 -0.012093 0.000000 0.110085 0.000000
# 6 0.000000 -0.000001 0.000000 -0.022621 0.000000 0.083934
#
#
# Mechanical properties :
#
#
# Convention : Reuss Voigt Hill
#
# Bulk Modulus (GPa) = 20.42787 32.67030 26.54908
# Shear Modulus (GPa) = 11.92667 22.01222 16.96945
#
# Velocity S-wave (km/s) = 2.32781 3.16242 2.77665
# Velocity P-wave (km/s) = 4.06275 5.30827 4.72672
#
# Compressibility (1/GPa) = 0.04895273
#
# Stress axis : x y z
#
# Youngs Moduli (GPa) = 98.24988 35.27074 89.11853
#
# Poissons Ratio (x) = -0.07838 0.17490
# Poissons Ratio (y) = -0.21834 0.05873
# Poissons Ratio (z) = 0.19282 0.02324
#
# Static dielectric constant tensor:
#      x y z
#    x 1.803350 0.000000 -0.001240 
#    y 0.000000 1.812230 0.000000 
#    z -0.001240 0.000000 1.801240 
# 
# From -- ./inp_files/360244.got.cif
#   From: 2010.05.17/outbox.cif.g08.bks.cpg/sg12_181_cif.got.tgz:360244.got - 2010.06.03 13:09:07.
