data_PCOD9214076
_publ_section_title
;
Structure prediction by ZEFSAII (Michael W. Deem and Ramdas Pophale) SiO2 
 PCOD9214076
Probable space group: C 2/M
;
_chemical_formula_sum "Si O2"
_cell_formula_units_Z 64
_cell_length_a 20.940997
_cell_length_b 24.560382
_cell_length_c 17.131619
_cell_angle_alpha 90.000000
_cell_angle_beta 22.093404
_cell_angle_gamma 90.000000
_cell_volume 3314.015473
_symmetry_space_group_name_H-M "C 2/M"
_symmetry_group_IT_number 12
_symmetry_cell_setting 'monoclinic'
loop_
_space_group_symop_operation_xyz
x,y,z
-x,y,-z
-x,-y,-z
x,-y,z
1/2+x,1/2+y,z
1/2-x,1/2+y,-z
1/2-x,1/2-y,-z
1/2+x,1/2-y,z
loop_
_atom_site_type_symbol
_atom_site_label
_atom_site_fract_x
_atom_site_fract_y
_atom_site_fract_z
Si Si1 0.068725 0.652803 0.003769
Si Si2 0.838420 0.061508 0.239548
Si Si3 0.683815 0.747299 0.330111
Si Si4 0.757750 0.062589 0.055734
Si Si5 0.374216 0.401430 0.369936
Si Si6 0.804480 0.363565 0.723563
Si Si7 0.765998 0.211204 0.555648
Si Si8 0.520586 0.062808 0.175640
O O1 0.917776 0.687375 0.213814
O O2 0.110612 0.604549 0.015078
O O3 0.211665 0.695717 0.819206
O O4 0.000000 0.629035 0.000000
O O5 0.881140 0.095257 0.268006
O O6 0.712543 0.094632 0.328493
O O7 0.784811 0.000000 0.321874
O O8 0.000000 0.057407 0.000000
O O9 0.500000 0.742633 0.500000
O O10 0.776642 0.804292 0.201321
O O11 0.669663 0.741986 0.439924
O O12 0.741368 0.105694 0.144715
O O13 0.608773 0.071247 0.160651
O O14 0.743700 0.000000 0.101261
O O15 0.950317 0.069043 0.803809
O O16 0.373959 0.341631 0.407693
O O17 0.183644 0.425970 0.599379
O O18 0.000000 0.349621 0.500000
O O19 0.750000 0.250000 0.500000
O O20 0.549614 0.000000 0.122788
#
# Coordination Sequence:
#
# PCOD9214076 Si02
#       8
#     8   8   8   8   8   8   8   8
#     4   9  21  41  63  87 119 155 198 253 310 362
#     4  11  21  34  55  83 118 161 205 248 295 357
#     4  10  23  41  62  88 122 159 204 259 307 363
#     4  11  23  38  59  91 127 165 205 247 308 368
#     4  11  22  38  61  88 123 163 205 250 307 365
#     4  11  23  37  56  84 121 163 206 250 304 362
#     4  10  22  39  62  90 116 160 205 253 308 365
#     4  10  22  40  64  91 124 159 199 257 308 371
#
# _framework density 19.311920000000001
#
# number of rings (size 3 to 8) (size 9 to 14) (size 15 to 20)
#    0.000    1.625    1.250    3.000    3.500    6.750 
#    0.000    1.250    0.000    0.375    0.000    0.000 
#    0.000    0.000    0.000    0.000    0.000    0.000 
#
# Total GULP energy -178379.071388 kJ/mol
# GULP energy per Si atom -5574.345981 kJ/mol
# Density = 1.926797 g / cm^3
# Si number density = 19.311920 Si / 1000 Ang^3
#
#
#
# Elastic Constant Matrix: (Units=GPa)
#
#
# Indices 1 2 3 4 5 6 
#
# 1 105.5004 69.7188 24.6025 -0.1038 12.6411 0.0753
# 2 69.7188 122.1081 26.5418 -0.1269 18.4463 0.1217
# 3 24.6025 26.5418 50.3129 -0.0899 4.6177 0.0895
# 4 -0.1038 -0.1269 -0.0899 23.9786 0.0811 13.4084
# 5 12.6411 18.4463 4.6177 0.0811 32.0087 -0.0703
# 6 0.0753 0.1217 0.0895 13.4084 -0.0703 30.1874
#
#
#
# Elastic Compliance Matrix: (Units=1/GPa)
#
#
# Indices 1 2 3 4 5 6 
#
# 1 0.015734 -0.008100 -0.003323 0.000021 -0.001067 -0.000009
# 2 -0.008100 0.014171 -0.003100 0.000086 -0.004521 -0.000077
# 3 -0.003323 -0.003100 0.023158 0.000112 -0.000243 -0.000098
# 4 0.000021 0.000086 0.000112 0.055488 -0.000269 -0.024648
# 5 -0.001067 -0.004521 -0.000243 -0.000269 0.034304 0.000221
# 6 -0.000009 -0.000077 -0.000098 -0.024648 0.000221 0.044075
#
#
# Mechanical properties :
#
#
# Convention : Reuss Voigt Hill
#
# Bulk Modulus (GPa) = 41.63478 57.73862 49.68670
# Shear Modulus (GPa) = 22.32309 27.70549 25.01429
#
# Velocity S-wave (km/s) = 3.40357 3.79176 3.60290
# Velocity P-wave (km/s) = 6.08701 7.00948 6.56447
#
# Compressibility (1/GPa) = 0.02401838
#
# Stress axis : x y z
#
# Youngs Moduli (GPa) = 63.55552 70.56536 43.18110
#
# Poissons Ratio (x) = 0.57160 0.14348
# Poissons Ratio (y) = 0.51481 0.13385
# Poissons Ratio (z) = 0.21118 0.21873
#
# Static dielectric constant tensor:
#      x y z
#    x 1.675250 -0.000010 -0.006660 
#    y -0.000010 1.710510 0.000000 
#    z -0.006660 0.000000 1.697800 
# 
# From -- ./inp_files/228139.got.cif
#   From: 2010.05.17/outbox.cif.g08.bks.cpg/sg12_115_cif.got.tgz:228139.got - 2010.06.03 13:09:07.
