data_PCOD9214496
_publ_section_title
;
Structure prediction by ZEFSAII (Michael W. Deem and Ramdas Pophale) SiO2 
 PCOD9214496
Probable space group: C 2/M
;
_chemical_formula_sum "Si O2"
_cell_formula_units_Z 40
_cell_length_a 17.407554
_cell_length_b 20.018339
_cell_length_c 9.756844
_cell_angle_alpha 90.000000
_cell_angle_beta 148.155487
_cell_angle_gamma 90.000000
_cell_volume 1793.878564
_symmetry_space_group_name_H-M "C 2/M"
_symmetry_group_IT_number 12
_symmetry_cell_setting 'monoclinic'
loop_
_space_group_symop_operation_xyz
x,y,z
-x,y,-z
-x,-y,-z
x,-y,z
1/2+x,1/2+y,z
1/2-x,1/2+y,-z
1/2-x,1/2-y,-z
1/2+x,1/2-y,z
loop_
_atom_site_type_symbol
_atom_site_label
_atom_site_fract_x
_atom_site_fract_y
_atom_site_fract_z
Si Si1 0.989243 0.606262 0.325415
Si Si2 0.619382 0.288181 0.083858
Si Si3 0.352641 0.919994 0.852303
Si Si4 0.284043 0.576177 0.624641
Si Si5 0.558378 0.736741 0.445463
O O1 0.000000 0.582499 0.500000
O O2 0.121753 0.573582 0.442937
O O3 0.012395 0.685323 0.367859
O O4 0.853818 0.597305 0.015348
O O5 0.651186 0.361496 0.194086
O O6 0.766329 0.243989 0.300009
O O7 0.500000 0.254320 0.000000
O O8 0.536623 0.296541 0.816287
O O9 0.226783 0.902978 0.552130
O O10 0.357032 0.000000 0.854475
O O11 0.500000 0.895050 0.000000
O O12 0.342030 0.500000 0.723177
O O13 0.500000 0.709374 0.500000
#
# Coordination Sequence:
#
# PCOD9214496 Si02
#       5
#     8   8   8   8   8
#     4   9  17  29  51  83 115 150 193 241 291 348
#     4  11  23  39  62  90 118 156 203 249 292 352
#     4   8  14  26  45  71 107 147 186 232 284 337
#     4   9  19  35  53  78 114 154 192 237 296 350
#     4  10  22  40  61  88 123 159 195 243 305 358
#
# _framework density 22.298051999999998
#
# number of rings (size 3 to 8) (size 9 to 14) (size 15 to 20)
#    0.000    2.600    0.000    3.000    0.000    7.600 
#    0.000    0.000    0.000    0.600    0.000    1.400 
#    0.000    0.800    0.000    0.000    0.000    0.000 
#
# Total GULP energy -111442.353776 kJ/mol
# GULP energy per Si atom -5572.117689 kJ/mol
# Density = 2.224730 g / cm^3
# Si number density = 22.298052 Si / 1000 Ang^3
#
#
#
# Elastic Constant Matrix: (Units=GPa)
#
#
# Indices 1 2 3 4 5 6 
#
# 1 94.1228 14.7393 95.6950 0.0000 -39.5045 0.0000
# 2 14.7393 88.8177 54.2214 0.0000 -6.9402 0.0000
# 3 95.6950 54.2214 194.8800 0.0000 -40.3217 0.0000
# 4 0.0000 0.0000 0.0000 19.5745 0.0000 -3.0246
# 5 -39.5045 -6.9402 -40.3217 0.0000 50.4643 0.0000
# 6 0.0000 0.0000 0.0000 -3.0246 0.0000 36.3954
#
#
#
# Elastic Compliance Matrix: (Units=1/GPa)
#
#
# Indices 1 2 3 4 5 6 
#
# 1 0.027336 0.003686 -0.011881 0.000000 0.012414 0.000000
# 2 0.003686 0.014140 -0.005685 0.000000 0.000288 0.000000
# 3 -0.011881 -0.005685 0.012533 0.000000 -0.000068 0.000000
# 4 0.000000 0.000000 0.000000 0.051751 0.000000 0.004301
# 5 0.012414 0.000288 -0.000068 0.000000 0.029519 0.000000
# 6 0.000000 0.000000 0.000000 0.004301 0.000000 0.027833
#
#
# Mechanical properties :
#
#
# Convention : Reuss Voigt Hill
#
# Bulk Modulus (GPa) = 38.09311 78.57020 58.33165
# Shear Modulus (GPa) = 25.04738 35.49783 30.27260
#
# Velocity S-wave (km/s) = 3.35520 3.99428 3.68861
# Velocity P-wave (km/s) = 5.66838 7.52231 6.66017
#
# Compressibility (1/GPa) = 0.02625147
#
# Stress axis : x y z
#
# Youngs Moduli (GPa) = 36.58118 70.72021 79.79028
#
# Poissons Ratio (x) = -0.26070 0.94796
# Poissons Ratio (y) = -0.13485 0.45359
# Poissons Ratio (z) = 0.43461 0.40203
#
# Static dielectric constant tensor:
#      x y z
#    x 1.925770 0.000000 -0.060040 
#    y 0.000000 1.816280 0.000000 
#    z -0.060040 0.000000 2.025920 
# 
# From -- ./inp_files/79316.got.cif
#   From: 2010.05.17/outbox.cif.g08.bks.cpg/sg12_40_cif.got.tgz:79316.got - 2010.06.03 13:09:07.
