data_PCOD9214376
_publ_section_title
;
Structure prediction by ZEFSAII (Michael W. Deem and Ramdas Pophale) SiO2 
 PCOD9214376
Probable space group: C 2/M
;
_chemical_formula_sum "Si O2"
_cell_formula_units_Z 50
_cell_length_a 24.513758
_cell_length_b 11.636763
_cell_length_c 9.458846
_cell_angle_alpha 90.000000
_cell_angle_beta 65.060161
_cell_angle_gamma 90.000000
_cell_volume 2446.630023
_symmetry_space_group_name_H-M "C 2/M"
_symmetry_group_IT_number 12
_symmetry_cell_setting 'monoclinic'
loop_
_space_group_symop_operation_xyz
x,y,z
-x,y,-z
-x,-y,-z
x,-y,z
1/2+x,1/2+y,z
1/2-x,1/2+y,-z
1/2-x,1/2-y,-z
1/2+x,1/2-y,z
loop_
_atom_site_type_symbol
_atom_site_label
_atom_site_fract_x
_atom_site_fract_y
_atom_site_fract_z
Si Si1 0.715247 0.627607 0.556636
Si Si2 0.822580 0.138413 0.811519
Si Si3 0.296565 0.270130 0.148716
Si Si4 0.500000 0.000000 0.500000
Si Si5 0.087483 0.367272 0.929080
Si Si6 0.590774 0.368076 0.517672
Si Si7 0.507453 0.186279 0.746034
O O1 0.740272 0.500000 0.486597
O O2 0.750000 0.750000 0.500000
O O3 0.708549 0.629262 0.732597
O O4 0.650344 0.637387 0.552472
O O5 0.765898 0.202074 0.801510
O O6 0.882983 0.173721 0.661844
O O7 0.816922 0.000000 0.806083
O O8 0.818403 0.179364 0.976312
O O9 0.345996 0.181295 0.150478
O O10 0.502008 0.901198 0.371652
O O11 0.086432 0.500000 0.973571
O O12 0.055388 0.357393 0.812349
O O13 0.050969 0.299762 0.090977
O O14 0.573081 0.500000 0.522614
O O15 0.537323 0.297545 0.644201
#
# Coordination Sequence:
#
# PCOD9214376 Si02
#       7
#     8   8   8   2   8   8   8
#     4  11  22  40  64  95 130 173 222 272 323 396
#     4  10  22  40  59  91 130 166 211 269 323 386
#     4  11  22  38  64  92 127 173 212 262 325 393
#     4  12  24  42  70  92 132 158 212 290 316 382
#     4  11  22  42  63  93 130 172 211 269 326 396
#     4  10  22  42  64  89 130 168 217 271 323 391
#     4  11  23  42  63  95 127 165 216 264 332 379
#
# _framework density 20.436273
#
# number of rings (size 3 to 8) (size 9 to 14) (size 15 to 20)
#    0.000    1.280    4.800    1.440    2.240    0.640 
#    1.440    3.600    0.000    0.000    0.000    0.000 
#    0.000    0.000    0.000    0.000    0.000    0.000 
#
# Total GULP energy -139258.189970 kJ/mol
# GULP energy per Si atom -5570.327599 kJ/mol
# Density = 2.038976 g / cm^3
# Si number density = 20.436273 Si / 1000 Ang^3
#
#
#
# Elastic Constant Matrix: (Units=GPa)
#
#
# Indices 1 2 3 4 5 6 
#
# 1 28.4197 17.4772 22.3645 0.0000 -2.7440 0.0000
# 2 17.4772 96.1930 39.5475 0.0000 -26.5132 0.0000
# 3 22.3645 39.5475 117.2709 0.0000 2.7918 0.0000
# 4 0.0000 0.0000 0.0000 35.1087 0.0000 4.4458
# 5 -2.7440 -26.5132 2.7918 0.0000 32.8967 0.0000
# 6 0.0000 0.0000 0.0000 4.4458 0.0000 -18.3681
#
#
#
# Elastic Compliance Matrix: (Units=1/GPa)
#
#
# Indices 1 2 3 4 5 6 
#
# 1 0.043548 -0.005231 -0.006540 0.000000 -0.000029 0.000000
# 2 -0.005231 0.017324 -0.005177 0.000000 0.013965 0.000000
# 3 -0.006540 -0.005177 0.011656 0.000000 -0.005707 0.000000
# 4 0.000000 0.000000 0.000000 0.027636 0.000000 0.006689
# 5 -0.000029 0.013965 -0.005707 0.000000 0.042135 0.000000
# 6 0.000000 0.000000 0.000000 0.006689 0.000000 -0.052823
#
#
# Mechanical properties :
#
#
# Convention : Reuss Voigt Hill
#
# Bulk Modulus (GPa) = 25.88582 44.51799 35.20190
# Shear Modulus (GPa) = 36.69742 20.76044 28.72893
#
# Velocity S-wave (km/s) = 4.24217 3.19072 3.75344
# Velocity P-wave (km/s) = 6.05712 5.95024 6.00392
#
# Compressibility (1/GPa) = 0.03863119
#
# Stress axis : x y z
#
# Youngs Moduli (GPa) = 22.96325 57.72420 85.79131
#
# Poissons Ratio (x) = 0.30197 0.56108
# Poissons Ratio (y) = 0.12013 0.44414
# Poissons Ratio (z) = 0.15018 0.29883
#
# Static dielectric constant tensor:
#      x y z
#    x 1.714620 0.000000 0.012540 
#    y 0.000000 1.712350 0.000000 
#    z 0.012540 0.000000 1.763690 
# 
# From -- ./inp_files/102485.got.cif
#   From: 2010.05.17/outbox.cif.g08.bks.cpg/sg12_52_cif.got.tgz:102485.got - 2010.06.03 13:09:07.
