data_PCOD9214095
_publ_section_title
;
Structure prediction by ZEFSAII (Michael W. Deem and Ramdas Pophale) SiO2 
 PCOD9214095
Probable space group: C 2/M
;
_chemical_formula_sum "Si O2"
_cell_formula_units_Z 44
_cell_length_a 9.635290
_cell_length_b 28.255710
_cell_length_c 9.268381
_cell_angle_alpha 90.000000
_cell_angle_beta 120.180468
_cell_angle_gamma 90.000000
_cell_volume 2181.287336
_symmetry_space_group_name_H-M "C 2/M"
_symmetry_group_IT_number 12
_symmetry_cell_setting 'monoclinic'
loop_
_space_group_symop_operation_xyz
x,y,z
-x,y,-z
-x,-y,-z
x,-y,z
1/2+x,1/2+y,z
1/2-x,1/2+y,-z
1/2-x,1/2-y,-z
1/2+x,1/2-y,z
loop_
_atom_site_type_symbol
_atom_site_label
_atom_site_fract_x
_atom_site_fract_y
_atom_site_fract_z
Si Si1 0.914479 0.846776 0.110843
Si Si2 0.140945 0.766558 0.309446
Si Si3 0.383860 0.446779 0.233146
Si Si4 0.500000 0.121566 0.500000
Si Si5 0.868976 0.305750 0.191265
Si Si6 0.246092 0.446952 0.469758
O O1 0.879719 0.900686 0.133420
O O2 0.034799 0.815077 0.272518
O O3 0.742453 0.823025 0.996202
O O4 0.000000 0.846214 0.000000
O O5 0.250000 0.750000 0.500000
O O6 0.257140 0.774206 0.236136
O O7 0.015700 0.725214 0.215452
O O8 0.349535 0.500000 0.157202
O O9 0.267601 0.438527 0.309796
O O10 0.569760 0.447405 0.380728
O O11 0.570370 0.153419 0.667019
O O12 0.360488 0.089859 0.498391
O O13 0.180084 0.500000 0.455474
#
# Coordination Sequence:
#
# PCOD9214095 Si02
#       6
#     8   8   8   4   8   8
#     4  10  22  39  62  92 126 162 205 259 311 365
#     4  11  21  41  60  87 120 162 205 254 304 370
#     4   9  19  39  64  92 122 158 207 252 305 370
#     4  12  21  38  60  90 124 158 211 248 308 370
#     4  11  24  40  61  88 124 160 206 258 305 367
#     4   9  19  36  61  89 123 162 202 254 303 367
#
# _framework density 20.171575000000001
#
# number of rings (size 3 to 8) (size 9 to 14) (size 15 to 20)
#    0.000    1.818    1.818    4.091    0.000    1.818 
#    6.545    4.545    0.000    2.182    0.000    0.000 
#    0.000    0.000    0.000    0.000    0.000    0.000 
#
# Total GULP energy -122778.666780 kJ/mol
# GULP energy per Si atom -5580.848490 kJ/mol
# Density = 2.012566 g / cm^3
# Si number density = 20.171575 Si / 1000 Ang^3
#
#
#
# Elastic Constant Matrix: (Units=GPa)
#
#
# Indices 1 2 3 4 5 6 
#
# 1 88.4540 57.3027 8.8148 0.0000 9.6678 0.0000
# 2 57.3027 130.4788 44.0142 0.0000 0.3794 0.0000
# 3 8.8148 44.0142 58.4628 0.0000 14.2627 0.0000
# 4 0.0000 0.0000 0.0000 34.0396 0.0000 -4.0288
# 5 9.6678 0.3794 14.2627 0.0000 14.7298 0.0000
# 6 0.0000 0.0000 0.0000 -4.0288 0.0000 38.4073
#
#
#
# Elastic Compliance Matrix: (Units=1/GPa)
#
#
# Indices 1 2 3 4 5 6 
#
# 1 0.022557 -0.014794 0.014737 0.000000 -0.028693 0.000000
# 2 -0.014794 0.021092 -0.020798 0.000000 0.029305 0.000000
# 3 0.014737 -0.020798 0.042905 0.000000 -0.050681 0.000000
# 4 0.000000 0.000000 0.000000 0.029747 0.000000 0.003120
# 5 -0.028693 0.029305 -0.050681 0.000000 0.135041 0.000000
# 6 0.000000 0.000000 0.000000 0.003120 0.000000 0.026364
#
#
# Mechanical properties :
#
#
# Convention : Reuss Voigt Hill
#
# Bulk Modulus (GPa) = 22.29971 55.29544 38.79758
# Shear Modulus (GPa) = 14.95381 28.58627 21.77004
#
# Velocity S-wave (km/s) = 2.72569 3.76860 3.28875
# Velocity P-wave (km/s) = 4.58093 6.81238 5.80489
#
# Compressibility (1/GPa) = 0.04484362
#
# Stress axis : x y z
#
# Youngs Moduli (GPa) = 44.33248 47.41207 23.30739
#
# Poissons Ratio (x) = 0.70142 -0.34348
# Poissons Ratio (y) = 0.65586 0.48474
# Poissons Ratio (z) = -0.65332 0.98606
#
# Static dielectric constant tensor:
#      x y z
#    x 1.685110 0.000000 0.016020 
#    y 0.000000 1.752270 0.000000 
#    z 0.016020 0.000000 1.743830 
# 
# From -- ./inp_files/41825.got.cif
#   From: 2010.05.17/outbox.cif.g08.bks.cpg/sg12_21_cif.got.tgz:41825.got - 2010.06.03 13:09:07.
