data_PCOD9214615
_publ_section_title
;
Structure prediction by ZEFSAII (Michael W. Deem and Ramdas Pophale) SiO2 
 PCOD9214615
Probable space group: C 2/M
;
_chemical_formula_sum "Si O2"
_cell_formula_units_Z 36
_cell_length_a 16.940356
_cell_length_b 10.084393
_cell_length_c 20.279588
_cell_angle_alpha 90.000000
_cell_angle_beta 151.780947
_cell_angle_gamma 90.000000
_cell_volume 1638.132876
_symmetry_space_group_name_H-M "C 2/M"
_symmetry_group_IT_number 12
_symmetry_cell_setting 'monoclinic'
loop_
_space_group_symop_operation_xyz
x,y,z
-x,y,-z
-x,-y,-z
x,-y,z
1/2+x,1/2+y,z
1/2-x,1/2+y,-z
1/2-x,1/2-y,-z
1/2+x,1/2-y,z
loop_
_atom_site_type_symbol
_atom_site_label
_atom_site_fract_x
_atom_site_fract_y
_atom_site_fract_z
Si Si1 0.469874 0.500000 0.400694
Si Si2 0.475640 0.500000 0.773436
Si Si3 0.917639 0.000000 0.868632
Si Si4 0.884600 0.728964 0.157286
Si Si5 0.141014 0.500000 0.351103
Si Si6 0.833290 0.286874 0.271491
Si Si7 0.397637 0.000000 0.520636
O O1 0.500000 0.500000 0.500000
O O2 0.661754 0.500000 0.516565
O O3 0.366851 0.632377 0.306919
O O4 0.540968 0.500000 0.896846
O O5 0.528372 0.371676 0.772729
O O6 0.279501 0.500000 0.643190
O O7 0.811050 0.137289 0.794706
O O8 0.000000 0.000000 0.000000
O O9 0.814230 0.691485 0.177982
O O10 0.031396 0.625819 0.246805
O O11 0.750000 0.750000 0.000000
O O12 0.131679 0.500000 0.423022
O O13 0.996568 0.368706 0.414516
#
# Coordination Sequence:
#
# PCOD9214615 Si02
#       7
#     4   4   4   8   4   8   4
#     4  12  26  39  60  91 138 169 215 261 327 385
#     4  12  23  35  68  92 117 161 222 254 315 388
#     4  11  25  44  64  93 129 170 216 265 322 389
#     4  11  22  40  66  94 122 165 215 263 323 393
#     4  10  22  40  62  91 132 160 204 274 318 371
#     4  10  23  42  63  90 133 165 205 273 322 383
#     4   9  20  39  66  91 116 158 213 257 322 376
#
# _framework density 21.976239
#
# number of rings (size 3 to 8) (size 9 to 14) (size 15 to 20)
#    0.000    1.333    0.000    6.000    6.222    4.444 
#    0.000    0.556    0.000    0.000    0.000    0.000 
#    0.000    0.000    0.000    0.000    0.000    0.000 
#
# Total GULP energy -100541.053880 kJ/mol
# GULP energy per Si atom -5585.614104 kJ/mol
# Density = 2.192622 g / cm^3
# Si number density = 21.976239 Si / 1000 Ang^3
#
#
#
# Elastic Constant Matrix: (Units=GPa)
#
#
# Indices 1 2 3 4 5 6 
#
# 1 72.3562 6.6731 -9.4897 0.0002 -12.0407 -0.0002
# 2 6.6731 181.1404 23.6010 0.0011 13.7277 -0.0002
# 3 -9.4897 23.6010 65.5701 0.0007 -15.4764 -0.0007
# 4 0.0002 0.0011 0.0007 38.2097 0.0003 -4.2500
# 5 -12.0407 13.7277 -15.4764 0.0003 27.9455 -0.0002
# 6 -0.0002 -0.0002 -0.0007 -4.2500 -0.0002 32.1477
#
#
#
# Elastic Compliance Matrix: (Units=1/GPa)
#
#
# Indices 1 2 3 4 5 6 
#
# 1 0.016759 -0.002283 0.006001 0.000000 0.011666 0.000000
# 2 -0.002283 0.006668 -0.004297 0.000000 -0.006639 0.000000
# 3 0.006001 -0.004297 0.021598 0.000000 0.016658 0.000001
# 4 0.000000 0.000000 0.000000 0.026562 0.000000 0.003512
# 5 0.011666 -0.006639 0.016658 0.000000 0.053297 0.000001
# 6 0.000000 0.000000 0.000001 0.003512 0.000001 0.031571
#
#
# Mechanical properties :
#
#
# Convention : Reuss Voigt Hill
#
# Bulk Modulus (GPa) = 22.79714 40.07061 31.43387
# Shear Modulus (GPa) = 29.02993 39.54608 34.28801
#
# Velocity S-wave (km/s) = 3.63846 4.24664 3.95426
# Velocity P-wave (km/s) = 5.29596 6.50527 5.93151
#
# Compressibility (1/GPa) = 0.04386516
#
# Stress axis : x y z
#
# Youngs Moduli (GPa) = 59.66780 149.97528 46.30101
#
# Poissons Ratio (x) = 0.34245 -0.27785
# Poissons Ratio (y) = 0.13624 0.19898
# Poissons Ratio (z) = -0.35806 0.64451
#
# Static dielectric constant tensor:
#      x y z
#    x 1.809600 0.000000 -0.003680 
#    y 0.000000 1.797500 0.000000 
#    z -0.003680 0.000000 1.914050 
# 
# From -- ./inp_files/314988.got.cif
#   From: 2010.05.17/outbox.cif.g08.bks.cpg/sg12_158_cif.got.tgz:314988.got - 2010.06.03 13:09:07.
