data_PCOD9214737
_publ_section_title
;
Structure prediction by ZEFSAII (Michael W. Deem and Ramdas Pophale) SiO2 
 PCOD9214737
Probable space group: C 2/M
;
_chemical_formula_sum "Si O2"
_cell_formula_units_Z 48
_cell_length_a 5.212493
_cell_length_b 24.673868
_cell_length_c 19.336703
_cell_angle_alpha 90.000000
_cell_angle_beta 115.618510
_cell_angle_gamma 90.000000
_cell_volume 2242.455294
_symmetry_space_group_name_H-M "C 2/M"
_symmetry_group_IT_number 12
_symmetry_cell_setting 'monoclinic'
loop_
_space_group_symop_operation_xyz
x,y,z
-x,y,-z
-x,-y,-z
x,-y,z
1/2+x,1/2+y,z
1/2-x,1/2+y,-z
1/2-x,1/2-y,-z
1/2+x,1/2-y,z
loop_
_atom_site_type_symbol
_atom_site_label
_atom_site_fract_x
_atom_site_fract_y
_atom_site_fract_z
Si Si1 0.620413 0.062972 0.255906
Si Si2 0.107833 0.213715 0.377875
Si Si3 0.711957 0.940303 0.422471
Si Si4 0.665307 0.500000 0.947332
Si Si5 0.500000 0.858413 0.500000
Si Si6 0.008081 0.901861 0.828188
Si Si7 0.358316 0.287397 0.201260
O O1 0.753752 0.070599 0.346994
O O2 0.335790 0.099037 0.215869
O O3 0.851920 0.073593 0.224650
O O4 0.526040 0.000000 0.239548
O O5 0.381078 0.246411 0.384195
O O6 0.218289 0.175243 0.451232
O O7 0.980608 0.192205 0.290427
O O8 0.524643 0.894961 0.435356
O O9 0.000000 0.941068 0.500000
O O10 0.576758 0.000000 0.413437
O O11 0.586838 0.445170 0.896487
O O12 0.500000 0.500000 0.000000
O O13 0.000000 0.500000 0.000000
O O14 0.138519 0.841151 0.846000
O O15 0.069731 0.256327 0.189788
#
# Coordination Sequence:
#
# PCOD9214737 Si02
#       7
#     8   8   8   4   4   8   8
#     4  11  22  40  64  95 131 176 235 282 331 414
#     4  10  23  39  58  85 116 157 222 288 335 380
#     4  10  25  39  54  83 127 173 225 285 342 388
#     4  12  26  46  76 114 151 169 206 260 336 410
#     4  12  23  36  58  76 116 172 225 276 364 392
#     4  12  23  44  73 103 137 181 219 269 339 399
#     4  10  22  40  63  95 129 175 230 280 319 383
#
# _framework density 21.405110000000001
#
# number of rings (size 3 to 8) (size 9 to 14) (size 15 to 20)
#    0.000    1.167    1.667    3.750    7.000    1.333 
#    0.000    0.000    0.000    3.000    0.000    0.000 
#    0.000    0.000    0.000    0.000    0.000    0.000 
#
# Total GULP energy -134182.286161 kJ/mol
# GULP energy per Si atom -5590.928590 kJ/mol
# Density = 2.135639 g / cm^3
# Si number density = 21.405110 Si / 1000 Ang^3
#
#
#
# Elastic Constant Matrix: (Units=GPa)
#
#
# Indices 1 2 3 4 5 6 
#
# 1 97.8861 11.6213 33.9794 0.0000 -20.3476 0.0000
# 2 11.6213 87.1374 44.7365 0.0000 -14.5748 0.0000
# 3 33.9794 44.7365 100.0365 0.0000 -18.4805 0.0000
# 4 0.0000 0.0000 0.0000 65.8504 0.0000 -10.2908
# 5 -20.3476 -14.5748 -18.4805 0.0000 36.4111 0.0000
# 6 0.0000 0.0000 0.0000 -10.2908 0.0000 21.6584
#
#
#
# Elastic Compliance Matrix: (Units=1/GPa)
#
#
# Indices 1 2 3 4 5 6 
#
# 1 0.012539 0.001192 -0.003762 0.000000 0.005575 0.000000
# 2 0.001192 0.015282 -0.006605 0.000000 0.003431 0.000000
# 3 -0.003762 -0.006605 0.014733 0.000000 0.002731 0.000000
# 4 0.000000 0.000000 0.000000 0.016404 0.000000 0.007794
# 5 0.005575 0.003431 0.002731 0.000000 0.033339 0.000000
# 6 0.000000 0.000000 0.000000 0.007794 0.000000 0.049875
#
#
# Mechanical properties :
#
#
# Convention : Reuss Voigt Hill
#
# Bulk Modulus (GPa) = 41.31798 51.74827 46.53313
# Shear Modulus (GPa) = 29.65755 37.76549 33.71152
#
# Velocity S-wave (km/s) = 3.72632 4.20494 3.97284
# Velocity P-wave (km/s) = 6.15294 6.91401 6.54455
#
# Compressibility (1/GPa) = 0.02420254
#
# Stress axis : x y z
#
# Youngs Moduli (GPa) = 79.74916 65.43583 67.87617
#
# Poissons Ratio (x) = -0.07798 0.25537
# Poissons Ratio (y) = -0.09504 0.44834
# Poissons Ratio (z) = 0.30004 0.43222
#
# Static dielectric constant tensor:
#      x y z
#    x 1.751090 0.000000 0.018320 
#    y 0.000000 1.838790 0.000000 
#    z 0.018320 0.000000 1.770380 
# 
# From -- ./inp_files/253256.got.cif
#   From: 2010.05.17/outbox.cif.g08.bks.cpg/sg12_127_cif.got.tgz:253256.got - 2010.06.03 13:09:07.
