data_PCOD9214820
_publ_section_title
;
Structure prediction by ZEFSAII (Michael W. Deem and Ramdas Pophale) SiO2 
 PCOD9214820
Probable space group: C 2/M
;
_chemical_formula_sum "Si O2"
_cell_formula_units_Z 48
_cell_length_a 10.108693
_cell_length_b 26.794673
_cell_length_c 15.736156
_cell_angle_alpha 90.000000
_cell_angle_beta 37.049395
_cell_angle_gamma 90.000000
_cell_volume 2568.038652
_symmetry_space_group_name_H-M "C 2/M"
_symmetry_group_IT_number 12
_symmetry_cell_setting 'monoclinic'
loop_
_space_group_symop_operation_xyz
x,y,z
-x,y,-z
-x,-y,-z
x,-y,z
1/2+x,1/2+y,z
1/2-x,1/2+y,-z
1/2-x,1/2-y,-z
1/2+x,1/2-y,z
loop_
_atom_site_type_symbol
_atom_site_label
_atom_site_fract_x
_atom_site_fract_y
_atom_site_fract_z
Si Si1 0.289333 0.659347 0.668075
Si Si2 0.986392 0.141350 0.148758
Si Si3 0.252269 0.710449 0.858415
Si Si4 0.682828 0.826218 0.160193
Si Si5 0.246478 0.058249 0.627615
Si Si6 0.068259 0.054986 0.366291
O O1 0.500000 0.661991 0.500000
O O2 0.299728 0.701421 0.735050
O O3 0.288721 0.605036 0.714606
O O4 0.071341 0.664546 0.724500
O O5 0.078711 0.178168 0.173347
O O6 0.776362 0.161526 0.204814
O O7 0.909905 0.090387 0.231380
O O8 0.178944 0.141608 0.979226
O O9 0.267752 0.767732 0.879420
O O10 0.000000 0.693649 0.000000
O O11 0.500000 0.075479 0.500000
O O12 0.142086 0.061598 0.586932
O O13 0.245280 0.000000 0.653199
O O14 0.000000 0.053327 0.500000
O O15 0.164906 0.000000 0.295783
#
# Coordination Sequence:
#
# PCOD9214820 Si02
#       6
#     8   8   8   8   8   8
#     4  11  24  39  61  96 128 161 209 272 320 375
#     4  11  22  38  64  94 118 168 213 260 308 388
#     4  12  21  42  68  87 121 176 217 257 317 383
#     4  11  24  40  62  89 125 165 218 258 318 376
#     4  10  22  40  64  95 130 166 204 259 327 385
#     4   9  19  38  61  87 119 160 205 246 308 381
#
# _framework density 18.691306999999998
#
# number of rings (size 3 to 8) (size 9 to 14) (size 15 to 20)
#    0.000    1.333    5.000    1.500    4.667    0.667 
#    0.000    4.167    0.000    3.000    0.000    0.000 
#    0.000    0.000    0.000    0.000    0.000    0.000 
#
# Total GULP energy -133871.706473 kJ/mol
# GULP energy per Si atom -5577.987770 kJ/mol
# Density = 1.864876 g / cm^3
# Si number density = 18.691307 Si / 1000 Ang^3
#
#
#
# Elastic Constant Matrix: (Units=GPa)
#
#
# Indices 1 2 3 4 5 6 
#
# 1 150.9349 30.0151 55.6582 0.0000 -21.9550 0.0000
# 2 30.0151 76.4301 42.3264 0.0000 -4.1040 0.0000
# 3 55.6582 42.3264 95.8530 0.0000 -10.5136 0.0000
# 4 0.0000 0.0000 0.0000 37.7665 0.0000 -0.2395
# 5 -21.9550 -4.1040 -10.5136 0.0000 30.0220 0.0000
# 6 0.0000 0.0000 0.0000 -0.2395 0.0000 27.3292
#
#
#
# Elastic Compliance Matrix: (Units=1/GPa)
#
#
# Indices 1 2 3 4 5 6 
#
# 1 0.009145 -0.000908 -0.004357 0.000000 0.005038 0.000000
# 2 -0.000908 0.017412 -0.007252 0.000000 -0.000824 0.000000
# 3 -0.004357 -0.007252 0.016334 0.000000 0.001543 0.000000
# 4 0.000000 0.000000 0.000000 0.026480 0.000000 0.000232
# 5 0.005038 -0.000824 0.001543 0.000000 0.037421 0.000000
# 6 0.000000 0.000000 0.000000 0.000232 0.000000 0.036593
#
#
# Mechanical properties :
#
#
# Convention : Reuss Voigt Hill
#
# Bulk Modulus (GPa) = 55.99724 64.35746 60.17735
# Shear Modulus (GPa) = 28.67438 32.03808 30.35623
#
# Velocity S-wave (km/s) = 3.92101 4.14462 4.03436
# Velocity P-wave (km/s) = 7.10796 7.57696 7.34620
#
# Compressibility (1/GPa) = 0.01785802
#
# Stress axis : x y z
#
# Youngs Moduli (GPa) = 109.34446 57.43064 61.22258
#
# Poissons Ratio (x) = 0.05216 0.26673
# Poissons Ratio (y) = 0.09932 0.44397
# Poissons Ratio (z) = 0.47638 0.41647
#
# Static dielectric constant tensor:
#      x y z
#    x 1.650350 0.000000 0.009360 
#    y 0.000000 1.677380 0.000000 
#    z 0.009360 0.000000 1.617100 
# 
# From -- ./inp_files/200131.got.cif
#   From: 2010.05.17/outbox.cif.g08.bks.cpg/sg12_101_cif.got.tgz:200131.got - 2010.06.03 13:09:07.
