data_PCOD9214708
_publ_section_title
;
Structure prediction by ZEFSAII (Michael W. Deem and Ramdas Pophale) SiO2 
 PCOD9214708
Probable space group: C 2/M
;
_chemical_formula_sum "Si O2"
_cell_formula_units_Z 56
_cell_length_a 10.776914
_cell_length_b 23.945150
_cell_length_c 18.967739
_cell_angle_alpha 90.000000
_cell_angle_beta 33.619584
_cell_angle_gamma 90.000000
_cell_volume 2710.088108
_symmetry_space_group_name_H-M "C 2/M"
_symmetry_group_IT_number 12
_symmetry_cell_setting 'monoclinic'
loop_
_space_group_symop_operation_xyz
x,y,z
-x,y,-z
-x,-y,-z
x,-y,z
1/2+x,1/2+y,z
1/2-x,1/2+y,-z
1/2-x,1/2-y,-z
1/2+x,1/2-y,z
loop_
_atom_site_type_symbol
_atom_site_label
_atom_site_fract_x
_atom_site_fract_y
_atom_site_fract_z
Si Si1 0.866228 0.832185 0.427915
Si Si2 0.635427 0.344876 0.725450
Si Si3 0.756077 0.736862 0.080357
Si Si4 0.642740 0.932151 0.145028
Si Si5 0.442646 0.212486 0.695164
Si Si6 0.127202 0.064982 0.364734
Si Si7 0.427284 0.566447 0.144010
O O1 0.759144 0.836792 0.400782
O O2 0.672268 0.821402 0.576314
O O3 0.011021 0.775534 0.355015
O O4 0.004432 0.888079 0.376809
O O5 0.387008 0.319092 0.839768
O O6 0.759641 0.312435 0.729258
O O7 0.624357 0.407908 0.756481
O O8 0.632319 0.782778 0.188347
O O9 0.750000 0.750000 0.000000
O O10 0.000000 0.732080 0.000000
O O11 0.387070 0.917741 0.251107
O O12 0.739555 0.915872 0.175669
O O13 0.649076 0.000000 0.141280
O O14 0.831922 0.913330 0.999814
O O15 0.000000 0.065264 0.500000
O O16 0.118717 0.000000 0.343124
O O17 0.430978 0.500000 0.143942
#
# Coordination Sequence:
#
# PCOD9214708 Si02
#       7
#     8   8   8   8   8   8   8
#     4  10  24  43  64  90 124 175 220 267 324 401
#     4  11  23  40  63  93 130 169 218 273 330 401
#     4  11  23  43  67  98 133 168 216 278 340 395
#     4   8  17  37  60  89 127 167 222 273 330 409
#     4  10  23  44  64  88 130 174 218 269 324 408
#     4  10  22  40  63  93 127 166 222 285 339 393
#     4   9  19  36  62  93 126 171 216 271 338 402
#
# _framework density 20.663535
#
# number of rings (size 3 to 8) (size 9 to 14) (size 15 to 20)
#    0.000    2.143    1.429    1.286    2.000    8.571 
#    0.000    0.000    0.000    4.714    0.000    0.000 
#    0.000    0.000    0.000    0.000    0.000    0.000 
#
# Total GULP energy -156311.065641 kJ/mol
# GULP energy per Si atom -5582.538059 kJ/mol
# Density = 2.061650 g / cm^3
# Si number density = 20.663535 Si / 1000 Ang^3
#
#
#
# Elastic Constant Matrix: (Units=GPa)
#
#
# Indices 1 2 3 4 5 6 
#
# 1 104.2598 47.8345 55.7684 0.0063 -3.3411 -0.0012
# 2 47.8345 80.9694 33.2631 0.0073 -7.0335 -0.0015
# 3 55.7684 33.2631 87.3891 0.0425 -7.0288 -0.0062
# 4 0.0063 0.0073 0.0425 9.3873 -0.0095 1.5398
# 5 -3.3411 -7.0335 -7.0288 -0.0095 36.6706 0.0029
# 6 -0.0012 -0.0015 -0.0062 1.5398 0.0029 39.0595
#
#
#
# Elastic Compliance Matrix: (Units=1/GPa)
#
#
# Indices 1 2 3 4 5 6 
#
# 1 0.017217 -0.006794 -0.008511 0.000031 -0.001366 -0.000002
# 2 -0.006794 0.017434 -0.002114 0.000003 0.002320 0.000000
# 3 -0.008511 -0.002114 0.017860 -0.000072 0.002242 0.000005
# 4 0.000031 0.000003 -0.000072 0.107221 0.000018 -0.004227
# 5 -0.001366 0.002320 0.002242 0.000018 0.028020 -0.000002
# 6 -0.000002 0.000000 0.000005 -0.004227 -0.000002 0.025769
#
#
# Mechanical properties :
#
#
# Convention : Reuss Voigt Hill
#
# Bulk Modulus (GPa) = 56.58347 60.70559 58.64453
# Shear Modulus (GPa) = 19.66578 26.07364 22.86971
#
# Velocity S-wave (km/s) = 3.08833 3.55606 3.33042
# Velocity P-wave (km/s) = 6.33717 6.80461 6.57505
#
# Compressibility (1/GPa) = 0.01767301
#
# Stress axis : x y z
#
# Youngs Moduli (GPa) = 58.08112 57.36026 55.99189
#
# Poissons Ratio (x) = 0.38968 0.47657
# Poissons Ratio (y) = 0.39458 0.11836
# Poissons Ratio (z) = 0.49435 0.12125
#
# Static dielectric constant tensor:
#      x y z
#    x 1.720380 0.000000 0.001590 
#    y 0.000000 1.755880 0.000010 
#    z 0.001590 0.000010 1.766240 
# 
# From -- ./inp_files/307211.got.cif
#   From: 2010.05.17/outbox.cif.g08.bks.cpg/sg12_154_cif.got.tgz:307211.got - 2010.06.03 13:09:07.
