data_PCOD9214273
_publ_section_title
;
Structure prediction by ZEFSAII (Michael W. Deem and Ramdas Pophale) SiO2 
 PCOD9214273
Probable space group: C 2/M
;
_chemical_formula_sum "Si O2"
_cell_formula_units_Z 36
_cell_length_a 26.276762
_cell_length_b 9.075959
_cell_length_c 12.513176
_cell_angle_alpha 90.000000
_cell_angle_beta 152.811936
_cell_angle_gamma 90.000000
_cell_volume 1363.531233
_symmetry_space_group_name_H-M "C 2/M"
_symmetry_group_IT_number 12
_symmetry_cell_setting 'monoclinic'
loop_
_space_group_symop_operation_xyz
x,y,z
-x,y,-z
-x,-y,-z
x,-y,z
1/2+x,1/2+y,z
1/2-x,1/2+y,-z
1/2-x,1/2-y,-z
1/2+x,1/2-y,z
loop_
_atom_site_type_symbol
_atom_site_label
_atom_site_fract_x
_atom_site_fract_y
_atom_site_fract_z
Si Si1 0.855275 0.000000 0.250730
Si Si2 0.904534 0.250036 0.959487
Si Si3 0.466260 0.500000 0.694572
Si Si4 0.823850 0.000000 0.646214
Si Si5 0.912883 0.500000 0.718504
Si Si6 0.500000 0.755900 0.500000
Si Si7 0.679056 0.000000 0.072689
Si Si8 0.429033 0.000000 0.524253
O O1 0.901631 0.000000 0.461604
O O2 0.903858 0.142220 0.284017
O O3 0.728642 0.000000 0.046165
O O4 0.956791 0.141905 0.145507
O O5 0.007432 0.358303 0.122415
O O6 0.808849 0.351644 0.834709
O O7 0.862116 0.144024 0.785583
O O8 0.385384 0.500000 0.647581
O O9 0.689754 0.000000 0.391578
O O10 0.854201 0.500000 0.490278
O O11 0.434447 0.857538 0.460722
O O12 0.548864 0.000000 0.803722
#
# Coordination Sequence:
#
# PCOD9214273 Si02
#       8
#     4   8   4   4   4   4   4   4
#     4  11  23  39  63  97 120 171 212 271 329 396
#     4   9  21  42  62  95 133 173 219 272 319 401
#     4  11  23  44  62  92 139 166 221 273 322 391
#     4  11  24  42  68  98 132 191 217 264 344 394
#     4  10  22  42  70  98 140 169 223 279 324 398
#     4  10  22  40  68  86 126 166 214 266 340 392
#     4  10  22  39  66  95 129 164 220 268 332 399
#     4   9  20  42  63  94 126 167 206 279 327 391
#
# _framework density 26.402035999999999
#
# number of rings (size 3 to 8) (size 9 to 14) (size 15 to 20)
#    0.000    2.222    0.000    4.000    6.222    1.778 
#    4.000    4.444    0.000    0.000    0.000    0.000 
#    0.000    0.000    0.000    0.000    0.000    0.000 
#
# Total GULP energy -100714.372664 kJ/mol
# GULP energy per Si atom -5595.242926 kJ/mol
# Density = 2.634194 g / cm^3
# Si number density = 26.402036 Si / 1000 Ang^3
#
#
#
# Elastic Constant Matrix: (Units=GPa)
#
#
# Indices 1 2 3 4 5 6 
#
# 1 169.4692 48.7717 12.1392 0.0000 12.8871 0.0000
# 2 48.7717 185.9039 19.6112 0.0000 3.8716 0.0000
# 3 12.1392 19.6112 52.4368 0.0000 -5.1566 0.0000
# 4 0.0000 0.0000 0.0000 21.3618 0.0000 -7.8103
# 5 12.8871 3.8716 -5.1566 0.0000 45.7123 0.0000
# 6 0.0000 0.0000 0.0000 -7.8103 0.0000 -50.9509
#
#
#
# Elastic Compliance Matrix: (Units=1/GPa)
#
#
# Indices 1 2 3 4 5 6 
#
# 1 0.006572 -0.001568 -0.001117 0.000000 -0.001846 0.000000
# 2 -0.001568 0.005998 -0.001908 0.000000 -0.000281 0.000000
# 3 -0.001117 -0.001908 0.020315 0.000000 0.002768 0.000000
# 4 0.000000 0.000000 0.000000 0.044328 0.000000 -0.006795
# 5 -0.001846 -0.000281 0.002768 0.000000 0.022732 0.000000
# 6 0.000000 0.000000 0.000000 -0.006795 0.000000 -0.018585
#
#
# Mechanical properties :
#
#
# Convention : Reuss Voigt Hill
#
# Bulk Modulus (GPa) = 42.19407 63.20601 52.70004
# Shear Modulus (GPa) = 50.78985 25.04384 37.91685
#
# Velocity S-wave (km/s) = 4.39077 3.08321 3.79375
# Velocity P-wave (km/s) = 6.45920 6.05530 6.26051
#
# Compressibility (1/GPa) = 0.02370001
#
# Stress axis : x y z
#
# Youngs Moduli (GPa) = 152.15132 166.73346 49.22528
#
# Poissons Ratio (x) = 0.26144 0.05497
# Poissons Ratio (y) = 0.23858 0.09391
# Poissons Ratio (z) = 0.16990 0.31808
#
# Static dielectric constant tensor:
#      x y z
#    x 2.292420 0.000000 -0.002180 
#    y 0.000000 2.091930 0.000000 
#    z -0.002180 0.000000 2.160150 
# 
# From -- ./inp_files/249496.got.cif
#   From: 2010.05.17/outbox.cif.g08.bks.cpg/sg12_125_cif.got.tgz:249496.got - 2010.06.03 13:09:07.
