data_PCOD9214600
_publ_section_title
;
Structure prediction by ZEFSAII (Michael W. Deem and Ramdas Pophale) SiO2 
 PCOD9214600
Probable space group: C 2/M
;
_chemical_formula_sum "Si O2"
_cell_formula_units_Z 56
_cell_length_a 7.819322
_cell_length_b 26.865882
_cell_length_c 17.254053
_cell_angle_alpha 90.000000
_cell_angle_beta 46.312997
_cell_angle_gamma 90.000000
_cell_volume 2621.042195
_symmetry_space_group_name_H-M "C 2/M"
_symmetry_group_IT_number 12
_symmetry_cell_setting 'monoclinic'
loop_
_space_group_symop_operation_xyz
x,y,z
-x,y,-z
-x,-y,-z
x,-y,z
1/2+x,1/2+y,z
1/2-x,1/2+y,-z
1/2-x,1/2-y,-z
1/2+x,1/2-y,z
loop_
_atom_site_type_symbol
_atom_site_label
_atom_site_fract_x
_atom_site_fract_y
_atom_site_fract_z
Si Si1 0.835067 0.055960 0.475807
Si Si2 0.595620 0.785904 0.715296
Si Si3 0.232297 0.784433 0.078411
Si Si4 0.568678 0.940721 0.283571
Si Si5 0.239304 0.887206 0.263873
Si Si6 0.499860 0.621845 0.192019
Si Si7 0.611859 0.189463 0.383500
O O1 0.583494 0.072204 0.590526
O O2 0.000000 0.050992 0.500000
O O3 0.987126 0.093685 0.377175
O O4 0.813760 0.000000 0.447395
O O5 0.383644 0.751582 0.818557
O O6 0.689476 0.829905 0.741423
O O7 0.529740 0.810880 0.653621
O O8 0.801976 0.746399 0.637252
O O9 0.080998 0.833883 0.110681
O O10 0.500000 0.802397 0.000000
O O11 0.250000 0.750000 0.000000
O O12 0.432956 0.918207 0.251975
O O13 0.831523 0.919265 0.208500
O O14 0.565035 0.000000 0.280114
O O15 0.212660 0.896022 0.180412
O O16 0.333024 0.653992 0.301107
O O17 0.500000 0.175917 0.500000
#
# Coordination Sequence:
#
# PCOD9214600 Si02
#       7
#     8   8   8   8   8   8   8
#     4   8  17  33  54  85 121 175 230 259 302 370
#     4  11  22  40  58  95 129 165 227 268 320 417
#     4  11  23  43  70  95 126 165 217 289 350 397
#     4  10  22  40  62  90 134 181 229 276 320 381
#     4  11  21  35  62  86 136 170 220 273 321 375
#     4  11  24  40  61  99 129 168 229 269 331 406
#     4  11  23  36  56  86 136 178 209 254 321 393
#
# _framework density 21.365546999999999
#
# number of rings (size 3 to 8) (size 9 to 14) (size 15 to 20)
#    0.000    1.571    1.429    6.000    2.000    4.000 
#    0.000    1.429    0.000    0.429    0.000    6.000 
#    0.000    0.000    0.000    0.000    0.000    0.000 
#
# Total GULP energy -156192.121221 kJ/mol
# GULP energy per Si atom -5578.290044 kJ/mol
# Density = 2.131692 g / cm^3
# Si number density = 21.365547 Si / 1000 Ang^3
#
#
#
# Elastic Constant Matrix: (Units=GPa)
#
#
# Indices 1 2 3 4 5 6 
#
# 1 95.5322 31.3353 7.5341 0.0000 3.0920 0.0000
# 2 31.3353 99.4451 14.4948 0.0000 -8.1398 0.0000
# 3 7.5341 14.4948 50.0365 0.0000 -4.2569 0.0000
# 4 0.0000 0.0000 0.0000 19.0231 0.0000 -14.3979
# 5 3.0920 -8.1398 -4.2569 0.0000 25.7600 0.0000
# 6 0.0000 0.0000 0.0000 -14.3979 0.0000 23.0106
#
#
#
# Elastic Compliance Matrix: (Units=1/GPa)
#
#
# Indices 1 2 3 4 5 6 
#
# 1 0.011890 -0.003842 -0.000915 0.000000 -0.002792 0.000000
# 2 -0.003842 0.011952 -0.002559 0.000000 0.003815 0.000000
# 3 -0.000915 -0.002559 0.021102 0.000000 0.002788 0.000000
# 4 0.000000 0.000000 0.000000 0.099857 0.000000 0.062481
# 5 -0.002792 0.003815 0.002788 0.000000 0.040821 0.000000
# 6 0.000000 0.000000 0.000000 0.062481 0.000000 0.082553
#
#
# Mechanical properties :
#
#
# Convention : Reuss Voigt Hill
#
# Bulk Modulus (GPa) = 32.99057 39.08247 36.03652
# Shear Modulus (GPa) = 17.07001 26.33538 21.70269
#
# Velocity S-wave (km/s) = 2.82964 3.51466 3.19059
# Velocity P-wave (km/s) = 5.11374 5.89936 5.52054
#
# Compressibility (1/GPa) = 0.03031169
#
# Stress axis : x y z
#
# Youngs Moduli (GPa) = 84.10153 83.67050 47.38938
#
# Poissons Ratio (x) = 0.32145 0.04336
# Poissons Ratio (y) = 0.32311 0.12128
# Poissons Ratio (z) = 0.07695 0.21413
#
# Static dielectric constant tensor:
#      x y z
#    x 1.589230 0.000000 0.176620 
#    y 0.000000 1.780100 0.000000 
#    z 0.176620 0.000000 1.689430 
# 
# From -- ./inp_files/259801.got.cif
#   From: 2010.05.17/outbox.cif.g08.bks.cpg/sg12_130_cif.got.tgz:259801.got - 2010.06.03 13:09:07.
