data_PCOD9214868
_publ_section_title
;
Structure prediction by ZEFSAII (Michael W. Deem and Ramdas Pophale) SiO2 
 PCOD9214868
Probable space group: C 2/M
;
_chemical_formula_sum "Si O2"
_cell_formula_units_Z 56
_cell_length_a 17.570612
_cell_length_b 12.555003
_cell_length_c 13.850708
_cell_angle_alpha 90.000000
_cell_angle_beta 98.396022
_cell_angle_gamma 90.000000
_cell_volume 3022.706625
_symmetry_space_group_name_H-M "C 2/M"
_symmetry_group_IT_number 12
_symmetry_cell_setting 'monoclinic'
loop_
_space_group_symop_operation_xyz
x,y,z
-x,y,-z
-x,-y,-z
x,-y,z
1/2+x,1/2+y,z
1/2-x,1/2+y,-z
1/2-x,1/2-y,-z
1/2+x,1/2-y,z
loop_
_atom_site_type_symbol
_atom_site_label
_atom_site_fract_x
_atom_site_fract_y
_atom_site_fract_z
Si Si1 0.303006 0.785994 0.421971
Si Si2 0.071682 0.615548 0.442160
Si Si3 0.226157 0.371886 0.956198
Si Si4 0.538735 0.727215 0.265087
Si Si5 0.195270 0.122341 0.238296
Si Si6 0.958388 0.623602 0.094048
Si Si7 0.437751 0.379539 0.401627
O O1 0.250000 0.750000 0.500000
O O2 0.354370 0.879695 0.476187
O O3 0.251193 0.817311 0.322439
O O4 0.366541 0.698224 0.405879
O O5 0.062656 0.500000 0.395056
O O6 0.073178 0.701596 0.358524
O O7 0.000000 0.633495 0.500000
O O8 0.240857 0.500000 0.997570
O O9 0.267438 0.373993 0.860245
O O10 0.133619 0.366427 0.932593
O O11 0.250000 0.250000 0.000000
O O12 0.610160 0.671322 0.226471
O O13 0.491629 0.800330 0.182701
O O14 0.481488 0.648121 0.310662
O O15 0.190083 0.000000 0.269506
O O16 0.975571 0.500000 0.120914
O O17 0.000000 0.647805 0.000000
O O18 0.500000 0.370221 0.500000
O O19 0.409645 0.500000 0.395780
#
# Coordination Sequence:
#
# PCOD9214868 Si02
#       7
#     8   8   8   8   8   8   8
#     4  12  21  39  56  84 121 157 200 249 297 359
#     4  11  22  36  57  85 117 155 200 249 295 346
#     4  10  22  43  68  96 127 162 204 257 318 377
#     4  12  20  40  61  86 118 156 205 246 295 360
#     4  11  24  39  61  88 122 164 202 249 312 370
#     4  10  22  40  65  92 120 158 200 249 309 368
#     4  11  22  38  58  81 115 157 201 246 296 357
#
# _framework density 18.526443
#
# number of rings (size 3 to 8) (size 9 to 14) (size 15 to 20)
#    0.000    1.000    4.286    3.000    0.000    2.286 
#    0.000    4.286    0.000    3.857    0.000    0.000 
#    0.000    0.000    0.000    0.000    0.000    0.000 
#
# Total GULP energy -156068.908569 kJ/mol
# GULP energy per Si atom -5573.889592 kJ/mol
# Density = 1.848428 g / cm^3
# Si number density = 18.526443 Si / 1000 Ang^3
#
#
#
# Elastic Constant Matrix: (Units=GPa)
#
#
# Indices 1 2 3 4 5 6 
#
# 1 118.7114 38.4040 31.8722 0.0000 -17.0241 0.0000
# 2 38.4040 126.2689 34.4785 0.0000 4.1969 0.0000
# 3 31.8722 34.4785 62.1679 0.0000 -4.8059 0.0000
# 4 0.0000 0.0000 0.0000 24.8696 0.0000 3.6661
# 5 -17.0241 4.1969 -4.8059 0.0000 32.0694 0.0000
# 6 0.0000 0.0000 0.0000 3.6661 0.0000 17.8333
#
#
#
# Elastic Compliance Matrix: (Units=1/GPa)
#
#
# Indices 1 2 3 4 5 6 
#
# 1 0.011076 -0.002503 -0.003855 0.000000 0.005630 0.000000
# 2 -0.002503 0.010030 -0.004536 0.000000 -0.003321 0.000000
# 3 -0.003855 -0.004536 0.020705 0.000000 0.001650 0.000000
# 4 0.000000 0.000000 0.000000 0.041466 0.000000 -0.008525
# 5 0.005630 -0.003321 0.001650 0.000000 0.034853 0.000000
# 6 0.000000 0.000000 0.000000 -0.008525 0.000000 0.057827
#
#
# Mechanical properties :
#
#
# Convention : Reuss Voigt Hill
#
# Bulk Modulus (GPa) = 49.94353 57.40639 53.67496
# Shear Modulus (GPa) = 24.45946 28.44735 26.45341
#
# Velocity S-wave (km/s) = 3.63746 3.92280 3.78282
# Velocity P-wave (km/s) = 6.68266 7.18131 6.93647
#
# Compressibility (1/GPa) = 0.02002261
#
# Stress axis : x y z
#
# Youngs Moduli (GPa) = 90.28617 99.70175 48.29738
#
# Poissons Ratio (x) = 0.24957 0.18618
# Poissons Ratio (y) = 0.22600 0.21908
# Poissons Ratio (z) = 0.34805 0.45225
#
# Static dielectric constant tensor:
#      x y z
#    x 1.776480 0.000000 -0.013630 
#    y 0.000000 1.700870 0.000000 
#    z -0.013630 0.000000 1.637390 
# 
# From -- ./inp_files/213404.got.cif
#   From: 2010.05.17/outbox.cif.g08.bks.cpg/sg12_107_cif.got.tgz:213404.got - 2010.06.03 13:09:07.
