data_PCOD9214949
_publ_section_title
;
Structure prediction by ZEFSAII (Michael W. Deem and Ramdas Pophale) SiO2 
 PCOD9214949
Probable space group: C 2/M
;
_chemical_formula_sum "Si O2"
_cell_formula_units_Z 56
_cell_length_a 13.426587
_cell_length_b 25.927048
_cell_length_c 14.667981
_cell_angle_alpha 90.000000
_cell_angle_beta 31.154908
_cell_angle_gamma 90.000000
_cell_volume 2641.657921
_symmetry_space_group_name_H-M "C 2/M"
_symmetry_group_IT_number 12
_symmetry_cell_setting 'monoclinic'
loop_
_space_group_symop_operation_xyz
x,y,z
-x,y,-z
-x,-y,-z
x,-y,z
1/2+x,1/2+y,z
1/2-x,1/2+y,-z
1/2-x,1/2-y,-z
1/2+x,1/2-y,z
loop_
_atom_site_type_symbol
_atom_site_label
_atom_site_fract_x
_atom_site_fract_y
_atom_site_fract_z
Si Si1 0.872802 0.281203 0.675728
Si Si2 0.483492 0.163317 0.257771
Si Si3 0.426233 0.058313 0.723527
Si Si4 0.328133 0.810491 0.075955
Si Si5 0.952019 0.130492 0.432068
Si Si6 0.158061 0.120016 0.803254
Si Si7 0.621730 0.442828 0.664389
O O1 0.986043 0.305255 0.672721
O O2 0.714583 0.244415 0.843802
O O3 0.784752 0.329450 0.689491
O O4 0.000000 0.252154 0.500000
O O5 0.569310 0.105566 0.207998
O O6 0.256675 0.157525 0.415137
O O7 0.596904 0.189734 0.085975
O O8 0.285432 0.076010 0.752798
O O9 0.645356 0.057503 0.515554
O O10 0.380782 0.000000 0.790608
O O11 0.125305 0.838979 0.247979
O O12 0.500000 0.836143 0.000000
O O13 0.935094 0.077075 0.390204
O O14 0.000000 0.123653 0.500000
O O15 0.063360 0.097474 0.787357
O O16 0.000000 0.135537 0.000000
O O17 0.551111 0.500000 0.739117
#
# Coordination Sequence:
#
# PCOD9214949 Si02
#       7
#     8   8   8   8   8   8   8
#     4  11  24  44  67  97 130 169 219 270 333 401
#     4  10  23  44  67  96 132 175 216 273 328 384
#     4   9  19  38  64  92 128 169 214 263 328 396
#     4  12  25  44  67  94 129 176 224 273 328 386
#     4  11  23  43  67  91 130 177 221 275 320 377
#     4  11  22  37  59  96 138 167 205 268 331 400
#     4  10  22  40  66  94 126 174 220 264 327 391
#
# _framework density 21.198809000000001
#
# number of rings (size 3 to 8) (size 9 to 14) (size 15 to 20)
#    0.000    1.429    1.429    4.714    4.000    3.143 
#    5.143    0.000    0.000    0.857    0.000    0.000 
#    0.000    0.000    0.000    0.000    0.000    0.000 
#
# Total GULP energy -156483.713737 kJ/mol
# GULP energy per Si atom -5588.704062 kJ/mol
# Density = 2.115056 g / cm^3
# Si number density = 21.198809 Si / 1000 Ang^3
#
#
#
# Elastic Constant Matrix: (Units=GPa)
#
#
# Indices 1 2 3 4 5 6 
#
# 1 102.9548 23.6213 49.4747 -0.0054 8.3311 0.0032
# 2 23.6213 69.4497 35.0552 0.0009 3.4472 -0.0007
# 3 49.4747 35.0552 119.4912 -0.0077 17.7798 0.0038
# 4 -0.0054 0.0009 -0.0077 11.3246 0.0061 1.6880
# 5 8.3311 3.4472 17.7798 0.0061 40.8982 -0.0031
# 6 0.0032 -0.0007 0.0038 1.6880 -0.0031 9.1012
#
#
#
# Elastic Compliance Matrix: (Units=1/GPa)
#
#
# Indices 1 2 3 4 5 6 
#
# 1 0.012341 -0.001912 -0.004489 0.000004 -0.000401 -0.000003
# 2 -0.001912 0.017221 -0.004386 -0.000007 0.000845 0.000005
# 3 -0.004489 -0.004386 0.012107 0.000010 -0.003979 -0.000007
# 4 0.000004 -0.000007 0.000010 0.090814 -0.000019 -0.016843
# 5 -0.000401 0.000845 -0.003979 -0.000019 0.026191 0.000014
# 6 -0.000003 0.000005 -0.000007 -0.016843 0.000014 0.112999
#
#
# Mechanical properties :
#
#
# Convention : Reuss Voigt Hill
#
# Bulk Modulus (GPa) = 49.76529 56.46645 53.11587
# Shear Modulus (GPa) = 16.66965 24.51446 20.59206
#
# Velocity S-wave (km/s) = 2.80723 3.40429 3.12007
# Velocity P-wave (km/s) = 5.83386 6.49205 6.17173
#
# Compressibility (1/GPa) = 0.02009433
#
# Stress axis : x y z
#
# Youngs Moduli (GPa) = 81.02795 58.06790 82.60022
#
# Poissons Ratio (x) = 0.11100 0.37082
# Poissons Ratio (y) = 0.15489 0.36232
# Poissons Ratio (z) = 0.36377 0.25471
#
# Static dielectric constant tensor:
#      x y z
#    x 1.757520 0.000000 -0.002530 
#    y 0.000000 1.787820 0.000000 
#    z -0.002530 0.000000 1.791640 
# 
# From -- ./inp_files/219067.got.cif
#   From: 2010.05.17/outbox.cif.g08.bks.cpg/sg12_110_cif.got.tgz:219067.got - 2010.06.03 13:09:07.
