data_PCOD9214372
_publ_section_title
;
Structure prediction by ZEFSAII (Michael W. Deem and Ramdas Pophale) SiO2 
 PCOD9214372
Probable space group: C 2/M
;
_chemical_formula_sum "Si O2"
_cell_formula_units_Z 52
_cell_length_a 12.963158
_cell_length_b 23.048193
_cell_length_c 8.982764
_cell_angle_alpha 90.000000
_cell_angle_beta 96.084432
_cell_angle_gamma 90.000000
_cell_volume 2668.727884
_symmetry_space_group_name_H-M "C 2/M"
_symmetry_group_IT_number 12
_symmetry_cell_setting 'monoclinic'
loop_
_space_group_symop_operation_xyz
x,y,z
-x,y,-z
-x,-y,-z
x,-y,z
1/2+x,1/2+y,z
1/2-x,1/2+y,-z
1/2-x,1/2-y,-z
1/2+x,1/2-y,z
loop_
_atom_site_type_symbol
_atom_site_label
_atom_site_fract_x
_atom_site_fract_y
_atom_site_fract_z
Si Si1 0.648266 0.173105 0.774615
Si Si2 0.408549 0.626972 0.401676
Si Si3 0.168410 0.782495 0.379722
Si Si4 0.877228 0.565726 0.008879
Si Si5 0.525714 0.283727 0.834085
Si Si6 0.500000 0.127009 0.500000
Si Si7 0.814374 0.568310 0.661079
O O1 0.760896 0.180852 0.721271
O O2 0.645981 0.117357 0.880925
O O3 0.612851 0.233528 0.843272
O O4 0.567613 0.162708 0.627858
O O5 0.500000 0.591641 0.500000
O O6 0.392745 0.679626 0.512463
O O7 0.438261 0.658455 0.250548
O O8 0.297808 0.595663 0.386738
O O9 0.250000 0.750000 0.500000
O O10 0.077221 0.756515 0.262781
O O11 0.846728 0.500000 0.053649
O O12 0.831353 0.577875 0.839462
O O13 0.000000 0.564779 0.000000
O O14 0.500000 0.297876 0.000000
O O15 0.411929 0.092693 0.581362
O O16 0.811287 0.500000 0.632609
#
# Coordination Sequence:
#
# PCOD9214372 Si02
#       7
#     8   8   8   8   8   4   8
#     4  12  23  38  64  88 126 170 204 252 318 379
#     4  10  23  44  64  90 131 166 211 266 312 368
#     4  11  22  41  60  90 125 167 205 257 316 370
#     4  10  22  40  59  89 130 163 201 253 312 376
#     4  11  26  39  61  94 127 166 215 261 307 377
#     4  12  23  36  64 100 126 158 213 262 310 392
#     4  11  24  42  67  93 126 168 210 264 319 374
#
# _framework density 19.484939000000001
#
# number of rings (size 3 to 8) (size 9 to 14) (size 15 to 20)
#    0.000    1.077    4.615    1.615    3.231    1.538 
#    0.000    0.000    0.000    0.462    0.000    0.000 
#    0.000    0.000    0.000    0.000    0.000    0.000 
#
# Total GULP energy -144974.813073 kJ/mol
# GULP energy per Si atom -5575.954349 kJ/mol
# Density = 1.944059 g / cm^3
# Si number density = 19.484939 Si / 1000 Ang^3
#
#
#
# Elastic Constant Matrix: (Units=GPa)
#
#
# Indices 1 2 3 4 5 6 
#
# 1 117.9039 26.1453 36.0066 0.0000 -4.0630 0.0000
# 2 26.1453 38.5346 30.9597 0.0000 -13.7170 0.0000
# 3 36.0066 30.9597 79.8068 0.0000 -18.9032 0.0000
# 4 0.0000 0.0000 0.0000 -39.0045 0.0000 -50.4655
# 5 -4.0630 -13.7170 -18.9032 0.0000 40.6911 0.0000
# 6 0.0000 0.0000 0.0000 -50.4655 0.0000 -5.7503
#
#
#
# Elastic Compliance Matrix: (Units=1/GPa)
#
#
# Indices 1 2 3 4 5 6 
#
# 1 0.010583 -0.005402 -0.003214 0.000000 -0.002257 0.000000
# 2 -0.005402 0.042129 -0.011989 0.000000 0.008093 0.000000
# 3 -0.003214 -0.011989 0.019774 0.000000 0.004824 0.000000
# 4 0.000000 0.000000 0.000000 0.002476 0.000000 -0.021729
# 5 -0.002257 0.008093 0.004824 0.000000 0.029319 0.000000
# 6 0.000000 0.000000 0.000000 -0.021729 0.000000 0.016794
#
#
# Mechanical properties :
#
#
# Convention : Reuss Voigt Hill
#
# Bulk Modulus (GPa) = 31.97346 46.94095 39.45720
# Shear Modulus (GPa) = 28.95021 8.72950 18.83986
#
# Velocity S-wave (km/s) = 3.85876 2.11893 3.11286
# Velocity P-wave (km/s) = 6.02480 5.48905 5.76316
#
# Compressibility (1/GPa) = 0.03127594
#
# Stress axis : x y z
#
# Youngs Moduli (GPa) = 94.49069 23.73658 50.57206
#
# Poissons Ratio (x) = 0.12822 0.16253
# Poissons Ratio (y) = 0.51043 0.60632
# Poissons Ratio (z) = 0.30368 0.28458
#
# Static dielectric constant tensor:
#      x y z
#    x 1.781730 0.000000 0.085300 
#    y 0.000000 1.696290 0.000000 
#    z 0.085300 0.000000 1.728270 
# 
# From -- ./inp_files/52653.got.cif
#   From: 2010.05.17/outbox.cif.g08.bks.cpg/sg12_27_cif.got.tgz:52653.got - 2010.06.03 13:09:07.
