data_PCOD9214749
_publ_section_title
;
Structure prediction by ZEFSAII (Michael W. Deem and Ramdas Pophale) SiO2 
 PCOD9214749
Probable space group: C 2/M
;
_chemical_formula_sum "Si O2"
_cell_formula_units_Z 42
_cell_length_a 16.807750
_cell_length_b 23.264707
_cell_length_c 5.365755
_cell_angle_alpha 90.000000
_cell_angle_beta 108.655843
_cell_angle_gamma 90.000000
_cell_volume 1987.913830
_symmetry_space_group_name_H-M "C 2/M"
_symmetry_group_IT_number 12
_symmetry_cell_setting 'monoclinic'
loop_
_space_group_symop_operation_xyz
x,y,z
-x,y,-z
-x,-y,-z
x,-y,z
1/2+x,1/2+y,z
1/2-x,1/2+y,-z
1/2-x,1/2-y,-z
1/2+x,1/2-y,z
loop_
_atom_site_type_symbol
_atom_site_label
_atom_site_fract_x
_atom_site_fract_y
_atom_site_fract_z
Si Si1 0.000000 0.500000 0.500000
Si Si2 0.319534 0.398221 0.955086
Si Si3 0.554612 0.500000 0.807460
Si Si4 0.000000 0.364915 0.000000
Si Si5 0.687241 0.673044 0.557768
Si Si6 0.370255 0.907229 0.226054
Si Si7 0.871137 0.299118 0.551730
O O1 0.926701 0.449264 0.449435
O O2 0.332685 0.370271 0.693294
O O3 0.226047 0.425527 0.876582
O O4 0.387045 0.444557 0.105324
O O5 0.322963 0.351274 0.176822
O O6 0.500000 0.500000 0.500000
O O7 0.500000 0.500000 0.000000
O O8 0.925574 0.404786 0.031526
O O9 0.045335 0.322800 0.238001
O O10 0.786231 0.687233 0.621678
O O11 0.633303 0.731280 0.488169
O O12 0.364567 0.840746 0.306716
#
# Coordination Sequence:
#
# PCOD9214749 Si02
#       7
#     2   8   4   4   8   8   8
#     4  12  22  42  56 100 138 188 228 270 320 426
#     4  11  24  48  72 104 133 184 235 289 358 427
#     4  12  27  52  76 100 138 170 228 311 366 416
#     4  12  20  41  60  98 142 183 224 282 338 398
#     4  10  23  41  73  99 135 186 237 277 350 420
#     4  11  24  40  65  96 143 185 233 278 343 408
#     4  10  22  40  63  98 142 181 229 291 338 400
#
# _framework density 21.127675
#
# number of rings (size 3 to 8) (size 9 to 14) (size 15 to 20)
#    0.000    1.143    3.810    1.714    2.667    2.667 
#    5.143    2.857    0.000    0.000    0.000    0.000 
#    0.000    0.000    0.000    0.000    0.000    0.000 
#
# Total GULP energy -116943.636474 kJ/mol
# GULP energy per Si atom -5568.744594 kJ/mol
# Density = 2.107959 g / cm^3
# Si number density = 21.127675 Si / 1000 Ang^3
#
#
#
# Elastic Constant Matrix: (Units=GPa)
#
#
# Indices 1 2 3 4 5 6 
#
# 1 93.6929 27.9630 30.0582 0.0000 15.6600 0.0000
# 2 27.9630 81.4772 19.0770 0.0000 14.0705 0.0000
# 3 30.0582 19.0770 99.8317 0.0000 19.3168 0.0000
# 4 0.0000 0.0000 0.0000 -11.2051 0.0000 -15.9494
# 5 15.6600 14.0705 19.3168 0.0000 35.3889 0.0000
# 6 0.0000 0.0000 0.0000 -15.9494 0.0000 -6.4221
#
#
#
# Elastic Compliance Matrix: (Units=1/GPa)
#
#
# Indices 1 2 3 4 5 6 
#
# 1 0.013032 -0.003325 -0.002715 0.000000 -0.002963 0.000000
# 2 -0.003325 0.014284 -0.001022 0.000000 -0.003650 0.000000
# 3 -0.002715 -0.001022 0.011984 0.000000 -0.004934 0.000000
# 4 0.000000 0.000000 0.000000 0.035204 0.000000 -0.087431
# 5 -0.002963 -0.003650 -0.004934 0.000000 0.033713 0.000000
# 6 0.000000 0.000000 0.000000 -0.087431 0.000000 0.061424
#
#
# Mechanical properties :
#
#
# Convention : Reuss Voigt Hill
#
# Bulk Modulus (GPa) = 39.72119 47.68869 43.70494
# Shear Modulus (GPa) = 26.02033 16.74592 21.38313
#
# Velocity S-wave (km/s) = 3.51319 2.81838 3.18479
# Velocity P-wave (km/s) = 5.94121 5.76296 5.85276
#
# Compressibility (1/GPa) = 0.02517548
#
# Stress axis : x y z
#
# Youngs Moduli (GPa) = 76.73528 70.00732 83.44255
#
# Poissons Ratio (x) = 0.23279 0.22655
# Poissons Ratio (y) = 0.25516 0.08529
# Poissons Ratio (z) = 0.20834 0.07156
#
# Static dielectric constant tensor:
#      x y z
#    x 1.789750 0.000000 -0.019780 
#    y 0.000000 1.783060 0.000000 
#    z -0.019780 0.000000 1.811390 
# 
# From -- ./inp_files/16050.got.cif
#   From: 2010.05.17/outbox.cif.g08.bks.cpg/sg12_9_cif.got.tgz:16050.got - 2010.06.03 13:09:07.
