data_PCOD9214162
_publ_section_title
;
Structure prediction by ZEFSAII (Michael W. Deem and Ramdas Pophale) SiO2 
 PCOD9214162
Probable space group: C 2/M
;
_chemical_formula_sum "Si O2"
_cell_formula_units_Z 56
_cell_length_a 22.455026
_cell_length_b 7.978648
_cell_length_c 15.170128
_cell_angle_alpha 90.000000
_cell_angle_beta 112.833846
_cell_angle_gamma 90.000000
_cell_volume 2504.901406
_symmetry_space_group_name_H-M "C 2/M"
_symmetry_group_IT_number 12
_symmetry_cell_setting 'monoclinic'
loop_
_space_group_symop_operation_xyz
x,y,z
-x,y,-z
-x,-y,-z
x,-y,z
1/2+x,1/2+y,z
1/2-x,1/2+y,-z
1/2-x,1/2-y,-z
1/2+x,1/2-y,z
loop_
_atom_site_type_symbol
_atom_site_label
_atom_site_fract_x
_atom_site_fract_y
_atom_site_fract_z
Si Si1 0.337425 0.204281 0.237875
Si Si2 0.473168 0.309841 0.082189
Si Si3 0.096184 0.307291 0.243760
Si Si4 0.661529 0.189531 0.958387
Si Si5 0.425553 0.794939 0.443877
Si Si6 0.196334 0.194618 0.166452
Si Si7 0.825687 0.297833 0.540750
O O1 0.334913 0.267851 0.136607
O O2 0.396116 0.258858 0.332821
O O3 0.267699 0.243988 0.239353
O O4 0.340646 0.000000 0.233904
O O5 0.447819 0.500000 0.069082
O O6 0.531092 0.289609 0.184009
O O7 0.414695 0.188169 0.067054
O O8 0.500000 0.278883 0.000000
O O9 0.078695 0.500000 0.252048
O O10 0.141492 0.297651 0.183773
O O11 0.138391 0.241462 0.349202
O O12 0.687352 0.000000 0.972112
O O13 0.692519 0.282950 0.059008
O O14 0.500000 0.740518 0.500000
O O15 0.372415 0.742494 0.486903
O O16 0.426446 0.000000 0.445949
O O17 0.185079 0.000000 0.180921
O O18 0.826358 0.500000 0.539374
O O19 0.750000 0.250000 0.500000
#
# Coordination Sequence:
#
# PCOD9214162 Si02
#       7
#     8   8   8   8   8   8   8
#     4   9  20  35  56  85 115 153 193 237 290 344
#     4  11  23  39  58  83 116 156 197 238 294 355
#     4  11  23  37  59  90 119 152 198 245 294 345
#     4  11  22  36  58  86 117 150 193 243 289 342
#     4   9  18  35  60  87 117 152 199 249 294 350
#     4  11  21  37  58  84 120 157 194 233 289 357
#     4  10  22  39  63  94 121 157 201 250 304 357
#
# _framework density 22.356171
#
# number of rings (size 3 to 8) (size 9 to 14) (size 15 to 20)
#    0.000    1.714    1.429    3.000    2.000    2.857 
#    0.000    2.143    0.000    2.143    0.000    0.000 
#    0.000    0.000    0.000    0.000    0.000    0.000 
#
# Total GULP energy -156428.079839 kJ/mol
# GULP energy per Si atom -5586.717137 kJ/mol
# Density = 2.230529 g / cm^3
# Si number density = 22.356171 Si / 1000 Ang^3
#
#
#
# Elastic Constant Matrix: (Units=GPa)
#
#
# Indices 1 2 3 4 5 6 
#
# 1 88.7985 16.3121 44.4205 0.0000 19.5309 0.0000
# 2 16.3121 20.5538 -7.6890 0.0000 -0.1050 0.0000
# 3 44.4205 -7.6890 113.3794 0.0000 20.1922 0.0000
# 4 0.0000 0.0000 0.0000 -54.6531 0.0000 -23.2932
# 5 19.5309 -0.1050 20.1922 0.0000 42.4312 0.0000
# 6 0.0000 0.0000 0.0000 -23.2932 0.0000 -0.6156
#
#
#
# Elastic Compliance Matrix: (Units=1/GPa)
#
#
# Indices 1 2 3 4 5 6 
#
# 1 0.020015 -0.018969 -0.008171 0.000000 -0.005371 0.000000
# 2 -0.018969 0.067999 0.011427 0.000000 0.003462 0.000000
# 3 -0.008171 0.011427 0.013244 0.000000 -0.002513 0.000000
# 4 0.000000 0.000000 0.000000 0.001210 0.000000 -0.045769
# 5 -0.005371 0.003462 -0.002513 0.000000 0.027244 0.000000
# 6 0.000000 0.000000 0.000000 -0.045769 0.000000 0.107389
#
#
# Mechanical properties :
#
#
# Convention : Reuss Voigt Hill
#
# Bulk Modulus (GPa) = 14.32029 36.53541 25.42785
# Shear Modulus (GPa) = 17.13476 8.74505 12.93990
#
# Velocity S-wave (km/s) = 2.77148 1.97995 2.40845
# Velocity P-wave (km/s) = 4.08177 4.64810 4.37411
#
# Compressibility (1/GPa) = 0.06983098
#
# Stress axis : x y z
#
# Youngs Moduli (GPa) = 49.96258 14.70608 75.50663
#
# Poissons Ratio (x) = 0.27896 0.61700
# Poissons Ratio (y) = 0.94773 -0.86279
# Poissons Ratio (z) = 0.40827 -0.16804
#
# Static dielectric constant tensor:
#      x y z
#    x 1.815970 0.000000 -0.014020 
#    y 0.000000 1.782050 0.000000 
#    z -0.014020 0.000000 1.824950 
# 
# From -- ./inp_files/238874.got.cif
#   From: 2010.05.17/outbox.cif.g08.bks.cpg/sg12_120_cif.got.tgz:238874.got - 2010.06.03 13:09:07.
