data_PCOD9214930
_publ_section_title
;
Structure prediction by ZEFSAII (Michael W. Deem and Ramdas Pophale) SiO2 
 PCOD9214930
Probable space group: C 2/M
;
_chemical_formula_sum "Si O2"
_cell_formula_units_Z 48
_cell_length_a 13.884652
_cell_length_b 16.520484
_cell_length_c 18.066630
_cell_angle_alpha 90.000000
_cell_angle_beta 151.067524
_cell_angle_gamma 90.000000
_cell_volume 2004.848256
_symmetry_space_group_name_H-M "C 2/M"
_symmetry_group_IT_number 12
_symmetry_cell_setting 'monoclinic'
loop_
_space_group_symop_operation_xyz
x,y,z
-x,y,-z
-x,-y,-z
x,-y,z
1/2+x,1/2+y,z
1/2-x,1/2+y,-z
1/2-x,1/2-y,-z
1/2+x,1/2-y,z
loop_
_atom_site_type_symbol
_atom_site_label
_atom_site_fract_x
_atom_site_fract_y
_atom_site_fract_z
Si Si1 0.198241 0.876361 0.674725
Si Si2 0.895612 0.336738 0.100688
Si Si3 0.209243 0.595051 0.543031
Si Si4 0.678410 0.299210 0.244472
Si Si5 0.849503 0.089941 0.194098
Si Si6 0.786409 0.402960 0.182514
O O1 0.397013 0.888140 0.760789
O O2 0.187778 0.779446 0.682847
O O3 0.230931 0.911975 0.777372
O O4 0.000000 0.903440 0.500000
O O5 0.783844 0.363819 0.099439
O O6 0.984271 0.245981 0.149191
O O7 0.779324 0.356659 0.947317
O O8 0.206156 0.500000 0.560082
O O9 0.223166 0.646522 0.626559
O O10 0.418173 0.613557 0.642996
O O11 0.013587 0.610354 0.364015
O O12 0.660172 0.355082 0.159940
O O13 0.845135 0.000000 0.157983
O O14 0.746110 0.500000 0.153986
#
# Coordination Sequence:
#
# PCOD9214930 Si02
#       6
#     8   8   8   8   8   8
#     4  10  22  40  66 100 131 172 220 279 336 394
#     4  10  25  41  65  96 134 179 221 270 333 393
#     4  10  22  41  69  99 132 174 221 276 337 396
#     4  10  24  40  67  98 135 171 222 276 333 393
#     4  11  24  44  66  94 137 179 221 273 331 402
#     4  11  22  43  72 101 133 176 225 277 336 401
#
# _framework density 23.941963000000001
#
# number of rings (size 3 to 8) (size 9 to 14) (size 15 to 20)
#    1.000    0.667    0.000    4.000    2.333    5.000 
#    3.000    0.000    0.000    3.000    0.000    0.000 
#    0.000    0.000    0.000    0.000    0.000    0.000 
#
# Total GULP energy -134165.494832 kJ/mol
# GULP energy per Si atom -5590.228951 kJ/mol
# Density = 2.388747 g / cm^3
# Si number density = 23.941963 Si / 1000 Ang^3
#
#
#
# Elastic Constant Matrix: (Units=GPa)
#
#
# Indices 1 2 3 4 5 6 
#
# 1 141.2206 45.4706 30.2391 0.0006 -9.4293 -0.0030
# 2 45.4706 76.4126 39.5498 0.0136 -12.7412 0.0054
# 3 30.2391 39.5498 112.7012 0.0555 -12.1478 0.0480
# 4 0.0006 0.0136 0.0555 47.2382 0.0190 5.4614
# 5 -9.4293 -12.7412 -12.1478 0.0190 43.8844 0.0143
# 6 -0.0030 0.0054 0.0480 5.4614 0.0143 41.0928
#
#
#
# Elastic Compliance Matrix: (Units=1/GPa)
#
#
# Indices 1 2 3 4 5 6 
#
# 1 0.008801 -0.004864 -0.000621 0.000002 0.000307 0.000002
# 2 -0.004864 0.019124 -0.005071 -0.000001 0.003103 0.000002
# 3 -0.000621 -0.005071 0.010974 -0.000011 0.001432 -0.000011
# 4 0.000002 -0.000001 -0.000011 0.021500 -0.000011 -0.002857
# 5 0.000307 0.003103 0.001432 -0.000011 0.024150 -0.000009
# 6 0.000002 0.000002 -0.000011 -0.002857 -0.000009 0.024715
#
#
# Mechanical properties :
#
#
# Convention : Reuss Voigt Hill
#
# Bulk Modulus (GPa) = 56.22933 62.31703 59.27318
# Shear Modulus (GPa) = 36.68229 40.78143 38.73186
#
# Velocity S-wave (km/s) = 3.91849 4.13164 4.02648
# Velocity P-wave (km/s) = 6.63396 6.98895 6.81377
#
# Compressibility (1/GPa) = 0.01778431
#
# Stress axis : x y z
#
# Youngs Moduli (GPa) = 113.62492 52.29091 91.12671
#
# Poissons Ratio (x) = 0.25436 0.05661
# Poissons Ratio (y) = 0.55272 0.46214
# Poissons Ratio (z) = 0.07059 0.26519
#
# Static dielectric constant tensor:
#      x y z
#    x 1.958610 -0.000010 0.099620 
#    y -0.000010 1.913550 0.000000 
#    z 0.099620 0.000000 1.896020 
# 
# From -- ./inp_files/271776.got.cif
#   From: 2010.05.17/outbox.cif.g08.bks.cpg/sg12_136_cif.got.tgz:271776.got - 2010.06.03 13:09:07.
