data_PCOD9214583
_publ_section_title
;
Structure prediction by ZEFSAII (Michael W. Deem and Ramdas Pophale) SiO2 
 PCOD9214583
Probable space group: C 2/M
;
_chemical_formula_sum "Si O2"
_cell_formula_units_Z 56
_cell_length_a 18.140603
_cell_length_b 8.816563
_cell_length_c 29.105838
_cell_angle_alpha 90.000000
_cell_angle_beta 141.008512
_cell_angle_gamma 90.000000
_cell_volume 2929.026213
_symmetry_space_group_name_H-M "C 2/M"
_symmetry_group_IT_number 12
_symmetry_cell_setting 'monoclinic'
loop_
_space_group_symop_operation_xyz
x,y,z
-x,y,-z
-x,-y,-z
x,-y,z
1/2+x,1/2+y,z
1/2-x,1/2+y,-z
1/2-x,1/2-y,-z
1/2+x,1/2-y,z
loop_
_atom_site_type_symbol
_atom_site_label
_atom_site_fract_x
_atom_site_fract_y
_atom_site_fract_z
Si Si1 0.594504 0.681459 0.139187
Si Si2 0.443505 0.318064 0.423522
Si Si3 0.312171 0.680649 0.713293
Si Si4 0.122882 0.818166 0.427978
Si Si5 0.767825 0.818925 0.147583
Si Si6 0.663596 0.818728 0.996069
Si Si7 0.975668 0.681007 0.714051
O O1 0.593513 0.500000 0.132617
O O2 0.642343 0.714671 0.213403
O O3 0.679355 0.756128 0.142883
O O4 0.464224 0.746091 0.070653
O O5 0.500000 0.278391 0.500000
O O6 0.422900 0.500000 0.413303
O O7 0.321071 0.234707 0.356710
O O8 0.534411 0.282672 0.426887
O O9 0.320564 0.500000 0.710192
O O10 0.392704 0.763621 0.715073
O O11 0.250000 0.750000 0.500000
O O12 0.072854 0.749646 0.356838
O O13 0.131110 0.000000 0.428105
O O14 0.893638 0.741613 0.214153
O O15 0.780674 0.000000 0.159001
O O16 0.715446 0.788348 0.071767
O O17 0.655594 0.000000 0.986347
O O18 0.750000 0.750000 0.000000
O O19 0.975457 0.500000 0.711329
#
# Coordination Sequence:
#
# PCOD9214583 Si02
#       7
#     8   8   8   8   8   8   8
#     4  11  24  41  63  92 124 159 202 251 305 368
#     4  10  22  40  62  90 122 157 199 246 298 359
#     4  11  24  41  62  90 122 157 201 252 304 360
#     4  11  23  40  64  93 127 164 203 251 304 360
#     4  11  24  42  63  90 124 160 203 253 304 361
#     4  11  24  41  63  91 123 161 204 252 306 364
#     4  12  25  41  63  90 122 162 207 252 303 363
#
# _framework density 19.118981999999999
#
# number of rings (size 3 to 8) (size 9 to 14) (size 15 to 20)
#    0.000    1.000    0.000    6.429    0.000   14.571 
#    0.000    0.000    0.000    0.000    0.000    0.000 
#    0.000    0.000    0.000    0.000    0.000    0.000 
#
# Total GULP energy -156754.481302 kJ/mol
# GULP energy per Si atom -5598.374332 kJ/mol
# Density = 1.907547 g / cm^3
# Si number density = 19.118982 Si / 1000 Ang^3
#
#
#
# Elastic Constant Matrix: (Units=GPa)
#
#
# Indices 1 2 3 4 5 6 
#
# 1 209.3260 107.6196 118.0232 0.0000 2.7641 0.0000
# 2 107.6196 108.4724 106.5851 0.0000 -6.4470 0.0000
# 3 118.0232 106.5851 185.9945 0.0000 8.2046 0.0000
# 4 0.0000 0.0000 0.0000 38.6555 0.0000 6.6695
# 5 2.7641 -6.4470 8.2046 0.0000 42.8117 0.0000
# 6 0.0000 0.0000 0.0000 6.6695 0.0000 36.6805
#
#
#
# Elastic Compliance Matrix: (Units=1/GPa)
#
#
# Indices 1 2 3 4 5 6 
#
# 1 0.010052 -0.008895 -0.001204 0.000000 -0.001758 0.000000
# 2 -0.008895 0.030360 -0.012083 0.000000 0.007462 0.000000
# 3 -0.001204 -0.012083 0.013254 0.000000 -0.004282 0.000000
# 4 0.000000 0.000000 0.000000 0.026707 0.000000 -0.004856
# 5 -0.001758 0.007462 -0.004282 0.000000 0.025416 0.000000
# 6 0.000000 0.000000 0.000000 -0.004856 0.000000 0.028145
#
#
# Mechanical properties :
#
#
# Convention : Reuss Voigt Hill
#
# Bulk Modulus (GPa) = 107.49778 129.80541 118.65159
# Shear Modulus (GPa) = 27.56371 35.06721 31.31546
#
# Velocity S-wave (km/s) = 3.80108 4.28735 4.05152
# Velocity P-wave (km/s) = 8.69552 9.62026 9.16955
#
# Compressibility (1/GPa) = 0.00930252
#
# Stress axis : x y z
#
# Youngs Moduli (GPa) = 99.48034 32.93841 75.45138
#
# Poissons Ratio (x) = 0.29297 0.09085
# Poissons Ratio (y) = 0.88484 0.91167
# Poissons Ratio (z) = 0.11978 0.39799
#
# Static dielectric constant tensor:
#      x y z
#    x 1.623500 0.000000 -0.010150 
#    y 0.000000 1.638640 0.000000 
#    z -0.010150 0.000000 1.625390 
# 
# From -- ./inp_files/363184.got.cif
#   From: 2010.05.17/outbox.cif.g08.bks.cpg/sg12_182_cif.got.tgz:363184.got - 2010.06.03 13:09:07.
