data_PCOD9214853
_publ_section_title
;
Structure prediction by ZEFSAII (Michael W. Deem and Ramdas Pophale) SiO2 
 PCOD9214853
Probable space group: C 2/M
;
_chemical_formula_sum "Si O2"
_cell_formula_units_Z 40
_cell_length_a 18.233592
_cell_length_b 18.967135
_cell_length_c 14.703120
_cell_angle_alpha 90.000000
_cell_angle_beta 22.171083
_cell_angle_gamma 90.000000
_cell_volume 1918.910934
_symmetry_space_group_name_H-M "C 2/M"
_symmetry_group_IT_number 12
_symmetry_cell_setting 'monoclinic'
loop_
_space_group_symop_operation_xyz
x,y,z
-x,y,-z
-x,-y,-z
x,-y,z
1/2+x,1/2+y,z
1/2-x,1/2+y,-z
1/2-x,1/2-y,-z
1/2+x,1/2-y,z
loop_
_atom_site_type_symbol
_atom_site_label
_atom_site_fract_x
_atom_site_fract_y
_atom_site_fract_z
Si Si1 0.999569 0.417127 0.713005
Si Si2 0.141764 0.422912 0.922910
Si Si3 0.373271 0.701038 0.570609
Si Si4 0.371879 0.325860 0.229558
Si Si5 0.860674 0.178466 0.901178
O O1 0.010427 0.500000 0.678817
O O2 0.190367 0.375375 0.462969
O O3 0.975005 0.409699 0.850372
O O4 0.804013 0.380912 0.898989
O O5 0.238293 0.500000 0.822474
O O6 0.280411 0.359164 0.739243
O O7 0.000000 0.426501 0.000000
O O8 0.500000 0.743804 0.500000
O O9 0.217910 0.752294 0.702926
O O10 0.495326 0.666211 0.349001
O O11 0.509922 0.313694 0.157654
O O12 0.500000 0.355854 0.000000
O O13 0.750000 0.250000 0.000000
#
# Coordination Sequence:
#
# PCOD9214853 Si02
#       5
#     8   8   8   8   8
#     4  11  26  48  72 103 142 187 238 293 354 424
#     4  10  22  40  65 101 143 180 220 281 357 426
#     4  12  23  40  72 106 141 178 229 285 357 428
#     4  12  28  44  71 102 140 190 244 291 347 406
#     4  12  25  45  71 103 144 188 234 290 350 419
#
# _framework density 20.845157
#
# number of rings (size 3 to 8) (size 9 to 14) (size 15 to 20)
#    0.000    0.600    4.000    3.600    2.800    2.400 
#    0.000    1.000    0.000    0.000    0.000    0.000 
#    0.000    0.000    0.000    0.000    0.000    0.000 
#
# Total GULP energy -111874.459003 kJ/mol
# GULP energy per Si atom -5593.722950 kJ/mol
# Density = 2.079771 g / cm^3
# Si number density = 20.845157 Si / 1000 Ang^3
#
#
#
# Elastic Constant Matrix: (Units=GPa)
#
#
# Indices 1 2 3 4 5 6 
#
# 1 174.7154 45.3496 68.1059 0.0074 -14.3709 -0.0046
# 2 45.3496 131.9908 81.3096 0.0060 6.0561 -0.0039
# 3 68.1059 81.3096 149.5631 0.0349 8.6548 -0.0231
# 4 0.0074 0.0060 0.0349 29.5756 -0.0077 4.1009
# 5 -14.3709 6.0561 8.6548 -0.0077 38.6409 0.0039
# 6 -0.0046 -0.0039 -0.0231 4.1009 0.0039 27.1988
#
#
#
# Elastic Compliance Matrix: (Units=1/GPa)
#
#
# Indices 1 2 3 4 5 6 
#
# 1 0.007463 -0.000763 -0.003192 0.000003 0.003610 -0.000003
# 2 -0.000763 0.011475 -0.005846 0.000005 -0.000773 -0.000004
# 3 -0.003192 -0.005846 0.011483 -0.000014 -0.002843 0.000011
# 4 0.000003 0.000005 -0.000014 0.034534 0.000011 -0.005207
# 5 0.003610 -0.000773 -0.002843 0.000011 0.027980 -0.000008
# 6 -0.000003 -0.000004 0.000011 -0.005207 -0.000008 0.037551
#
#
# Mechanical properties :
#
#
# Convention : Reuss Voigt Hill
#
# Bulk Modulus (GPa) = 92.44441 93.97773 93.21107
# Shear Modulus (GPa) = 32.53176 36.51667 34.52422
#
# Velocity S-wave (km/s) = 3.95478 4.19000 4.07409
# Velocity P-wave (km/s) = 8.08072 8.28189 8.18193
#
# Compressibility (1/GPa) = 0.01081731
#
# Stress axis : x y z
#
# Youngs Moduli (GPa) = 133.99264 87.14245 87.08722
#
# Poissons Ratio (x) = 0.06651 0.27802
# Poissons Ratio (y) = 0.10226 0.50914
# Poissons Ratio (z) = 0.42776 0.50946
#
# Static dielectric constant tensor:
#      x y z
#    x 1.756160 0.000000 -0.030850 
#    y 0.000000 1.774180 0.000010 
#    z -0.030850 0.000010 1.796890 
# 
# From -- ./inp_files/227513.got.cif
#   From: 2010.05.17/outbox.cif.g08.bks.cpg/sg12_114_cif.got.tgz:227513.got - 2010.06.03 13:09:07.
