data_PCOD9214776
_publ_section_title
;
Structure prediction by ZEFSAII (Michael W. Deem and Ramdas Pophale) SiO2 
 PCOD9214776
Probable space group: C 2/M
;
_chemical_formula_sum "Si O2"
_cell_formula_units_Z 40
_cell_length_a 21.842707
_cell_length_b 15.581406
_cell_length_c 5.224050
_cell_angle_alpha 90.000000
_cell_angle_beta 78.179173
_cell_angle_gamma 90.000000
_cell_volume 1740.248545
_symmetry_space_group_name_H-M "C 2/M"
_symmetry_group_IT_number 12
_symmetry_cell_setting 'monoclinic'
loop_
_space_group_symop_operation_xyz
x,y,z
-x,y,-z
-x,-y,-z
x,-y,z
1/2+x,1/2+y,z
1/2-x,1/2+y,-z
1/2-x,1/2-y,-z
1/2+x,1/2-y,z
loop_
_atom_site_type_symbol
_atom_site_label
_atom_site_fract_x
_atom_site_fract_y
_atom_site_fract_z
Si Si1 0.262679 0.155631 0.257302
Si Si2 0.563647 0.405553 0.113690
Si Si3 0.671205 0.095709 0.278437
Si Si4 0.843676 0.813505 0.292710
Si Si5 0.431591 0.231392 0.568030
O O1 0.298407 0.114665 0.471229
O O2 0.191475 0.160517 0.414291
O O3 0.292356 0.251490 0.206012
O O4 0.277634 0.105096 0.988772
O O5 0.566418 0.500000 0.236432
O O6 0.562159 0.322868 0.296613
O O7 0.500000 0.403886 0.000000
O O8 0.625577 0.390365 0.887868
O O9 0.618179 0.166249 0.270545
O O10 0.645402 0.000000 0.298762
O O11 0.902720 0.754290 0.316728
O O12 0.500000 0.192100 0.500000
#
# Coordination Sequence:
#
# PCOD9214776 Si02
#       5
#     8   8   8   8   8
#     4  10  23  41  68  94 131 172 215 266 322 381
#     4  11  23  39  61  92 127 166 217 267 321 386
#     4  11  24  43  67  99 133 170 217 268 322 386
#     4  10  22  40  64  91 126 171 219 260 323 386
#     4  11  23  41  66  91 129 172 213 269 327 382
#
# _framework density 22.985223000000001
#
# number of rings (size 3 to 8) (size 9 to 14) (size 15 to 20)
#    0.000    1.400    4.000    0.600    2.800    5.600 
#    0.000    0.000    0.000    4.200    0.000    0.000 
#    0.000    0.000    0.000    0.000    0.000    0.000 
#
# Total GULP energy -111839.845269 kJ/mol
# GULP energy per Si atom -5591.992263 kJ/mol
# Density = 2.293291 g / cm^3
# Si number density = 22.985223 Si / 1000 Ang^3
#
#
#
# Elastic Constant Matrix: (Units=GPa)
#
#
# Indices 1 2 3 4 5 6 
#
# 1 103.2133 15.5618 28.0678 0.0000 -10.7835 0.0000
# 2 15.5618 132.0652 31.2611 0.0000 -0.6965 0.0000
# 3 28.0678 31.2611 83.9907 0.0000 -8.0135 0.0000
# 4 0.0000 0.0000 0.0000 16.4512 0.0000 2.6914
# 5 -10.7835 -0.6965 -8.0135 0.0000 38.0641 0.0000
# 6 0.0000 0.0000 0.0000 2.6914 0.0000 14.4237
#
#
#
# Elastic Compliance Matrix: (Units=1/GPa)
#
#
# Indices 1 2 3 4 5 6 
#
# 1 0.010892 -0.000508 -0.003222 0.000000 0.002398 0.000000
# 2 -0.000508 0.008337 -0.002992 0.000000 -0.000621 0.000000
# 3 -0.003222 -0.002992 0.014291 0.000000 0.002041 0.000000
# 4 0.000000 0.000000 0.000000 0.062700 0.000000 -0.011699
# 5 0.002398 -0.000621 0.002041 0.000000 0.027369 0.000000
# 6 0.000000 0.000000 0.000000 -0.011699 0.000000 0.071513
#
#
# Mechanical properties :
#
#
# Convention : Reuss Voigt Hill
#
# Bulk Modulus (GPa) = 49.81273 52.11674 50.96473
# Shear Modulus (GPa) = 23.22995 30.07970 26.65483
#
# Velocity S-wave (km/s) = 3.18252 3.62146 3.40906
# Velocity P-wave (km/s) = 5.93492 6.34112 6.14138
#
# Compressibility (1/GPa) = 0.02007519
#
# Stress axis : x y z
#
# Youngs Moduli (GPa) = 91.81043 119.94776 69.97259
#
# Poissons Ratio (x) = 0.06095 0.22545
# Poissons Ratio (y) = 0.04665 0.20939
# Poissons Ratio (z) = 0.29581 0.35894
#
# Static dielectric constant tensor:
#      x y z
#    x 1.880750 0.000000 0.011600 
#    y 0.000000 1.852050 0.000000 
#    z 0.011600 0.000000 1.918810 
# 
# From -- ./inp_files/20271.got.cif
#   From: 2010.05.17/outbox.cif.g08.bks.cpg/sg12_11_cif.got.tgz:20271.got - 2010.06.03 13:09:07.
