data_PCOD9214818
_publ_section_title
;
Structure prediction by ZEFSAII (Michael W. Deem and Ramdas Pophale) SiO2 
 PCOD9214818
Probable space group: C 2/M
;
_chemical_formula_sum "Si O2"
_cell_formula_units_Z 34
_cell_length_a 14.286516
_cell_length_b 11.339258
_cell_length_c 14.081307
_cell_angle_alpha 90.000000
_cell_angle_beta 38.347440
_cell_angle_gamma 90.000000
_cell_volume 1415.291005
_symmetry_space_group_name_H-M "C 2/M"
_symmetry_group_IT_number 12
_symmetry_cell_setting 'monoclinic'
loop_
_space_group_symop_operation_xyz
x,y,z
-x,y,-z
-x,-y,-z
x,-y,z
1/2+x,1/2+y,z
1/2-x,1/2+y,-z
1/2-x,1/2-y,-z
1/2+x,1/2-y,z
loop_
_atom_site_type_symbol
_atom_site_label
_atom_site_fract_x
_atom_site_fract_y
_atom_site_fract_z
Si Si1 0.337600 0.631526 0.325168
Si Si2 0.178111 0.372485 0.019171
Si Si3 0.000000 0.000000 0.500000
Si Si4 0.262118 0.701324 0.751111
Si Si5 0.518469 0.808667 0.664140
O O1 0.376237 0.500000 0.265745
O O2 0.342016 0.725103 0.236892
O O3 0.439004 0.677245 0.331916
O O4 0.166060 0.638703 0.499303
O O5 0.256558 0.500000 0.973087
O O6 0.030801 0.376261 0.202116
O O7 0.250000 0.250000 0.000000
O O8 0.173466 0.355029 0.910215
O O9 0.867674 0.103660 0.617911
O O10 0.380039 0.795923 0.702888
#
# Coordination Sequence:
#
# PCOD9214818 Si02
#       5
#     8   8   2   8   8
#     4  11  24  41  66  95 127 166 218 264 317 381
#     4  10  22  40  64  95 129 169 212 264 322 382
#     4  12  20  40  66  90 132 164 218 250 318 392
#     4  11  23  40  66  94 124 170 208 261 318 378
#     4  10  23  41  62  95 124 168 210 263 319 374
#
# _framework density 24.023327999999999
#
# number of rings (size 3 to 8) (size 9 to 14) (size 15 to 20)
#    0.000    1.412    3.529    0.706    1.647    7.529 
#    2.118    2.353    0.000    0.000    0.000    0.000 
#    0.000    0.000    0.000    0.000    0.000    0.000 
#
# Total GULP energy -94708.619785 kJ/mol
# GULP energy per Si atom -5571.095281 kJ/mol
# Density = 2.396865 g / cm^3
# Si number density = 24.023328 Si / 1000 Ang^3
#
#
#
# Elastic Constant Matrix: (Units=GPa)
#
#
# Indices 1 2 3 4 5 6 
#
# 1 87.1386 28.3203 -10.2964 0.0000 6.7507 0.0000
# 2 28.3203 178.5896 10.9331 0.0000 18.2421 0.0000
# 3 -10.2964 10.9331 80.5628 0.0000 24.9386 0.0000
# 4 0.0000 0.0000 0.0000 16.2872 0.0000 -1.9221
# 5 6.7507 18.2421 24.9386 0.0000 29.6870 0.0000
# 6 0.0000 0.0000 0.0000 -1.9221 0.0000 7.7999
#
#
#
# Elastic Compliance Matrix: (Units=1/GPa)
#
#
# Indices 1 2 3 4 5 6 
#
# 1 0.012794 -0.001761 0.003297 0.000000 -0.004597 0.000000
# 2 -0.001761 0.006228 -0.000013 0.000000 -0.003416 0.000000
# 3 0.003297 -0.000013 0.017657 0.000000 -0.015575 0.000000
# 4 0.000000 0.000000 0.000000 0.063237 0.000000 0.015583
# 5 -0.004597 -0.003416 -0.015575 0.000000 0.049912 0.000000
# 6 0.000000 0.000000 0.000000 0.015583 0.000000 0.132047
#
#
# Mechanical properties :
#
#
# Convention : Reuss Voigt Hill
#
# Bulk Modulus (GPa) = 25.17264 44.91166 35.04215
# Shear Modulus (GPa) = 17.11909 31.91043 24.51476
#
# Velocity S-wave (km/s) = 2.67236 3.64855 3.19792
# Velocity P-wave (km/s) = 4.47472 6.04027 5.31545
#
# Compressibility (1/GPa) = 0.03972567
#
# Stress axis : x y z
#
# Youngs Moduli (GPa) = 78.16118 160.55437 56.63467
#
# Poissons Ratio (x) = 0.28276 -0.18673
# Poissons Ratio (y) = 0.13765 0.00073
# Poissons Ratio (z) = -0.25771 0.00208
#
# Static dielectric constant tensor:
#      x y z
#    x 1.890480 0.000000 0.002400 
#    y 0.000000 1.914150 0.000000 
#    z 0.002400 0.000000 1.961270 
# 
# From -- ./inp_files/213208.got.cif
#   From: 2010.05.17/outbox.cif.g08.bks.cpg/sg12_107_cif.got.tgz:213208.got - 2010.06.03 13:09:07.
