data_PCOD9214319
_publ_section_title
;
Structure prediction by ZEFSAII (Michael W. Deem and Ramdas Pophale) SiO2 
 PCOD9214319
Probable space group: C 2/M
;
_chemical_formula_sum "Si O2"
_cell_formula_units_Z 40
_cell_length_a 21.623676
_cell_length_b 13.556979
_cell_length_c 5.832337
_cell_angle_alpha 90.000000
_cell_angle_beta 82.732033
_cell_angle_gamma 90.000000
_cell_volume 1696.022272
_symmetry_space_group_name_H-M "C 2/M"
_symmetry_group_IT_number 12
_symmetry_cell_setting 'monoclinic'
loop_
_space_group_symop_operation_xyz
x,y,z
-x,y,-z
-x,-y,-z
x,-y,z
1/2+x,1/2+y,z
1/2-x,1/2+y,-z
1/2-x,1/2-y,-z
1/2+x,1/2-y,z
loop_
_atom_site_type_symbol
_atom_site_label
_atom_site_fract_x
_atom_site_fract_y
_atom_site_fract_z
Si Si1 0.092566 0.777717 0.973254
Si Si2 0.852168 0.609199 0.745850
Si Si3 0.847307 0.000000 0.541766
Si Si4 0.779032 0.166222 0.335594
Si Si5 0.411818 0.500000 0.005838
Si Si6 0.447503 0.109708 0.327806
O O1 0.160981 0.803153 0.837578
O O2 0.052992 0.708447 0.821228
O O3 0.110853 0.700722 0.163424
O O4 0.063923 0.886190 0.033856
O O5 0.867274 0.500000 0.836224
O O6 0.777965 0.623362 0.786196
O O7 0.879038 0.607688 0.475780
O O8 0.804518 0.907798 0.513054
O O9 0.870158 0.000000 0.791354
O O10 0.892485 0.000000 0.289415
O O11 0.750000 0.250000 0.500000
O O12 0.500000 0.116534 0.500000
O O13 0.456431 0.000000 0.218930
#
# Coordination Sequence:
#
# PCOD9214319 Si02
#       6
#     8   8   4   8   4   8
#     4  11  23  40  64  95 131 179 215 278 334 408
#     4  11  22  39  63  99 130 171 219 272 333 405
#     4  10  22  40  56  94 137 180 211 266 323 400
#     4  11  20  37  59  91 135 168 216 265 332 403
#     4  10  24  40  67  93 139 176 224 263 335 396
#     4  10  23  44  67  95 129 170 224 285 340 394
#
# _framework density 23.584596999999999
#
# number of rings (size 3 to 8) (size 9 to 14) (size 15 to 20)
#    0.000    1.400    3.000    2.400    2.800    2.400 
#    1.800    3.500    0.000    1.200    0.000    0.000 
#    0.000    0.000    0.000    0.000    0.000    0.000 
#
# Total GULP energy -111425.583032 kJ/mol
# GULP energy per Si atom -5571.279152 kJ/mol
# Density = 2.353092 g / cm^3
# Si number density = 23.584597 Si / 1000 Ang^3
#
#
#
# Elastic Constant Matrix: (Units=GPa)
#
#
# Indices 1 2 3 4 5 6 
#
# 1 95.9485 29.7743 35.1409 0.0000 8.4004 0.0000
# 2 29.7743 245.0598 42.8471 0.0000 23.1197 0.0000
# 3 35.1409 42.8471 53.2290 0.0000 12.4298 0.0000
# 4 0.0000 0.0000 0.0000 20.9506 0.0000 4.3694
# 5 8.4004 23.1197 12.4298 0.0000 36.2215 0.0000
# 6 0.0000 0.0000 0.0000 4.3694 0.0000 21.6990
#
#
#
# Elastic Compliance Matrix: (Units=1/GPa)
#
#
# Indices 1 2 3 4 5 6 
#
# 1 0.013748 -0.000094 -0.008990 0.000000 -0.000043 0.000000
# 2 -0.000094 0.004869 -0.003410 0.000000 -0.001916 0.000000
# 3 -0.008990 -0.003410 0.028777 0.000000 -0.005614 0.000000
# 4 0.000000 0.000000 0.000000 0.049824 0.000000 -0.010033
# 5 -0.000043 -0.001916 -0.005614 0.000000 0.030767 0.000000
# 6 0.000000 0.000000 0.000000 -0.010033 0.000000 0.048105
#
#
# Mechanical properties :
#
#
# Convention : Reuss Voigt Hill
#
# Bulk Modulus (GPa) = 44.63073 67.75134 56.19103
# Shear Modulus (GPa) = 23.97533 34.87255 29.42394
#
# Velocity S-wave (km/s) = 3.19182 3.84945 3.53596
# Velocity P-wave (km/s) = 5.70512 6.96757 6.36771
#
# Compressibility (1/GPa) = 0.02240609
#
# Stress axis : x y z
#
# Youngs Moduli (GPa) = 72.73831 205.38059 34.74948
#
# Poissons Ratio (x) = 0.01939 0.31240
# Poissons Ratio (y) = 0.00687 0.11848
# Poissons Ratio (z) = 0.65392 0.70027
#
# Static dielectric constant tensor:
#      x y z
#    x 1.917930 0.000000 -0.003390 
#    y 0.000000 1.905060 0.000000 
#    z -0.003390 0.000000 1.927890 
# 
# From -- ./inp_files/24103.got.cif
#   From: 2010.05.17/outbox.cif.g08.bks.cpg/sg12_13_cif.got.tgz:24103.got - 2010.06.03 13:09:07.
