data_PCOD9214534
_publ_section_title
;
Structure prediction by ZEFSAII (Michael W. Deem and Ramdas Pophale) SiO2 
 PCOD9214534
Probable space group: C 2/M
;
_chemical_formula_sum "Si O2"
_cell_formula_units_Z 56
_cell_length_a 11.124864
_cell_length_b 27.004395
_cell_length_c 9.284136
_cell_angle_alpha 90.000000
_cell_angle_beta 72.083250
_cell_angle_gamma 90.000000
_cell_volume 2653.881378
_symmetry_space_group_name_H-M "C 2/M"
_symmetry_group_IT_number 12
_symmetry_cell_setting 'monoclinic'
loop_
_space_group_symop_operation_xyz
x,y,z
-x,y,-z
-x,-y,-z
x,-y,z
1/2+x,1/2+y,z
1/2-x,1/2+y,-z
1/2-x,1/2-y,-z
1/2+x,1/2-y,z
loop_
_atom_site_type_symbol
_atom_site_label
_atom_site_fract_x
_atom_site_fract_y
_atom_site_fract_z
Si Si1 0.545492 0.291381 0.313889
Si Si2 0.964262 0.893827 0.847907
Si Si3 0.573318 0.054599 0.293679
Si Si4 0.300443 0.944250 0.064495
Si Si5 0.312564 0.443300 0.416032
Si Si6 0.153785 0.382453 0.682876
Si Si7 0.196843 0.266191 0.673673
O O1 0.500000 0.296176 0.500000
O O2 0.566607 0.344420 0.231654
O O3 0.680237 0.262440 0.267747
O O4 0.432896 0.264663 0.266185
O O5 0.075517 0.920995 0.720251
O O6 0.845428 0.930375 0.899735
O O7 0.000000 0.881526 0.000000
O O8 0.689476 0.056707 0.359451
O O9 0.471144 0.097225 0.348798
O O10 0.511534 0.000000 0.330211
O O11 0.632222 0.057984 0.113399
O O12 0.354898 0.904864 0.155052
O O13 0.315894 0.000000 0.116414
O O14 0.338645 0.500000 0.450998
O O15 0.274863 0.408016 0.562362
O O16 0.163889 0.324052 0.679233
O O17 0.250000 0.250000 0.500000
#
# Coordination Sequence:
#
# PCOD9214534 Si02
#       7
#     8   8   8   8   8   8   8
#     4  10  22  44  68  97 126 171 221 281 333 396
#     4  12  24  42  65  93 132 175 216 266 327 395
#     4  10  22  40  61  92 136 177 212 256 320 394
#     4  11  23  41  65  94 134 178 213 256 320 393
#     4  11  23  37  60  96 132 170 215 266 317 384
#     4  12  23  40  66  97 127 164 222 272 323 385
#     4  10  22  41  68  94 129 167 217 276 344 394
#
# _framework density 21.101168999999999
#
# number of rings (size 3 to 8) (size 9 to 14) (size 15 to 20)
#    0.000    1.143    2.857    4.286    0.000    7.429 
#    0.000    3.571    0.000    0.000    0.000    0.000 
#    0.000    0.000    0.000    0.000    0.000    0.000 
#
# Total GULP energy -156521.042377 kJ/mol
# GULP energy per Si atom -5590.037228 kJ/mol
# Density = 2.105314 g / cm^3
# Si number density = 21.101169 Si / 1000 Ang^3
#
#
#
# Elastic Constant Matrix: (Units=GPa)
#
#
# Indices 1 2 3 4 5 6 
#
# 1 101.1256 11.7274 2.3445 0.0000 -17.5908 0.0000
# 2 11.7274 93.8411 24.7485 0.0000 -11.5454 0.0000
# 3 2.3445 24.7485 83.3979 0.0000 -9.6601 0.0000
# 4 0.0000 0.0000 0.0000 24.1930 0.0000 12.4022
# 5 -17.5908 -11.5454 -9.6601 0.0000 32.1622 0.0000
# 6 0.0000 0.0000 0.0000 12.4022 0.0000 24.5393
#
#
#
# Elastic Compliance Matrix: (Units=1/GPa)
#
#
# Indices 1 2 3 4 5 6 
#
# 1 0.010996 -0.000810 0.000616 0.000000 0.005908 0.000000
# 2 -0.000810 0.011954 -0.003190 0.000000 0.002890 0.000000
# 3 0.000616 -0.003190 0.013289 0.000000 0.003183 0.000000
# 4 0.000000 0.000000 0.000000 0.055788 0.000000 -0.028196
# 5 0.005908 0.002890 0.003183 0.000000 0.036318 0.000000
# 6 0.000000 0.000000 0.000000 -0.028196 0.000000 0.055001
#
#
# Mechanical properties :
#
#
# Convention : Reuss Voigt Hill
#
# Bulk Modulus (GPa) = 33.93152 39.55615 36.74383
# Shear Modulus (GPa) = 25.00776 32.14851 28.57813
#
# Velocity S-wave (km/s) = 3.44632 3.90749 3.68413
# Velocity P-wave (km/s) = 5.65256 6.25657 5.96222
#
# Compressibility (1/GPa) = 0.02947113
#
# Stress axis : x y z
#
# Youngs Moduli (GPa) = 90.94141 83.65145 75.25192
#
# Poissons Ratio (x) = 0.06772 -0.04632
# Poissons Ratio (y) = 0.07363 0.24005
# Poissons Ratio (z) = -0.05598 0.26684
#
# Static dielectric constant tensor:
#      x y z
#    x 1.864690 0.000000 0.024600 
#    y 0.000000 1.712930 0.000000 
#    z 0.024600 0.000000 1.748870 
# 
# From -- ./inp_files/53182.got.cif
#   From: 2010.05.17/outbox.cif.g08.bks.cpg/sg12_27_cif.got.tgz:53182.got - 2010.06.03 13:09:07.
