data_PCOD9214540
_publ_section_title
;
Structure prediction by ZEFSAII (Michael W. Deem and Ramdas Pophale) SiO2 
 PCOD9214540
Probable space group: C 2/M
;
_chemical_formula_sum "Si O2"
_cell_formula_units_Z 40
_cell_length_a 13.234260
_cell_length_b 28.931008
_cell_length_c 9.100790
_cell_angle_alpha 90.000000
_cell_angle_beta 32.716819
_cell_angle_gamma 90.000000
_cell_volume 1883.336099
_symmetry_space_group_name_H-M "C 2/M"
_symmetry_group_IT_number 12
_symmetry_cell_setting 'monoclinic'
loop_
_space_group_symop_operation_xyz
x,y,z
-x,y,-z
-x,-y,-z
x,-y,z
1/2+x,1/2+y,z
1/2-x,1/2+y,-z
1/2-x,1/2-y,-z
1/2+x,1/2-y,z
loop_
_atom_site_type_symbol
_atom_site_label
_atom_site_fract_x
_atom_site_fract_y
_atom_site_fract_z
Si Si1 0.618577 0.551334 0.204652
Si Si2 0.914641 0.691320 0.757564
Si Si3 0.605341 0.377212 0.717152
Si Si4 0.000093 0.777653 0.825336
Si Si5 0.518165 0.101627 0.152831
O O1 0.500000 0.550977 0.500000
O O2 0.603973 0.500000 0.155993
O O3 0.524948 0.591281 0.223842
O O4 0.833293 0.563947 0.975192
O O5 0.035279 0.733402 0.679073
O O6 0.903051 0.650958 0.890406
O O7 0.000000 0.673728 0.500000
O O8 0.709806 0.708052 0.963270
O O9 0.620198 0.323828 0.646614
O O10 0.809517 0.399861 0.473865
O O11 0.500000 0.373777 0.000000
O O12 0.000000 0.766684 0.000000
O O13 0.500000 0.099325 0.000000
#
# Coordination Sequence:
#
# PCOD9214540 Si02
#       5
#     8   8   8   8   8
#     4  11  25  47  72 102 135 172 229 286 345 414
#     4  11  23  38  64  97 136 179 230 278 325 396
#     4  11  24  44  71  99 142 179 222 282 341 398
#     4  10  22  40  61  94 137 182 224 272 331 397
#     4  12  25  42  70 101 133 182 227 274 342 411
#
# _framework density 21.238907999999999
#
# number of rings (size 3 to 8) (size 9 to 14) (size 15 to 20)
#    0.000    1.000    4.000    3.000    0.000    8.800 
#    0.000    1.000    0.000    0.000    0.000    0.000 
#    0.000    0.000    0.000    0.000    0.000    0.000 
#
# Total GULP energy -111812.312230 kJ/mol
# GULP energy per Si atom -5590.615611 kJ/mol
# Density = 2.119057 g / cm^3
# Si number density = 21.238908 Si / 1000 Ang^3
#
#
#
# Elastic Constant Matrix: (Units=GPa)
#
#
# Indices 1 2 3 4 5 6 
#
# 1 100.9380 36.1300 10.5325 0.0000 -17.5627 0.0000
# 2 36.1300 89.4714 5.9719 0.0000 -2.1335 0.0000
# 3 10.5325 5.9719 75.1918 0.0000 -29.9142 0.0000
# 4 0.0000 0.0000 0.0000 126.1138 0.0000 20.2104
# 5 -17.5627 -2.1335 -29.9142 0.0000 30.7913 0.0000
# 6 0.0000 0.0000 0.0000 20.2104 0.0000 19.9024
#
#
#
# Elastic Compliance Matrix: (Units=1/GPa)
#
#
# Indices 1 2 3 4 5 6 
#
# 1 0.013182 -0.005253 0.002310 0.000000 0.009399 0.000000
# 2 -0.005253 0.013330 -0.001870 0.000000 -0.003890 0.000000
# 3 0.002310 -0.001870 0.022163 0.000000 0.022720 0.000000
# 4 0.000000 0.000000 0.000000 0.009471 0.000000 -0.009617
# 5 0.009399 -0.003890 0.022720 0.000000 0.059640 0.000000
# 6 0.000000 0.000000 0.000000 -0.009617 0.000000 0.060011
#
#
# Mechanical properties :
#
#
# Convention : Reuss Voigt Hill
#
# Bulk Modulus (GPa) = 25.60953 41.20780 33.40866
# Shear Modulus (GPa) = 24.94516 49.55928 37.25222
#
# Velocity S-wave (km/s) = 3.43082 4.83579 4.19258
# Velocity P-wave (km/s) = 5.27049 7.11505 6.26107
#
# Compressibility (1/GPa) = 0.03904797
#
# Stress axis : x y z
#
# Youngs Moduli (GPa) = 75.86307 75.01817 45.12009
#
# Poissons Ratio (x) = 0.39407 -0.10422
# Poissons Ratio (y) = 0.39851 0.08439
# Poissons Ratio (z) = -0.17524 0.14031
#
# Static dielectric constant tensor:
#      x y z
#    x 1.741470 0.000000 -0.058710 
#    y 0.000000 1.782040 0.000000 
#    z -0.058710 0.000000 1.698830 
# 
# From -- ./inp_files/54002.got.cif
#   From: 2010.05.17/outbox.cif.g08.bks.cpg/sg12_28_cif.got.tgz:54002.got - 2010.06.03 13:09:07.
