data_PCOD9214246
_publ_section_title
;
Structure prediction by ZEFSAII (Michael W. Deem and Ramdas Pophale) SiO2 
 PCOD9214246
Probable space group: C 2/M
;
_chemical_formula_sum "Si O2"
_cell_formula_units_Z 64
_cell_length_a 15.321121
_cell_length_b 22.768071
_cell_length_c 8.936399
_cell_angle_alpha 90.000000
_cell_angle_beta 95.204195
_cell_angle_gamma 90.000000
_cell_volume 3104.454969
_symmetry_space_group_name_H-M "C 2/M"
_symmetry_group_IT_number 12
_symmetry_cell_setting 'monoclinic'
loop_
_space_group_symop_operation_xyz
x,y,z
-x,y,-z
-x,-y,-z
x,-y,z
1/2+x,1/2+y,z
1/2-x,1/2+y,-z
1/2-x,1/2-y,-z
1/2+x,1/2-y,z
loop_
_atom_site_type_symbol
_atom_site_label
_atom_site_fract_x
_atom_site_fract_y
_atom_site_fract_z
Si Si1 0.031265 0.859997 0.848640
Si Si2 0.105485 0.710744 0.523930
Si Si3 0.295195 0.693818 0.074987
Si Si4 0.366752 0.567572 0.374455
Si Si5 0.395871 0.932966 0.004683
Si Si6 0.129013 0.837189 0.384795
Si Si7 0.702990 0.857500 0.784294
Si Si8 0.308241 0.871182 0.708405
O O1 0.101272 0.808727 0.894276
O O2 0.085816 0.908662 0.766743
O O3 0.948819 0.834340 0.747272
O O4 0.000000 0.885478 0.000000
O O5 0.138622 0.774092 0.467395
O O6 0.143074 0.692933 0.694277
O O7 0.137793 0.659190 0.415514
O O8 0.000000 0.713293 0.500000
O O9 0.252384 0.679156 0.226614
O O10 0.250000 0.750000 0.000000
O O11 0.262748 0.648601 0.943521
O O12 0.385576 0.500000 0.406663
O O13 0.398742 0.612714 0.504334
O O14 0.262177 0.579439 0.348752
O O15 0.365029 0.905245 0.159236
O O16 0.362801 0.000000 0.991615
O O17 0.500000 0.933466 0.000000
O O18 0.363089 0.896323 0.855534
O O19 0.219148 0.860523 0.325788
#
# Coordination Sequence:
#
# PCOD9214246 Si02
#       8
#     8   8   8   8   8   8   8   8
#     4  11  24  43  65  98 131 173 232 278 337 400
#     4  12  25  41  67 100 140 176 221 278 343 417
#     4  10  22  39  65  93 132 172 213 269 330 401
#     4  11  25  45  68  93 132 183 233 282 342 403
#     4  10  22  44  68  95 133 176 230 293 346 401
#     4  12  25  44  65  99 143 181 222 275 341 414
#     4  11  23  41  66  96 132 177 219 269 337 401
#     4  10  22  41  65  96 130 174 225 275 343 411
#
# _framework density 20.615534
#
# number of rings (size 3 to 8) (size 9 to 14) (size 15 to 20)
#    0.000    1.125    2.500    3.375    5.250    1.750 
#    0.000    0.000    0.000    2.625    0.000    0.000 
#    0.000    0.000    0.000    0.000    0.000    0.000 
#
# Total GULP energy -178413.077726 kJ/mol
# GULP energy per Si atom -5575.408679 kJ/mol
# Density = 2.056861 g / cm^3
# Si number density = 20.615534 Si / 1000 Ang^3
#
#
#
# Elastic Constant Matrix: (Units=GPa)
#
#
# Indices 1 2 3 4 5 6 
#
# 1 110.6623 33.4471 47.9033 0.0000 -8.4068 0.0000
# 2 33.4471 110.9811 42.7573 0.0000 -10.8612 0.0000
# 3 47.9033 42.7573 102.3411 0.0000 -3.2004 0.0000
# 4 0.0000 0.0000 0.0000 11.6226 0.0000 -0.9122
# 5 -8.4068 -10.8612 -3.2004 0.0000 48.3379 0.0000
# 6 0.0000 0.0000 0.0000 -0.9122 0.0000 15.5703
#
#
#
# Elastic Compliance Matrix: (Units=1/GPa)
#
#
# Indices 1 2 3 4 5 6 
#
# 1 0.011675 -0.001544 -0.004777 0.000000 0.001367 0.000000
# 2 -0.001544 0.011165 -0.003880 0.000000 0.001983 0.000000
# 3 -0.004777 -0.003880 0.013603 0.000000 -0.000802 0.000000
# 4 0.000000 0.000000 0.000000 0.086437 0.000000 0.005064
# 5 0.001367 0.001983 -0.000802 0.000000 0.021318 0.000000
# 6 0.000000 0.000000 0.000000 0.005064 0.000000 0.064521
#
#
# Mechanical properties :
#
#
# Convention : Reuss Voigt Hill
#
# Bulk Modulus (GPa) = 62.34014 63.57777 62.95896
# Shear Modulus (GPa) = 21.32492 28.43129 24.87810
#
# Velocity S-wave (km/s) = 3.21971 3.71768 3.47762
# Velocity P-wave (km/s) = 6.64283 7.02388 6.83601
#
# Compressibility (1/GPa) = 0.01604103
#
# Stress axis : x y z
#
# Youngs Moduli (GPa) = 85.65384 89.56749 73.51370
#
# Poissons Ratio (x) = 0.13833 0.35115
# Poissons Ratio (y) = 0.13229 0.28521
# Poissons Ratio (z) = 0.40914 0.34749
#
# Static dielectric constant tensor:
#      x y z
#    x 1.779280 0.000000 -0.016670 
#    y 0.000000 1.687890 0.000000 
#    z -0.016670 0.000000 1.749140 
# 
# From -- ./inp_files/65873.got.cif
#   From: 2010.05.17/outbox.cif.g08.bks.cpg/sg12_33_cif.got.tgz:65873.got - 2010.06.03 13:09:07.
