data_PCOD9214614
_publ_section_title
;
Structure prediction by ZEFSAII (Michael W. Deem and Ramdas Pophale) SiO2 
 PCOD9214614
Probable space group: C 2/M
;
_chemical_formula_sum "Si O2"
_cell_formula_units_Z 40
_cell_length_a 9.855912
_cell_length_b 14.834483
_cell_length_c 14.279927
_cell_angle_alpha 90.000000
_cell_angle_beta 72.867923
_cell_angle_gamma 90.000000
_cell_volume 1995.189718
_symmetry_space_group_name_H-M "C 2/M"
_symmetry_group_IT_number 12
_symmetry_cell_setting 'monoclinic'
loop_
_space_group_symop_operation_xyz
x,y,z
-x,y,-z
-x,-y,-z
x,-y,z
1/2+x,1/2+y,z
1/2-x,1/2+y,-z
1/2-x,1/2-y,-z
1/2+x,1/2-y,z
loop_
_atom_site_type_symbol
_atom_site_label
_atom_site_fract_x
_atom_site_fract_y
_atom_site_fract_z
Si Si1 0.903248 0.276456 0.429516
Si Si2 0.517650 0.595451 0.382944
Si Si3 0.649246 0.795360 0.913173
Si Si4 0.148017 0.600551 0.725613
Si Si5 0.671801 0.396557 0.970524
O O1 0.750000 0.250000 0.500000
O O2 0.950969 0.187766 0.362720
O O3 0.908114 0.360216 0.359963
O O4 0.000000 0.291428 0.500000
O O5 0.500000 0.597006 0.500000
O O6 0.455414 0.500000 0.362347
O O7 0.682123 0.597103 0.323905
O O8 0.619755 0.834162 0.817417
O O9 0.706114 0.691926 0.900002
O O10 0.500000 0.796311 0.000000
O O11 0.761247 0.860788 0.944630
O O12 0.096024 0.500000 0.755985
O O13 0.721915 0.500000 0.941485
O O14 0.500000 0.401410 0.000000
#
# Coordination Sequence:
#
# PCOD9214614 Si02
#       5
#     8   8   8   8   8
#     4  11  21  39  63  92 123 158 198 264 313 365
#     4   9  18  36  61  83 111 155 203 245 301 372
#     4  10  22  40  62  91 130 169 204 255 310 366
#     4  11  23  39  63  90 123 170 212 245 309 384
#     4   9  19  38  63  89 122 162 208 258 304 356
#
# _framework density 20.048217999999999
#
# number of rings (size 3 to 8) (size 9 to 14) (size 15 to 20)
#    0.000    2.000    4.000    0.600    0.000    6.800 
#    0.000    3.000    0.000    0.000    0.000    0.000 
#    0.000    0.000    0.000    0.000    0.000    0.000 
#
# Total GULP energy -111417.020313 kJ/mol
# GULP energy per Si atom -5570.851016 kJ/mol
# Density = 2.000259 g / cm^3
# Si number density = 20.048218 Si / 1000 Ang^3
#
#
#
# Elastic Constant Matrix: (Units=GPa)
#
#
# Indices 1 2 3 4 5 6 
#
# 1 67.9139 18.0198 19.4793 0.0000 14.9486 0.0000
# 2 18.0198 174.5464 43.7184 0.0000 14.7118 0.0000
# 3 19.4793 43.7184 88.8201 0.0000 9.6486 0.0000
# 4 0.0000 0.0000 0.0000 18.1116 0.0000 6.3609
# 5 14.9486 14.7118 9.6486 0.0000 28.0283 0.0000
# 6 0.0000 0.0000 0.0000 6.3609 0.0000 25.8100
#
#
#
# Elastic Compliance Matrix: (Units=1/GPa)
#
#
# Indices 1 2 3 4 5 6 
#
# 1 0.017407 -0.000430 -0.002724 0.000000 -0.008120 0.000000
# 2 -0.000430 0.006706 -0.002960 0.000000 -0.002272 0.000000
# 3 -0.002724 -0.002960 0.013491 0.000000 -0.001638 0.000000
# 4 0.000000 0.000000 0.000000 0.060445 0.000000 -0.014897
# 5 -0.008120 -0.002272 -0.001638 0.000000 0.041765 0.000000
# 6 0.000000 0.000000 0.000000 -0.014897 0.000000 0.042416
#
#
# Mechanical properties :
#
#
# Convention : Reuss Voigt Hill
#
# Bulk Modulus (GPa) = 39.40613 54.85728 47.13170
# Shear Modulus (GPa) = 24.64050 31.06083 27.85066
#
# Velocity S-wave (km/s) = 3.50960 3.94039 3.73122
# Velocity P-wave (km/s) = 6.01011 6.93717 6.49021
#
# Compressibility (1/GPa) = 0.02537676
#
# Stress axis : x y z
#
# Youngs Moduli (GPa) = 57.44701 149.11182 74.12455
#
# Poissons Ratio (x) = 0.06419 0.20189
# Poissons Ratio (y) = 0.02473 0.21939
# Poissons Ratio (z) = 0.15646 0.44134
#
# Static dielectric constant tensor:
#      x y z
#    x 1.730610 0.000000 -0.008310 
#    y 0.000000 1.765500 0.000000 
#    z -0.008310 0.000000 1.684810 
# 
# From -- ./inp_files/194566.got.cif
#   From: 2010.05.17/outbox.cif.g08.bks.cpg/sg12_98_cif.got.tgz:194566.got - 2010.06.03 13:09:07.
