data_PCOD9214373
_publ_section_title
;
Structure prediction by ZEFSAII (Michael W. Deem and Ramdas Pophale) SiO2 
 PCOD9214373
Probable space group: C 2/M
;
_chemical_formula_sum "Si O2"
_cell_formula_units_Z 34
_cell_length_a 10.469889
_cell_length_b 7.822502
_cell_length_c 17.918658
_cell_angle_alpha 90.000000
_cell_angle_beta 99.970386
_cell_angle_gamma 90.000000
_cell_volume 1445.387252
_symmetry_space_group_name_H-M "C 2/M"
_symmetry_group_IT_number 12
_symmetry_cell_setting 'monoclinic'
loop_
_space_group_symop_operation_xyz
x,y,z
-x,y,-z
-x,-y,-z
x,-y,z
1/2+x,1/2+y,z
1/2-x,1/2+y,-z
1/2-x,1/2-y,-z
1/2+x,1/2-y,z
loop_
_atom_site_type_symbol
_atom_site_label
_atom_site_fract_x
_atom_site_fract_y
_atom_site_fract_z
Si Si1 0.500000 0.500000 0.500000
Si Si2 0.110973 0.310056 0.426747
Si Si3 0.848618 0.808130 0.343101
Si Si4 0.331736 0.798596 0.175907
Si Si5 0.556304 0.792939 0.085511
O O1 0.602157 0.655377 0.483337
O O2 0.129008 0.500000 0.460262
O O3 0.217818 0.273741 0.374350
O O4 0.970527 0.307836 0.372828
O O5 0.821668 0.800147 0.252744
O O6 0.895908 0.000000 0.372723
O O7 0.455158 0.741511 0.139831
O O8 0.199667 0.773714 0.116402
O O9 0.346651 0.000000 0.194013
O O10 0.561624 0.000000 0.085804
O O11 0.500000 0.737400 0.000000
#
# Coordination Sequence:
#
# PCOD9214373 Si02
#       5
#     2   8   8   8   8
#     4  12  26  48  72 100 136 180 208 266 348 386
#     4  11  26  46  69 101 134 173 220 275 322 399
#     4  11  24  45  68  97 132 173 223 273 327 386
#     4  11  23  37  63  94 124 170 218 270 326 386
#     4  10  22  40  59  89 130 170 215 269 327 390
#
# _framework density 23.523108000000001
#
# number of rings (size 3 to 8) (size 9 to 14) (size 15 to 20)
#    0.000    1.176    1.176    3.882    3.294    8.941 
#    0.000    0.000    0.000    0.000    0.000    0.000 
#    0.000    0.000    0.000    0.000    0.000    0.000 
#
# Total GULP energy -95054.036597 kJ/mol
# GULP energy per Si atom -5591.413917 kJ/mol
# Density = 2.346957 g / cm^3
# Si number density = 23.523108 Si / 1000 Ang^3
#
#
#
# Elastic Constant Matrix: (Units=GPa)
#
#
# Indices 1 2 3 4 5 6 
#
# 1 98.1724 22.2096 -10.9357 0.0000 -14.1458 0.0000
# 2 22.2096 120.4091 30.2365 0.0000 -9.6360 0.0000
# 3 -10.9357 30.2365 63.8647 0.0000 -11.1645 0.0000
# 4 0.0000 0.0000 0.0000 23.6522 0.0000 11.4892
# 5 -14.1458 -9.6360 -11.1645 0.0000 51.1920 0.0000
# 6 0.0000 0.0000 0.0000 11.4892 0.0000 33.0103
#
#
#
# Elastic Compliance Matrix: (Units=1/GPa)
#
#
# Indices 1 2 3 4 5 6 
#
# 1 0.011809 -0.002901 0.004024 0.000000 0.003595 0.000000
# 2 -0.002901 0.010173 -0.005321 0.000000 -0.000047 0.000000
# 3 0.004024 -0.005321 0.019634 0.000000 0.004392 0.000000
# 4 0.000000 0.000000 0.000000 0.050882 0.000000 -0.017709
# 5 0.003595 -0.000047 0.004392 0.000000 0.021477 0.000000
# 6 0.000000 0.000000 0.000000 -0.017709 0.000000 0.036457
#
#
# Mechanical properties :
#
#
# Convention : Reuss Voigt Hill
#
# Bulk Modulus (GPa) = 30.10332 40.60744 35.35538
# Shear Modulus (GPa) = 29.42900 37.63330 33.53115
#
# Velocity S-wave (km/s) = 3.54088 4.00414 3.77962
# Velocity P-wave (km/s) = 5.43528 6.21915 5.84038
#
# Compressibility (1/GPa) = 0.03321893
#
# Stress axis : x y z
#
# Youngs Moduli (GPa) = 84.68408 98.30404 50.93146
#
# Poissons Ratio (x) = 0.28517 -0.20494
# Poissons Ratio (y) = 0.24566 0.27101
# Poissons Ratio (z) = -0.34075 0.52309
#
# Static dielectric constant tensor:
#      x y z
#    x 1.858080 0.000000 -0.016300 
#    y 0.000000 1.887080 0.000000 
#    z -0.016300 0.000000 1.715930 
# 
# From -- ./inp_files/260786.got.cif
#   From: 2010.05.17/outbox.cif.g08.bks.cpg/sg12_131_cif.got.tgz:260786.got - 2010.06.03 13:09:07.
