data_PCOD9214543
_publ_section_title
;
Structure prediction by ZEFSAII (Michael W. Deem and Ramdas Pophale) SiO2 
 PCOD9214543
Probable space group: C 2/M
;
_chemical_formula_sum "Si O2"
_cell_formula_units_Z 34
_cell_length_a 20.759097
_cell_length_b 13.861968
_cell_length_c 5.244937
_cell_angle_alpha 90.000000
_cell_angle_beta 64.845640
_cell_angle_gamma 90.000000
_cell_volume 1366.160813
_symmetry_space_group_name_H-M "C 2/M"
_symmetry_group_IT_number 12
_symmetry_cell_setting 'monoclinic'
loop_
_space_group_symop_operation_xyz
x,y,z
-x,y,-z
-x,-y,-z
x,-y,z
1/2+x,1/2+y,z
1/2-x,1/2+y,-z
1/2-x,1/2-y,-z
1/2+x,1/2-y,z
loop_
_atom_site_type_symbol
_atom_site_label
_atom_site_fract_x
_atom_site_fract_y
_atom_site_fract_z
Si Si1 0.237885 0.610514 0.799552
Si Si2 0.000000 0.500000 0.000000
Si Si3 0.048266 0.109341 0.163982
Si Si4 0.600943 0.890144 0.713821
Si Si5 0.144023 0.246630 0.279836
O O1 0.251188 0.500000 0.849475
O O2 0.182703 0.610129 0.657911
O O3 0.310140 0.669036 0.637722
O O4 0.195847 0.670561 0.084971
O O5 0.948612 0.409779 0.960728
O O6 0.108754 0.188024 0.109894
O O7 0.000000 0.110426 0.500000
O O8 0.077907 0.000000 0.088931
O O9 0.000000 0.127249 0.000000
O O10 0.589377 0.801833 0.552440
O O11 0.577737 0.000000 0.648909
#
# Coordination Sequence:
#
# PCOD9214543 Si02
#       5
#     8   2   8   8   8
#     4  10  22  40  61  95 137 172 233 294 348 423
#     4   8  20  40  66  92 148 184 218 294 350 426
#     4  10  24  46  69 100 140 181 236 298 357 422
#     4   9  20  40  61  95 137 178 224 286 353 416
#     4  11  22  38  69  94 129 182 238 285 355 426
#
# _framework density 24.887259
#
# number of rings (size 3 to 8) (size 9 to 14) (size 15 to 20)
#    0.706    1.412    0.000    2.118    3.294    1.882 
#    0.000    1.176    0.000    2.118    0.000    0.000 
#    0.000    0.000    0.000    0.000    0.000    0.000 
#
# Total GULP energy -94728.744363 kJ/mol
# GULP energy per Si atom -5572.279080 kJ/mol
# Density = 2.483061 g / cm^3
# Si number density = 24.887259 Si / 1000 Ang^3
#
#
#
# Elastic Constant Matrix: (Units=GPa)
#
#
# Indices 1 2 3 4 5 6 
#
# 1 107.1136 75.6659 37.9671 0.0000 16.4594 0.0000
# 2 75.6659 211.6710 59.5539 0.0000 0.5991 0.0000
# 3 37.9671 59.5539 78.4808 0.0000 11.6286 0.0000
# 4 0.0000 0.0000 0.0000 35.7326 0.0000 -9.4119
# 5 16.4594 0.5991 11.6286 0.0000 26.0454 0.0000
# 6 0.0000 0.0000 0.0000 -9.4119 0.0000 36.2376
#
#
#
# Elastic Compliance Matrix: (Units=1/GPa)
#
#
# Indices 1 2 3 4 5 6 
#
# 1 0.014635 -0.004516 -0.002461 0.000000 -0.008046 0.000000
# 2 -0.004516 0.007503 -0.004182 0.000000 0.004549 0.000000
# 3 -0.002461 -0.004182 0.018056 0.000000 -0.006410 0.000000
# 4 0.000000 0.000000 0.000000 0.030041 0.000000 0.007802
# 5 -0.008046 0.004549 -0.006410 0.000000 0.046237 0.000000
# 6 0.000000 0.000000 0.000000 0.007802 0.000000 0.029622
#
#
# Mechanical properties :
#
#
# Convention : Reuss Voigt Hill
#
# Bulk Modulus (GPa) = 55.94506 82.62657 69.28582
# Shear Modulus (GPa) = 28.67471 34.54170 31.60821
#
# Velocity S-wave (km/s) = 3.39807 3.72953 3.56765
# Velocity P-wave (km/s) = 6.15825 7.19849 6.69859
#
# Compressibility (1/GPa) = 0.01787468
#
# Stress axis : x y z
#
# Youngs Moduli (GPa) = 68.32989 133.28657 55.38377
#
# Poissons Ratio (x) = 0.60198 0.13627
# Poissons Ratio (y) = 0.30861 0.23163
# Poissons Ratio (z) = 0.16813 0.55745
#
# Static dielectric constant tensor:
#      x y z
#    x 2.189340 0.000000 -0.117500 
#    y 0.000000 1.978940 0.000000 
#    z -0.117500 0.000000 2.014690 
# 
# From -- ./inp_files/19674.got.cif
#   From: 2010.05.17/outbox.cif.g08.bks.cpg/sg12_10_cif.got.tgz:19674.got - 2010.06.03 13:09:07.
