data_PCOD9214066
_publ_section_title
;
Structure prediction by ZEFSAII (Michael W. Deem and Ramdas Pophale) SiO2 
 PCOD9214066
Probable space group: C 2/M
;
_chemical_formula_sum "Si O2"
_cell_formula_units_Z 38
_cell_length_a 10.920687
_cell_length_b 27.214598
_cell_length_c 8.153280
_cell_angle_alpha 90.000000
_cell_angle_beta 49.209558
_cell_angle_gamma 90.000000
_cell_volume 1834.593323
_symmetry_space_group_name_H-M "C 2/M"
_symmetry_group_IT_number 12
_symmetry_cell_setting 'monoclinic'
loop_
_space_group_symop_operation_xyz
x,y,z
-x,y,-z
-x,-y,-z
x,-y,z
1/2+x,1/2+y,z
1/2-x,1/2+y,-z
1/2-x,1/2-y,-z
1/2+x,1/2-y,z
loop_
_atom_site_type_symbol
_atom_site_label
_atom_site_fract_x
_atom_site_fract_y
_atom_site_fract_z
Si Si1 0.423281 0.647056 0.249354
Si Si2 0.000000 0.403415 0.000000
Si Si3 0.500000 0.000000 0.500000
Si Si4 0.230426 0.447210 0.527686
Si Si5 0.745592 0.178302 0.901310
Si Si6 0.189903 0.274883 0.305493
O O1 0.344667 0.598435 0.393657
O O2 0.567443 0.663927 0.241007
O O3 0.289677 0.689651 0.338815
O O4 0.500000 0.637910 0.000000
O O5 0.901805 0.435354 0.217250
O O6 0.867088 0.367807 0.035271
O O7 0.626729 0.958119 0.455899
O O8 0.312209 0.500000 0.496003
O O9 0.729422 0.221199 0.780826
O O10 0.701827 0.201022 0.115183
O O11 0.000000 0.270457 0.500000
#
# Coordination Sequence:
#
# PCOD9214066 Si02
#       6
#     8   4   2   8   8   8
#     4  10  23  41  65  96 132 172 226 273 321 390
#     4  12  25  42  68  94 140 176 209 280 334 396
#     4   8  24  42  74  94 122 168 234 262 330 394
#     4  10  24  44  69  98 126 171 222 272 331 388
#     4  10  25  38  60  96 133 173 222 261 335 386
#     4  10  22  39  62  88 131 180 221 268 309 396
#
# _framework density 20.713035999999999
#
# number of rings (size 3 to 8) (size 9 to 14) (size 15 to 20)
#    0.632    1.263    0.000    1.579   17.684    1.263 
#    0.000    3.158    0.000    0.000    0.000    0.000 
#    0.000    0.000    0.000    0.000    0.000    0.000 
#
# Total GULP energy -105847.719586 kJ/mol
# GULP energy per Si atom -5570.932610 kJ/mol
# Density = 2.066589 g / cm^3
# Si number density = 20.713036 Si / 1000 Ang^3
#
#
#
# Elastic Constant Matrix: (Units=GPa)
#
#
# Indices 1 2 3 4 5 6 
#
# 1 50.7411 22.1501 6.7890 0.0000 -6.1326 0.0000
# 2 22.1501 121.9699 32.2272 0.0000 0.1752 0.0000
# 3 6.7890 32.2272 75.1493 0.0000 -6.0772 0.0000
# 4 0.0000 0.0000 0.0000 40.0989 0.0000 -18.3414
# 5 -6.1326 0.1752 -6.0772 0.0000 13.6341 0.0000
# 6 0.0000 0.0000 0.0000 -18.3414 0.0000 -29.4761
#
#
#
# Elastic Compliance Matrix: (Units=1/GPa)
#
#
# Indices 1 2 3 4 5 6 
#
# 1 0.022790 -0.004327 0.000654 0.000000 0.010598 0.000000
# 2 -0.004327 0.010118 -0.004270 0.000000 -0.003979 0.000000
# 3 0.000654 -0.004270 0.015672 0.000000 0.007334 0.000000
# 4 0.000000 0.000000 0.000000 0.019413 0.000000 -0.012080
# 5 0.010598 -0.003979 0.007334 0.000000 0.081432 0.000000
# 6 0.000000 0.000000 0.000000 -0.012080 0.000000 -0.026409
#
#
# Mechanical properties :
#
#
# Convention : Reuss Voigt Hill
#
# Bulk Modulus (GPa) = 30.58647 41.13256 35.85952
# Shear Modulus (GPa) = 33.37755 17.29766 25.33761
#
# Velocity S-wave (km/s) = 4.01861 2.89296 3.50132
# Velocity P-wave (km/s) = 6.02753 5.57318 5.80481
#
# Compressibility (1/GPa) = 0.03269419
#
# Stress axis : x y z
#
# Youngs Moduli (GPa) = 43.87890 98.82917 63.80742
#
# Poissons Ratio (x) = 0.42760 -0.04171
# Poissons Ratio (y) = 0.18985 0.27247
# Poissons Ratio (z) = -0.02868 0.42202
#
# Static dielectric constant tensor:
#      x y z
#    x 1.537400 0.000000 0.098970 
#    y 0.000000 1.755340 0.000000 
#    z 0.098970 0.000000 1.740910 
# 
# From -- ./inp_files/54014.got.cif
#   From: 2010.05.17/outbox.cif.g08.bks.cpg/sg12_28_cif.got.tgz:54014.got - 2010.06.03 13:09:07.
