data_PCOD9214424
_publ_section_title
;
Structure prediction by ZEFSAII (Michael W. Deem and Ramdas Pophale) SiO2 
 PCOD9214424
Probable space group: C 2/M
;
_chemical_formula_sum "Si O2"
_cell_formula_units_Z 58
_cell_length_a 24.870598
_cell_length_b 7.871984
_cell_length_c 22.308569
_cell_angle_alpha 90.000000
_cell_angle_beta 37.830108
_cell_angle_gamma 90.000000
_cell_volume 2678.741562
_symmetry_space_group_name_H-M "C 2/M"
_symmetry_group_IT_number 12
_symmetry_cell_setting 'monoclinic'
loop_
_space_group_symop_operation_xyz
x,y,z
-x,y,-z
-x,-y,-z
x,-y,z
1/2+x,1/2+y,z
1/2-x,1/2+y,-z
1/2-x,1/2-y,-z
1/2+x,1/2-y,z
loop_
_atom_site_type_symbol
_atom_site_label
_atom_site_fract_x
_atom_site_fract_y
_atom_site_fract_z
Si Si1 0.171213 0.693040 0.207233
Si Si2 0.000000 0.500000 0.500000
Si Si3 0.506990 0.304578 0.826968
Si Si4 0.813106 0.307924 0.998101
Si Si5 0.410121 0.703230 0.500986
Si Si6 0.923613 0.698247 0.108805
Si Si7 0.512455 0.297658 0.689905
Si Si8 0.227420 0.202342 0.280968
O O1 0.192325 0.500000 0.173933
O O2 0.252383 0.799458 0.110188
O O3 0.080754 0.738398 0.254712
O O4 0.168184 0.716082 0.281233
O O5 0.969300 0.347296 0.479673
O O6 0.536557 0.500000 0.805087
O O7 0.546613 0.209667 0.848785
O O8 0.529475 0.230797 0.741584
O O9 0.401252 0.298932 0.924639
O O10 0.841645 0.500000 0.962011
O O11 0.750000 0.250000 0.000000
O O12 0.435370 0.500000 0.488455
O O13 0.416408 0.732820 0.424336
O O14 0.316661 0.727761 0.615703
O O15 0.915982 0.500000 0.098123
O O16 0.825961 0.770868 0.188729
O O17 0.000000 0.775168 0.000000
O O18 0.503469 0.500000 0.705271
O O19 0.226924 0.000000 0.270990
#
# Coordination Sequence:
#
# PCOD9214424 Si02
#       8
#     8   2   8   8   8   8   8   8
#     4  12  24  35  58  91 125 162 204 259 314 377
#     4  12  22  36  64  98 126 176 220 264 320 392
#     4  11  23  40  64  92 124 164 210 264 321 379
#     4  12  23  38  57  84 121 160 201 250 311 382
#     4  10  23  41  61  90 134 174 215 270 322 384
#     4  10  22  42  67  93 123 165 213 265 322 384
#     4  10  22  40  60  86 127 171 208 252 322 387
#     4  10  22  41  63  89 126 172 214 260 323 379
#
# _framework density 21.651959000000002
#
# number of rings (size 3 to 8) (size 9 to 14) (size 15 to 20)
#    0.000    1.241    1.379    4.759    3.862    4.690 
#    0.000    0.690    0.000    0.000    0.000    0.000 
#    0.000    0.000    0.000    0.000    0.000    0.000 
#
# Total GULP energy -161771.157824 kJ/mol
# GULP energy per Si atom -5578.315787 kJ/mol
# Density = 2.160268 g / cm^3
# Si number density = 21.651959 Si / 1000 Ang^3
#
#
#
# Elastic Constant Matrix: (Units=GPa)
#
#
# Indices 1 2 3 4 5 6 
#
# 1 77.2311 -3.0739 39.1226 0.0026 9.9778 -0.0024
# 2 -3.0739 61.9275 17.9135 -0.0073 -1.8480 0.0124
# 3 39.1226 17.9135 125.3119 0.0037 20.6601 -0.0017
# 4 0.0026 -0.0073 0.0037 8.2000 0.0010 4.9646
# 5 9.9778 -1.8480 20.6601 0.0010 30.1558 -0.0021
# 6 -0.0024 0.0124 -0.0017 4.9646 -0.0021 22.1430
#
#
#
# Elastic Compliance Matrix: (Units=1/GPa)
#
#
# Indices 1 2 3 4 5 6 
#
# 1 0.015761 0.002164 -0.004951 -0.000001 -0.001690 0.000000
# 2 0.002164 0.017390 -0.003629 0.000025 0.002836 -0.000015
# 3 -0.004951 -0.003629 0.011061 -0.000008 -0.006162 0.000004
# 4 -0.000001 0.000025 -0.000008 0.141106 0.000001 -0.031637
# 5 -0.001690 0.002836 -0.006162 0.000001 0.038116 0.000001
# 6 0.000000 -0.000015 0.000004 -0.031637 0.000001 0.052254
#
#
# Mechanical properties :
#
#
# Convention : Reuss Voigt Hill
#
# Bulk Modulus (GPa) = 31.86884 41.37721 36.62303
# Shear Modulus (GPa) = 16.72359 26.13362 21.42861
#
# Velocity S-wave (km/s) = 2.78219 3.47794 3.14934
# Velocity P-wave (km/s) = 5.00714 5.93967 5.49323
#
# Compressibility (1/GPa) = 0.03137861
#
# Stress axis : x y z
#
# Youngs Moduli (GPa) = 63.44868 57.50514 90.41122
#
# Poissons Ratio (x) = -0.12445 0.44765
# Poissons Ratio (y) = -0.13731 0.32811
# Poissons Ratio (z) = 0.31415 0.20869
#
# Static dielectric constant tensor:
#      x y z
#    x 1.762650 0.000000 0.018740 
#    y 0.000000 1.791090 0.000000 
#    z 0.018740 0.000000 1.852830 
# 
# From -- ./inp_files/324509.got.cif
#   From: 2010.05.17/outbox.cif.g08.bks.cpg/sg12_163_cif.got.tgz:324509.got - 2010.06.03 13:09:07.
