data_PCOD9214238
_publ_section_title
;
Structure prediction by ZEFSAII (Michael W. Deem and Ramdas Pophale) SiO2 
 PCOD9214238
Probable space group: C 2/M
;
_chemical_formula_sum "Si O2"
_cell_formula_units_Z 44
_cell_length_a 11.257441
_cell_length_b 31.367235
_cell_length_c 8.563704
_cell_angle_alpha 90.000000
_cell_angle_beta 45.722141
_cell_angle_gamma 90.000000
_cell_volume 2165.049768
_symmetry_space_group_name_H-M "C 2/M"
_symmetry_group_IT_number 12
_symmetry_cell_setting 'monoclinic'
loop_
_space_group_symop_operation_xyz
x,y,z
-x,y,-z
-x,-y,-z
x,-y,z
1/2+x,1/2+y,z
1/2-x,1/2+y,-z
1/2-x,1/2-y,-z
1/2+x,1/2-y,z
loop_
_atom_site_type_symbol
_atom_site_label
_atom_site_fract_x
_atom_site_fract_y
_atom_site_fract_z
Si Si1 0.239914 0.821443 0.684893
Si Si2 0.809229 0.949852 0.620993
Si Si3 0.898051 0.811441 0.842980
Si Si4 0.865016 0.379055 0.017295
Si Si5 0.500000 0.755614 0.500000
Si Si6 0.610528 0.911487 0.527598
O O1 0.381131 0.787544 0.513207
O O2 0.307062 0.869589 0.625479
O O3 0.090274 0.821195 0.700166
O O4 0.177879 0.806535 0.913269
O O5 0.750425 0.935840 0.500444
O O6 0.000000 0.942397 0.500000
O O7 0.776825 0.000000 0.668382
O O8 0.697376 0.920802 0.835287
O O9 0.901185 0.773605 0.714176
O O10 0.792557 0.850176 0.871188
O O11 0.971736 0.393627 0.772807
O O12 0.000000 0.354805 0.000000
O O13 0.500000 0.935975 0.500000
#
# Coordination Sequence:
#
# PCOD9214238 Si02
#       6
#     8   8   8   8   4   8
#     4  11  23  43  61  88 130 163 212 265 323 366
#     4  10  23  43  67  97 131 166 210 259 311 380
#     4  11  24  40  63  92 120 170 214 263 314 381
#     4  10  22  39  65  92 125 166 212 257 312 380
#     4  12  24  40  62  90 124 166 216 264 314 374
#     4  11  21  40  68  90 129 169 207 263 318 380
#
# _framework density 20.322859000000001
#
# number of rings (size 3 to 8) (size 9 to 14) (size 15 to 20)
#    0.000    1.273    2.727    2.182    6.364    3.636 
#    6.545    0.000    0.000    2.182    0.000    0.000 
#    0.000    0.000    0.000    0.000    0.000    0.000 
#
# Total GULP energy -122724.594817 kJ/mol
# GULP energy per Si atom -5578.390673 kJ/mol
# Density = 2.027660 g / cm^3
# Si number density = 20.322859 Si / 1000 Ang^3
#
#
#
# Elastic Constant Matrix: (Units=GPa)
#
#
# Indices 1 2 3 4 5 6 
#
# 1 182.9410 67.4613 32.2251 0.0000 -6.8449 0.0000
# 2 67.4613 85.5486 15.2212 0.0000 -16.0622 0.0000
# 3 32.2251 15.2212 35.1180 0.0000 -9.2002 0.0000
# 4 0.0000 0.0000 0.0000 75.7339 0.0000 -34.7446
# 5 -6.8449 -16.0622 -9.2002 0.0000 27.5004 0.0000
# 6 0.0000 0.0000 0.0000 -34.7446 0.0000 52.9319
#
#
#
# Elastic Compliance Matrix: (Units=1/GPa)
#
#
# Indices 1 2 3 4 5 6 
#
# 1 0.008849 -0.006565 -0.006250 0.000000 -0.003723 0.000000
# 2 -0.006565 0.018543 0.000434 0.000000 0.009342 0.000000
# 3 -0.006250 0.000434 0.036916 0.000000 0.011048 0.000000
# 4 0.000000 0.000000 0.000000 0.018894 0.000000 0.012402
# 5 -0.003723 0.009342 0.011048 0.000000 0.044589 0.000000
# 6 0.000000 0.000000 0.000000 0.012402 0.000000 0.027033
#
#
# Mechanical properties :
#
#
# Convention : Reuss Voigt Hill
#
# Bulk Modulus (GPa) = 25.28598 59.26918 42.27758
# Shear Modulus (GPa) = 25.93821 43.81326 34.87573
#
# Velocity S-wave (km/s) = 3.57642 4.64816 4.14706
# Velocity P-wave (km/s) = 5.43355 7.61803 6.61656
#
# Compressibility (1/GPa) = 0.03954760
#
# Stress axis : x y z
#
# Youngs Moduli (GPa) = 113.01156 53.92947 27.08827
#
# Poissons Ratio (x) = 0.35404 0.16929
# Poissons Ratio (y) = 0.74190 -0.01176
# Poissons Ratio (z) = 0.70628 -0.02342
#
# Static dielectric constant tensor:
#      x y z
#    x 1.808080 0.000000 0.019110 
#    y 0.000000 1.683000 0.000000 
#    z 0.019110 0.000000 1.731450 
# 
# From -- ./inp_files/52999.got.cif
#   From: 2010.05.17/outbox.cif.g08.bks.cpg/sg12_27_cif.got.tgz:52999.got - 2010.06.03 13:09:07.
