data_PCOD9214384
_publ_section_title
;
Structure prediction by ZEFSAII (Michael W. Deem and Ramdas Pophale) SiO2 
 PCOD9214384
Probable space group: C 2/M
;
_chemical_formula_sum "Si O2"
_cell_formula_units_Z 40
_cell_length_a 18.538223
_cell_length_b 7.732053
_cell_length_c 12.726900
_cell_angle_alpha 90.000000
_cell_angle_beta 53.108279
_cell_angle_gamma 90.000000
_cell_volume 1458.987027
_symmetry_space_group_name_H-M "C 2/M"
_symmetry_group_IT_number 12
_symmetry_cell_setting 'monoclinic'
loop_
_space_group_symop_operation_xyz
x,y,z
-x,y,-z
-x,-y,-z
x,-y,z
1/2+x,1/2+y,z
1/2-x,1/2+y,-z
1/2-x,1/2-y,-z
1/2+x,1/2-y,z
loop_
_atom_site_type_symbol
_atom_site_label
_atom_site_fract_x
_atom_site_fract_y
_atom_site_fract_z
Si Si1 0.544714 0.806473 0.348285
Si Si2 0.173774 0.705921 0.981969
Si Si3 0.363116 0.697403 0.410645
Si Si4 0.273805 0.704030 0.700254
Si Si5 0.522215 0.294167 0.865619
O O1 0.500000 0.834813 0.500000
O O2 0.465121 0.696371 0.366394
O O3 0.639322 0.724431 0.298136
O O4 0.556212 0.000000 0.290447
O O5 0.171373 0.500000 0.973468
O O6 0.198392 0.780723 0.844539
O O7 0.250000 0.750000 0.000000
O O8 0.075820 0.769480 0.102991
O O9 0.334522 0.500000 0.421192
O O10 0.301430 0.774192 0.559051
O O11 0.391507 0.780902 0.273669
O O12 0.261073 0.500000 0.696336
O O13 0.537708 0.500000 0.860604
O O14 0.500000 0.219085 0.000000
#
# Coordination Sequence:
#
# PCOD9214384 Si02
#       5
#     8   8   8   8   8
#     4   9  16  25  42  73 108 136 168 217 272 319
#     4  11  23  38  58  85 117 150 185 229 280 333
#     4   9  17  32  53  73  99 140 185 223 264 323
#     4   9  18  32  50  74 104 140 181 222 267 322
#     4  10  22  40  60  82 111 149 190 231 279 335
#
# _framework density 27.416281999999999
#
# number of rings (size 3 to 8) (size 9 to 14) (size 15 to 20)
#    0.000    2.400    0.000    2.400    0.000   10.000 
#    0.000    1.000    0.000    0.000    0.000    0.000 
#    0.000    0.000    0.000    0.000    0.000    0.000 
#
# Total GULP energy -111667.058986 kJ/mol
# GULP energy per Si atom -5583.352949 kJ/mol
# Density = 2.735388 g / cm^3
# Si number density = 27.416282 Si / 1000 Ang^3
#
#
#
# Elastic Constant Matrix: (Units=GPa)
#
#
# Indices 1 2 3 4 5 6 
#
# 1 92.8071 32.0662 44.5249 0.0000 -6.1232 0.0000
# 2 32.0662 108.9548 10.1402 -0.0002 -0.2563 0.0003
# 3 44.5249 10.1402 295.6089 0.0000 -14.0372 0.0000
# 4 0.0000 -0.0002 0.0000 70.8001 0.0000 -67.0760
# 5 -6.1232 -0.2563 -14.0372 0.0000 47.9541 0.0000
# 6 0.0000 0.0003 0.0000 -67.0760 0.0000 113.5148
#
#
#
# Elastic Compliance Matrix: (Units=1/GPa)
#
#
# Indices 1 2 3 4 5 6 
#
# 1 0.012960 -0.003646 -0.001774 0.000000 0.001116 0.000000
# 2 -0.003646 0.010234 0.000181 0.000000 -0.000358 0.000000
# 3 -0.001774 0.000181 0.003684 0.000000 0.000853 0.000000
# 4 0.000000 0.000000 0.000000 0.032088 0.000000 0.018961
# 5 0.001116 -0.000358 0.000853 0.000000 0.021244 0.000000
# 6 0.000000 0.000000 0.000000 0.018961 0.000000 0.020013
#
#
# Mechanical properties :
#
#
# Convention : Reuss Voigt Hill
#
# Bulk Modulus (GPa) = 60.97831 74.53705 67.75768
# Shear Modulus (GPa) = 43.04168 73.82976 58.43572
#
# Velocity S-wave (km/s) = 3.96653 5.19496 4.62174
# Velocity P-wave (km/s) = 6.57783 7.95171 7.29717
#
# Compressibility (1/GPa) = 0.01639927
#
# Stress axis : x y z
#
# Youngs Moduli (GPa) = 77.16292 97.71757 271.42034
#
# Poissons Ratio (x) = 0.35632 0.48147
# Poissons Ratio (y) = 0.28137 -0.04918
# Poissons Ratio (z) = 0.13688 -0.01771
#
# Static dielectric constant tensor:
#      x y z
#    x 2.395480 0.000000 0.124720 
#    y 0.000000 2.072200 0.000000 
#    z 0.124720 0.000000 2.261400 
# 
# From -- ./inp_files/236511.got.cif
#   From: 2010.05.17/outbox.cif.g08.bks.cpg/sg12_119_cif.got.tgz:236511.got - 2010.06.03 13:09:07.
