data_PCOD9214800
_publ_section_title
;
Structure prediction by ZEFSAII (Michael W. Deem and Ramdas Pophale) SiO2 
 PCOD9214800
Probable space group: C 2/M
;
_chemical_formula_sum "Si O2"
_cell_formula_units_Z 40
_cell_length_a 17.326801
_cell_length_b 15.083767
_cell_length_c 12.149840
_cell_angle_alpha 90.000000
_cell_angle_beta 145.873454
_cell_angle_gamma 90.000000
_cell_volume 1781.472441
_symmetry_space_group_name_H-M "C 2/M"
_symmetry_group_IT_number 12
_symmetry_cell_setting 'monoclinic'
loop_
_space_group_symop_operation_xyz
x,y,z
-x,y,-z
-x,-y,-z
x,-y,z
1/2+x,1/2+y,z
1/2-x,1/2+y,-z
1/2-x,1/2-y,-z
1/2+x,1/2-y,z
loop_
_atom_site_type_symbol
_atom_site_label
_atom_site_fract_x
_atom_site_fract_y
_atom_site_fract_z
Si Si1 0.637700 0.790597 0.950391
Si Si2 0.640374 0.673166 0.379458
Si Si3 0.352813 0.602037 0.838848
Si Si4 0.616669 0.893761 0.718462
Si Si5 0.656937 0.394535 0.645975
O O1 0.508948 0.722524 0.807108
O O2 0.587081 0.869011 0.808389
O O3 0.750000 0.750000 0.000000
O O4 0.723601 0.836514 0.152003
O O5 0.750000 0.750000 0.500000
O O6 0.688469 0.608668 0.336745
O O7 0.652875 0.625631 0.511373
O O8 0.373596 0.500000 0.895855
O O9 0.254187 0.638565 0.816557
O O10 0.500000 0.647549 0.000000
O O11 0.500000 0.858229 0.500000
O O12 0.619324 0.000000 0.714224
O O13 0.500000 0.373123 0.500000
O O14 0.679292 0.500000 0.693483
#
# Coordination Sequence:
#
# PCOD9214800 Si02
#       5
#     8   8   8   8   8
#     4  12  25  42  69 101 137 175 231 286 341 404
#     4  12  27  42  69 102 142 177 225 288 349 410
#     4  10  22  40  64  93 128 169 216 270 334 403
#     4  10  22  41  67  94 128 171 219 276 338 407
#     4  11  26  49  73 101 140 192 240 283 348 429
#
# _framework density 22.453337000000001
#
# number of rings (size 3 to 8) (size 9 to 14) (size 15 to 20)
#    0.000    1.000    2.000    3.600    8.400    0.000 
#    0.000    4.000    0.000    0.000    0.000    0.000 
#    0.000    0.000    0.000    0.000    0.000    0.000 
#
# Total GULP energy -111407.706375 kJ/mol
# GULP energy per Si atom -5570.385319 kJ/mol
# Density = 2.240223 g / cm^3
# Si number density = 22.453337 Si / 1000 Ang^3
#
#
#
# Elastic Constant Matrix: (Units=GPa)
#
#
# Indices 1 2 3 4 5 6 
#
# 1 81.9405 2.4242 12.4431 0.0000 -12.5606 0.0000
# 2 2.4242 56.5416 17.3099 0.0000 2.9540 0.0000
# 3 12.4431 17.3099 108.6717 0.0000 -0.7650 0.0000
# 4 0.0000 0.0000 0.0000 30.0020 0.0000 -11.6297
# 5 -12.5606 2.9540 -0.7650 0.0000 51.5185 0.0000
# 6 0.0000 0.0000 0.0000 -11.6297 0.0000 32.9859
#
#
#
# Elastic Compliance Matrix: (Units=1/GPa)
#
#
# Indices 1 2 3 4 5 6 
#
# 1 0.012908 -0.000286 -0.001410 0.000000 0.003143 0.000000
# 2 -0.000286 0.018663 -0.002948 0.000000 -0.001184 0.000000
# 3 -0.001410 -0.002948 0.009833 0.000000 -0.000029 0.000000
# 4 0.000000 0.000000 0.000000 0.038607 0.000000 0.013612
# 5 0.003143 -0.001184 -0.000029 0.000000 0.020244 0.000000
# 6 0.000000 0.000000 0.000000 0.013612 0.000000 0.035115
#
#
# Mechanical properties :
#
#
# Convention : Reuss Voigt Hill
#
# Bulk Modulus (GPa) = 31.13812 34.61203 32.87507
# Shear Modulus (GPa) = 32.18234 37.23304 34.70769
#
# Velocity S-wave (km/s) = 3.79000 4.07657 3.93589
# Velocity P-wave (km/s) = 5.74893 6.13241 5.94376
#
# Compressibility (1/GPa) = 0.03211498
#
# Stress axis : x y z
#
# Youngs Moduli (GPa) = 77.46928 53.58252 101.69899
#
# Poissons Ratio (x) = 0.01532 0.14343
# Poissons Ratio (y) = 0.02215 0.29984
# Poissons Ratio (z) = 0.10926 0.15798
#
# Static dielectric constant tensor:
#      x y z
#    x 1.838450 0.000000 -0.008300 
#    y 0.000000 1.873940 0.000000 
#    z -0.008300 0.000000 2.023230 
# 
# From -- ./inp_files/158442.got.cif
#   From: 2010.05.17/outbox.cif.g08.bks.cpg/sg12_80_cif.got.tgz:158442.got - 2010.06.03 13:09:07.
