data_PCOD9214895
_publ_section_title
;
Structure prediction by ZEFSAII (Michael W. Deem and Ramdas Pophale) SiO2 
 PCOD9214895
Probable space group: C 2/M
;
_chemical_formula_sum "Si O2"
_cell_formula_units_Z 36
_cell_length_a 10.032869
_cell_length_b 10.858579
_cell_length_c 16.114411
_cell_angle_alpha 90.000000
_cell_angle_beta 117.436806
_cell_angle_gamma 90.000000
_cell_volume 1558.082732
_symmetry_space_group_name_H-M "C 2/M"
_symmetry_group_IT_number 12
_symmetry_cell_setting 'monoclinic'
loop_
_space_group_symop_operation_xyz
x,y,z
-x,y,-z
-x,-y,-z
x,-y,z
1/2+x,1/2+y,z
1/2-x,1/2+y,-z
1/2-x,1/2-y,-z
1/2+x,1/2-y,z
loop_
_atom_site_type_symbol
_atom_site_label
_atom_site_fract_x
_atom_site_fract_y
_atom_site_fract_z
Si Si1 0.325091 0.742683 0.433507
Si Si2 0.194846 0.500000 0.815308
Si Si3 0.920937 0.245520 0.161018
Si Si4 0.464849 0.500000 0.087119
Si Si5 0.239325 0.361703 0.248227
Si Si6 0.619378 0.000000 0.612685
O O1 0.500000 0.724581 0.500000
O O2 0.250000 0.750000 0.500000
O O3 0.265081 0.641807 0.353676
O O4 0.297754 0.872276 0.379374
O O5 0.165592 0.376863 0.860821
O O6 0.364056 0.500000 0.827827
O O7 0.084958 0.500000 0.701994
O O8 0.883029 0.194197 0.242231
O O9 0.091001 0.282522 0.189411
O O10 0.885425 0.126979 0.093262
O O11 0.500000 0.500000 0.000000
O O12 0.214937 0.500000 0.212025
O O13 0.500000 0.000000 0.500000
#
# Coordination Sequence:
#
# PCOD9214895 Si02
#       6
#     8   4   8   4   8   4
#     4  11  24  39  58  93 136 185 239 301 350 408
#     4  12  24  47  74 104 146 197 236 293 364 430
#     4  12  24  46  74 105 139 188 236 290 367 435
#     4  12  28  49  77 112 148 180 235 311 372 440
#     4  12  25  42  71 100 138 190 244 292 357 431
#     4  10  22  40  65  94 139 190 235 285 351 411
#
# _framework density 23.105319000000001
#
# number of rings (size 3 to 8) (size 9 to 14) (size 15 to 20)
#    0.000    0.444    6.667    1.333    4.667    1.333 
#    4.000    0.556    0.000    0.000    0.000    0.000 
#    0.000    0.000    0.000    0.000    0.000    0.000 
#
# Total GULP energy -100493.756812 kJ/mol
# GULP energy per Si atom -5582.986490 kJ/mol
# Density = 2.305273 g / cm^3
# Si number density = 23.105319 Si / 1000 Ang^3
#
#
#
# Elastic Constant Matrix: (Units=GPa)
#
#
# Indices 1 2 3 4 5 6 
#
# 1 80.0173 31.2332 9.7404 0.0000 -19.5949 0.0000
# 2 31.2332 191.4941 29.3574 0.0000 -18.1200 0.0000
# 3 9.7404 29.3574 77.4926 0.0000 -24.5022 0.0000
# 4 0.0000 0.0000 0.0000 8.9362 0.0000 -17.2907
# 5 -19.5949 -18.1200 -24.5022 0.0000 33.9251 0.0000
# 6 0.0000 0.0000 0.0000 -17.2907 0.0000 45.9779
#
#
#
# Elastic Compliance Matrix: (Units=1/GPa)
#
#
# Indices 1 2 3 4 5 6 
#
# 1 0.015231 -0.001886 0.001637 0.000000 0.008972 0.000000
# 2 -0.001886 0.005871 -0.001737 0.000000 0.000792 0.000000
# 3 0.001637 -0.001737 0.017317 0.000000 0.012525 0.000000
# 4 0.000000 0.000000 0.000000 0.410889 0.000000 0.154521
# 5 0.008972 0.000792 0.012525 0.000000 0.044128 0.000000
# 6 0.000000 0.000000 0.000000 0.154521 0.000000 0.079860
#
#
# Mechanical properties :
#
#
# Convention : Reuss Voigt Hill
#
# Bulk Modulus (GPa) = 29.02963 54.40734 41.71849
# Shear Modulus (GPa) = 8.49257 36.34603 22.41930
#
# Velocity S-wave (km/s) = 1.91926 3.97048 3.11836
# Velocity P-wave (km/s) = 4.18363 6.67969 5.57320
#
# Compressibility (1/GPa) = 0.03444756
#
# Stress axis : x y z
#
# Youngs Moduli (GPa) = 65.65348 170.33089 57.74725
#
# Poissons Ratio (x) = 0.32129 -0.09453
# Poissons Ratio (y) = 0.12384 0.10029
# Poissons Ratio (z) = -0.10748 0.29580
#
# Static dielectric constant tensor:
#      x y z
#    x 1.956160 0.000000 -0.336290 
#    y 0.000000 1.946550 0.000000 
#    z -0.336290 0.000000 3.108160 
# 
# From -- ./inp_files/254811.got.cif
#   From: 2010.05.17/outbox.cif.g08.bks.cpg/sg12_128_cif.got.tgz:254811.got - 2010.06.03 13:09:07.
