data_PCOD9214411
_publ_section_title
;
Structure prediction by ZEFSAII (Michael W. Deem and Ramdas Pophale) SiO2 
 PCOD9214411
Probable space group: C 2/M
;
_chemical_formula_sum "Si O2"
_cell_formula_units_Z 56
_cell_length_a 20.819797
_cell_length_b 8.528262
_cell_length_c 30.717257
_cell_angle_alpha 90.000000
_cell_angle_beta 33.771852
_cell_angle_gamma 90.000000
_cell_volume 3031.839543
_symmetry_space_group_name_H-M "C 2/M"
_symmetry_group_IT_number 12
_symmetry_cell_setting 'monoclinic'
loop_
_space_group_symop_operation_xyz
x,y,z
-x,y,-z
-x,-y,-z
x,-y,z
1/2+x,1/2+y,z
1/2-x,1/2+y,-z
1/2-x,1/2-y,-z
1/2+x,1/2-y,z
loop_
_atom_site_type_symbol
_atom_site_label
_atom_site_fract_x
_atom_site_fract_y
_atom_site_fract_z
Si Si1 0.815652 0.686447 0.238290
Si Si2 0.796719 0.189260 0.906857
Si Si3 0.423541 0.815985 0.661003
Si Si4 0.078758 0.814045 0.497259
Si Si5 0.817711 0.185437 0.334156
Si Si6 0.072743 0.310639 0.081865
Si Si7 0.547395 0.310898 0.259127
O O1 0.802720 0.500000 0.238994
O O2 0.707232 0.771066 0.277941
O O3 0.816513 0.722776 0.289287
O O4 0.940659 0.738659 0.149834
O O5 0.879211 0.248980 0.899146
O O6 0.848010 0.238829 0.831720
O O7 0.800278 0.000000 0.905758
O O8 0.666955 0.239170 0.992771
O O9 0.508090 0.726034 0.580304
O O10 0.446901 0.767449 0.697318
O O11 0.441304 0.000000 0.644784
O O12 0.199871 0.725323 0.425526
O O13 0.000000 0.769292 0.500000
O O14 0.100046 0.000000 0.482642
O O15 0.929114 0.226381 0.300213
O O16 0.823358 0.000000 0.321291
O O17 0.073131 0.500000 0.083416
O O18 0.552458 0.500000 0.261707
#
# Coordination Sequence:
#
# PCOD9214411 Si02
#       7
#     8   8   8   8   8   8   8
#     4  11  21  36  58  87 120 155 194 240 290 345
#     4   9  17  33  56  85 118 154 192 237 288 338
#     4  12  26  41  61  85 115 155 197 243 292 348
#     4  11  23  40  63  89 117 152 190 238 292 346
#     4  11  22  37  62  91 117 152 195 240 285 341
#     4   9  18  31  55  88 118 150 194 240 285 339
#     4  10  22  40  60  85 121 158 193 237 292 348
#
# _framework density 18.470635000000001
#
# number of rings (size 3 to 8) (size 9 to 14) (size 15 to 20)
#    0.000    1.571    2.857    2.571    0.000    3.429 
#    0.000    0.714    0.000    4.286    0.000    0.000 
#    0.000    0.000    0.000    0.000    0.000    0.000 
#
# Total GULP energy -156412.647552 kJ/mol
# GULP energy per Si atom -5586.165984 kJ/mol
# Density = 1.842860 g / cm^3
# Si number density = 18.470635 Si / 1000 Ang^3
#
#
#
# Elastic Constant Matrix: (Units=GPa)
#
#
# Indices 1 2 3 4 5 6 
#
# 1 64.2666 9.4777 24.6757 -0.0001 5.2426 -0.0031
# 2 9.4777 11.3964 -1.4553 0.0028 0.1574 0.0000
# 3 24.6757 -1.4553 106.5996 0.0006 -0.8747 0.0000
# 4 -0.0001 0.0028 0.0006 19.6775 0.0005 -1.5617
# 5 5.2426 0.1574 -0.8747 0.0005 30.0111 0.0001
# 6 -0.0031 0.0000 0.0000 -1.5617 0.0001 28.4981
#
#
#
# Elastic Compliance Matrix: (Units=1/GPa)
#
#
# Indices 1 2 3 4 5 6 
#
# 1 0.020348 -0.017508 -0.004979 0.000003 -0.003608 0.000002
# 2 -0.017508 0.102971 0.005481 -0.000015 0.002678 -0.000003
# 3 -0.004979 0.005481 0.010618 -0.000001 0.001150 -0.000001
# 4 0.000003 -0.000015 -0.000001 0.051041 -0.000001 0.002797
# 5 -0.003608 0.002678 0.001150 -0.000001 0.033971 -0.000001
# 6 0.000002 -0.000003 -0.000001 0.002797 -0.000001 0.035243
#
#
# Mechanical properties :
#
#
# Convention : Reuss Voigt Hill
#
# Bulk Modulus (GPa) = 10.00767 27.51765 18.76266
# Shear Modulus (GPa) = 15.55145 25.60831 20.57988
#
# Velocity S-wave (km/s) = 2.90479 3.72752 3.34158
# Velocity P-wave (km/s) = 4.08416 5.78414 5.00683
#
# Compressibility (1/GPa) = 0.09992333
#
# Stress axis : x y z
#
# Youngs Moduli (GPa) = 49.14432 9.71149 94.18275
#
# Poissons Ratio (x) = 0.17003 0.46892
# Poissons Ratio (y) = 0.86044 -0.51618
# Poissons Ratio (z) = 0.24468 -0.05322
#
# Static dielectric constant tensor:
#      x y z
#    x 1.593190 0.000000 -0.012810 
#    y 0.000000 1.623400 0.000000 
#    z -0.012810 0.000000 1.653430 
# 
# From -- ./inp_files/362911.got.cif
#   From: 2010.05.17/outbox.cif.g08.bks.cpg/sg12_182_cif.got.tgz:362911.got - 2010.06.03 13:09:07.
