data_PCOD9214532
_publ_section_title
;
Structure prediction by ZEFSAII (Michael W. Deem and Ramdas Pophale) SiO2 
 PCOD9214532
Probable space group: C 2/M
;
_chemical_formula_sum "Si O2"
_cell_formula_units_Z 40
_cell_length_a 18.249728
_cell_length_b 15.396197
_cell_length_c 13.348294
_cell_angle_alpha 90.000000
_cell_angle_beta 151.364487
_cell_angle_gamma 90.000000
_cell_volume 1797.401145
_symmetry_space_group_name_H-M "C 2/M"
_symmetry_group_IT_number 12
_symmetry_cell_setting 'monoclinic'
loop_
_space_group_symop_operation_xyz
x,y,z
-x,y,-z
-x,-y,-z
x,-y,z
1/2+x,1/2+y,z
1/2-x,1/2+y,-z
1/2-x,1/2-y,-z
1/2+x,1/2-y,z
loop_
_atom_site_type_symbol
_atom_site_label
_atom_site_fract_x
_atom_site_fract_y
_atom_site_fract_z
Si Si1 0.759556 0.151335 0.472153
Si Si2 0.925291 0.655607 0.109179
Si Si3 0.544962 0.648547 0.937854
Si Si4 0.877156 0.399565 0.269809
Si Si5 0.160336 0.100889 0.649084
O O1 0.750000 0.250000 0.500000
O O2 0.592155 0.113267 0.292699
O O3 0.790260 0.150652 0.391131
O O4 0.904065 0.111461 0.703456
O O5 0.933039 0.751683 0.071193
O O6 0.890556 0.656258 0.185189
O O7 0.790547 0.607836 0.888861
O O8 0.500000 0.644967 0.000000
O O9 0.707070 0.605159 0.110016
O O10 0.911322 0.500000 0.284247
O O11 0.000000 0.371174 0.500000
O O12 0.000000 0.133760 0.500000
O O13 0.139481 0.000000 0.595406
#
# Coordination Sequence:
#
# PCOD9214532 Si02
#       5
#     8   8   8   8   8
#     4  10  22  40  61  92 127 161 202 250 309 370
#     4  11  22  41  66  94 125 160 207 259 312 367
#     4  11  23  42  67  93 123 162 210 259 308 366
#     4  11  25  43  63  91 128 168 208 252 306 370
#     4  11  24  41  64  95 128 162 204 258 315 367
#
# _framework density 22.254352999999998
#
# number of rings (size 3 to 8) (size 9 to 14) (size 15 to 20)
#    0.000    1.200    0.000    6.600    0.000    9.200 
#    0.000    0.000    0.000    0.000    0.000    0.000 
#    0.000    0.000    0.000    0.000    0.000    0.000 
#
# Total GULP energy -111938.853889 kJ/mol
# GULP energy per Si atom -5596.942694 kJ/mol
# Density = 2.220370 g / cm^3
# Si number density = 22.254353 Si / 1000 Ang^3
#
#
#
# Elastic Constant Matrix: (Units=GPa)
#
#
# Indices 1 2 3 4 5 6 
#
# 1 194.6771 10.1808 93.7058 0.0000 -0.6605 0.0000
# 2 10.1808 37.3441 3.1266 0.0000 -0.1658 0.0000
# 3 93.7058 3.1266 202.5855 0.0000 10.8646 0.0000
# 4 0.0000 0.0000 0.0000 7.4492 0.0000 24.3455
# 5 -0.6605 -0.1658 10.8646 0.0000 50.9641 0.0000
# 6 0.0000 0.0000 0.0000 24.3455 0.0000 -18.9986
#
#
#
# Elastic Compliance Matrix: (Units=1/GPa)
#
#
# Indices 1 2 3 4 5 6 
#
# 1 0.006727 -0.001569 -0.003127 0.000000 0.000749 0.000000
# 2 -0.001569 0.027180 0.000306 0.000000 0.000003 0.000000
# 3 -0.003127 0.000306 0.006454 0.000000 -0.001415 0.000000
# 4 0.000000 0.000000 0.000000 0.025876 0.000000 0.033158
# 5 0.000749 0.000003 -0.001415 0.000000 0.019933 0.000000
# 6 0.000000 0.000000 0.000000 0.033158 0.000000 -0.010146
#
#
# Mechanical properties :
#
#
# Convention : Reuss Voigt Hill
#
# Bulk Modulus (GPa) = 31.66517 72.07035 51.86776
# Shear Modulus (GPa) = 52.44916 29.72252 41.08584
#
# Velocity S-wave (km/s) = 4.85996 3.65853 4.30140
# Velocity P-wave (km/s) = 6.76402 7.09236 6.93013
#
# Compressibility (1/GPa) = 0.03158044
#
# Stress axis : x y z
#
# Youngs Moduli (GPa) = 148.66372 36.79175 154.94467
#
# Poissons Ratio (x) = 0.05771 0.48456
# Poissons Ratio (y) = 0.23320 -0.04740
# Poissons Ratio (z) = 0.46492 -0.01126
#
# Static dielectric constant tensor:
#      x y z
#    x 1.771080 0.000000 0.039220 
#    y 0.000000 1.851880 0.000000 
#    z 0.039220 0.000000 1.822170 
# 
# From -- ./inp_files/61405.got.cif
#   From: 2010.05.17/outbox.cif.g08.bks.cpg/sg12_31_cif.got.tgz:61405.got - 2010.06.03 13:09:07.
