data_PCOD9214979
_publ_section_title
;
Structure prediction by ZEFSAII (Michael W. Deem and Ramdas Pophale) SiO2 
 PCOD9214979
Probable space group: C 2/M
;
_chemical_formula_sum "Si O2"
_cell_formula_units_Z 56
_cell_length_a 15.308050
_cell_length_b 15.057802
_cell_length_c 11.070717
_cell_angle_alpha 90.000000
_cell_angle_beta 84.323227
_cell_angle_gamma 90.000000
_cell_volume 2539.347142
_symmetry_space_group_name_H-M "C 2/M"
_symmetry_group_IT_number 12
_symmetry_cell_setting 'monoclinic'
loop_
_space_group_symop_operation_xyz
x,y,z
-x,y,-z
-x,-y,-z
x,-y,z
1/2+x,1/2+y,z
1/2-x,1/2+y,-z
1/2-x,1/2-y,-z
1/2+x,1/2-y,z
loop_
_atom_site_type_symbol
_atom_site_label
_atom_site_fract_x
_atom_site_fract_y
_atom_site_fract_z
Si Si1 0.304319 0.261356 0.868508
Si Si2 0.930958 0.399594 0.289664
Si Si3 0.913393 0.099997 0.433125
Si Si4 0.228286 0.354407 0.507944
Si Si5 0.633995 0.729627 0.777152
Si Si6 0.871144 0.599326 0.721936
Si Si7 0.604116 0.400253 0.000898
O O1 0.232273 0.270058 0.773023
O O2 0.356047 0.173165 0.825403
O O3 0.366608 0.344733 0.885573
O O4 0.250000 0.250000 0.000000
O O5 0.920952 0.500000 0.242733
O O6 0.852177 0.380421 0.394113
O O7 0.924978 0.317230 0.197658
O O8 0.027726 0.394713 0.334600
O O9 0.822588 0.101604 0.520954
O O10 0.898610 0.176501 0.335729
O O11 0.000000 0.117711 0.500000
O O12 0.922661 0.000000 0.379087
O O13 0.250000 0.250000 0.500000
O O14 0.194625 0.384882 0.380188
O O15 0.633302 0.655434 0.880443
O O16 0.856755 0.500000 0.771284
O O17 0.639902 0.500000 0.998241
O O18 0.500000 0.404177 0.000000
#
# Coordination Sequence:
#
# PCOD9214979 Si02
#       7
#     8   8   8   8   8   8   8
#     4  10  22  40  66  99 127 171 229 281 343 396
#     4  11  24  40  63  96 134 179 230 281 334 400
#     4  11  24  41  64  95 132 179 230 279 335 405
#     4  12  23  40  63  95 135 183 231 280 339 398
#     4  11  22  42  66  91 135 178 222 276 339 405
#     4  11  23  41  67  96 134 184 230 278 342 414
#     4  10  22  42  67  96 128 168 219 280 345 410
#
# _framework density 22.052913
#
# number of rings (size 3 to 8) (size 9 to 14) (size 15 to 20)
#    0.000    1.143    2.857    3.000    2.000    4.000 
#    2.571    2.143    0.000    7.714    0.000    0.000 
#    0.000    0.000    0.000    0.000    0.000    0.000 
#
# Total GULP energy -156257.762739 kJ/mol
# GULP energy per Si atom -5580.634384 kJ/mol
# Density = 2.200272 g / cm^3
# Si number density = 22.052913 Si / 1000 Ang^3
#
#
#
# Elastic Constant Matrix: (Units=GPa)
#
#
# Indices 1 2 3 4 5 6 
#
# 1 150.3648 60.2033 33.0682 0.0000 20.5342 0.0000
# 2 60.2033 205.7575 48.6264 0.0000 24.2307 0.0000
# 3 33.0682 48.6264 63.4444 0.0000 7.3305 0.0000
# 4 0.0000 0.0000 0.0000 33.2542 0.0000 3.1842
# 5 20.5342 24.2307 7.3305 0.0000 33.4176 0.0000
# 6 0.0000 0.0000 0.0000 3.1842 0.0000 36.5213
#
#
#
# Elastic Compliance Matrix: (Units=1/GPa)
#
#
# Indices 1 2 3 4 5 6 
#
# 1 0.008299 -0.001331 -0.002902 0.000000 -0.003498 0.000000
# 2 -0.001331 0.006548 -0.003972 0.000000 -0.003059 0.000000
# 3 -0.002902 -0.003972 0.020294 0.000000 0.000211 0.000000
# 4 0.000000 0.000000 0.000000 0.030325 0.000000 -0.002644
# 5 -0.003498 -0.003059 0.000211 0.000000 0.034246 0.000000
# 6 0.000000 0.000000 0.000000 -0.002644 0.000000 0.027612
#
#
# Mechanical properties :
#
#
# Convention : Reuss Voigt Hill
#
# Bulk Modulus (GPa) = 53.38100 78.15139 65.76619
# Shear Modulus (GPa) = 33.33857 39.14985 36.24421
#
# Velocity S-wave (km/s) = 3.89235 4.21797 4.05842
# Velocity P-wave (km/s) = 6.66775 7.69654 7.20054
#
# Compressibility (1/GPa) = 0.01873326
#
# Stress axis : x y z
#
# Youngs Moduli (GPa) = 120.49534 152.71018 49.27548
#
# Poissons Ratio (x) = 0.20319 0.14298
# Poissons Ratio (y) = 0.16033 0.19572
# Poissons Ratio (z) = 0.34963 0.60656
#
# Static dielectric constant tensor:
#      x y z
#    x 1.813960 0.000000 0.006380 
#    y 0.000000 1.852170 0.000000 
#    z 0.006380 0.000000 1.820610 
# 
# From -- ./inp_files/143751.got.cif
#   From: 2010.05.17/outbox.cif.g08.bks.cpg/sg12_72_cif.got.tgz:143751.got - 2010.06.03 13:09:07.
