data_PCOD9214838
_publ_section_title
;
Structure prediction by ZEFSAII (Michael W. Deem and Ramdas Pophale) SiO2 
 PCOD9214838
Probable space group: C 2/M
;
_chemical_formula_sum "Si O2"
_cell_formula_units_Z 56
_cell_length_a 8.137631
_cell_length_b 23.912662
_cell_length_c 15.789112
_cell_angle_alpha 90.000000
_cell_angle_beta 118.191215
_cell_angle_gamma 90.000000
_cell_volume 2707.975888
_symmetry_space_group_name_H-M "C 2/M"
_symmetry_group_IT_number 12
_symmetry_cell_setting 'monoclinic'
loop_
_space_group_symop_operation_xyz
x,y,z
-x,y,-z
-x,-y,-z
x,-y,z
1/2+x,1/2+y,z
1/2-x,1/2+y,-z
1/2-x,1/2-y,-z
1/2+x,1/2-y,z
loop_
_atom_site_type_symbol
_atom_site_label
_atom_site_fract_x
_atom_site_fract_y
_atom_site_fract_z
Si Si1 0.624232 0.685457 0.335304
Si Si2 0.704563 0.371290 0.526657
Si Si3 0.325451 0.598596 0.795943
Si Si4 0.451189 0.881598 0.118857
Si Si5 0.195533 0.309930 0.291485
Si Si6 0.254202 0.065280 0.915296
Si Si7 0.178287 0.500000 0.651549
Si Si8 0.254651 0.500000 0.490273
O O1 0.734890 0.654547 0.439993
O O2 0.661058 0.654180 0.256296
O O3 0.403525 0.682589 0.304048
O O4 0.677716 0.749271 0.329913
O O5 0.500000 0.348404 0.500000
O O6 0.833791 0.351274 0.635182
O O7 0.692699 0.438395 0.527780
O O8 0.205572 0.603073 0.851199
O O9 0.535291 0.576089 0.857884
O O10 0.219056 0.554211 0.713747
O O11 0.548086 0.825878 0.181548
O O12 0.630717 0.921650 0.143082
O O13 0.336884 0.890558 0.003619
O O14 0.285419 0.000000 0.946823
O O15 0.309530 0.500000 0.601830
O O16 0.965926 0.500000 0.574015
#
# Coordination Sequence:
#
# PCOD9214838 Si02
#       8
#     8   8   8   8   8   8   4   4
#     4  11  23  43  67  96 136 178 228 285 331 407
#     4  10  22  40  64  97 136 182 224 275 336 400
#     4  12  23  43  69  98 136 179 226 277 341 401
#     4  11  24  42  68 101 131 175 225 281 341 403
#     4  11  23  43  66  97 133 178 234 281 339 404
#     4  11  25  45  70 100 140 174 226 283 338 413
#     4  11  24  36  61  94 138 179 218 278 333 405
#     4  11  21  40  56  98 143 176 220 275 334 408
#
# _framework density 20.679652000000001
#
# number of rings (size 3 to 8) (size 9 to 14) (size 15 to 20)
#    0.000    1.000    3.571    3.643    2.000    0.571 
#    2.571    0.714    3.143    0.000    0.000    0.000 
#    0.000    0.000    0.000    0.000    0.000    0.000 
#
# Total GULP energy -156018.600581 kJ/mol
# GULP energy per Si atom -5572.092878 kJ/mol
# Density = 2.063258 g / cm^3
# Si number density = 20.679652 Si / 1000 Ang^3
#
#
#
# Elastic Constant Matrix: (Units=GPa)
#
#
# Indices 1 2 3 4 5 6 
#
# 1 133.8727 7.3965 26.9710 0.0000 -15.5652 0.0000
# 2 7.3965 181.8945 96.5746 0.0000 25.1403 0.0000
# 3 26.9710 96.5746 130.2222 0.0000 25.8628 0.0000
# 4 0.0000 0.0000 0.0000 33.7268 0.0000 -4.7434
# 5 -15.5652 25.1403 25.8628 0.0000 55.6893 0.0000
# 6 0.0000 0.0000 0.0000 -4.7434 0.0000 27.9351
#
#
#
# Elastic Compliance Matrix: (Units=1/GPa)
#
#
# Indices 1 2 3 4 5 6 
#
# 1 0.008425 0.000780 -0.002997 0.000000 0.003395 0.000000
# 2 0.000780 0.009199 -0.006832 0.000000 -0.000762 0.000000
# 3 -0.002997 -0.006832 0.014233 0.000000 -0.004364 0.000000
# 4 0.000000 0.000000 0.000000 0.030375 0.000000 0.005158
# 5 0.003395 -0.000762 -0.004364 0.000000 0.021276 0.000000
# 6 0.000000 0.000000 0.000000 0.005158 0.000000 0.036673
#
#
# Mechanical properties :
#
#
# Convention : Reuss Voigt Hill
#
# Bulk Modulus (GPa) = 72.68675 78.65260 75.66968
# Shear Modulus (GPa) = 34.99743 44.47339 39.73541
#
# Velocity S-wave (km/s) = 4.11829 4.64247 4.38822
# Velocity P-wave (km/s) = 7.60520 8.17638 7.89595
#
# Compressibility (1/GPa) = 0.01375766
#
# Stress axis : x y z
#
# Youngs Moduli (GPa) = 118.68968 108.71148 70.25737
#
# Poissons Ratio (x) = -0.08475 0.21059
# Poissons Ratio (y) = -0.09253 0.48000
# Poissons Ratio (z) = 0.35577 0.74272
#
# Static dielectric constant tensor:
#      x y z
#    x 1.811830 0.000000 -0.026980 
#    y 0.000000 0.762320 0.000000 
#    z -0.026980 0.000000 1.774500 
# 
# From -- ./inp_files/199019.got.cif
#   From: 2010.05.17/outbox.cif.g08.bks.cpg/sg12_100_cif.got.tgz:199019.got - 2010.06.03 13:09:07.
