data_PCOD9214526
_publ_section_title
;
Structure prediction by ZEFSAII (Michael W. Deem and Ramdas Pophale) SiO2 
 PCOD9214526
Probable space group: C 2/M
;
_chemical_formula_sum "Si O2"
_cell_formula_units_Z 44
_cell_length_a 16.696059
_cell_length_b 24.416135
_cell_length_c 9.110094
_cell_angle_alpha 90.000000
_cell_angle_beta 148.288346
_cell_angle_gamma 90.000000
_cell_volume 1952.117851
_symmetry_space_group_name_H-M "C 2/M"
_symmetry_group_IT_number 12
_symmetry_cell_setting 'monoclinic'
loop_
_space_group_symop_operation_xyz
x,y,z
-x,y,-z
-x,-y,-z
x,-y,z
1/2+x,1/2+y,z
1/2-x,1/2+y,-z
1/2-x,1/2-y,-z
1/2+x,1/2-y,z
loop_
_atom_site_type_symbol
_atom_site_label
_atom_site_fract_x
_atom_site_fract_y
_atom_site_fract_z
Si Si1 0.164894 0.935988 0.288081
Si Si2 0.965297 0.566485 0.613044
Si Si3 0.722371 0.894470 0.236757
Si Si4 0.500000 0.351487 0.500000
Si Si5 0.339733 0.226074 0.813598
Si Si6 0.009881 0.256212 0.353691
O O1 0.298595 0.912244 0.396794
O O2 0.217115 0.932409 0.538336
O O3 0.154941 0.000000 0.231481
O O4 0.000000 0.910529 0.000000
O O5 0.968895 0.500000 0.623265
O O6 0.000000 0.582730 0.500000
O O7 0.078926 0.586094 0.918537
O O8 0.856431 0.885749 0.327251
O O9 0.688044 0.837159 0.267672
O O10 0.524830 0.308229 0.671554
O O11 0.181089 0.258685 0.553311
O O12 0.500000 0.248023 0.000000
O O13 0.379102 0.221509 0.047446
O O14 0.000000 0.281415 0.500000
#
# Coordination Sequence:
#
# PCOD9214526 Si02
#       6
#     8   8   8   4   8   8
#     4  10  22  41  64  89 121 159 198 245 304 356
#     4  10  22  40  61  90 125 158 195 242 298 361
#     4  11  22  39  62  89 123 157 204 248 297 351
#     4   8  22  38  59  84 122 156 199 250 298 350
#     4  11  21  37  60  87 114 150 198 243 290 352
#     4   9  20  39  58  78 116 156 188 241 295 349
#
# _framework density 22.539622000000001
#
# number of rings (size 3 to 8) (size 9 to 14) (size 15 to 20)
#    0.545    1.455    0.000    3.273    2.545    2.182 
#    0.000    8.182    0.000    0.000    0.000    0.000 
#    0.000    0.000    0.000    0.000    0.000    0.000 
#
# Total GULP energy -122744.846929 kJ/mol
# GULP energy per Si atom -5579.311224 kJ/mol
# Density = 2.248832 g / cm^3
# Si number density = 22.539622 Si / 1000 Ang^3
#
#
#
# Elastic Constant Matrix: (Units=GPa)
#
#
# Indices 1 2 3 4 5 6 
#
# 1 136.8161 4.9667 53.8930 0.0000 36.9376 0.0000
# 2 4.9667 29.5882 3.7961 0.0000 8.1727 0.0000
# 3 53.8930 3.7961 129.6358 0.0000 12.4476 0.0000
# 4 0.0000 0.0000 0.0000 -7.5999 0.0000 -16.2231
# 5 36.9376 8.1727 12.4476 0.0000 44.2066 0.0000
# 6 0.0000 0.0000 0.0000 -16.2231 0.0000 -4.1239
#
#
#
# Elastic Compliance Matrix: (Units=1/GPa)
#
#
# Indices 1 2 3 4 5 6 
#
# 1 0.011019 0.000934 -0.003811 0.000000 -0.008307 0.000000
# 2 0.000934 0.035718 -0.000745 0.000000 -0.007174 0.000000
# 3 -0.003811 -0.000745 0.009251 0.000000 0.000717 0.000000
# 4 0.000000 0.000000 0.000000 0.017787 0.000000 -0.069973
# 5 -0.008307 -0.007174 0.000717 0.000000 0.030686 0.000000
# 6 0.000000 0.000000 0.000000 -0.069973 0.000000 0.032780
#
#
# Mechanical properties :
#
#
# Convention : Reuss Voigt Hill
#
# Bulk Modulus (GPa) = 20.51566 46.81688 33.66627
# Shear Modulus (GPa) = 31.10756 22.05549 26.58153
#
# Velocity S-wave (km/s) = 3.71904 3.13153 3.43785
# Velocity P-wave (km/s) = 5.25009 5.82162 5.54323
#
# Compressibility (1/GPa) = 0.04874326
#
# Stress axis : x y z
#
# Youngs Moduli (GPa) = 90.75391 27.99734 108.09577
#
# Poissons Ratio (x) = -0.02614 0.41190
# Poissons Ratio (y) = -0.08473 0.08056
# Poissons Ratio (z) = 0.34582 0.02087
#
# Static dielectric constant tensor:
#      x y z
#    x 1.889150 0.000000 0.017570 
#    y 0.000000 1.834070 0.000000 
#    z 0.017570 0.000000 1.800150 
# 
# From -- ./inp_files/80536.got.cif
#   From: 2010.05.17/outbox.cif.g08.bks.cpg/sg12_41_cif.got.tgz:80536.got - 2010.06.03 13:09:07.
