data_PCOD9214253
_publ_section_title
;
Structure prediction by ZEFSAII (Michael W. Deem and Ramdas Pophale) SiO2 
 PCOD9214253
Probable space group: C 2/M
;
_chemical_formula_sum "Si O2"
_cell_formula_units_Z 64
_cell_length_a 18.439423
_cell_length_b 23.756570
_cell_length_c 14.029117
_cell_angle_alpha 90.000000
_cell_angle_beta 150.091305
_cell_angle_gamma 90.000000
_cell_volume 3064.294334
_symmetry_space_group_name_H-M "C 2/M"
_symmetry_group_IT_number 12
_symmetry_cell_setting 'monoclinic'
loop_
_space_group_symop_operation_xyz
x,y,z
-x,y,-z
-x,-y,-z
x,-y,z
1/2+x,1/2+y,z
1/2-x,1/2+y,-z
1/2-x,1/2-y,-z
1/2+x,1/2-y,z
loop_
_atom_site_type_symbol
_atom_site_label
_atom_site_fract_x
_atom_site_fract_y
_atom_site_fract_z
Si Si1 0.662437 0.435804 0.726278
Si Si2 0.606743 0.829179 0.712119
Si Si3 0.519114 0.435702 0.132747
Si Si4 0.850923 0.331615 0.883791
Si Si5 0.482985 0.220959 0.754503
Si Si6 0.691373 0.333175 0.395467
Si Si7 0.674493 0.714866 0.180235
Si Si8 0.239661 0.437119 0.945652
O O1 0.500000 0.430518 0.500000
O O2 0.710712 0.500000 0.759747
O O3 0.757930 0.386811 0.789656
O O4 0.681579 0.428584 0.862430
O O5 0.500000 0.833690 0.500000
O O6 0.546318 0.785737 0.721086
O O7 0.761488 0.809864 0.843882
O O8 0.628660 0.887791 0.792944
O O9 0.575356 0.500000 0.195879
O O10 0.617638 0.393853 0.307848
O O11 0.362479 0.436174 0.004168
O O12 0.500000 0.417571 0.000000
O O13 0.772017 0.278829 0.743661
O O14 0.000000 0.344774 0.000000
O O15 0.896295 0.301190 0.034541
O O16 0.420345 0.283618 0.701207
O O17 0.345415 0.179542 0.618492
O O18 0.730467 0.322672 0.329475
O O19 0.500000 0.716464 0.000000
O O20 0.173833 0.500000 0.872516
#
# Coordination Sequence:
#
# PCOD9214253 Si02
#       8
#     8   8   8   8   8   8   8   8
#     4  10  23  45  68  92 127 170 221 281 338 390
#     4  12  24  40  65  99 131 166 223 264 321 412
#     4  10  22  39  65  96 127 174 227 265 318 397
#     4  11  23  42  64  95 127 165 219 267 332 401
#     4  11  24  39  63  99 131 175 214 267 340 394
#     4  11  21  41  63  90 139 175 207 275 334 386
#     4  11  22  40  61  90 128 170 206 264 327 381
#     4  10  22  41  64  91 128 171 215 272 333 391
#
# _framework density 20.885724
#
# number of rings (size 3 to 8) (size 9 to 14) (size 15 to 20)
#    0.000    1.250    5.000    1.875    0.000    3.500 
#    0.000    1.250    0.000    0.000    0.000    0.000 
#    0.000    0.000    0.000    0.000    0.000    0.000 
#
# Total GULP energy -178612.083857 kJ/mol
# GULP energy per Si atom -5581.627621 kJ/mol
# Density = 2.083819 g / cm^3
# Si number density = 20.885724 Si / 1000 Ang^3
#
#
#
# Elastic Constant Matrix: (Units=GPa)
#
#
# Indices 1 2 3 4 5 6 
#
# 1 82.8260 25.6873 6.6178 0.0000 -1.2859 0.0000
# 2 25.6873 136.3441 34.3392 0.0000 7.2095 0.0000
# 3 6.6178 34.3392 60.2401 0.0000 -7.2022 0.0000
# 4 0.0000 0.0000 0.0000 27.2063 0.0000 1.3191
# 5 -1.2859 7.2095 -7.2022 0.0000 23.9798 0.0000
# 6 0.0000 0.0000 0.0000 1.3191 0.0000 30.3876
#
#
#
# Elastic Compliance Matrix: (Units=1/GPa)
#
#
# Indices 1 2 3 4 5 6 
#
# 1 0.012874 -0.002564 0.000231 0.000000 0.001531 0.000000
# 2 -0.002564 0.009501 -0.005697 0.000000 -0.004705 0.000000
# 3 0.000231 -0.005697 0.020775 0.000000 0.007965 0.000000
# 4 0.000000 0.000000 0.000000 0.036834 0.000000 -0.001599
# 5 0.001531 -0.004705 0.007965 0.000000 0.045591 0.000000
# 6 0.000000 0.000000 0.000000 -0.001599 0.000000 0.032978
#
#
# Mechanical properties :
#
#
# Convention : Reuss Voigt Hill
#
# Bulk Modulus (GPa) = 36.91627 45.85543 41.38585
# Shear Modulus (GPa) = 27.22679 30.49913 28.86296
#
# Velocity S-wave (km/s) = 3.61447 3.82551 3.72149
# Velocity P-wave (km/s) = 5.92730 6.44328 6.19067
#
# Compressibility (1/GPa) = 0.02708833
#
# Stress axis : x y z
#
# Youngs Moduli (GPa) = 77.67485 105.25090 48.13582
#
# Poissons Ratio (x) = 0.26992 -0.01110
# Poissons Ratio (y) = 0.19920 0.27422
# Poissons Ratio (z) = -0.01791 0.59959
#
# Static dielectric constant tensor:
#      x y z
#    x 1.767280 0.000000 -0.045000 
#    y 0.000000 1.770770 0.000000 
#    z -0.045000 0.000000 1.829380 
# 
# From -- ./inp_files/228160.got.cif
#   From: 2010.05.17/outbox.cif.g08.bks.cpg/sg12_115_cif.got.tgz:228160.got - 2010.06.03 13:09:07.
