data_PCOD9214732
_publ_section_title
;
Structure prediction by ZEFSAII (Michael W. Deem and Ramdas Pophale) SiO2 
 PCOD9214732
Probable space group: C 2/M
;
_chemical_formula_sum "Si O2"
_cell_formula_units_Z 60
_cell_length_a 14.907053
_cell_length_b 28.231494
_cell_length_c 19.769111
_cell_angle_alpha 90.000000
_cell_angle_beta 160.123088
_cell_angle_gamma 90.000000
_cell_volume 2828.736597
_symmetry_space_group_name_H-M "C 2/M"
_symmetry_group_IT_number 12
_symmetry_cell_setting 'monoclinic'
loop_
_space_group_symop_operation_xyz
x,y,z
-x,y,-z
-x,-y,-z
x,-y,z
1/2+x,1/2+y,z
1/2-x,1/2+y,-z
1/2-x,1/2-y,-z
1/2+x,1/2-y,z
loop_
_atom_site_type_symbol
_atom_site_label
_atom_site_fract_x
_atom_site_fract_y
_atom_site_fract_z
Si Si1 0.772151 0.053752 0.495354
Si Si2 0.733814 0.554120 0.349659
Si Si3 0.678918 0.803391 0.975255
Si Si4 0.860801 0.791139 0.333602
Si Si5 0.500000 0.629408 0.000000
Si Si6 0.568776 0.348895 0.355966
Si Si7 0.443593 0.819247 0.382516
Si Si8 0.703093 0.100609 0.913047
O O1 0.687999 0.053005 0.515529
O O2 0.973532 0.097691 0.647238
O O3 0.561431 0.069445 0.287812
O O4 0.863712 0.000000 0.545964
O O5 0.684518 0.500000 0.292754
O O6 0.000000 0.570497 0.500000
O O7 0.455381 0.581246 0.136352
O O8 0.444521 0.796424 0.863441
O O9 0.624936 0.845561 0.881742
O O10 0.750000 0.750000 0.000000
O O11 0.914595 0.827234 0.183337
O O12 0.943081 0.737085 0.379495
O O13 0.000000 0.808743 0.500000
O O14 0.974253 0.818149 0.351064
O O15 0.343679 0.662463 0.838175
O O16 0.316894 0.599469 0.918009
O O17 0.865814 0.341289 0.539218
O O18 0.500000 0.831345 0.500000
#
# Coordination Sequence:
#
# PCOD9214732 Si02
#       8
#     8   8   8   8   4   8   8   8
#     4  11  24  43  66  96 131 177 234 290 347 408
#     4  10  22  40  63  94 135 180 230 290 352 412
#     4  12  26  44  70 105 140 182 228 281 342 418
#     4  11  25  44  66  99 135 178 231 280 342 411
#     4  12  24  34  65  94 138 180 227 272 338 410
#     4  12  24  45  71  95 140 183 226 287 345 409
#     4  11  25  43  64  99 138 184 228 277 338 412
#     4  12  23  40  66  97 136 182 230 282 346 411
#
# _framework density 21.210882999999999
#
# number of rings (size 3 to 8) (size 9 to 14) (size 15 to 20)
#    0.000    0.667    2.667    6.000    3.733    0.000 
#    0.000    2.667    0.000    6.000    0.000    0.000 
#    0.000    0.000    0.000    0.000    0.000    0.000 
#
# Total GULP energy -167182.364439 kJ/mol
# GULP energy per Si atom -5572.745481 kJ/mol
# Density = 2.116261 g / cm^3
# Si number density = 21.210883 Si / 1000 Ang^3
#
#
#
# Elastic Constant Matrix: (Units=GPa)
#
#
# Indices 1 2 3 4 5 6 
#
# 1 183.8626 44.6008 15.5453 0.0078 -31.9897 -0.0068
# 2 44.6008 177.1316 36.3726 0.0000 -6.7221 -0.0001
# 3 15.5453 36.3726 87.7984 -0.0005 -23.8397 0.0050
# 4 0.0078 0.0000 -0.0005 29.1179 -0.0012 -7.4172
# 5 -31.9897 -6.7221 -23.8397 -0.0012 43.7912 0.0010
# 6 -0.0068 -0.0001 0.0050 -7.4172 0.0010 18.8286
#
#
#
# Elastic Compliance Matrix: (Units=1/GPa)
#
#
# Indices 1 2 3 4 5 6 
#
# 1 0.006653 -0.001666 0.000895 -0.000001 0.005091 0.000001
# 2 -0.001666 0.006598 -0.002926 0.000000 -0.001797 0.000000
# 3 0.000895 -0.002926 0.014667 -0.000001 0.008189 -0.000004
# 4 -0.000001 0.000000 -0.000001 0.038174 -0.000001 0.015038
# 5 0.005091 -0.001797 0.008189 -0.000001 0.030737 -0.000002
# 6 0.000001 0.000000 -0.000004 0.015038 -0.000002 0.059034
#
#
# Mechanical properties :
#
#
# Convention : Reuss Voigt Hill
#
# Bulk Modulus (GPa) = 48.72564 71.31445 60.02004
# Shear Modulus (GPa) = 29.39465 41.83248 35.61357
#
# Velocity S-wave (km/s) = 3.72671 4.44578 4.10203
# Velocity P-wave (km/s) = 6.44513 7.74906 7.12698
#
# Compressibility (1/GPa) = 0.02052308
#
# Stress axis : x y z
#
# Youngs Moduli (GPa) = 150.30562 151.56993 68.17953
#
# Poissons Ratio (x) = 0.25247 -0.06099
# Poissons Ratio (y) = 0.25036 0.19951
# Poissons Ratio (z) = -0.13445 0.44353
#
# Static dielectric constant tensor:
#      x y z
#    x 1.674020 0.000000 -0.064920 
#    y 0.000000 1.787660 0.000000 
#    z -0.064920 0.000000 1.940080 
# 
# From -- ./inp_files/312773.got.cif
#   From: 2010.05.17/outbox.cif.g08.bks.cpg/sg12_157_cif.got.tgz:312773.got - 2010.06.03 13:09:07.
