data_PCOD9214005
_publ_section_title
;
Structure prediction by ZEFSAII (Michael W. Deem and Ramdas Pophale) SiO2 
 PCOD9214005
Probable space group: C 2/M
;
_chemical_formula_sum "Si O2"
_cell_formula_units_Z 56
_cell_length_a 9.093898
_cell_length_b 14.144835
_cell_length_c 23.971811
_cell_angle_alpha 90.000000
_cell_angle_beta 117.774732
_cell_angle_gamma 90.000000
_cell_volume 2728.269899
_symmetry_space_group_name_H-M "C 2/M"
_symmetry_group_IT_number 12
_symmetry_cell_setting 'monoclinic'
loop_
_space_group_symop_operation_xyz
x,y,z
-x,y,-z
-x,-y,-z
x,-y,z
1/2+x,1/2+y,z
1/2-x,1/2+y,-z
1/2-x,1/2-y,-z
1/2+x,1/2-y,z
loop_
_atom_site_type_symbol
_atom_site_label
_atom_site_fract_x
_atom_site_fract_y
_atom_site_fract_z
Si Si1 0.160991 0.237886 0.894886
Si Si2 0.271972 0.393097 0.311060
Si Si3 0.008713 0.612963 0.582685
Si Si4 0.617234 0.102587 0.727618
Si Si5 0.695910 0.780288 0.194067
Si Si6 0.839819 0.792427 0.437409
Si Si7 0.325460 0.604894 0.000412
O O1 0.285535 0.206123 0.868548
O O2 0.140106 0.151712 0.933727
O O3 0.999941 0.271149 0.832639
O O4 0.218482 0.324478 0.943637
O O5 0.333973 0.500000 0.326324
O O6 0.287397 0.353066 0.251444
O O7 0.344204 0.331982 0.374745
O O8 0.073908 0.392668 0.286910
O O9 0.983450 0.500000 0.563833
O O10 0.831596 0.668346 0.564311
O O11 0.104277 0.612160 0.658735
O O12 0.125168 0.678914 0.563535
O O13 0.727417 0.181219 0.774435
O O14 0.684505 0.000000 0.754394
O O15 0.000000 0.828194 0.500000
O O16 0.252519 0.500000 0.992240
O O17 0.500000 0.598970 0.000000
#
# Coordination Sequence:
#
# PCOD9214005 Si02
#       7
#     8   8   8   8   8   8   8
#     4  11  24  38  63  96 119 158 200 251 302 362
#     4  10  22  39  61  89 125 166 210 262 323 381
#     4  10  22  41  64  93 128 169 219 273 332 396
#     4   9  19  37  61  84 117 165 204 247 314 383
#     4  12  21  38  62  89 127 154 201 258 310 368
#     4  11  22  41  68  93 129 175 223 276 331 394
#     4  10  22  43  65  88 122 161 203 242 293 366
#
# _framework density 20.525829000000002
#
# number of rings (size 3 to 8) (size 9 to 14) (size 15 to 20)
#    0.000    1.571    4.286    1.714    0.000    3.714 
#    0.000    2.143    0.000    0.000    0.000    0.000 
#    0.000    0.000    0.000    0.000    0.000    0.000 
#
# Total GULP energy -156115.051047 kJ/mol
# GULP energy per Si atom -5575.537537 kJ/mol
# Density = 2.047911 g / cm^3
# Si number density = 20.525829 Si / 1000 Ang^3
#
#
#
# Elastic Constant Matrix: (Units=GPa)
#
#
# Indices 1 2 3 4 5 6 
#
# 1 32.4939 25.6171 11.0313 0.0000 -0.5127 0.0000
# 2 25.6171 140.3350 39.8271 0.0000 -3.4666 0.0000
# 3 11.0313 39.8271 84.0357 0.0000 -7.9107 0.0000
# 4 0.0000 0.0000 0.0000 -3.9522 0.0000 12.2127
# 5 -0.5127 -3.4666 -7.9107 0.0000 29.1871 0.0000
# 6 0.0000 0.0000 0.0000 12.2127 0.0000 16.3843
#
#
#
# Elastic Compliance Matrix: (Units=1/GPa)
#
#
# Indices 1 2 3 4 5 6 
#
# 1 0.036212 -0.006077 -0.001931 0.000000 -0.000609 0.000000
# 2 -0.006077 0.009253 -0.003586 0.000000 0.000020 0.000000
# 3 -0.001931 -0.003586 0.014171 0.000000 0.003381 0.000000
# 4 0.000000 0.000000 0.000000 -0.076596 0.000000 0.057094
# 5 -0.000609 0.000020 0.003381 0.000000 0.035170 0.000000
# 6 0.000000 0.000000 0.000000 0.057094 0.000000 0.018476
#
#
# Mechanical properties :
#
#
# Convention : Reuss Voigt Hill
#
# Bulk Modulus (GPa) = 27.43582 45.53505 36.48543
# Shear Modulus (GPa) = 69.42238 20.34979 44.88608
#
# Velocity S-wave (km/s) = 5.82197 3.15210 4.68141
# Velocity P-wave (km/s) = 7.65437 5.95652 6.85819
#
# Compressibility (1/GPa) = 0.03644870
#
# Stress axis : x y z
#
# Youngs Moduli (GPa) = 27.61516 108.06935 70.56771
#
# Poissons Ratio (x) = 0.65678 0.13624
# Poissons Ratio (y) = 0.16783 0.25304
# Poissons Ratio (z) = 0.05331 0.38751
#
# Static dielectric constant tensor:
#      x y z
#    x 1.827350 0.000000 -0.055750 
#    y 0.000000 1.748470 0.000000 
#    z -0.055750 0.000000 1.721450 
# 
# From -- ./inp_files/332858.got.cif
#   From: 2010.05.17/outbox.cif.g08.bks.cpg/sg12_167_cif.got.tgz:332858.got - 2010.06.03 13:09:07.
