data_PCOD9214779
_publ_section_title
;
Structure prediction by ZEFSAII (Michael W. Deem and Ramdas Pophale) SiO2 
 PCOD9214779
Probable space group: C 2/M
;
_chemical_formula_sum "Si O2"
_cell_formula_units_Z 52
_cell_length_a 14.909625
_cell_length_b 10.440158
_cell_length_c 17.888188
_cell_angle_alpha 90.000000
_cell_angle_beta 82.449068
_cell_angle_gamma 90.000000
_cell_volume 2760.309044
_symmetry_space_group_name_H-M "C 2/M"
_symmetry_group_IT_number 12
_symmetry_cell_setting 'monoclinic'
loop_
_space_group_symop_operation_xyz
x,y,z
-x,y,-z
-x,-y,-z
x,-y,z
1/2+x,1/2+y,z
1/2-x,1/2+y,-z
1/2-x,1/2-y,-z
1/2+x,1/2-y,z
loop_
_atom_site_type_symbol
_atom_site_label
_atom_site_fract_x
_atom_site_fract_y
_atom_site_fract_z
Si Si1 0.540418 0.000000 0.578429
Si Si2 0.851010 0.649264 0.786925
Si Si3 0.819312 0.253790 0.268379
Si Si4 0.936768 0.000000 0.579234
Si Si5 0.596868 0.153726 0.896451
Si Si6 0.769585 0.500000 0.373384
Si Si7 0.499539 0.737226 0.329865
Si Si8 0.617277 0.846491 0.056469
O O1 0.500000 0.000000 0.500000
O O2 0.649482 0.000000 0.574922
O O3 0.509205 0.128806 0.624346
O O4 0.878652 0.500000 0.786751
O O5 0.765160 0.665401 0.742745
O O6 0.831170 0.693590 0.874080
O O7 0.932192 0.732293 0.744875
O O8 0.862095 0.292613 0.183893
O O9 0.783288 0.377160 0.318040
O O10 0.901294 0.199666 0.308793
O O11 0.828880 0.000000 0.578717
O O12 0.000000 0.000000 0.500000
O O13 0.960891 0.126043 0.623702
O O14 0.488993 0.177503 0.914495
O O15 0.608094 0.000000 0.892031
O O16 0.637165 0.203920 0.971124
O O17 0.628136 0.000000 0.049336
#
# Coordination Sequence:
#
# PCOD9214779 Si02
#       8
#     4   8   8   4   8   4   8   8
#     4  10  22  44  66  91 117 153 195 243 289 357
#     4  11  21  36  57  87 123 156 205 252 296 348
#     4  11  21  35  61  89 118 157 200 251 291 354
#     4  12  26  48  64  90 126 158 187 246 312 373
#     4   9  15  28  53  83 116 155 206 250 296 338
#     4  10  22  40  64  92 113 151 206 231 290 371
#     4  11  23  41  65  89 121 157 198 242 303 357
#     4   8  16  28  49  82 117 158 203 253 293 341
#
# _framework density 18.838470999999998
#
# number of rings (size 3 to 8) (size 9 to 14) (size 15 to 20)
#    0.000    1.846    4.615    1.385    1.077    0.615 
#    2.769    2.308    0.000    0.000    0.000    2.154 
#    0.000    0.000    0.000    0.000    0.000    0.000 
#
# Total GULP energy -144984.127893 kJ/mol
# GULP energy per Si atom -5576.312611 kJ/mol
# Density = 1.879559 g / cm^3
# Si number density = 18.838471 Si / 1000 Ang^3
#
#
#
# Elastic Constant Matrix: (Units=GPa)
#
#
# Indices 1 2 3 4 5 6 
#
# 1 87.6466 16.0145 38.7509 0.0000 7.8354 0.0000
# 2 16.0145 47.8435 14.2686 0.0000 4.8737 0.0000
# 3 38.7509 14.2686 105.3988 0.0000 8.0541 0.0000
# 4 0.0000 0.0000 0.0000 7.1353 0.0000 -9.6942
# 5 7.8354 4.8737 8.0541 0.0000 37.5818 0.0000
# 6 0.0000 0.0000 0.0000 -9.6942 0.0000 11.5937
#
#
#
# Elastic Compliance Matrix: (Units=1/GPa)
#
#
# Indices 1 2 3 4 5 6 
#
# 1 0.014196 -0.003203 -0.004668 0.000000 -0.001544 0.000000
# 2 -0.003203 0.022689 -0.001749 0.000000 -0.001900 0.000000
# 3 -0.004668 -0.001749 0.011538 0.000000 -0.001273 0.000000
# 4 0.000000 0.000000 0.000000 -1.030176 0.000000 -0.861399
# 5 -0.001544 -0.001900 -0.001273 0.000000 0.027450 0.000000
# 6 0.000000 0.000000 0.000000 -0.861399 0.000000 -0.634020
#
#
# Mechanical properties :
#
#
# Convention : Reuss Voigt Hill
#
# Bulk Modulus (GPa) = 34.26495 42.10633 38.18564
# Shear Modulus (GPa) = -3.20645 22.71914 9.75634
#
# Velocity S-wave (km/s) = -1.30605 3.47651 2.27820
# Velocity P-wave (km/s) = 3.99424 6.20602 5.21865
#
# Compressibility (1/GPa) = 0.02918434
#
# Stress axis : x y z
#
# Youngs Moduli (GPa) = 70.44014 44.07505 86.67014
#
# Poissons Ratio (x) = 0.14115 0.40457
# Poissons Ratio (y) = 0.22559 0.15158
# Poissons Ratio (z) = 0.32881 0.07708
#
# Static dielectric constant tensor:
#      x y z
#    x 1.675980 0.000000 0.023620 
#    y 0.000000 1.617980 0.000000 
#    z 0.023620 0.000000 1.693920 
# 
# From -- ./inp_files/268141.got.cif
#   From: 2010.05.17/outbox.cif.g08.bks.cpg/sg12_135_cif.got.tgz:268141.got - 2010.06.03 13:09:07.
