data_PCOD9214605
_publ_section_title
;
Structure prediction by ZEFSAII (Michael W. Deem and Ramdas Pophale) SiO2 
 PCOD9214605
Probable space group: C 2/M
;
_chemical_formula_sum "Si O2"
_cell_formula_units_Z 64
_cell_length_a 14.664242
_cell_length_b 9.856230
_cell_length_c 25.304603
_cell_angle_alpha 90.000000
_cell_angle_beta 123.677880
_cell_angle_gamma 90.000000
_cell_volume 3043.554813
_symmetry_space_group_name_H-M "C 2/M"
_symmetry_group_IT_number 12
_symmetry_cell_setting 'monoclinic'
loop_
_space_group_symop_operation_xyz
x,y,z
-x,y,-z
-x,-y,-z
x,-y,z
1/2+x,1/2+y,z
1/2-x,1/2+y,-z
1/2-x,1/2-y,-z
1/2+x,1/2-y,z
loop_
_atom_site_type_symbol
_atom_site_label
_atom_site_fract_x
_atom_site_fract_y
_atom_site_fract_z
Si Si1 0.679535 0.347797 0.359420
Si Si2 0.911103 0.655707 0.385641
Si Si3 0.086931 0.269646 0.225641
Si Si4 0.146240 0.653075 0.819544
Si Si5 0.172786 0.162912 0.047242
Si Si6 0.001915 0.837611 0.086684
Si Si7 0.652040 0.839836 0.445329
Si Si8 0.821180 0.848208 0.267710
O O1 0.658982 0.500000 0.373653
O O2 0.626700 0.333482 0.284221
O O3 0.634839 0.228750 0.382256
O O4 0.811528 0.331477 0.395074
O O5 0.901655 0.500000 0.361771
O O6 0.038295 0.672016 0.441398
O O7 0.886317 0.765730 0.332986
O O8 0.042551 0.209530 0.156462
O O9 0.195884 0.351630 0.246951
O O10 0.983412 0.348379 0.215115
O O11 0.185073 0.500000 0.818797
O O12 0.207532 0.699503 0.892950
O O13 0.174409 0.759278 0.783438
O O14 0.093194 0.194476 0.071393
O O15 0.174406 0.000000 0.041486
O O16 0.112162 0.217082 0.975453
O O17 0.994181 0.000000 0.086809
O O18 0.750000 0.750000 0.500000
O O19 0.678642 0.000000 0.450376
O O20 0.863292 0.000000 0.273204
#
# Coordination Sequence:
#
# PCOD9214605 Si02
#       8
#     8   8   8   8   8   8   8   8
#     4  10  22  40  62  91 124 160 204 247 292 350
#     4   9  21  41  64  89 122 166 204 238 287 352
#     4  11  22  35  59  89 121 155 194 251 308 358
#     4  11  22  37  57  81 113 158 203 244 303 374
#     4   8  16  31  54  81 110 152 203 250 294 360
#     4   9  16  31  56  84 113 151 202 251 298 356
#     4  11  24  43  67  94 126 162 199 242 292 346
#     4  11  23  38  57  86 123 157 196 251 304 348
#
# _framework density 21.028041999999999
#
# number of rings (size 3 to 8) (size 9 to 14) (size 15 to 20)
#    0.000    2.000    1.250    3.000    0.000    8.500 
#    0.000    2.500    0.000    2.250    0.000    0.000 
#    0.000    0.000    0.000    0.000    0.000    0.000 
#
# Total GULP energy -178491.246207 kJ/mol
# GULP energy per Si atom -5577.851444 kJ/mol
# Density = 2.098018 g / cm^3
# Si number density = 21.028042 Si / 1000 Ang^3
#
#
#
# Elastic Constant Matrix: (Units=GPa)
#
#
# Indices 1 2 3 4 5 6 
#
# 1 64.4424 26.4600 20.4203 0.0000 23.2244 0.0000
# 2 26.4600 95.5023 22.1873 0.0000 6.5778 0.0000
# 3 20.4203 22.1873 85.2635 0.0000 16.1246 0.0000
# 4 0.0000 0.0000 0.0000 19.4043 0.0000 -1.4319
# 5 23.2244 6.5778 16.1246 0.0000 39.1876 0.0000
# 6 0.0000 0.0000 0.0000 -1.4319 0.0000 16.6246
#
#
#
# Elastic Compliance Matrix: (Units=1/GPa)
#
#
# Indices 1 2 3 4 5 6 
#
# 1 0.022337 -0.004955 -0.001859 0.000000 -0.011641 0.000000
# 2 -0.004955 0.012263 -0.002354 0.000000 0.001847 0.000000
# 3 -0.001859 -0.002354 0.013558 0.000000 -0.004082 0.000000
# 4 0.000000 0.000000 0.000000 0.051865 0.000000 0.004467
# 5 -0.011641 0.001847 -0.004082 0.000000 0.033787 0.000000
# 6 0.000000 0.000000 0.000000 0.004467 0.000000 0.060537
#
#
# Mechanical properties :
#
#
# Convention : Reuss Voigt Hill
#
# Bulk Modulus (GPa) = 33.53083 42.59371 38.06227
# Shear Modulus (GPa) = 22.45961 26.78601 24.62281
#
# Velocity S-wave (km/s) = 3.27169 3.57294 3.42563
# Velocity P-wave (km/s) = 5.50021 6.10908 5.81262
#
# Compressibility (1/GPa) = 0.02982330
#
# Stress axis : x y z
#
# Youngs Moduli (GPa) = 44.76967 81.54325 73.75744
#
# Poissons Ratio (x) = 0.40405 0.13709
# Poissons Ratio (y) = 0.22183 0.17360
# Poissons Ratio (z) = 0.08321 0.19193
#
# Static dielectric constant tensor:
#      x y z
#    x 1.787050 0.000000 0.021860 
#    y 0.000000 1.719500 0.000000 
#    z 0.021860 0.000000 1.797350 
# 
# From -- ./inp_files/375598.got.cif
#   From: 2010.05.17/outbox.cif.g08.bks.cpg/sg12_188_cif.got.tgz:375598.got - 2010.06.03 13:09:07.
