data_PCOD9214401
_publ_section_title
;
Structure prediction by ZEFSAII (Michael W. Deem and Ramdas Pophale) SiO2 
 PCOD9214401
Probable space group: C 2/M
;
_chemical_formula_sum "Si O2"
_cell_formula_units_Z 48
_cell_length_a 9.276884
_cell_length_b 23.244959
_cell_length_c 12.735688
_cell_angle_alpha 90.000000
_cell_angle_beta 109.488633
_cell_angle_gamma 90.000000
_cell_volume 2588.990011
_symmetry_space_group_name_H-M "C 2/M"
_symmetry_group_IT_number 12
_symmetry_cell_setting 'monoclinic'
loop_
_space_group_symop_operation_xyz
x,y,z
-x,y,-z
-x,-y,-z
x,-y,z
1/2+x,1/2+y,z
1/2-x,1/2+y,-z
1/2-x,1/2-y,-z
1/2+x,1/2-y,z
loop_
_atom_site_type_symbol
_atom_site_label
_atom_site_fract_x
_atom_site_fract_y
_atom_site_fract_z
Si Si1 0.897128 0.173241 0.875762
Si Si2 0.611188 0.754636 0.783256
Si Si3 0.230067 0.566347 0.718452
Si Si4 0.009188 0.939101 0.375956
Si Si5 0.361394 0.331111 0.387489
Si Si6 0.960857 0.352903 0.609682
O O1 0.755168 0.214787 0.873431
O O2 0.821879 0.115611 0.806262
O O3 0.005229 0.211632 0.824771
O O4 0.000000 0.157334 0.000000
O O5 0.675776 0.720963 0.697403
O O6 0.514826 0.805747 0.706982
O O7 0.232617 0.500000 0.758961
O O8 0.322088 0.565124 0.630527
O O9 0.059149 0.590005 0.658640
O O10 0.916332 0.882757 0.325456
O O11 0.000000 0.939784 0.500000
O O12 0.944751 0.000000 0.321583
O O13 0.500000 0.315775 0.500000
O O14 0.219918 0.354215 0.419478
O O15 0.000000 0.335871 0.500000
#
# Coordination Sequence:
#
# PCOD9214401 Si02
#       6
#     8   8   8   8   8   8
#     4  11  23  41  63  87 114 149 197 249 298 343
#     4  11  22  38  58  87 116 151 190 238 294 345
#     4  10  22  40  60  85 118 154 196 240 288 343
#     4   9  17  31  53  79 109 148 190 228 272 334
#     4  11  21  33  56  83 119 157 191 230 278 350
#     4  11  23  35  56  89 122 159 190 231 286 344
#
# _framework density 18.540047000000001
#
# number of rings (size 3 to 8) (size 9 to 14) (size 15 to 20)
#    0.000    1.500    3.333    3.000    2.333    2.667 
#    0.000    0.000    0.000    0.000    0.000    1.167 
#    0.000    0.000    0.000    0.000    0.000    0.000 
#
# Total GULP energy -133681.296291 kJ/mol
# GULP energy per Si atom -5570.054012 kJ/mol
# Density = 1.849785 g / cm^3
# Si number density = 18.540047 Si / 1000 Ang^3
#
#
#
# Elastic Constant Matrix: (Units=GPa)
#
#
# Indices 1 2 3 4 5 6 
#
# 1 114.5712 32.1985 24.3604 0.0000 8.6626 0.0000
# 2 32.1985 102.7387 23.9560 0.0000 4.9982 0.0000
# 3 24.3604 23.9560 65.1476 0.0000 15.2038 0.0000
# 4 0.0000 0.0000 0.0000 13.1714 0.0000 1.1248
# 5 8.6626 4.9982 15.2038 0.0000 24.0615 0.0000
# 6 0.0000 0.0000 0.0000 1.1248 0.0000 7.0754
#
#
#
# Elastic Compliance Matrix: (Units=1/GPa)
#
#
# Indices 1 2 3 4 5 6 
#
# 1 0.010077 -0.002503 -0.002489 0.000000 -0.001535 0.000000
# 2 -0.002503 0.011270 -0.003369 0.000000 0.000689 0.000000
# 3 -0.002489 -0.003369 0.020113 0.000000 -0.011113 0.000000
# 4 0.000000 0.000000 0.000000 0.076967 0.000000 -0.012235
# 5 -0.001535 0.000689 -0.011113 0.000000 0.048991 0.000000
# 6 0.000000 0.000000 0.000000 -0.012235 0.000000 0.143280
#
#
# Mechanical properties :
#
#
# Convention : Reuss Voigt Hill
#
# Bulk Modulus (GPa) = 40.42533 49.27638 44.85086
# Shear Modulus (GPa) = 14.89573 22.32451 18.61012
#
# Velocity S-wave (km/s) = 2.83757 3.47381 3.17169
# Velocity P-wave (km/s) = 5.70854 6.53650 6.13650
#
# Compressibility (1/GPa) = 0.02473696
#
# Stress axis : x y z
#
# Youngs Moduli (GPa) = 99.23593 88.73176 49.71940
#
# Poissons Ratio (x) = 0.22210 0.12377
# Poissons Ratio (y) = 0.24839 0.16750
# Poissons Ratio (z) = 0.24704 0.29894
#
# Static dielectric constant tensor:
#      x y z
#    x 1.678030 0.000000 0.013820 
#    y 0.000000 1.710470 0.000000 
#    z 0.013820 0.000000 1.626900 
# 
# From -- ./inp_files/121837.got.cif
#   From: 2010.05.17/outbox.cif.g08.bks.cpg/sg12_61_cif.got.tgz:121837.got - 2010.06.03 13:09:07.
