data_PCOD9214715
_publ_section_title
;
Structure prediction by ZEFSAII (Michael W. Deem and Ramdas Pophale) SiO2 
 PCOD9214715
Probable space group: C 2/M
;
_chemical_formula_sum "Si O2"
_cell_formula_units_Z 52
_cell_length_a 13.881268
_cell_length_b 11.809503
_cell_length_c 15.566937
_cell_angle_alpha 90.000000
_cell_angle_beta 62.504650
_cell_angle_gamma 90.000000
_cell_volume 2263.660006
_symmetry_space_group_name_H-M "C 2/M"
_symmetry_group_IT_number 12
_symmetry_cell_setting 'monoclinic'
loop_
_space_group_symop_operation_xyz
x,y,z
-x,y,-z
-x,-y,-z
x,-y,z
1/2+x,1/2+y,z
1/2-x,1/2+y,-z
1/2-x,1/2-y,-z
1/2+x,1/2-y,z
loop_
_atom_site_type_symbol
_atom_site_label
_atom_site_fract_x
_atom_site_fract_y
_atom_site_fract_z
Si Si1 0.397410 0.374171 0.769465
Si Si2 0.280699 0.838488 0.621956
Si Si3 0.217029 0.620838 0.571739
Si Si4 0.959614 0.628284 0.669087
Si Si5 0.087086 0.876892 0.833626
Si Si6 0.283696 0.125201 0.022710
Si Si7 0.500000 0.801103 0.000000
O O1 0.414514 0.500000 0.718970
O O2 0.412698 0.248165 0.723559
O O3 0.485013 0.373529 0.811142
O O4 0.279132 0.377427 0.860880
O O5 0.280769 0.705964 0.604459
O O6 0.243600 0.879775 0.543133
O O7 0.397413 0.879249 0.603951
O O8 0.193856 0.865953 0.730870
O O9 0.227699 0.500000 0.607650
O O10 0.088796 0.646502 0.616602
O O11 0.941419 0.500000 0.715866
O O12 0.089852 0.000000 0.875268
O O13 0.070207 0.779281 0.908962
O O14 0.412861 0.130194 0.981263
O O15 0.256024 0.000000 0.993131
O O16 0.250000 0.250000 0.000000
#
# Coordination Sequence:
#
# PCOD9214715 Si02
#       7
#     8   8   8   8   8   8   4
#     4  10  22  42  63  91 131 171 207 261 323 378
#     4  11  22  39  64  93 129 168 217 261 317 377
#     4  10  22  40  63  93 131 170 212 263 318 376
#     4  11  22  40  65  96 126 169 216 261 313 374
#     4  11  22  39  64  94 129 169 212 262 321 385
#     4  11  24  43  64  91 126 164 209 262 320 377
#     4  12  24  42  68  98 123 162 221 266 323 378
#
# _framework density 22.971647999999998
#
# number of rings (size 3 to 8) (size 9 to 14) (size 15 to 20)
#    0.000    1.231    3.077    3.231    0.000    3.077 
#    0.000    1.538    0.000    2.769    0.000    0.000 
#    0.000    0.000    0.000    0.000    0.000    0.000 
#
# Total GULP energy -144901.206928 kJ/mol
# GULP energy per Si atom -5573.123343 kJ/mol
# Density = 2.291936 g / cm^3
# Si number density = 22.971648 Si / 1000 Ang^3
#
#
#
# Elastic Constant Matrix: (Units=GPa)
#
#
# Indices 1 2 3 4 5 6 
#
# 1 61.9781 38.4768 -1.3937 0.0000 -1.8121 0.0000
# 2 38.4768 230.6279 40.3614 0.0000 1.6084 0.0000
# 3 -1.3937 40.3614 64.6060 0.0000 -15.0200 0.0000
# 4 0.0000 0.0000 0.0000 -81.7448 0.0000 149.2795
# 5 -1.8121 1.6084 -15.0200 0.0000 22.7167 0.0000
# 6 0.0000 0.0000 0.0000 149.2795 0.0000 -131.8429
#
#
#
# Elastic Compliance Matrix: (Units=1/GPa)
#
#
# Indices 1 2 3 4 5 6 
#
# 1 0.018711 -0.003812 0.003775 0.000000 0.004258 0.000000
# 2 -0.003812 0.005799 -0.004574 0.000000 -0.003739 0.000000
# 3 0.003775 -0.004574 0.021934 0.000000 0.015128 0.000000
# 4 0.000000 0.000000 0.000000 0.011458 0.000000 0.012973
# 5 0.004258 -0.003739 0.015128 0.000000 0.054627 0.000000
# 6 0.000000 0.000000 0.000000 0.012973 0.000000 0.007104
#
#
# Mechanical properties :
#
#
# Convention : Reuss Voigt Hill
#
# Bulk Modulus (GPa) = 26.86593 56.90012 41.88302
# Shear Modulus (GPa) = 35.39539 -19.52302 7.93619
#
# Velocity S-wave (km/s) = 3.92960 -2.91842 1.86072
# Velocity P-wave (km/s) = 5.68416 3.66977 4.78419
#
# Compressibility (1/GPa) = 0.03722187
#
# Stress axis : x y z
#
# Youngs Moduli (GPa) = 53.44557 172.45818 45.59050
#
# Poissons Ratio (x) = 0.65740 -0.17211
# Poissons Ratio (y) = 0.20373 0.20853
# Poissons Ratio (z) = -0.20176 0.78882
#
# Static dielectric constant tensor:
#      x y z
#    x 1.827750 0.000000 -0.002600 
#    y 0.000000 1.970790 0.000000 
#    z -0.002600 0.000000 1.864880 
# 
# From -- ./inp_files/268570.got.cif
#   From: 2010.05.17/outbox.cif.g08.bks.cpg/sg12_135_cif.got.tgz:268570.got - 2010.06.03 13:09:07.
