data_PCOD9214453
_publ_section_title
;
Structure prediction by ZEFSAII (Michael W. Deem and Ramdas Pophale) SiO2 
 PCOD9214453
Probable space group: C 2/M
;
_chemical_formula_sum "Si O2"
_cell_formula_units_Z 48
_cell_length_a 13.292973
_cell_length_b 13.766978
_cell_length_c 19.429637
_cell_angle_alpha 90.000000
_cell_angle_beta 33.004660
_cell_angle_gamma 90.000000
_cell_volume 1936.816958
_symmetry_space_group_name_H-M "C 2/M"
_symmetry_group_IT_number 12
_symmetry_cell_setting 'monoclinic'
loop_
_space_group_symop_operation_xyz
x,y,z
-x,y,-z
-x,-y,-z
x,-y,z
1/2+x,1/2+y,z
1/2-x,1/2+y,-z
1/2-x,1/2-y,-z
1/2+x,1/2-y,z
loop_
_atom_site_type_symbol
_atom_site_label
_atom_site_fract_x
_atom_site_fract_y
_atom_site_fract_z
Si Si1 0.462376 0.887363 0.603844
Si Si2 0.077734 0.111095 0.388445
Si Si3 0.062052 0.185232 0.819434
Si Si4 0.128571 0.881667 0.627247
Si Si5 0.168556 0.892673 0.941558
Si Si6 0.986487 0.609899 0.845428
O O1 0.500000 0.886096 0.500000
O O2 0.271256 0.830785 0.727614
O O3 0.662748 0.858069 0.517826
O O4 0.429583 0.000000 0.640773
O O5 0.292831 0.106165 0.280695
O O6 0.000000 0.165026 0.500000
O O7 0.015159 0.146406 0.349966
O O8 0.002463 0.000000 0.431099
O O9 0.083827 0.169239 0.725285
O O10 0.966293 0.287463 0.895342
O O11 0.919264 0.107960 0.931554
O O12 0.123962 0.000000 0.641750
O O13 0.380940 0.869157 0.833997
O O14 0.176246 0.000000 0.906599
O O15 0.000000 0.838760 0.000000
O O16 0.931291 0.500000 0.899352
#
# Coordination Sequence:
#
# PCOD9214453 Si02
#       6
#     8   8   8   8   8   8
#     4   8  15  29  52  86 120 143 178 237 292 333
#     4   9  19  37  58  80 116 160 190 222 278 344
#     4  11  20  35  60  86 114 150 190 238 289 337
#     4   9  18  34  59  91 119 146 188 238 286 338
#     4  10  22  40  61  85 114 148 188 238 294 345
#     4  10  23  41  57  81 117 153 194 238 281 340
#
# _framework density 24.782928999999999
#
# number of rings (size 3 to 8) (size 9 to 14) (size 15 to 20)
#    0.000    2.500    0.000    3.000    0.000    4.667 
#    0.000    7.500    0.000    4.500    0.000    0.000 
#    0.000    0.667    0.000    0.000    0.000    0.000 
#
# Total GULP energy -133648.684090 kJ/mol
# GULP energy per Si atom -5568.695170 kJ/mol
# Density = 2.472652 g / cm^3
# Si number density = 24.782929 Si / 1000 Ang^3
#
#
#
# Elastic Constant Matrix: (Units=GPa)
#
#
# Indices 1 2 3 4 5 6 
#
# 1 147.8574 21.2675 46.8225 -0.0008 -46.0921 0.0000
# 2 21.2675 137.7800 19.7414 0.0004 -8.5888 -0.0005
# 3 46.8225 19.7414 80.6111 -0.0016 -15.6966 -0.0006
# 4 -0.0008 0.0004 -0.0016 8.2481 0.0005 -3.1720
# 5 -46.0921 -8.5888 -15.6966 0.0005 46.0529 0.0001
# 6 0.0000 -0.0005 -0.0006 -3.1720 0.0001 16.1547
#
#
#
# Elastic Compliance Matrix: (Units=1/GPa)
#
#
# Indices 1 2 3 4 5 6 
#
# 1 0.011284 -0.000487 -0.004556 0.000000 0.009650 0.000000
# 2 -0.000487 0.007573 -0.001490 -0.000001 0.000416 0.000000
# 3 -0.004556 -0.001490 0.015503 0.000003 0.000446 0.000001
# 4 0.000000 -0.000001 0.000003 0.131143 -0.000001 0.025750
# 5 0.009650 0.000416 0.000446 -0.000001 0.031602 0.000000
# 6 0.000000 0.000000 0.000001 0.025750 0.000000 0.066958
#
#
# Mechanical properties :
#
#
# Convention : Reuss Voigt Hill
#
# Bulk Modulus (GPa) = 46.96375 60.21235 53.58805
# Shear Modulus (GPa) = 17.59144 32.65229 25.12186
#
# Velocity S-wave (km/s) = 2.66714 3.63372 3.18728
# Velocity P-wave (km/s) = 5.33629 6.47718 5.93422
#
# Compressibility (1/GPa) = 0.02129302
#
# Stress axis : x y z
#
# Youngs Moduli (GPa) = 88.61732 132.05357 64.50178
#
# Poissons Ratio (x) = 0.06437 0.29387
# Poissons Ratio (y) = 0.04320 0.09613
# Poissons Ratio (z) = 0.40374 0.19680
#
# Static dielectric constant tensor:
#      x y z
#    x 2.050620 0.000000 -0.027090 
#    y 0.000000 2.113450 0.000000 
#    z -0.027090 0.000000 1.971250 
# 
# From -- ./inp_files/340069.got.cif
#   From: 2010.05.17/outbox.cif.g08.bks.cpg/sg12_171_cif.got.tgz:340069.got - 2010.06.03 13:09:07.
