data_PCOD9214629
_publ_section_title
;
Structure prediction by ZEFSAII (Michael W. Deem and Ramdas Pophale) SiO2 
 PCOD9214629
Probable space group: C 2/M
;
_chemical_formula_sum "Si O2"
_cell_formula_units_Z 56
_cell_length_a 9.768131
_cell_length_b 22.810509
_cell_length_c 16.293862
_cell_angle_alpha 90.000000
_cell_angle_beta 54.574371
_cell_angle_gamma 90.000000
_cell_volume 2958.407986
_symmetry_space_group_name_H-M "C 2/M"
_symmetry_group_IT_number 12
_symmetry_cell_setting 'monoclinic'
loop_
_space_group_symop_operation_xyz
x,y,z
-x,y,-z
-x,-y,-z
x,-y,z
1/2+x,1/2+y,z
1/2-x,1/2+y,-z
1/2-x,1/2-y,-z
1/2+x,1/2-y,z
loop_
_atom_site_type_symbol
_atom_site_label
_atom_site_fract_x
_atom_site_fract_y
_atom_site_fract_z
Si Si1 0.000293 0.142082 0.309241
Si Si2 0.053007 0.740533 0.575314
Si Si3 0.036763 0.194933 0.120615
Si Si4 0.778429 0.313039 0.888365
Si Si5 0.181406 0.433032 0.395266
Si Si6 0.157857 0.930065 0.387785
Si Si7 0.518273 0.879686 0.303982
O O1 0.016535 0.203240 0.351995
O O2 0.816086 0.112876 0.381977
O O3 0.024303 0.154376 0.204811
O O4 0.126393 0.097731 0.309622
O O5 0.250000 0.750000 0.500000
O O6 0.002970 0.681813 0.640383
O O7 0.000000 0.737302 0.500000
O O8 0.107588 0.257245 0.127668
O O9 0.858440 0.201297 0.135704
O O10 0.168953 0.172327 0.006778
O O11 0.897658 0.363429 0.811613
O O12 0.238374 0.500000 0.389503
O O13 0.000000 0.425734 0.500000
O O14 0.142798 0.419922 0.313735
O O15 0.335286 0.908039 0.360197
O O16 0.000000 0.911009 0.500000
O O17 0.157173 0.000000 0.385405
#
# Coordination Sequence:
#
# PCOD9214629 Si02
#       7
#     8   8   8   8   8   8   8
#     4  12  22  39  62  88 126 162 199 256 313 367
#     4  12  24  34  53  88 127 155 188 241 313 369
#     4  10  22  40  62  93 126 161 204 250 312 376
#     4  10  22  40  63  92 126 161 204 252 308 382
#     4  11  23  39  60  84 115 163 215 251 289 361
#     4  11  25  43  62  88 124 171 217 253 297 363
#     4  12  22  39  63  88 124 161 203 256 311 365
#
# _framework density 18.929099000000001
#
# number of rings (size 3 to 8) (size 9 to 14) (size 15 to 20)
#    0.000    0.857    2.857    6.000    2.000    2.286 
#    0.000    0.000    0.000    5.143    0.000    0.000 
#    0.000    0.000    0.000    0.000    0.000    0.000 
#
# Total GULP energy -156553.877439 kJ/mol
# GULP energy per Si atom -5591.209909 kJ/mol
# Density = 1.888602 g / cm^3
# Si number density = 18.929099 Si / 1000 Ang^3
#
#
#
# Elastic Constant Matrix: (Units=GPa)
#
#
# Indices 1 2 3 4 5 6 
#
# 1 60.7437 8.3384 -10.7366 0.0000 10.9274 0.0000
# 2 8.3384 75.9114 18.7335 0.0000 6.9131 0.0000
# 3 -10.7366 18.7335 65.9984 0.0000 14.0478 0.0000
# 4 0.0000 0.0000 0.0000 13.1421 0.0000 -1.2280
# 5 10.9274 6.9131 14.0478 0.0000 30.0137 0.0000
# 6 0.0000 0.0000 0.0000 -1.2280 0.0000 20.3963
#
#
#
# Elastic Compliance Matrix: (Units=1/GPa)
#
#
# Indices 1 2 3 4 5 6 
#
# 1 0.019559 -0.002771 0.005940 0.000000 -0.009263 0.000000
# 2 -0.002771 0.014622 -0.004553 0.000000 -0.000228 0.000000
# 3 0.005940 -0.004553 0.019600 0.000000 -0.010288 0.000000
# 4 0.000000 0.000000 0.000000 0.076522 0.000000 0.004607
# 5 -0.009263 -0.000228 -0.010288 0.000000 0.041558 0.000000
# 6 0.000000 0.000000 0.000000 0.004607 0.000000 0.049306
#
#
# Mechanical properties :
#
#
# Convention : Reuss Voigt Hill
#
# Bulk Modulus (GPa) = 19.60219 26.14714 22.87466
# Shear Modulus (GPa) = 20.75215 25.13164 22.94189
#
# Velocity S-wave (km/s) = 3.31465 3.64768 3.48514
# Velocity P-wave (km/s) = 5.00272 5.61996 5.32030
#
# Compressibility (1/GPa) = 0.05101471
#
# Stress axis : x y z
#
# Youngs Moduli (GPa) = 51.12673 68.39065 51.01985
#
# Poissons Ratio (x) = 0.18950 -0.30306
# Poissons Ratio (y) = 0.14166 0.23227
# Poissons Ratio (z) = -0.30369 0.31135
#
# Static dielectric constant tensor:
#      x y z
#    x 1.682170 0.000000 0.024740 
#    y 0.000000 1.654470 0.000000 
#    z 0.024740 0.000000 1.684140 
# 
# From -- ./inp_files/198804.got.cif
#   From: 2010.05.17/outbox.cif.g08.bks.cpg/sg12_100_cif.got.tgz:198804.got - 2010.06.03 13:09:07.
