data_PCOD9214885
_publ_section_title
;
Structure prediction by ZEFSAII (Michael W. Deem and Ramdas Pophale) SiO2 
 PCOD9214885
Probable space group: C 2/M
;
_chemical_formula_sum "Si O2"
_cell_formula_units_Z 48
_cell_length_a 21.102418
_cell_length_b 15.723939
_cell_length_c 18.537033
_cell_angle_alpha 90.000000
_cell_angle_beta 19.623377
_cell_angle_gamma 90.000000
_cell_volume 2065.669906
_symmetry_space_group_name_H-M "C 2/M"
_symmetry_group_IT_number 12
_symmetry_cell_setting 'monoclinic'
loop_
_space_group_symop_operation_xyz
x,y,z
-x,y,-z
-x,-y,-z
x,-y,z
1/2+x,1/2+y,z
1/2-x,1/2+y,-z
1/2-x,1/2-y,-z
1/2+x,1/2-y,z
loop_
_atom_site_type_symbol
_atom_site_label
_atom_site_fract_x
_atom_site_fract_y
_atom_site_fract_z
Si Si1 0.517338 0.099854 0.663545
Si Si2 0.236187 0.278429 0.156482
Si Si3 0.773526 0.097395 0.248991
Si Si4 0.254266 0.907770 0.174976
Si Si5 0.282380 0.089548 0.309619
Si Si6 0.884829 0.297531 0.303946
O O1 0.362776 0.164082 0.797059
O O2 0.689900 0.109415 0.419668
O O3 0.543826 0.126745 0.718965
O O4 0.465201 0.000000 0.716866
O O5 0.212401 0.329840 0.257320
O O6 0.176781 0.179050 0.225542
O O7 0.454161 0.262455 0.901054
O O8 0.717443 0.000000 0.287210
O O9 0.000000 0.099959 0.000000
O O10 0.208295 0.908469 0.308871
O O11 0.203645 0.000000 0.197453
O O12 0.485971 0.905283 0.932559
O O13 0.238841 0.171540 0.399835
O O14 0.226843 0.000000 0.402598
O O15 0.750000 0.250000 0.500000
#
# Coordination Sequence:
#
# PCOD9214885 Si02
#       6
#     8   8   8   8   8   8
#     4  11  24  43  64  92 131 172 211 261 325 390
#     4  11  22  37  64  91 127 166 210 256 322 382
#     4  10  22  40  65  94 122 161 216 272 318 370
#     4   8  16  30  56  88 115 148 198 254 308 362
#     4   8  15  31  53  81 113 151 198 251 306 360
#     4  11  23  37  59  92 125 165 214 261 318 374
#
# _framework density 23.237013999999999
#
# number of rings (size 3 to 8) (size 9 to 14) (size 15 to 20)
#    0.000    2.167    0.000    4.000    7.000    2.000 
#    0.000    2.500    0.000    4.000    0.000    0.000 
#    0.000    0.000    0.000    0.000    0.000    0.000 
#
# Total GULP energy -133786.974598 kJ/mol
# GULP energy per Si atom -5574.457275 kJ/mol
# Density = 2.318413 g / cm^3
# Si number density = 23.237014 Si / 1000 Ang^3
#
#
#
# Elastic Constant Matrix: (Units=GPa)
#
#
# Indices 1 2 3 4 5 6 
#
# 1 73.8517 36.1649 15.6008 -0.0238 -1.0362 0.0025
# 2 36.1649 166.6630 27.3221 -0.0674 -8.1006 0.0124
# 3 15.6008 27.3221 76.8573 -0.1107 3.7018 0.0266
# 4 -0.0238 -0.0674 -0.1107 -42.3015 0.0468 27.5127
# 5 -1.0362 -8.1006 3.7018 0.0468 35.4263 -0.0122
# 6 0.0025 0.0124 0.0266 27.5127 -0.0122 41.3438
#
#
#
# Elastic Compliance Matrix: (Units=1/GPa)
#
#
# Indices 1 2 3 4 5 6 
#
# 1 0.015453 -0.003016 -0.002064 0.000002 -0.000022 0.000000
# 2 -0.003016 0.007064 -0.001982 -0.000002 0.001734 0.000001
# 3 -0.002064 -0.001982 0.014231 -0.000029 -0.002001 0.000010
# 4 0.000002 -0.000002 -0.000029 -0.016499 0.000028 0.010979
# 5 -0.000022 0.001734 -0.002001 0.000028 0.028833 -0.000009
# 6 0.000000 0.000001 0.000010 0.010979 -0.000009 0.016881
#
#
# Mechanical properties :
#
#
# Convention : Reuss Voigt Hill
#
# Bulk Modulus (GPa) = 44.20069 52.83862 48.51966
# Shear Modulus (GPa) = 57.05916 22.77932 39.91924
#
# Velocity S-wave (km/s) = 4.96071 3.13438 4.14927
# Velocity P-wave (km/s) = 7.20239 5.99061 6.62427
#
# Compressibility (1/GPa) = 0.02262408
#
# Stress axis : x y z
#
# Youngs Moduli (GPa) = 64.71159 141.56537 70.26888
#
# Poissons Ratio (x) = 0.42697 0.14500
# Poissons Ratio (y) = 0.19517 0.13931
# Poissons Ratio (z) = 0.13353 0.28065
#
# Static dielectric constant tensor:
#      x y z
#    x 1.644730 -0.000150 -0.011450 
#    y -0.000150 1.882450 0.000020 
#    z -0.011450 0.000020 1.973020 
# 
# From -- ./inp_files/325636.got.cif
#   From: 2010.05.17/outbox.cif.g08.bks.cpg/sg12_163_cif.got.tgz:325636.got - 2010.06.03 13:09:07.
