data_PCOD9214643
_publ_section_title
;
Structure prediction by ZEFSAII (Michael W. Deem and Ramdas Pophale) SiO2 
 PCOD9214643
Probable space group: C 2/M
;
_chemical_formula_sum "Si O2"
_cell_formula_units_Z 48
_cell_length_a 22.103040
_cell_length_b 12.035126
_cell_length_c 11.115661
_cell_angle_alpha 90.000000
_cell_angle_beta 130.908627
_cell_angle_gamma 90.000000
_cell_volume 2234.698321
_symmetry_space_group_name_H-M "C 2/M"
_symmetry_group_IT_number 12
_symmetry_cell_setting 'monoclinic'
loop_
_space_group_symop_operation_xyz
x,y,z
-x,y,-z
-x,-y,-z
x,-y,z
1/2+x,1/2+y,z
1/2-x,1/2+y,-z
1/2-x,1/2-y,-z
1/2+x,1/2-y,z
loop_
_atom_site_type_symbol
_atom_site_label
_atom_site_fract_x
_atom_site_fract_y
_atom_site_fract_z
Si Si1 0.367776 0.622253 0.874558
Si Si2 0.158538 0.307986 0.001914
Si Si3 0.832831 0.124589 0.184726
Si Si4 0.434116 0.000000 0.523610
Si Si5 0.463241 0.376930 0.762763
Si Si6 0.922417 0.742056 0.484693
Si Si7 0.466476 0.000000 0.096355
O O1 0.333268 0.500000 0.854850
O O2 0.318900 0.725885 0.859078
O O3 0.392915 0.629880 0.769362
O O4 0.453183 0.629570 0.056315
O O5 0.236835 0.372475 0.060052
O O6 0.138712 0.220526 0.869786
O O7 0.089653 0.391869 0.953964
O O8 0.863914 0.166456 0.353300
O O9 0.861051 0.000000 0.192943
O O10 0.500000 0.000000 0.500000
O O11 0.389230 0.883246 0.447797
O O12 0.472648 0.000000 0.709063
O O13 0.460551 0.500000 0.702717
O O14 0.451265 0.281743 0.651650
O O15 0.000000 0.740839 0.500000
O O16 0.500000 0.000000 0.000000
#
# Coordination Sequence:
#
# PCOD9214643 Si02
#       7
#     8   8   8   4   8   8   4
#     4   9  18  34  57  87 121 158 212 265 320 386
#     4  11  23  41  64  95 129 173 220 273 335 397
#     4  11  24  43  65  95 132 171 221 278 333 402
#     4  10  22  40  62  98 132 175 223 277 339 399
#     4   9  18  32  56  87 119 157 205 267 323 379
#     4  11  22  38  61  90 125 164 215 269 334 394
#     4  12  26  42  74 104 137 179 231 288 336 404
#
# _framework density 21.479410000000001
#
# number of rings (size 3 to 8) (size 9 to 14) (size 15 to 20)
#    0.000    1.667    0.833    6.000    4.667    2.667 
#    3.000    0.833    0.000    0.000    0.000    0.000 
#    0.000    0.000    0.000    0.000    0.000    0.000 
#
# Total GULP energy -133966.293864 kJ/mol
# GULP energy per Si atom -5581.928911 kJ/mol
# Density = 2.143052 g / cm^3
# Si number density = 21.479410 Si / 1000 Ang^3
#
#
#
# Elastic Constant Matrix: (Units=GPa)
#
#
# Indices 1 2 3 4 5 6 
#
# 1 71.1321 35.0538 21.2002 0.0000 -18.3171 0.0000
# 2 35.0538 163.4567 31.6889 0.0000 -12.6322 0.0000
# 3 21.2002 31.6889 55.4175 0.0000 -14.4506 0.0000
# 4 0.0000 0.0000 0.0000 -95.0564 0.0000 -42.7498
# 5 -18.3171 -12.6322 -14.4506 0.0000 23.9769 0.0000
# 6 0.0000 0.0000 0.0000 -42.7498 0.0000 18.9788
#
#
#
# Elastic Compliance Matrix: (Units=1/GPa)
#
#
# Indices 1 2 3 4 5 6 
#
# 1 0.019189 -0.002680 -0.002793 0.000000 0.011564 0.000000
# 2 -0.002680 0.007300 -0.003180 0.000000 -0.000118 0.000000
# 3 -0.002793 -0.003180 0.023656 0.000000 0.010448 0.000000
# 4 0.000000 0.000000 0.000000 -0.005226 0.000000 -0.011772
# 5 0.011564 -0.000118 0.010448 0.000000 0.056776 0.000000
# 6 0.000000 0.000000 0.000000 -0.011772 0.000000 0.026175
#
#
# Mechanical properties :
#
#
# Convention : Reuss Voigt Hill
#
# Bulk Modulus (GPa) = 30.45071 51.76580 41.10826
# Shear Modulus (GPa) = 32.02609 3.05075 17.53842
#
# Velocity S-wave (km/s) = 3.86555 1.19306 2.86059
# Velocity P-wave (km/s) = 5.84216 5.10396 5.48549
#
# Compressibility (1/GPa) = 0.03283996
#
# Stress axis : x y z
#
# Youngs Moduli (GPa) = 52.11205 136.98800 42.27252
#
# Poissons Ratio (x) = 0.36714 0.11806
# Poissons Ratio (y) = 0.13966 0.13441
# Poissons Ratio (z) = 0.14555 0.43558
#
# Static dielectric constant tensor:
#      x y z
#    x 1.825580 0.000000 -0.021740 
#    y 0.000000 1.820120 0.000000 
#    z -0.021740 0.000000 1.809360 
# 
# From -- ./inp_files/174884.got.cif
#   From: 2010.05.17/outbox.cif.g08.bks.cpg/sg12_88_cif.got.tgz:174884.got - 2010.06.03 13:09:07.
