data_PCOD9214026
_publ_section_title
;
Structure prediction by ZEFSAII (Michael W. Deem and Ramdas Pophale) SiO2 
 PCOD9214026
Probable space group: C 2/M
;
_chemical_formula_sum "Si O2"
_cell_formula_units_Z 56
_cell_length_a 11.702402
_cell_length_b 14.625015
_cell_length_c 17.328537
_cell_angle_alpha 90.000000
_cell_angle_beta 114.286869
_cell_angle_gamma 90.000000
_cell_volume 2703.265756
_symmetry_space_group_name_H-M "C 2/M"
_symmetry_group_IT_number 12
_symmetry_cell_setting 'monoclinic'
loop_
_space_group_symop_operation_xyz
x,y,z
-x,y,-z
-x,-y,-z
x,-y,z
1/2+x,1/2+y,z
1/2-x,1/2+y,-z
1/2-x,1/2-y,-z
1/2+x,1/2-y,z
loop_
_atom_site_type_symbol
_atom_site_label
_atom_site_fract_x
_atom_site_fract_y
_atom_site_fract_z
Si Si1 0.425914 0.803044 0.557507
Si Si2 0.829687 0.112670 0.574770
Si Si3 0.980354 0.147968 0.078785
Si Si4 0.966249 0.349476 0.883377
Si Si5 0.215787 0.399805 0.044433
Si Si6 0.189458 0.104376 0.251321
Si Si7 0.945502 0.389902 0.258465
O O1 0.500000 0.819923 0.500000
O O2 0.293848 0.854442 0.505549
O O3 0.423968 0.692662 0.571355
O O4 0.489104 0.852501 0.647172
O O5 0.815891 0.137991 0.662252
O O6 0.851287 0.000000 0.573655
O O7 0.834672 0.162423 0.059306
O O8 0.044042 0.246552 0.091079
O O9 0.057550 0.105050 0.170555
O O10 0.000000 0.104289 0.000000
O O11 0.844779 0.395458 0.887400
O O12 0.984749 0.352850 0.797677
O O13 0.095156 0.387890 0.956003
O O14 0.270630 0.500000 0.045786
O O15 0.300312 0.142314 0.227406
O O16 0.228564 0.000000 0.273030
O O17 0.952189 0.500000 0.253708
#
# Coordination Sequence:
#
# PCOD9214026 Si02
#       7
#     8   8   8   8   8   8   8
#     4  11  22  40  67  97 127 166 214 260 318 383
#     4  10  22  42  64  93 132 167 207 261 319 380
#     4  12  24  39  62  91 126 167 214 260 316 381
#     4  11  23  40  62  88 126 164 211 260 317 379
#     4  11  23  41  63  87 122 166 209 262 317 373
#     4  10  22  39  61  91 126 165 210 263 318 374
#     4  11  22  38  66  97 126 168 218 267 319 383
#
# _framework density 20.715684
#
# number of rings (size 3 to 8) (size 9 to 14) (size 15 to 20)
#    0.000    1.143    2.857    4.714    2.000    3.143 
#    0.000    0.000    0.000    3.429    0.000    0.000 
#    0.000    0.000    0.000    0.000    0.000    0.000 
#
# Total GULP energy -155989.366865 kJ/mol
# GULP energy per Si atom -5571.048817 kJ/mol
# Density = 2.066853 g / cm^3
# Si number density = 20.715684 Si / 1000 Ang^3
#
#
#
# Elastic Constant Matrix: (Units=GPa)
#
#
# Indices 1 2 3 4 5 6 
#
# 1 84.4091 -25.9790 45.1976 0.0000 -8.9380 0.0000
# 2 -25.9790 59.3300 -4.9562 0.0000 -3.4639 0.0000
# 3 45.1976 -4.9562 108.3927 0.0000 -21.6056 0.0000
# 4 0.0000 0.0000 0.0000 38.0387 0.0000 35.1911
# 5 -8.9380 -3.4639 -21.6056 0.0000 37.0058 0.0000
# 6 0.0000 0.0000 0.0000 35.1911 0.0000 24.4726
#
#
#
# Elastic Compliance Matrix: (Units=1/GPa)
#
#
# Indices 1 2 3 4 5 6 
#
# 1 0.017923 0.007323 -0.006948 0.000000 0.000958 0.000000
# 2 0.007323 0.020087 -0.001593 0.000000 0.002719 0.000000
# 3 -0.006948 -0.001593 0.013225 0.000000 0.005894 0.000000
# 4 0.000000 0.000000 0.000000 -0.079583 0.000000 0.114439
# 5 0.000958 0.002719 0.005894 0.000000 0.030950 0.000000
# 6 0.000000 0.000000 0.000000 0.114439 0.000000 -0.123699
#
#
# Mechanical properties :
#
#
# Convention : Reuss Voigt Hill
#
# Bulk Modulus (GPa) = 20.49195 31.18406 25.83801
# Shear Modulus (GPa) = -48.82990 35.76137 -6.53427
#
# Velocity S-wave (km/s) = -4.86031 4.15938 -1.77795
# Velocity P-wave (km/s) = 4.64579 6.17683 2.87836
#
# Compressibility (1/GPa) = 0.04879966
#
# Stress axis : x y z
#
# Youngs Moduli (GPa) = 55.79548 49.78280 75.61621
#
# Poissons Ratio (x) = -0.36458 0.52535
# Poissons Ratio (y) = -0.40861 0.12048
# Poissons Ratio (z) = 0.38764 0.07932
#
# Static dielectric constant tensor:
#      x y z
#    x 1.779300 0.000000 -0.007960 
#    y 0.000000 1.778260 0.000000 
#    z -0.007960 0.000000 1.735490 
# 
# From -- ./inp_files/263445.got.cif
#   From: 2010.05.17/outbox.cif.g08.bks.cpg/sg12_132_cif.got.tgz:263445.got - 2010.06.03 13:09:07.
