data_PCOD9214402
_publ_section_title
;
Structure prediction by ZEFSAII (Michael W. Deem and Ramdas Pophale) SiO2 
 PCOD9214402
Probable space group: C 2/M
;
_chemical_formula_sum "Si O2"
_cell_formula_units_Z 52
_cell_length_a 8.569231
_cell_length_b 20.484657
_cell_length_c 19.581408
_cell_angle_alpha 90.000000
_cell_angle_beta 47.837855
_cell_angle_gamma 90.000000
_cell_volume 2547.875111
_symmetry_space_group_name_H-M "C 2/M"
_symmetry_group_IT_number 12
_symmetry_cell_setting 'monoclinic'
loop_
_space_group_symop_operation_xyz
x,y,z
-x,y,-z
-x,-y,-z
x,-y,z
1/2+x,1/2+y,z
1/2-x,1/2+y,-z
1/2-x,1/2-y,-z
1/2+x,1/2-y,z
loop_
_atom_site_type_symbol
_atom_site_label
_atom_site_fract_x
_atom_site_fract_y
_atom_site_fract_z
Si Si1 0.508133 0.298739 0.263394
Si Si2 0.573227 0.121470 0.056572
Si Si3 0.744465 0.291341 0.433544
Si Si4 0.000000 0.864281 0.000000
Si Si5 0.256590 0.571146 0.595011
Si Si6 0.817600 0.925681 0.738497
Si Si7 0.557823 0.736326 0.866093
O O1 0.328242 0.253370 0.347492
O O2 0.510251 0.371979 0.290806
O O3 0.536349 0.297210 0.173375
O O4 0.723201 0.265322 0.224973
O O5 0.803641 0.100962 0.018458
O O6 0.392063 0.090867 0.157052
O O7 0.566438 0.200584 0.068993
O O8 0.500000 0.107886 0.000000
O O9 0.500000 0.305794 0.500000
O O10 0.750000 0.250000 0.500000
O O11 0.848070 0.363343 0.404445
O O12 0.092921 0.816820 0.914153
O O13 0.500000 0.566296 0.500000
O O14 0.158749 0.500000 0.608307
O O15 0.263728 0.580760 0.674507
O O16 0.883902 0.000000 0.731834
#
# Coordination Sequence:
#
# PCOD9214402 Si02
#       7
#     8   8   8   4   8   8   8
#     4  11  21  35  59  88 116 160 200 258 316 364
#     4  11  22  37  58  91 126 163 207 260 322 383
#     4  11  21  36  58  92 127 152 197 255 308 364
#     4  12  20  34  57  90 125 154 202 266 320 372
#     4   9  18  35  60  87 116 158 203 243 297 370
#     4  10  22  40  60  85 118 161 213 254 306 382
#     4  11  20  34  55  86 120 150 202 253 315 379
#
# _framework density 20.409164000000001
#
# number of rings (size 3 to 8) (size 9 to 14) (size 15 to 20)
#    0.000    1.385    2.308    6.923    0.000    0.308 
#    0.000    0.385    0.000    5.538    0.000    0.000 
#    0.000    0.000    0.000    0.000    0.000    0.000 
#
# Total GULP energy -144965.961211 kJ/mol
# GULP energy per Si atom -5575.613893 kJ/mol
# Density = 2.036271 g / cm^3
# Si number density = 20.409164 Si / 1000 Ang^3
#
#
#
# Elastic Constant Matrix: (Units=GPa)
#
#
# Indices 1 2 3 4 5 6 
#
# 1 73.4691 21.3940 20.6445 0.0000 16.1804 0.0000
# 2 21.3940 145.3176 28.6252 0.0000 16.1633 0.0000
# 3 20.6445 28.6252 104.9279 0.0000 21.0671 0.0000
# 4 0.0000 0.0000 0.0000 16.7955 0.0000 4.0354
# 5 16.1804 16.1633 21.0671 0.0000 37.3000 0.0000
# 6 0.0000 0.0000 0.0000 4.0354 0.0000 22.5698
#
#
#
# Elastic Compliance Matrix: (Units=1/GPa)
#
#
# Indices 1 2 3 4 5 6 
#
# 1 0.015635 -0.001394 -0.001641 0.000000 -0.005251 0.000000
# 2 -0.001394 0.007574 -0.001415 0.000000 -0.001878 0.000000
# 3 -0.001641 -0.001415 0.011249 0.000000 -0.005028 0.000000
# 4 0.000000 0.000000 0.000000 0.062213 0.000000 -0.011123
# 5 -0.005251 -0.001878 -0.005028 0.000000 0.032741 0.000000
# 6 0.000000 0.000000 0.000000 -0.011123 0.000000 0.046296
#
#
# Mechanical properties :
#
#
# Convention : Reuss Voigt Hill
#
# Bulk Modulus (GPa) = 39.12893 51.67134 45.40013
# Shear Modulus (GPa) = 25.88954 32.20311 29.04632
#
# Velocity S-wave (km/s) = 3.56550 3.97656 3.77663
# Velocity P-wave (km/s) = 6.01367 6.81591 6.42732
#
# Compressibility (1/GPa) = 0.02555654
#
# Stress axis : x y z
#
# Youngs Moduli (GPa) = 63.95942 132.02383 88.89788
#
# Poissons Ratio (x) = 0.18410 0.14593
# Poissons Ratio (y) = 0.08919 0.12578
# Poissons Ratio (z) = 0.10499 0.18680
#
# Static dielectric constant tensor:
#      x y z
#    x 1.783180 0.000000 -0.011700 
#    y 0.000000 1.817980 0.000000 
#    z -0.011700 0.000000 1.726550 
# 
# From -- ./inp_files/258407.got.cif
#   From: 2010.05.17/outbox.cif.g08.bks.cpg/sg12_130_cif.got.tgz:258407.got - 2010.06.03 13:09:07.
