data_PCOD9214956
_publ_section_title
;
Structure prediction by ZEFSAII (Michael W. Deem and Ramdas Pophale) SiO2 
 PCOD9214956
Probable space group: C 2/M
;
_chemical_formula_sum "Si O2"
_cell_formula_units_Z 48
_cell_length_a 17.151790
_cell_length_b 30.530120
_cell_length_c 9.161234
_cell_angle_alpha 90.000000
_cell_angle_beta 149.464946
_cell_angle_gamma 90.000000
_cell_volume 2437.314513
_symmetry_space_group_name_H-M "C 2/M"
_symmetry_group_IT_number 12
_symmetry_cell_setting 'monoclinic'
loop_
_space_group_symop_operation_xyz
x,y,z
-x,y,-z
-x,-y,-z
x,-y,z
1/2+x,1/2+y,z
1/2-x,1/2+y,-z
1/2-x,1/2-y,-z
1/2+x,1/2-y,z
loop_
_atom_site_type_symbol
_atom_site_label
_atom_site_fract_x
_atom_site_fract_y
_atom_site_fract_z
Si Si1 0.412211 0.782904 0.513011
Si Si2 0.594296 0.377319 0.793420
Si Si3 0.860473 0.051317 0.885424
Si Si4 0.978167 0.549108 0.791732
Si Si5 0.076466 0.629393 0.776666
Si Si6 0.547657 0.703813 0.909986
O O1 0.500000 0.775553 0.500000
O O2 0.477713 0.829693 0.673856
O O3 0.230046 0.786268 0.199177
O O4 0.457554 0.744457 0.695326
O O5 0.500000 0.391420 0.500000
O O6 0.631221 0.417065 0.962165
O O7 0.751930 0.357129 0.985259
O O8 0.515963 0.339180 0.761775
O O9 0.698214 0.056861 0.540823
O O10 0.873270 0.000000 0.947419
O O11 0.000000 0.061314 0.000000
O O12 0.020665 0.500000 0.809099
O O13 0.075551 0.587702 0.878421
O O14 0.000000 0.550152 0.000000
O O15 0.000000 0.615835 0.500000
O O16 0.500000 0.696494 0.000000
#
# Coordination Sequence:
#
# PCOD9214956 Si02
#       6
#     8   8   8   8   8   8
#     4  11  23  43  67  92 129 167 208 267 325 382
#     4  12  26  42  64  94 126 173 217 264 319 380
#     4  10  22  42  64  91 131 168 206 264 322 376
#     4  10  22  40  66  95 126 167 211 260 321 385
#     4  11  22  43  64  91 128 166 214 264 321 375
#     4  12  25  43  66  96 128 166 215 266 324 386
#
# _framework density 19.693805999999999
#
# number of rings (size 3 to 8) (size 9 to 14) (size 15 to 20)
#    0.000    1.000    5.000    2.000    4.667    2.000 
#    0.000    0.000    0.000    0.000    0.000    0.000 
#    0.000    0.000    0.000    0.000    0.000    0.000 
#
# Total GULP energy -134132.489582 kJ/mol
# GULP energy per Si atom -5588.853733 kJ/mol
# Density = 1.964898 g / cm^3
# Si number density = 19.693806 Si / 1000 Ang^3
#
#
#
# Elastic Constant Matrix: (Units=GPa)
#
#
# Indices 1 2 3 4 5 6 
#
# 1 62.8624 32.0872 24.1797 0.0000 -9.3156 0.0000
# 2 32.0872 110.5861 31.1592 0.0000 -29.9446 0.0000
# 3 24.1797 31.1592 94.5897 0.0000 -19.2720 0.0000
# 4 0.0000 0.0000 0.0000 8.5999 0.0000 -0.9485
# 5 -9.3156 -29.9446 -19.2720 0.0000 30.1537 0.0000
# 6 0.0000 0.0000 0.0000 -0.9485 0.0000 27.3594
#
#
#
# Elastic Compliance Matrix: (Units=1/GPa)
#
#
# Indices 1 2 3 4 5 6 
#
# 1 0.019684 -0.005021 -0.003627 0.000000 -0.001223 0.000000
# 2 -0.005021 0.013924 -0.000922 0.000000 0.011687 0.000000
# 3 -0.003627 -0.000922 0.013093 0.000000 0.006332 0.000000
# 4 0.000000 0.000000 0.000000 0.116727 0.000000 0.004047
# 5 -0.001223 0.011687 0.006332 0.000000 0.048438 0.000000
# 6 0.000000 0.000000 0.000000 0.004047 0.000000 0.036691
#
#
# Mechanical properties :
#
#
# Convention : Reuss Voigt Hill
#
# Bulk Modulus (GPa) = 36.28260 49.21003 42.74631
# Shear Modulus (GPa) = 18.05808 25.26340 21.66074
#
# Velocity S-wave (km/s) = 3.03139 3.58552 3.32004
# Velocity P-wave (km/s) = 5.54218 6.49485 6.03734
#
# Compressibility (1/GPa) = 0.02756142
#
# Stress axis : x y z
#
# Youngs Moduli (GPa) = 50.80160 71.81874 76.37667
#
# Poissons Ratio (x) = 0.36058 0.27703
# Poissons Ratio (y) = 0.25506 0.07043
# Poissons Ratio (z) = 0.18426 0.06623
#
# Static dielectric constant tensor:
#      x y z
#    x 1.682820 0.000000 0.019650 
#    y 0.000000 1.683820 0.000000 
#    z 0.019650 0.000000 1.691530 
# 
# From -- ./inp_files/80824.got.cif
#   From: 2010.05.17/outbox.cif.g08.bks.cpg/sg12_41_cif.got.tgz:80824.got - 2010.06.03 13:09:07.
