data_PCOD9214736
_publ_section_title
;
Structure prediction by ZEFSAII (Michael W. Deem and Ramdas Pophale) SiO2 
 PCOD9214736
Probable space group: C 2/M
;
_chemical_formula_sum "Si O2"
_cell_formula_units_Z 58
_cell_length_a 26.575239
_cell_length_b 16.731970
_cell_length_c 5.431847
_cell_angle_alpha 90.000000
_cell_angle_beta 78.429612
_cell_angle_gamma 90.000000
_cell_volume 2366.222621
_symmetry_space_group_name_H-M "C 2/M"
_symmetry_group_IT_number 12
_symmetry_cell_setting 'monoclinic'
loop_
_space_group_symop_operation_xyz
x,y,z
-x,y,-z
-x,-y,-z
x,-y,z
1/2+x,1/2+y,z
1/2-x,1/2+y,-z
1/2-x,1/2-y,-z
1/2+x,1/2-y,z
loop_
_atom_site_type_symbol
_atom_site_label
_atom_site_fract_x
_atom_site_fract_y
_atom_site_fract_z
Si Si1 0.622216 0.596281 0.102106
Si Si2 0.216836 0.813794 0.187897
Si Si3 0.849477 0.676106 0.715913
Si Si4 0.000000 0.000000 0.500000
Si Si5 0.061303 0.140497 0.665492
Si Si6 0.888951 0.411081 0.094263
Si Si7 0.042582 0.325266 0.654964
Si Si8 0.282828 0.914999 0.494153
O O1 0.618705 0.500000 0.123041
O O2 0.681276 0.626568 0.063671
O O3 0.592603 0.629931 0.374494
O O4 0.596419 0.623847 0.871405
O O5 0.175068 0.756432 0.357017
O O6 0.249616 0.856563 0.363248
O O7 0.250000 0.750000 0.000000
O O8 0.869172 0.667760 0.970842
O O9 0.902271 0.663398 0.526825
O O10 0.802149 0.613841 0.740555
O O11 0.019159 0.071075 0.674725
O O12 0.038558 0.230341 0.712260
O O13 0.893271 0.500000 0.966588
O O14 0.945064 0.384500 0.132157
O O15 0.839265 0.421595 0.317410
O O16 0.000000 0.348552 0.500000
O O17 0.256420 0.000000 0.529994
#
# Coordination Sequence:
#
# PCOD9214736 Si02
#       8
#     8   8   8   2   8   8   8   8
#     4  12  26  47  70 104 148 192 239 305 369 427
#     4  12  24  41  67  99 137 183 233 291 354 434
#     4  11  22  42  68  94 132 176 223 288 352 418
#     4  12  24  50  76 114 142 202 248 306 376 458
#     4  12  26  46  74 106 147 191 244 303 363 445
#     4  10  22  43  68  97 136 173 228 294 353 421
#     4  11  25  44  67 101 134 184 230 291 359 438
#     4  10  22  40  63  95 129 170 223 275 340 418
#
# _framework density 24.51164
#
# number of rings (size 3 to 8) (size 9 to 14) (size 15 to 20)
#    0.000    0.828    4.828    2.069    1.931    3.586 
#    0.000    2.069    0.000    0.000    0.000    0.000 
#    0.000    0.000    0.000    0.000    0.000    0.000 
#
# Total GULP energy -161462.550096 kJ/mol
# GULP energy per Si atom -5567.674141 kJ/mol
# Density = 2.445585 g / cm^3
# Si number density = 24.511640 Si / 1000 Ang^3
#
#
#
# Elastic Constant Matrix: (Units=GPa)
#
#
# Indices 1 2 3 4 5 6 
#
# 1 145.2426 44.5928 45.2802 0.0000 47.4326 0.0000
# 2 44.5928 88.1446 4.7411 0.0000 32.4185 0.0000
# 3 45.2802 4.7411 77.7239 0.0000 28.3630 0.0000
# 4 0.0000 0.0000 0.0000 9.2403 0.0000 10.4928
# 5 47.4326 32.4185 28.3630 0.0000 48.8727 0.0000
# 6 0.0000 0.0000 0.0000 10.4928 0.0000 26.2618
#
#
#
# Elastic Compliance Matrix: (Units=1/GPa)
#
#
# Indices 1 2 3 4 5 6 
#
# 1 0.011186 -0.003036 -0.003939 0.000000 -0.006557 0.000000
# 2 -0.003036 0.016595 0.004692 0.000000 -0.010784 0.000000
# 3 -0.003939 0.004692 0.018542 0.000000 -0.010050 0.000000
# 4 0.000000 0.000000 0.000000 0.198101 0.000000 -0.079150
# 5 -0.006557 -0.010784 -0.010050 0.000000 0.039811 0.000000
# 6 0.000000 0.000000 0.000000 -0.079150 0.000000 0.069702
#
#
# Mechanical properties :
#
#
# Convention : Reuss Voigt Hill
#
# Bulk Modulus (GPa) = 23.94805 55.59326 39.77066
# Shear Modulus (GPa) = 13.42559 31.30808 22.36684
#
# Velocity S-wave (km/s) = 2.34289 3.57777 3.02404
# Velocity P-wave (km/s) = 4.13644 6.30848 5.33418
#
# Compressibility (1/GPa) = 0.04175706
#
# Stress axis : x y z
#
# Youngs Moduli (GPa) = 89.39351 60.26015 53.93142
#
# Poissons Ratio (x) = 0.18294 0.21243
# Poissons Ratio (y) = 0.27138 -0.25303
# Poissons Ratio (z) = 0.35212 -0.28272
#
# Static dielectric constant tensor:
#      x y z
#    x 1.969190 0.000000 -0.117010 
#    y 0.000000 2.108410 0.000000 
#    z -0.117010 0.000000 2.411530 
# 
# From -- ./inp_files/28793.got.cif
#   From: 2010.05.17/outbox.cif.g08.bks.cpg/sg12_15_cif.got.tgz:28793.got - 2010.06.03 13:09:07.
