data_PCOD9214338
_publ_section_title
;
Structure prediction by ZEFSAII (Michael W. Deem and Ramdas Pophale) SiO2 
 PCOD9214338
Probable space group: C 2/M
;
_chemical_formula_sum "Si O2"
_cell_formula_units_Z 50
_cell_length_a 19.566024
_cell_length_b 8.283951
_cell_length_c 18.385927
_cell_angle_alpha 90.000000
_cell_angle_beta 130.988620
_cell_angle_gamma 90.000000
_cell_volume 2249.471350
_symmetry_space_group_name_H-M "C 2/M"
_symmetry_group_IT_number 12
_symmetry_cell_setting 'monoclinic'
loop_
_space_group_symop_operation_xyz
x,y,z
-x,y,-z
-x,-y,-z
x,-y,z
1/2+x,1/2+y,z
1/2-x,1/2+y,-z
1/2-x,1/2-y,-z
1/2+x,1/2-y,z
loop_
_atom_site_type_symbol
_atom_site_label
_atom_site_fract_x
_atom_site_fract_y
_atom_site_fract_z
Si Si1 0.152577 0.813791 0.459720
Si Si2 0.112419 0.687037 0.045439
Si Si3 0.309647 0.180785 0.365352
Si Si4 0.382110 0.181641 0.776472
Si Si5 0.013557 0.312118 0.747315
Si Si6 0.500000 0.500000 0.000000
Si Si7 0.315151 0.314318 0.209625
O O1 0.250000 0.750000 0.500000
O O2 0.148331 0.794028 0.543914
O O3 0.070475 0.718675 0.365455
O O4 0.144225 0.000000 0.433385
O O5 0.089105 0.500000 0.002732
O O6 0.108454 0.673248 0.130884
O O7 0.218638 0.719788 0.104674
O O8 0.057261 0.853357 0.996844
O O9 0.201216 0.201823 0.297625
O O10 0.328511 0.217704 0.294232
O O11 0.337432 0.000000 0.402423
O O12 0.471856 0.229610 0.796606
O O13 0.357924 0.000000 0.733455
O O14 0.038492 0.500000 0.764149
O O15 0.100536 0.214359 0.783476
O O16 0.309916 0.500000 0.229385
#
# Coordination Sequence:
#
# PCOD9214338 Si02
#       7
#     8   8   8   8   8   2   8
#     4  12  23  36  52  79 116 157 204 257 305 340
#     4   9  21  40  63  95 127 152 192 244 294 358
#     4  11  21  34  57  80 113 153 204 257 296 345
#     4   9  19  36  57  85 118 155 195 246 294 345
#     4  11  22  36  59  86 116 157 207 246 296 355
#     4  12  22  36  72 102 116 154 194 236 304 358
#     4  10  22  40  58  85 121 159 195 244 302 351
#
# _framework density 22.227443999999998
#
# number of rings (size 3 to 8) (size 9 to 14) (size 15 to 20)
#    0.000    1.600    1.600    5.040    5.600    1.280 
#    0.000    3.200    0.000    0.960    0.000    0.000 
#    0.000    0.000    0.000    0.000    0.000    0.000 
#
# Total GULP energy -139326.535603 kJ/mol
# GULP energy per Si atom -5573.061424 kJ/mol
# Density = 2.217685 g / cm^3
# Si number density = 22.227444 Si / 1000 Ang^3
#
#
#
# Elastic Constant Matrix: (Units=GPa)
#
#
# Indices 1 2 3 4 5 6 
#
# 1 113.7505 10.3052 1.4691 0.0000 16.9553 0.0000
# 2 10.3052 75.7271 31.1826 0.0000 2.2250 0.0000
# 3 1.4691 31.1826 25.8655 0.0000 7.5590 0.0000
# 4 0.0000 0.0000 0.0000 18.8161 0.0000 5.0691
# 5 16.9553 2.2250 7.5590 0.0000 26.0713 0.0000
# 6 0.0000 0.0000 0.0000 5.0691 0.0000 33.0531
#
#
#
# Elastic Compliance Matrix: (Units=1/GPa)
#
#
# Indices 1 2 3 4 5 6 
#
# 1 0.010275 -0.003782 0.006374 0.000000 -0.008208 0.000000
# 2 -0.003782 0.029057 -0.038033 0.000000 0.011007 0.000000
# 3 0.006374 -0.038033 0.092228 0.000000 -0.027640 0.000000
# 4 0.000000 0.000000 0.000000 0.055436 0.000000 -0.008502
# 5 -0.008208 0.011007 -0.027640 0.000000 0.050769 0.000000
# 6 0.000000 0.000000 0.000000 -0.008502 0.000000 0.031558
#
#
# Mechanical properties :
#
#
# Convention : Reuss Voigt Hill
#
# Bulk Modulus (GPa) = 16.47986 33.47298 24.97642
# Shear Modulus (GPa) = 13.87229 27.08050 20.47640
#
# Velocity S-wave (km/s) = 2.50092 3.49425 3.03846
# Velocity P-wave (km/s) = 3.97112 5.60105 4.85497
#
# Compressibility (1/GPa) = 0.06068014
#
# Stress axis : x y z
#
# Youngs Moduli (GPa) = 97.32488 34.41454 10.84268
#
# Poissons Ratio (x) = 0.13015 -0.06912
# Poissons Ratio (y) = 0.36807 0.41238
# Poissons Ratio (z) = -0.62038 1.30888
#
# Static dielectric constant tensor:
#      x y z
#    x 1.817660 0.000000 0.010740 
#    y 0.000000 1.797050 0.000000 
#    z 0.010740 0.000000 1.854370 
# 
# From -- ./inp_files/230091.got.cif
#   From: 2010.05.17/outbox.cif.g08.bks.cpg/sg12_116_cif.got.tgz:230091.got - 2010.06.03 13:09:07.
