data_PCOD9214069
_publ_section_title
;
Structure prediction by ZEFSAII (Michael W. Deem and Ramdas Pophale) SiO2 
 PCOD9214069
Probable space group: C 2/M
;
_chemical_formula_sum "Si O2"
_cell_formula_units_Z 56
_cell_length_a 20.708146
_cell_length_b 7.925862
_cell_length_c 26.127698
_cell_angle_alpha 90.000000
_cell_angle_beta 140.795209
_cell_angle_gamma 90.000000
_cell_volume 2710.632300
_symmetry_space_group_name_H-M "C 2/M"
_symmetry_group_IT_number 12
_symmetry_cell_setting 'monoclinic'
loop_
_space_group_symop_operation_xyz
x,y,z
-x,y,-z
-x,-y,-z
x,-y,z
1/2+x,1/2+y,z
1/2-x,1/2+y,-z
1/2-x,1/2-y,-z
1/2+x,1/2-y,z
loop_
_atom_site_type_symbol
_atom_site_label
_atom_site_fract_x
_atom_site_fract_y
_atom_site_fract_z
Si Si1 0.230884 0.206710 0.737095
Si Si2 0.991950 0.206213 0.436754
Si Si3 0.073594 0.301605 0.199208
Si Si4 0.479157 0.200389 0.246260
Si Si5 0.247615 0.198409 0.863074
Si Si6 0.868262 0.798006 0.569141
Si Si7 0.456021 0.696270 0.027324
O O1 0.116951 0.258509 0.652994
O O2 0.315815 0.267228 0.749341
O O3 0.257717 0.261895 0.810895
O O4 0.232225 0.000000 0.738312
O O5 0.000000 0.264030 0.500000
O O6 0.081255 0.260967 0.453286
O O7 0.993542 0.000000 0.438569
O O8 0.088929 0.500000 0.218974
O O9 0.022763 0.230838 0.219210
O O10 0.003215 0.283375 0.105931
O O11 0.369255 0.277222 0.192255
O O12 0.561994 0.231593 0.341603
O O13 0.462646 0.000000 0.231662
O O14 0.270931 0.000000 0.878033
O O15 0.333887 0.285804 0.949948
O O16 0.750000 0.750000 0.500000
O O17 0.875884 0.000000 0.575245
O O18 0.484771 0.500000 0.048101
O O19 0.500000 0.763635 0.000000
#
# Coordination Sequence:
#
# PCOD9214069 Si02
#       7
#     8   8   8   8   8   8   8
#     4   9  17  33  58  87 113 150 203 247 287 345
#     4   9  18  33  59  90 117 148 197 249 288 342
#     4  10  22  39  62  89 118 158 206 249 296 359
#     4  11  24  41  62  90 124 159 200 249 302 361
#     4  11  21  38  65  88 117 161 204 246 295 361
#     4  11  23  40  62  89 122 161 201 245 304 362
#     4  11  23  38  59  91 126 155 194 252 314 359
#
# _framework density 20.659388
#
# number of rings (size 3 to 8) (size 9 to 14) (size 15 to 20)
#    0.000    1.714    2.857    1.714    2.000    2.286 
#    0.000    0.000    0.000    1.714    0.000    0.000 
#    0.000    0.000    0.000    0.000    0.000    0.000 
#
# Total GULP energy -156435.761937 kJ/mol
# GULP energy per Si atom -5586.991498 kJ/mol
# Density = 2.061237 g / cm^3
# Si number density = 20.659388 Si / 1000 Ang^3
#
#
#
# Elastic Constant Matrix: (Units=GPa)
#
#
# Indices 1 2 3 4 5 6 
#
# 1 153.4120 -4.5743 44.8122 0.0000 2.5459 0.0000
# 2 -4.5743 25.3224 -18.0046 0.0000 -0.9560 0.0002
# 3 44.8122 -18.0046 88.7347 0.0000 16.0257 0.0000
# 4 0.0000 0.0000 0.0000 22.3604 0.0000 4.4092
# 5 2.5459 -0.9560 16.0257 0.0000 35.3614 0.0000
# 6 0.0000 0.0002 0.0000 4.4092 0.0000 16.6417
#
#
#
# Elastic Compliance Matrix: (Units=1/GPa)
#
#
# Indices 1 2 3 4 5 6 
#
# 1 0.007769 -0.001774 -0.004546 0.000000 0.001453 0.000000
# 2 -0.001774 0.046902 0.011066 0.000000 -0.003619 -0.000001
# 3 -0.004546 0.011066 0.017097 0.000000 -0.007122 0.000000
# 4 0.000000 0.000000 0.000000 0.047187 0.000000 -0.012502
# 5 0.001453 -0.003619 -0.007122 0.000000 0.031305 0.000000
# 6 0.000000 -0.000001 0.000000 -0.012502 0.000000 0.063402
#
#
# Mechanical properties :
#
#
# Convention : Reuss Voigt Hill
#
# Bulk Modulus (GPa) = 12.30614 34.65954 23.48284
# Shear Modulus (GPa) = 21.62104 31.22176 26.42140
#
# Velocity S-wave (km/s) = 3.23855 3.89171 3.58006
# Velocity P-wave (km/s) = 4.46698 6.08334 5.33671
#
# Compressibility (1/GPa) = 0.08126025
#
# Stress axis : x y z
#
# Youngs Moduli (GPa) = 128.71223 21.32119 58.49037
#
# Poissons Ratio (x) = 0.03782 0.26589
# Poissons Ratio (y) = 0.22832 -0.64726
# Poissons Ratio (z) = 0.58511 -0.23594
#
# Static dielectric constant tensor:
#      x y z
#    x 1.783170 0.000000 0.030030 
#    y 0.000000 1.761260 0.000000 
#    z 0.030030 0.000000 1.717140 
# 
# From -- ./inp_files/363242.got.cif
#   From: 2010.05.17/outbox.cif.g08.bks.cpg/sg12_182_cif.got.tgz:363242.got - 2010.06.03 13:09:07.
