data_PCOD9214418
_publ_section_title
;
Structure prediction by ZEFSAII (Michael W. Deem and Ramdas Pophale) SiO2 
 PCOD9214418
Probable space group: C 2/M
;
_chemical_formula_sum "Si O2"
_cell_formula_units_Z 64
_cell_length_a 9.682780
_cell_length_b 15.591723
_cell_length_c 30.951725
_cell_angle_alpha 90.000000
_cell_angle_beta 137.624375
_cell_angle_gamma 90.000000
_cell_volume 3149.425263
_symmetry_space_group_name_H-M "C 2/M"
_symmetry_group_IT_number 12
_symmetry_cell_setting 'monoclinic'
loop_
_space_group_symop_operation_xyz
x,y,z
-x,y,-z
-x,-y,-z
x,-y,z
1/2+x,1/2+y,z
1/2-x,1/2+y,-z
1/2-x,1/2-y,-z
1/2+x,1/2-y,z
loop_
_atom_site_type_symbol
_atom_site_label
_atom_site_fract_x
_atom_site_fract_y
_atom_site_fract_z
Si Si1 0.401953 0.748912 0.682272
Si Si2 0.564244 0.221831 0.403811
Si Si3 0.307105 0.405092 0.246832
Si Si4 0.538954 0.263176 0.059501
Si Si5 0.112681 0.652924 0.809457
Si Si6 0.449586 0.591776 0.098333
Si Si7 0.697759 0.103954 0.513765
Si Si8 0.670541 0.905893 0.117995
O O1 0.374563 0.799373 0.631187
O O2 0.536946 0.666137 0.701483
O O3 0.527542 0.796359 0.748721
O O4 0.180452 0.724664 0.648725
O O5 0.639760 0.147573 0.454157
O O6 0.650295 0.318802 0.434134
O O7 0.383049 0.500000 0.274618
O O8 0.281836 0.395820 0.189396
O O9 0.081183 0.392890 0.214301
O O10 0.773755 0.288903 0.127805
O O11 0.408303 0.330445 0.056772
O O12 0.514197 0.169428 0.073313
O O13 0.500000 0.267888 0.000000
O O14 0.305157 0.596719 0.838313
O O15 0.397511 0.500000 0.066513
O O16 0.330008 0.598883 0.115318
O O17 0.500000 0.106715 0.500000
O O18 0.756228 0.000000 0.524837
O O19 0.574585 0.000000 0.095433
#
# Coordination Sequence:
#
# PCOD9214418 Si02
#       8
#     8   8   8   8   8   8   8   8
#     4  12  23  40  65  97 135 174 213 266 327 377
#     4  11  24  42  68 104 135 175 216 268 317 377
#     4  11  23  40  63  91 125 168 216 263 322 391
#     4  10  23  38  66  90 120 165 223 266 332 397
#     4  10  23  39  63  89 127 167 210 271 325 381
#     4   9  21  40  60  85 119 158 205 264 328 385
#     4  10  22  45  73 100 136 179 221 263 313 376
#     4  10  22  40  60  86 120 160 205 265 327 386
#
# _framework density 20.321168
#
# number of rings (size 3 to 8) (size 9 to 14) (size 15 to 20)
#    0.750    0.875    3.750    0.375    5.250    2.000 
#    0.000    2.500    0.000    0.000    0.000    0.000 
#    0.000    0.000    0.000    0.000    0.000    0.000 
#
# Total GULP energy -178384.345547 kJ/mol
# GULP energy per Si atom -5574.510798 kJ/mol
# Density = 2.027492 g / cm^3
# Si number density = 20.321168 Si / 1000 Ang^3
#
#
#
# Elastic Constant Matrix: (Units=GPa)
#
#
# Indices 1 2 3 4 5 6 
#
# 1 17.5965 20.0326 -2.2093 0.0000 -6.1831 0.0000
# 2 20.0326 134.7176 35.1110 0.0000 -13.2778 0.0000
# 3 -2.2093 35.1110 80.2634 0.0000 -16.2479 0.0000
# 4 0.0000 0.0000 0.0000 19.4468 0.0000 -9.3269
# 5 -6.1831 -13.2778 -16.2479 0.0000 44.2024 0.0000
# 6 0.0000 0.0000 0.0000 -9.3269 0.0000 14.9642
#
#
#
# Elastic Compliance Matrix: (Units=1/GPa)
#
#
# Indices 1 2 3 4 5 6 
#
# 1 0.076430 -0.012907 0.009863 0.000000 0.010440 0.000000
# 2 -0.012907 0.010624 -0.005102 0.000000 -0.000490 0.000000
# 3 0.009863 -0.005102 0.016132 0.000000 0.005777 0.000000
# 4 0.000000 0.000000 0.000000 0.073349 0.000000 0.045717
# 5 0.010440 -0.000490 0.005777 0.000000 0.026060 0.000000
# 6 0.000000 0.000000 0.000000 0.045717 0.000000 0.095320
#
#
# Mechanical properties :
#
#
# Convention : Reuss Voigt Hill
#
# Bulk Modulus (GPa) = 11.50821 37.60512 24.55666
# Shear Modulus (GPa) = 14.57007 27.69889 21.13448
#
# Velocity S-wave (km/s) = 2.68057 3.69596 3.22844
# Velocity P-wave (km/s) = 3.90590 6.06293 5.09976
#
# Compressibility (1/GPa) = 0.08689452
#
# Stress axis : x y z
#
# Youngs Moduli (GPa) = 13.08388 94.13034 61.99016
#
# Poissons Ratio (x) = 1.21493 -0.61142
# Poissons Ratio (y) = 0.16887 0.31625
# Poissons Ratio (z) = -0.12905 0.48022
#
# Static dielectric constant tensor:
#      x y z
#    x 1.694360 0.000000 0.007940 
#    y 0.000000 1.770500 0.000000 
#    z 0.007940 0.000000 1.740480 
# 
# From -- ./inp_files/372587.got.cif
#   From: 2010.05.17/outbox.cif.g08.bks.cpg/sg12_187_cif.got.tgz:372587.got - 2010.06.03 13:09:07.
