data_PCOD9214423
_publ_section_title
;
Structure prediction by ZEFSAII (Michael W. Deem and Ramdas Pophale) SiO2 
 PCOD9214423
Probable space group: C 2/M
;
_chemical_formula_sum "Si O2"
_cell_formula_units_Z 64
_cell_length_a 25.530262
_cell_length_b 17.582695
_cell_length_c 23.290292
_cell_angle_alpha 90.000000
_cell_angle_beta 162.493081
_cell_angle_gamma 90.000000
_cell_volume 3145.022462
_symmetry_space_group_name_H-M "C 2/M"
_symmetry_group_IT_number 12
_symmetry_cell_setting 'monoclinic'
loop_
_space_group_symop_operation_xyz
x,y,z
-x,y,-z
-x,-y,-z
x,-y,z
1/2+x,1/2+y,z
1/2-x,1/2+y,-z
1/2-x,1/2-y,-z
1/2+x,1/2-y,z
loop_
_atom_site_type_symbol
_atom_site_label
_atom_site_fract_x
_atom_site_fract_y
_atom_site_fract_z
Si Si1 0.369293 0.229142 0.316392
Si Si2 0.510464 0.198087 0.942490
Si Si3 0.453779 0.680570 0.683578
Si Si4 0.797282 0.588107 0.035487
Si Si5 0.351167 0.583899 0.892943
Si Si6 0.523694 0.835380 0.361167
Si Si7 0.122424 0.410689 0.288998
Si Si8 0.405141 0.653825 0.766002
O O1 0.500000 0.261998 0.500000
O O2 0.463397 0.201568 0.357442
O O3 0.212092 0.286035 0.137977
O O4 0.281188 0.153349 0.251422
O O5 0.431422 0.125967 0.827835
O O6 0.411584 0.271809 0.813505
O O7 0.500000 0.195102 0.000000
O O8 0.446750 0.765602 0.652073
O O9 0.287522 0.634138 0.486949
O O10 0.452570 0.678237 0.751303
O O11 0.632821 0.641163 0.850863
O O12 0.744366 0.500000 0.979525
O O13 0.877956 0.611433 0.181223
O O14 0.955824 0.598863 0.156621
O O15 0.271603 0.500000 0.807328
O O16 0.453920 0.597292 0.059974
O O17 0.500000 0.589120 0.000000
O O18 0.708795 0.876774 0.561313
O O19 0.161406 0.500000 0.325856
#
# Coordination Sequence:
#
# PCOD9214423 Si02
#       8
#     8   8   8   8   8   8   8   8
#     4  11  23  38  62  92 121 160 214 261 315 366
#     4  11  22  41  64  88 124 162 210 267 313 373
#     4  12  23  41  67  92 130 165 209 260 320 375
#     4  11  24  40  60  94 131 167 209 255 313 382
#     4  10  22  40  60  86 126 172 213 256 309 367
#     4  12  22  38  62  92 125 162 210 261 313 374
#     4  11  24  43  66  94 127 167 211 261 321 382
#     4  11  21  38  64  91 122 165 211 256 312 374
#
# _framework density 20.349616000000001
#
# number of rings (size 3 to 8) (size 9 to 14) (size 15 to 20)
#    0.000    0.875    2.500    7.125    0.000    3.500 
#    0.000    0.000    0.000    0.375    0.000    0.000 
#    0.000    0.000    0.000    0.000    0.000    0.000 
#
# Total GULP energy -179046.093422 kJ/mol
# GULP energy per Si atom -5595.190419 kJ/mol
# Density = 2.030330 g / cm^3
# Si number density = 20.349616 Si / 1000 Ang^3
#
#
#
# Elastic Constant Matrix: (Units=GPa)
#
#
# Indices 1 2 3 4 5 6 
#
# 1 82.4146 0.6175 -3.8038 -0.0067 -20.1933 -0.0016
# 2 0.6175 63.1408 9.4284 0.0101 -7.5816 0.0050
# 3 -3.8038 9.4284 86.6657 0.0103 -3.2433 0.0003
# 4 -0.0067 0.0101 0.0103 18.2937 0.0041 0.7210
# 5 -20.1933 -7.5816 -3.2433 0.0041 34.8364 0.0011
# 6 -0.0016 0.0050 0.0003 0.7210 0.0011 17.1090
#
#
#
# Elastic Compliance Matrix: (Units=1/GPa)
#
#
# Indices 1 2 3 4 5 6 
#
# 1 0.014252 0.000753 0.000862 0.000002 0.008505 0.000000
# 2 0.000753 0.016539 -0.001621 -0.000009 0.003885 -0.000005
# 3 0.000862 -0.001621 0.011799 -0.000006 0.001245 0.000001
# 4 0.000002 -0.000009 -0.000006 0.054755 -0.000007 -0.002307
# 5 0.008505 0.003885 0.001245 -0.000007 0.034597 -0.000002
# 6 0.000000 -0.000005 0.000001 -0.002307 -0.000002 0.058546
#
#
# Mechanical properties :
#
#
# Convention : Reuss Voigt Hill
#
# Bulk Modulus (GPa) = 23.48598 27.18949 25.33774
# Shear Modulus (GPa) = 24.42690 29.11309 26.76999
#
# Velocity S-wave (km/s) = 3.46838 3.78649 3.63092
# Velocity P-wave (km/s) = 5.25413 5.70148 5.48237
#
# Compressibility (1/GPa) = 0.04257859
#
# Stress axis : x y z
#
# Youngs Moduli (GPa) = 70.16598 60.46396 84.75040
#
# Poissons Ratio (x) = -0.04554 -0.07304
# Poissons Ratio (y) = -0.05285 0.13736
# Poissons Ratio (z) = -0.06047 0.09800
#
# Static dielectric constant tensor:
#      x y z
#    x 1.731220 0.000000 0.013400 
#    y 0.000000 1.691120 0.000000 
#    z 0.013400 0.000000 1.712040 
# 
# From -- ./inp_files/326151.got.cif
#   From: 2010.05.17/outbox.cif.g08.bks.cpg/sg12_164_cif.got.tgz:326151.got - 2010.06.03 13:09:07.
