data_PCOD9214437
_publ_section_title
;
Structure prediction by ZEFSAII (Michael W. Deem and Ramdas Pophale) SiO2 
 PCOD9214437
Probable space group: C 2/M
;
_chemical_formula_sum "Si O2"
_cell_formula_units_Z 56
_cell_length_a 18.254733
_cell_length_b 14.268979
_cell_length_c 13.385135
_cell_angle_alpha 90.000000
_cell_angle_beta 45.792234
_cell_angle_gamma 90.000000
_cell_volume 2499.187813
_symmetry_space_group_name_H-M "C 2/M"
_symmetry_group_IT_number 12
_symmetry_cell_setting 'monoclinic'
loop_
_space_group_symop_operation_xyz
x,y,z
-x,y,-z
-x,-y,-z
x,-y,z
1/2+x,1/2+y,z
1/2-x,1/2+y,-z
1/2-x,1/2-y,-z
1/2+x,1/2-y,z
loop_
_atom_site_type_symbol
_atom_site_label
_atom_site_fract_x
_atom_site_fract_y
_atom_site_fract_z
Si Si1 0.049697 0.886458 0.745684
Si Si2 0.746730 0.651595 0.059498
Si Si3 0.255753 0.113013 0.661338
Si Si4 0.448336 0.707873 0.654201
Si Si5 0.525553 0.111265 0.084944
Si Si6 0.032824 0.613138 0.642298
Si Si7 0.144646 0.103823 0.958827
O O1 0.163385 0.866350 0.673713
O O2 0.019019 0.837988 0.672368
O O3 0.039041 0.000000 0.747671
O O4 0.963966 0.852404 0.907384
O O5 0.661080 0.659781 0.225945
O O6 0.750000 0.750000 0.000000
O O7 0.856217 0.626129 0.998087
O O8 0.704401 0.593274 0.006192
O O9 0.364552 0.142309 0.513962
O O10 0.214959 0.149440 0.807123
O O11 0.266858 0.000000 0.658634
O O12 0.500000 0.691388 0.500000
O O13 0.445726 0.819906 0.679207
O O14 0.462298 0.138318 0.244566
O O15 0.508041 0.000000 0.094884
O O16 0.500000 0.151525 0.000000
O O17 0.014870 0.500000 0.649312
O O18 0.119325 0.000000 0.942892
#
# Coordination Sequence:
#
# PCOD9214437 Si02
#       7
#     8   8   8   8   8   8   8
#     4   9  19  38  60  88 128 168 213 262 306 373
#     4  11  22  40  59  88 125 161 206 259 303 374
#     4   9  18  34  61  93 126 163 205 256 322 381
#     4  11  25  41  60  91 126 163 215 263 316 380
#     4  10  22  43  69  93 123 167 214 260 315 383
#     4  10  22  40  60  90 127 161 208 266 320 374
#     4   9  18  34  59  89 120 161 207 256 312 371
#
# _framework density 22.407278000000002
#
# number of rings (size 3 to 8) (size 9 to 14) (size 15 to 20)
#    0.000    2.143    1.429    0.857    2.000    4.571 
#    2.571    1.429    0.000    0.000    0.000    0.000 
#    0.000    0.571    0.000    0.000    0.000    0.000 
#
# Total GULP energy -156345.871110 kJ/mol
# GULP energy per Si atom -5583.781111 kJ/mol
# Density = 2.235628 g / cm^3
# Si number density = 22.407278 Si / 1000 Ang^3
#
#
#
# Elastic Constant Matrix: (Units=GPa)
#
#
# Indices 1 2 3 4 5 6 
#
# 1 58.0235 0.3323 36.5148 0.0000 -1.5548 0.0000
# 2 0.3323 47.1511 16.1217 0.0000 4.7279 0.0000
# 3 36.5148 16.1217 184.6458 0.0000 15.9210 0.0000
# 4 0.0000 0.0000 0.0000 22.4270 0.0000 4.9006
# 5 -1.5548 4.7279 15.9210 0.0000 29.1385 0.0000
# 6 0.0000 0.0000 0.0000 4.9006 0.0000 15.9313
#
#
#
# Elastic Compliance Matrix: (Units=1/GPa)
#
#
# Indices 1 2 3 4 5 6 
#
# 1 0.020044 0.001013 -0.004334 0.000000 0.003274 0.000000
# 2 0.001013 0.022106 -0.001916 0.000000 -0.002486 0.000000
# 3 -0.004334 -0.001916 0.006751 0.000000 -0.003609 0.000000
# 4 0.000000 0.000000 0.000000 0.047802 0.000000 -0.014704
# 5 0.003274 -0.002486 -0.003609 0.000000 0.036869 0.000000
# 6 0.000000 0.000000 0.000000 -0.014704 0.000000 0.067293
#
#
# Mechanical properties :
#
#
# Convention : Reuss Voigt Hill
#
# Bulk Modulus (GPa) = 26.02456 43.97311 34.99883
# Shear Modulus (GPa) = 22.30658 29.28947 25.79802
#
# Velocity S-wave (km/s) = 3.15859 3.61936 3.39680
# Velocity P-wave (km/s) = 4.99417 6.09372 5.57114
#
# Compressibility (1/GPa) = 0.03842524
#
# Stress axis : x y z
#
# Youngs Moduli (GPa) = 49.89014 45.23736 148.11645
#
# Poissons Ratio (x) = -0.04580 0.64201
# Poissons Ratio (y) = -0.05051 0.28379
# Poissons Ratio (z) = 0.21625 0.08667
#
# Static dielectric constant tensor:
#      x y z
#    x 1.682410 0.000000 0.017450 
#    y 0.000000 1.832680 0.000000 
#    z 0.017450 0.000000 1.847110 
# 
# From -- ./inp_files/158191.got.cif
#   From: 2010.05.17/outbox.cif.g08.bks.cpg/sg12_80_cif.got.tgz:158191.got - 2010.06.03 13:09:07.
