data_PCOD9214952
_publ_section_title
;
Structure prediction by ZEFSAII (Michael W. Deem and Ramdas Pophale) SiO2 
 PCOD9214952
Probable space group: C 2/M
;
_chemical_formula_sum "Si O2"
_cell_formula_units_Z 44
_cell_length_a 28.037098
_cell_length_b 16.583549
_cell_length_c 11.725799
_cell_angle_alpha 90.000000
_cell_angle_beta 162.387041
_cell_angle_gamma 90.000000
_cell_volume 1649.685121
_symmetry_space_group_name_H-M "C 2/M"
_symmetry_group_IT_number 12
_symmetry_cell_setting 'monoclinic'
loop_
_space_group_symop_operation_xyz
x,y,z
-x,y,-z
-x,-y,-z
x,-y,z
1/2+x,1/2+y,z
1/2-x,1/2+y,-z
1/2-x,1/2-y,-z
1/2+x,1/2-y,z
loop_
_atom_site_type_symbol
_atom_site_label
_atom_site_fract_x
_atom_site_fract_y
_atom_site_fract_z
Si Si1 0.867376 0.087184 0.859948
Si Si2 0.767243 0.085610 0.368982
Si Si3 0.673069 0.374412 0.883351
Si Si4 0.756519 0.787569 0.185794
Si Si5 0.414425 0.167921 0.688106
Si Si6 0.381916 0.000000 0.508955
O O1 0.803900 0.087702 0.586205
O O2 0.771262 0.154664 0.704154
O O3 0.819192 0.000000 0.808447
O O4 0.054266 0.088345 0.277355
O O5 0.684692 0.161454 0.125812
O O6 0.695138 0.000000 0.168600
O O7 0.500000 0.411035 0.500000
O O8 0.715431 0.352682 0.850113
O O9 0.662716 0.285979 0.917713
O O10 0.799204 0.429043 0.236198
O O11 0.907028 0.740792 0.582174
O O12 0.464279 0.076387 0.770346
O O13 0.500000 0.193201 0.000000
#
# Coordination Sequence:
#
# PCOD9214952 Si02
#       6
#     8   8   8   8   8   4
#     4   9  19  36  59  90 124 158 204 252 308 376
#     4   9  20  37  61  89 122 162 208 258 306 380
#     4  10  23  42  63  88 124 161 219 271 307 364
#     4  10  24  38  57  96 122 163 208 253 327 365
#     4  11  23  38  62  97 136 164 201 256 323 392
#     4  10  22  40  66  95 114 171 216 263 310 361
#
# _framework density 26.671756999999999
#
# number of rings (size 3 to 8) (size 9 to 14) (size 15 to 20)
#    0.000    2.182    0.909    1.636    8.909    2.182 
#    0.000    0.000    0.000    0.545    0.000    0.000 
#    0.000    0.000    0.000    0.000    0.000    0.000 
#
# Total GULP energy -122664.035949 kJ/mol
# GULP energy per Si atom -5575.637998 kJ/mol
# Density = 2.661105 g / cm^3
# Si number density = 26.671757 Si / 1000 Ang^3
#
#
#
# Elastic Constant Matrix: (Units=GPa)
#
#
# Indices 1 2 3 4 5 6 
#
# 1 -968.4950 -30.8031 587.5890 0.0000 53.9005 0.0000
# 2 -30.8031 158.3348 52.4614 0.0000 -12.2677 0.0000
# 3 587.5890 52.4614 -238.8386 0.0000 -76.1220 0.0000
# 4 0.0000 0.0000 0.0000 35.9111 0.0000 -12.0038
# 5 53.9005 -12.2677 -76.1220 0.0000 51.9063 0.0000
# 6 0.0000 0.0000 0.0000 -12.0038 0.0000 37.5877
#
#
#
# Elastic Compliance Matrix: (Units=1/GPa)
#
#
# Indices 1 2 3 4 5 6 
#
# 1 0.004360 -0.001304 0.008166 0.000000 0.007139 0.000000
# 2 -0.001304 0.006686 -0.001823 0.000000 0.000261 0.000000
# 3 0.008166 -0.001823 0.012500 0.000000 0.009421 0.000000
# 4 0.000000 0.000000 0.000000 0.031174 0.000000 0.009956
# 5 0.007139 0.000261 0.009421 0.000000 0.025729 0.000000
# 6 0.000000 0.000000 0.000000 0.009956 0.000000 0.029784
#
#
# Mechanical properties :
#
#
# Convention : Reuss Voigt Hill
#
# Bulk Modulus (GPa) = 29.74114 18.83289 24.28701
# Shear Modulus (GPa) = 44.89768 -85.46874 -20.28553
#
# Velocity S-wave (km/s) = 4.10731 -5.66694 -2.76082
# Velocity P-wave (km/s) = 5.80244 5.97852 1.01842
#
# Compressibility (1/GPa) = 0.03362346
#
# Stress axis : x y z
#
# Youngs Moduli (GPa) = 229.33371 149.56050 80.00319
#
# Poissons Ratio (x) = 0.19505 -0.65329
# Poissons Ratio (y) = 0.29908 0.14585
# Poissons Ratio (z) = -1.87268 0.27265
#
# Static dielectric constant tensor:
#      x y z
#    x 2.600130 0.000000 0.323110 
#    y 0.000000 2.110980 0.000000 
#    z 0.323110 0.000000 2.166810 
# 
# From -- ./inp_files/190117.got.cif
#   From: 2010.05.17/outbox.cif.g08.bks.cpg/sg12_96_cif.got.tgz:190117.got - 2010.06.03 13:09:07.
