data_PCOD9214484
_publ_section_title
;
Structure prediction by ZEFSAII (Michael W. Deem and Ramdas Pophale) SiO2 
 PCOD9214484
Probable space group: C 2/M
;
_chemical_formula_sum "Si O2"
_cell_formula_units_Z 56
_cell_length_a 26.933313
_cell_length_b 9.009568
_cell_length_c 19.044622
_cell_angle_alpha 90.000000
_cell_angle_beta 36.773503
_cell_angle_gamma 90.000000
_cell_volume 2766.568525
_symmetry_space_group_name_H-M "C 2/M"
_symmetry_group_IT_number 12
_symmetry_cell_setting 'monoclinic'
loop_
_space_group_symop_operation_xyz
x,y,z
-x,y,-z
-x,-y,-z
x,-y,z
1/2+x,1/2+y,z
1/2-x,1/2+y,-z
1/2-x,1/2-y,-z
1/2+x,1/2-y,z
loop_
_atom_site_type_symbol
_atom_site_label
_atom_site_fract_x
_atom_site_fract_y
_atom_site_fract_z
Si Si1 0.211414 0.825787 0.113293
Si Si2 0.594140 0.320540 0.367993
Si Si3 0.880274 0.831217 0.163505
Si Si4 0.330384 0.674229 0.444035
Si Si5 0.868041 0.667540 0.036092
Si Si6 0.683628 0.827625 0.396596
Si Si7 0.453697 0.168754 0.206694
O O1 0.128716 0.775084 0.250921
O O2 0.199548 0.000000 0.110125
O O3 0.250000 0.750000 0.000000
O O4 0.284292 0.811535 0.088440
O O5 0.500000 0.283172 0.500000
O O6 0.601360 0.500000 0.362150
O O7 0.653591 0.248747 0.359305
O O8 0.783080 0.821704 0.292390
O O9 0.930822 0.716340 0.153443
O O10 0.908536 0.000000 0.143424
O O11 0.881949 0.786355 0.080717
O O12 0.316114 0.500000 0.464716
O O13 0.250000 0.750000 0.500000
O O14 0.349348 0.741263 0.498614
O O15 0.406534 0.715530 0.308194
O O16 0.866541 0.500000 0.068882
O O17 0.947933 0.674095 0.895729
O O18 0.658758 0.000000 0.425062
O O19 0.424905 0.000000 0.252702
#
# Coordination Sequence:
#
# PCOD9214484 Si02
#       7
#     8   8   8   8   8   8   8
#     4  10  22  41  65  91 124 160 203 257 315 376
#     4  10  22  42  68  96 124 159 209 265 321 380
#     4  11  22  36  59  89 121 159 205 250 300 359
#     4  12  24  39  60  86 121 164 206 253 305 362
#     4  10  22  40  61  87 120 162 205 249 306 367
#     4  11  23  39  62  91 122 160 203 249 305 369
#     4  11  23  38  59  88 124 164 207 251 302 366
#
# _framework density 20.241681
#
# number of rings (size 3 to 8) (size 9 to 14) (size 15 to 20)
#    0.000    1.286    2.857    3.000    0.000    6.571 
#    0.000    2.857    0.000    0.000    0.000    0.000 
#    0.000    0.000    0.000    0.000    0.000    0.000 
#
# Total GULP energy -156337.868580 kJ/mol
# GULP energy per Si atom -5583.495306 kJ/mol
# Density = 2.019561 g / cm^3
# Si number density = 20.241681 Si / 1000 Ang^3
#
#
#
# Elastic Constant Matrix: (Units=GPa)
#
#
# Indices 1 2 3 4 5 6 
#
# 1 30.0462 19.3790 27.4094 0.0006 6.7559 -0.0001
# 2 19.3790 56.9474 31.7802 0.0027 4.8910 -0.0009
# 3 27.4094 31.7802 108.9348 0.0033 10.6831 -0.0005
# 4 0.0006 0.0027 0.0033 30.3438 -0.0015 5.7631
# 5 6.7559 4.8910 10.6831 -0.0015 37.1477 -0.0002
# 6 -0.0001 -0.0009 -0.0005 5.7631 -0.0002 22.6585
#
#
#
# Elastic Compliance Matrix: (Units=1/GPa)
#
#
# Indices 1 2 3 4 5 6 
#
# 1 0.049842 -0.011712 -0.008630 0.000001 -0.005041 -0.000001
# 2 -0.011712 0.023766 -0.004001 -0.000002 0.000152 0.000001
# 3 -0.008630 -0.004001 0.012670 -0.000001 -0.001547 0.000000
# 4 0.000001 -0.000002 -0.000001 0.034628 0.000002 -0.008808
# 5 -0.005041 0.000152 -0.001547 0.000002 0.028261 0.000000
# 6 -0.000001 0.000001 0.000000 -0.008808 0.000000 0.046374
#
#
# Mechanical properties :
#
#
# Convention : Reuss Voigt Hill
#
# Bulk Modulus (GPa) = 26.60175 39.22950 32.91563
# Shear Modulus (GPa) = 19.47363 25.85401 22.66382
#
# Velocity S-wave (km/s) = 3.10507 3.57776 3.34976
# Velocity P-wave (km/s) = 5.10155 6.04068 5.59087
#
# Compressibility (1/GPa) = 0.03759151
#
# Stress axis : x y z
#
# Youngs Moduli (GPa) = 20.06351 42.07762 78.92548
#
# Poissons Ratio (x) = 0.49282 0.68109
# Poissons Ratio (y) = 0.23499 0.31580
# Poissons Ratio (z) = 0.17314 0.16836
#
# Static dielectric constant tensor:
#      x y z
#    x 1.689290 0.000000 -0.007060 
#    y 0.000000 1.708200 0.000000 
#    z -0.007060 0.000000 1.785400 
# 
# From -- ./inp_files/292384.got.cif
#   From: 2010.05.17/outbox.cif.g08.bks.cpg/sg12_147_cif.got.tgz:292384.got - 2010.06.03 13:09:07.
