data_PCOD9214667
_publ_section_title
;
Structure prediction by ZEFSAII (Michael W. Deem and Ramdas Pophale) SiO2 
 PCOD9214667
Probable space group: C 2/M
;
_chemical_formula_sum "Si O2"
_cell_formula_units_Z 40
_cell_length_a 8.463610
_cell_length_b 27.450374
_cell_length_c 18.037021
_cell_angle_alpha 90.000000
_cell_angle_beta 151.042025
_cell_angle_gamma 90.000000
_cell_volume 2028.919345
_symmetry_space_group_name_H-M "C 2/M"
_symmetry_group_IT_number 12
_symmetry_cell_setting 'monoclinic'
loop_
_space_group_symop_operation_xyz
x,y,z
-x,y,-z
-x,-y,-z
x,-y,z
1/2+x,1/2+y,z
1/2-x,1/2+y,-z
1/2-x,1/2-y,-z
1/2+x,1/2-y,z
loop_
_atom_site_type_symbol
_atom_site_label
_atom_site_fract_x
_atom_site_fract_y
_atom_site_fract_z
Si Si1 0.394652 0.500000 0.164684
Si Si2 0.110158 0.099195 0.331241
Si Si3 0.704497 0.201714 0.317226
Si Si4 0.313458 0.300330 0.183421
Si Si5 0.791399 0.500000 0.175678
Si Si6 0.716555 0.095780 0.323995
O O1 0.500777 0.549890 0.247045
O O2 0.610515 0.500000 0.179454
O O3 0.000000 0.500000 0.000000
O O4 0.500000 0.099063 0.500000
O O5 0.010391 0.149524 0.249948
O O6 0.906247 0.097530 0.323974
O O7 0.496536 0.250057 0.242323
O O8 0.777344 0.201035 0.258602
O O9 0.544399 0.148360 0.264705
O O10 0.000000 0.204226 0.500000
O O11 0.000000 0.301889 0.000000
O O12 0.997632 0.548632 0.245281
O O13 0.500000 0.500000 0.000000
O O14 0.000000 0.092463 0.500000
#
# Coordination Sequence:
#
# PCOD9214667 Si02
#       6
#     4   8   8   8   4   8
#     4  12  25  42  63  92 126 162 206 260 318 379
#     4  11  23  41  64  90 123 169 214 260 314 379
#     4  10  22  40  63  90 123 166 212 261 315 380
#     4  11  23  39  62  93 128 165 209 268 323 374
#     4  12  25  40  63  90 122 162 198 254 319 373
#     4  10  22  41  62  90 123 160 210 258 306 369
#
# _framework density 19.714928
#
# number of rings (size 3 to 8) (size 9 to 14) (size 15 to 20)
#    0.000    1.200    0.000    6.000    0.000    7.200 
#    0.000    0.000    0.000    0.000    0.000    0.000 
#    0.000    0.000    0.000    0.000    0.000    0.000 
#
# Total GULP energy -111500.891214 kJ/mol
# GULP energy per Si atom -5575.044561 kJ/mol
# Density = 1.967006 g / cm^3
# Si number density = 19.714928 Si / 1000 Ang^3
#
#
#
# Elastic Constant Matrix: (Units=GPa)
#
#
# Indices 1 2 3 4 5 6 
#
# 1 99.9906 76.8043 49.2087 0.0002 -4.8091 0.0000
# 2 76.8043 277.8073 116.9464 0.0001 18.8476 0.0000
# 3 49.2087 116.9464 147.6791 0.0081 4.5316 -0.0001
# 4 0.0002 0.0001 0.0081 124.5168 0.0015 5.5227
# 5 -4.8091 18.8476 4.5316 0.0015 34.2643 0.0000
# 6 0.0000 0.0000 -0.0001 5.5227 0.0000 36.5344
#
#
#
# Elastic Compliance Matrix: (Units=1/GPa)
#
#
# Indices 1 2 3 4 5 6 
#
# 1 0.013670 -0.003116 -0.002208 0.000000 0.003925 0.000000
# 2 -0.003116 0.006317 -0.003859 0.000000 -0.003401 0.000000
# 3 -0.002208 -0.003859 0.010550 -0.000001 0.000418 0.000000
# 4 0.000000 0.000000 -0.000001 0.008085 0.000000 -0.001222
# 5 0.003925 -0.003401 0.000418 0.000000 0.031551 0.000000
# 6 0.000000 0.000000 0.000000 -0.001222 0.000000 0.027556
#
#
# Mechanical properties :
#
#
# Convention : Reuss Voigt Hill
#
# Bulk Modulus (GPa) = 82.16679 112.37731 97.27205
# Shear Modulus (GPa) = 41.61370 57.89760 49.75565
#
# Velocity S-wave (km/s) = 4.59930 5.42505 5.02915
# Velocity P-wave (km/s) = 8.36496 9.81664 9.11973
#
# Compressibility (1/GPa) = 0.01217037
#
# Stress axis : x y z
#
# Youngs Moduli (GPa) = 73.15432 158.31536 94.78271
#
# Poissons Ratio (x) = 0.49333 0.20926
# Poissons Ratio (y) = 0.22796 0.36580
# Poissons Ratio (z) = 0.16151 0.61099
#
# Static dielectric constant tensor:
#      x y z
#    x 1.735270 0.000000 -0.032910 
#    y 0.000000 1.604150 0.000000 
#    z -0.032910 0.000000 1.698260 
# 
# From -- ./inp_files/259787.got.cif
#   From: 2010.05.17/outbox.cif.g08.bks.cpg/sg12_130_cif.got.tgz:259787.got - 2010.06.03 13:09:07.
