data_PCOD9214590
_publ_section_title
;
Structure prediction by ZEFSAII (Michael W. Deem and Ramdas Pophale) SiO2 
 PCOD9214590
Probable space group: C 2/M
;
_chemical_formula_sum "Si O2"
_cell_formula_units_Z 40
_cell_length_a 16.093456
_cell_length_b 8.641522
_cell_length_c 31.828768
_cell_angle_alpha 90.000000
_cell_angle_beta 27.503756
_cell_angle_gamma 90.000000
_cell_volume 2044.182525
_symmetry_space_group_name_H-M "C 2/M"
_symmetry_group_IT_number 12
_symmetry_cell_setting 'monoclinic'
loop_
_space_group_symop_operation_xyz
x,y,z
-x,y,-z
-x,-y,-z
x,-y,z
1/2+x,1/2+y,z
1/2-x,1/2+y,-z
1/2-x,1/2-y,-z
1/2+x,1/2-y,z
loop_
_atom_site_type_symbol
_atom_site_label
_atom_site_fract_x
_atom_site_fract_y
_atom_site_fract_z
Si Si1 0.712449 0.183489 0.901213
Si Si2 0.547627 0.187038 0.277793
Si Si3 0.318655 0.686757 0.604460
Si Si4 0.109082 0.316900 0.096570
Si Si5 0.220384 0.315437 0.284617
O O1 0.794382 0.236797 0.820380
O O2 0.815468 0.276363 0.891221
O O3 0.742342 0.000000 0.893889
O O4 0.500000 0.212969 0.000000
O O5 0.358776 0.235591 0.341813
O O6 0.574525 0.227864 0.314518
O O7 0.561890 0.000000 0.267957
O O8 0.500000 0.739637 0.500000
O O9 0.318656 0.500000 0.605023
O O10 0.310411 0.743575 0.655927
O O11 0.092538 0.500000 0.098441
O O12 0.914030 0.239676 0.180859
O O13 0.250000 0.250000 0.000000
O O14 0.222297 0.500000 0.287968
#
# Coordination Sequence:
#
# PCOD9214590 Si02
#       5
#     8   8   8   8   8
#     4  11  23  38  59  90 125 163 209 256 307 371
#     4  10  22  40  62  90 126 167 207 257 315 372
#     4  10  22  42  66  92 125 168 214 262 319 377
#     4  12  24  39  60  88 125 167 210 257 314 370
#     4  11  23  40  63  93 127 164 212 262 314 371
#
# _framework density 19.567723999999998
#
# number of rings (size 3 to 8) (size 9 to 14) (size 15 to 20)
#    0.000    1.200    2.000    4.200    0.000    7.600 
#    0.000    0.000    0.000    0.000    0.000    0.000 
#    0.000    0.000    0.000    0.000    0.000    0.000 
#
# Total GULP energy -111845.742503 kJ/mol
# GULP energy per Si atom -5592.287125 kJ/mol
# Density = 1.952319 g / cm^3
# Si number density = 19.567724 Si / 1000 Ang^3
#
#
#
# Elastic Constant Matrix: (Units=GPa)
#
#
# Indices 1 2 3 4 5 6 
#
# 1 147.8721 20.8748 65.5980 -0.0006 5.6487 0.0004
# 2 20.8748 17.8532 19.0990 -0.0003 -5.2429 -0.0001
# 3 65.5980 19.0990 139.5963 -0.0034 2.6027 -0.0019
# 4 -0.0006 -0.0003 -0.0034 15.1164 -0.0016 8.4964
# 5 5.6487 -5.2429 2.6027 -0.0016 22.9821 -0.0004
# 6 0.0004 -0.0001 -0.0019 8.4964 -0.0004 32.2822
#
#
#
# Elastic Compliance Matrix: (Units=1/GPa)
#
#
# Indices 1 2 3 4 5 6 
#
# 1 0.009611 -0.008992 -0.003210 -0.000001 -0.004050 0.000000
# 2 -0.008992 0.080495 -0.007186 0.000002 0.021387 0.000000
# 3 -0.003210 -0.007186 0.009692 0.000002 -0.001948 0.000000
# 4 -0.000001 0.000002 0.000002 0.077639 0.000005 -0.020434
# 5 -0.004050 0.021387 -0.001948 0.000005 0.049607 -0.000001
# 6 0.000000 0.000000 0.000000 -0.020434 -0.000001 0.036355
#
#
# Mechanical properties :
#
#
# Convention : Reuss Voigt Hill
#
# Bulk Modulus (GPa) = 16.38822 57.38502 36.88662
# Shear Modulus (GPa) = 15.50309 27.39279 21.44794
#
# Velocity S-wave (km/s) = 2.81780 3.74558 3.31431
# Velocity P-wave (km/s) = 4.35660 6.93512 5.79119
#
# Compressibility (1/GPa) = 0.06101946
#
# Stress axis : x y z
#
# Youngs Moduli (GPa) = 104.04762 12.42315 103.18162
#
# Poissons Ratio (x) = 0.11171 0.33126
# Poissons Ratio (y) = 0.93565 0.74147
# Poissons Ratio (z) = 0.33404 0.08927
#
# Static dielectric constant tensor:
#      x y z
#    x 1.701730 0.000000 -0.002860 
#    y 0.000000 1.659380 0.000000 
#    z -0.002860 0.000000 1.667210 
# 
# From -- ./inp_files/211164.got.cif
#   From: 2010.05.17/outbox.cif.g08.bks.cpg/sg12_106_cif.got.tgz:211164.got - 2010.06.03 13:09:07.
