data_PCOD9214140
_publ_section_title
;
Structure prediction by ZEFSAII (Michael W. Deem and Ramdas Pophale) SiO2 
 PCOD9214140
Probable space group: C 2/M
;
_chemical_formula_sum "Si O2"
_cell_formula_units_Z 56
_cell_length_a 14.647862
_cell_length_b 18.051881
_cell_length_c 20.850735
_cell_angle_alpha 90.000000
_cell_angle_beta 150.162209
_cell_angle_gamma 90.000000
_cell_volume 2743.162240
_symmetry_space_group_name_H-M "C 2/M"
_symmetry_group_IT_number 12
_symmetry_cell_setting 'monoclinic'
loop_
_space_group_symop_operation_xyz
x,y,z
-x,y,-z
-x,-y,-z
x,-y,z
1/2+x,1/2+y,z
1/2-x,1/2+y,-z
1/2-x,1/2-y,-z
1/2+x,1/2-y,z
loop_
_atom_site_type_symbol
_atom_site_label
_atom_site_fract_x
_atom_site_fract_y
_atom_site_fract_z
Si Si1 0.685249 0.314818 0.148837
Si Si2 0.010974 0.583700 0.295803
Si Si3 0.779460 0.845554 0.225024
Si Si4 0.325023 0.302052 0.488583
Si Si5 0.554764 0.136953 0.882521
Si Si6 0.400159 0.584511 0.174520
Si Si7 0.117895 0.216017 0.256440
O O1 0.720790 0.229191 0.151161
O O2 0.665000 0.310210 0.213434
O O3 0.855205 0.366010 0.233775
O O4 0.500000 0.339834 0.000000
O O5 0.008169 0.500000 0.317859
O O6 0.206268 0.623354 0.422026
O O7 0.970929 0.587283 0.195607
O O8 0.616216 0.868134 0.172739
O O9 0.827724 0.907075 0.202643
O O10 0.962811 0.821184 0.374025
O O11 0.250000 0.250000 0.500000
O O12 0.271733 0.260400 0.390187
O O13 0.542529 0.222155 0.850139
O O14 0.738115 0.112405 0.029315
O O15 0.450954 0.500000 0.191360
O O16 0.558871 0.644751 0.260841
#
# Coordination Sequence:
#
# PCOD9214140 Si02
#       7
#     8   8   8   8   8   8   8
#     4  11  22  39  66  94 121 159 211 263 312 370
#     4  11  24  41  62  90 126 166 204 258 318 370
#     4  11  22  40  63  91 119 162 214 259 305 367
#     4  11  21  44  67  86 122 163 216 259 300 369
#     4  10  22  39  63  89 124 165 210 256 308 377
#     4  12  23  37  60  94 134 165 197 257 327 379
#     4  10  22  39  66  92 119 168 216 259 306 370
#
# _framework density 20.414396
#
# number of rings (size 3 to 8) (size 9 to 14) (size 15 to 20)
#    0.000    1.143    2.857    4.714    0.000    8.286 
#    0.000    0.714    0.000    0.857    0.000    0.000 
#    0.000    0.000    0.000    0.000    0.000    0.000 
#
# Total GULP energy -156528.490923 kJ/mol
# GULP energy per Si atom -5590.303247 kJ/mol
# Density = 2.036793 g / cm^3
# Si number density = 20.414396 Si / 1000 Ang^3
#
#
#
# Elastic Constant Matrix: (Units=GPa)
#
#
# Indices 1 2 3 4 5 6 
#
# 1 43.3233 18.6382 -25.5057 0.0042 -10.2763 0.0012
# 2 18.6382 106.6936 5.0543 0.0013 5.0843 0.0009
# 3 -25.5057 5.0543 59.6508 0.0029 0.7526 0.0012
# 4 0.0042 0.0013 0.0029 5.5369 -0.0003 -5.7420
# 5 -10.2763 5.0843 0.7526 -0.0003 32.2363 0.0003
# 6 0.0012 0.0009 0.0012 -5.7420 0.0003 8.6378
#
#
#
# Elastic Compliance Matrix: (Units=1/GPa)
#
#
# Indices 1 2 3 4 5 6 
#
# 1 0.040639 -0.008611 0.017931 -0.000146 0.013894 -0.000105
# 2 -0.008611 0.011305 -0.004584 0.000022 -0.004421 0.000015
# 3 0.017931 -0.004584 0.024746 -0.000100 0.005861 -0.000072
# 4 -0.000146 0.000022 -0.000100 0.581413 -0.000045 0.386493
# 5 0.013894 -0.004421 0.005861 -0.000045 0.036011 -0.000034
# 6 -0.000105 0.000015 -0.000072 0.386493 -0.000034 0.372691
#
#
# Mechanical properties :
#
#
# Convention : Reuss Voigt Hill
#
# Bulk Modulus (GPa) = 11.60612 22.89348 17.24980
# Shear Modulus (GPa) = 4.60383 23.38093 13.99238
#
# Velocity S-wave (km/s) = 1.50336 3.38792 2.62089
# Velocity P-wave (km/s) = 2.95145 5.15197 4.19844
#
# Compressibility (1/GPa) = 0.08616144
#
# Stress axis : x y z
#
# Youngs Moduli (GPa) = 24.60704 88.45925 40.41125
#
# Poissons Ratio (x) = 0.76169 -0.72460
# Poissons Ratio (y) = 0.21188 0.18524
# Poissons Ratio (z) = -0.44122 0.40548
#
# Static dielectric constant tensor:
#      x y z
#    x 1.741610 0.000000 -0.003390 
#    y 0.000000 1.722360 0.000000 
#    z -0.003390 0.000000 1.744700 
# 
# From -- ./inp_files/311726.got.cif
#   From: 2010.05.17/outbox.cif.g08.bks.cpg/sg12_156_cif.got.tgz:311726.got - 2010.06.03 13:09:07.
