data_PCOD9214070
_publ_section_title
;
Structure prediction by ZEFSAII (Michael W. Deem and Ramdas Pophale) SiO2 
 PCOD9214070
Probable space group: C 2/M
;
_chemical_formula_sum "Si O2"
_cell_formula_units_Z 56
_cell_length_a 8.099466
_cell_length_b 26.314620
_cell_length_c 14.234148
_cell_angle_alpha 90.000000
_cell_angle_beta 65.795509
_cell_angle_gamma 90.000000
_cell_volume 2767.079904
_symmetry_space_group_name_H-M "C 2/M"
_symmetry_group_IT_number 12
_symmetry_cell_setting 'monoclinic'
loop_
_space_group_symop_operation_xyz
x,y,z
-x,y,-z
-x,-y,-z
x,-y,z
1/2+x,1/2+y,z
1/2-x,1/2+y,-z
1/2-x,1/2-y,-z
1/2+x,1/2-y,z
loop_
_atom_site_type_symbol
_atom_site_label
_atom_site_fract_x
_atom_site_fract_y
_atom_site_fract_z
Si Si1 0.093754 0.784888 0.762091
Si Si2 0.324618 0.909047 0.278727
Si Si3 0.292905 0.054596 0.082053
Si Si4 0.537727 0.349099 0.595640
Si Si5 0.421547 0.818063 0.819123
Si Si6 0.659146 0.338902 0.039715
Si Si7 0.192470 0.442932 0.506710
O O1 0.102002 0.808022 0.656188
O O2 0.264025 0.804169 0.782294
O O3 0.074649 0.724476 0.770905
O O4 0.913433 0.805646 0.857117
O O5 0.297244 0.942659 0.193470
O O6 0.497464 0.873126 0.221301
O O7 0.336998 0.937565 0.374665
O O8 0.149817 0.873043 0.326251
O O9 0.193164 0.104053 0.066612
O O10 0.216900 0.000000 0.068755
O O11 0.500000 0.057702 0.000000
O O12 0.500000 0.328065 0.500000
O O13 0.676297 0.396772 0.553643
O O14 0.335152 0.818380 0.943681
O O15 0.500000 0.338763 0.000000
O O16 0.265314 0.500000 0.469536
O O17 0.000000 0.437848 0.500000
#
# Coordination Sequence:
#
# PCOD9214070 Si02
#       7
#     8   8   8   8   8   8   8
#     4  11  22  40  60  92 123 163 208 253 312 363
#     4  11  21  39  62  88 123 161 203 254 304 363
#     4  11  22  37  61  89 124 162 202 252 306 364
#     4  10  22  39  62  89 120 155 203 254 301 361
#     4  11  23  38  63  89 124 165 205 252 309 368
#     4  10  22  40  61  89 125 162 205 255 302 370
#     4  10  22  41  64  90 121 159 205 255 310 365
#
# _framework density 20.237943000000001
#
# number of rings (size 3 to 8) (size 9 to 14) (size 15 to 20)
#    0.000    1.429    2.857    2.571    0.000    3.429 
#    0.000    7.143    0.000    0.000    0.000    0.000 
#    0.000    0.000    0.000    0.000    0.000    0.000 
#
# Total GULP energy -156470.597557 kJ/mol
# GULP energy per Si atom -5588.235627 kJ/mol
# Density = 2.019188 g / cm^3
# Si number density = 20.237943 Si / 1000 Ang^3
#
#
#
# Elastic Constant Matrix: (Units=GPa)
#
#
# Indices 1 2 3 4 5 6 
#
# 1 47.3267 6.4921 19.2812 0.0000 9.2794 0.0000
# 2 6.4921 90.7084 17.1213 0.0000 9.2528 0.0000
# 3 19.2812 17.1213 94.7596 0.0000 14.1274 0.0000
# 4 0.0000 0.0000 0.0000 23.2043 0.0000 -5.4160
# 5 9.2794 9.2528 14.1274 0.0000 31.0214 0.0000
# 6 0.0000 0.0000 0.0000 -5.4160 0.0000 28.6222
#
#
#
# Elastic Compliance Matrix: (Units=1/GPa)
#
#
# Indices 1 2 3 4 5 6 
#
# 1 0.023833 -0.000422 -0.004001 0.000000 -0.005181 0.000000
# 2 -0.000422 0.011627 -0.001627 0.000000 -0.002601 0.000000
# 3 -0.004001 -0.001627 0.012241 0.000000 -0.003893 0.000000
# 4 0.000000 0.000000 0.000000 0.045087 0.000000 0.008532
# 5 -0.005181 -0.002601 -0.003893 0.000000 0.036334 0.000000
# 6 0.000000 0.000000 0.000000 0.008532 0.000000 0.036552
#
#
# Mechanical properties :
#
#
# Convention : Reuss Voigt Hill
#
# Bulk Modulus (GPa) = 28.08851 35.39823 31.74337
# Shear Modulus (GPa) = 26.36540 29.22959 27.79749
#
# Velocity S-wave (km/s) = 3.61331 3.80451 3.71014
# Velocity P-wave (km/s) = 5.59618 6.06861 5.83718
#
# Compressibility (1/GPa) = 0.03560175
#
# Stress axis : x y z
#
# Youngs Moduli (GPa) = 41.95782 86.00698 81.68974
#
# Poissons Ratio (x) = 0.03631 0.32682
# Poissons Ratio (y) = 0.01771 0.13292
# Poissons Ratio (z) = 0.16786 0.13995
#
# Static dielectric constant tensor:
#      x y z
#    x 1.702590 0.000000 -0.006060 
#    y 0.000000 1.702780 0.000000 
#    z -0.006060 0.000000 1.723400 
# 
# From -- ./inp_files/198783.got.cif
#   From: 2010.05.17/outbox.cif.g08.bks.cpg/sg12_100_cif.got.tgz:198783.got - 2010.06.03 13:09:07.
