data_PCOD9214332
_publ_section_title
;
Structure prediction by ZEFSAII (Michael W. Deem and Ramdas Pophale) SiO2 
 PCOD9214332
Probable space group: C 2/M
;
_chemical_formula_sum "Si O2"
_cell_formula_units_Z 64
_cell_length_a 7.987981
_cell_length_b 26.221960
_cell_length_c 16.174598
_cell_angle_alpha 90.000000
_cell_angle_beta 90.745097
_cell_angle_gamma 90.000000
_cell_volume 3387.653209
_symmetry_space_group_name_H-M "C 2/M"
_symmetry_group_IT_number 12
_symmetry_cell_setting 'monoclinic'
loop_
_space_group_symop_operation_xyz
x,y,z
-x,y,-z
-x,-y,-z
x,-y,z
1/2+x,1/2+y,z
1/2-x,1/2+y,-z
1/2-x,1/2-y,-z
1/2+x,1/2-y,z
loop_
_atom_site_type_symbol
_atom_site_label
_atom_site_fract_x
_atom_site_fract_y
_atom_site_fract_z
Si Si1 0.811318 0.780114 0.791974
Si Si2 0.704453 0.850754 0.666331
Si Si3 0.179828 0.439357 0.789832
Si Si4 0.673381 0.178727 0.311109
Si Si5 0.698267 0.309243 0.506358
Si Si6 0.995309 0.292296 0.097504
Si Si7 0.500837 0.561414 0.094624
Si Si8 0.669217 0.890994 0.166750
O O1 0.845031 0.821665 0.721685
O O2 0.767364 0.729660 0.736381
O O3 0.676781 0.803427 0.855389
O O4 0.950412 0.758818 0.854305
O O5 0.693160 0.906895 0.705006
O O6 0.529960 0.821804 0.687204
O O7 0.731367 0.841885 0.569909
O O8 0.186838 0.500000 0.776346
O O9 0.333703 0.424421 0.851657
O O10 0.000471 0.424126 0.828308
O O11 0.738422 0.174354 0.403740
O O12 0.717071 0.129697 0.257468
O O13 0.500000 0.312180 0.500000
O O14 0.750000 0.250000 0.500000
O O15 0.118729 0.339434 0.117256
O O16 0.000000 0.284131 0.000000
O O17 0.499187 0.500000 0.093503
O O18 0.328171 0.580860 0.131831
O O19 0.500000 0.579954 0.000000
#
# Coordination Sequence:
#
# PCOD9214332 Si02
#       8
#     8   8   8   8   8   8   8   8
#     4  11  20  38  56  80 122 161 204 246 295 371
#     4  11  22  40  63  89 125 161 205 256 313 381
#     4  10  22  42  68  95 125 167 211 263 322 372
#     4  10  22  40  57  88 121 162 200 249 307 373
#     4  12  25  35  61  91 123 159 200 255 311 367
#     4  11  24  38  55  86 125 171 212 249 309 372
#     4  10  23  40  63  96 123 159 216 272 324 371
#     4  10  22  41  65  88 128 166 211 258 317 377
#
# _framework density 18.892133000000001
#
# number of rings (size 3 to 8) (size 9 to 14) (size 15 to 20)
#    0.000    1.375    5.000    1.875    5.250    1.000 
#    0.000    5.000    0.000    7.125    0.000    0.000 
#    0.000    0.000    0.000    0.000    0.000    0.000 
#
# Total GULP energy -178521.878970 kJ/mol
# GULP energy per Si atom -5578.808718 kJ/mol
# Density = 1.884913 g / cm^3
# Si number density = 18.892133 Si / 1000 Ang^3
#
#
#
# Elastic Constant Matrix: (Units=GPa)
#
#
# Indices 1 2 3 4 5 6 
#
# 1 85.7134 41.7561 50.6674 0.0000 -6.0886 0.0000
# 2 41.7561 65.5957 47.2151 0.0000 8.7376 0.0000
# 3 50.6674 47.2151 173.4867 0.0000 -0.2811 0.0000
# 4 0.0000 0.0000 0.0000 23.0188 0.0000 -3.0371
# 5 -6.0886 8.7376 -0.2811 0.0000 25.8428 0.0000
# 6 0.0000 0.0000 0.0000 -3.0371 0.0000 35.1332
#
#
#
# Elastic Compliance Matrix: (Units=1/GPa)
#
#
# Indices 1 2 3 4 5 6 
#
# 1 0.019453 -0.011739 -0.002473 0.000000 0.008525 0.000000
# 2 -0.011739 0.027188 -0.003991 0.000000 -0.012002 0.000000
# 3 -0.002473 -0.003991 0.007574 0.000000 0.000849 0.000000
# 4 0.000000 0.000000 0.000000 0.043944 0.000000 0.003799
# 5 0.008525 -0.012002 0.000849 0.000000 0.044771 0.000000
# 6 0.000000 0.000000 0.000000 0.003799 0.000000 0.028791
#
#
# Mechanical properties :
#
#
# Convention : Reuss Voigt Hill
#
# Bulk Modulus (GPa) = 56.14537 67.11922 61.63229
# Shear Modulus (GPa) = 23.35771 29.14276 26.25024
#
# Velocity S-wave (km/s) = 3.52002 3.93184 3.73162
# Velocity P-wave (km/s) = 6.80472 7.49781 7.15966
#
# Compressibility (1/GPa) = 0.01781091
#
# Stress axis : x y z
#
# Youngs Moduli (GPa) = 51.40687 36.78037 132.03582
#
# Poissons Ratio (x) = 0.43175 0.32648
# Poissons Ratio (y) = 0.60345 0.52690
# Poissons Ratio (z) = 0.12711 0.14677
#
# Static dielectric constant tensor:
#      x y z
#    x 1.717510 0.000000 0.010920 
#    y 0.000000 1.645970 0.000000 
#    z 0.010920 0.000000 1.660530 
# 
# From -- ./inp_files/198896.got.cif
#   From: 2010.05.17/outbox.cif.g08.bks.cpg/sg12_100_cif.got.tgz:198896.got - 2010.06.03 13:09:07.
