data_PCOD9214611
_publ_section_title
;
Structure prediction by ZEFSAII (Michael W. Deem and Ramdas Pophale) SiO2 
 PCOD9214611
Probable space group: C 2/M
;
_chemical_formula_sum "Si O2"
_cell_formula_units_Z 56
_cell_length_a 21.511426
_cell_length_b 21.586374
_cell_length_c 5.650539
_cell_angle_alpha 90.000000
_cell_angle_beta 65.048562
_cell_angle_gamma 90.000000
_cell_volume 2378.953435
_symmetry_space_group_name_H-M "C 2/M"
_symmetry_group_IT_number 12
_symmetry_cell_setting 'monoclinic'
loop_
_space_group_symop_operation_xyz
x,y,z
-x,y,-z
-x,-y,-z
x,-y,z
1/2+x,1/2+y,z
1/2-x,1/2+y,-z
1/2-x,1/2-y,-z
1/2+x,1/2-y,z
loop_
_atom_site_type_symbol
_atom_site_label
_atom_site_fract_x
_atom_site_fract_y
_atom_site_fract_z
Si Si1 0.925464 0.066590 0.491925
Si Si2 0.181435 0.610097 0.935542
Si Si3 0.070520 0.565911 0.745321
Si Si4 0.887289 0.679931 0.586253
Si Si5 0.244974 0.176795 0.556503
Si Si6 0.460110 0.697110 0.311244
Si Si7 0.799422 0.931396 0.064144
O O1 0.926364 0.129536 0.340899
O O2 0.000000 0.065174 0.500000
O O3 0.919537 0.000000 0.373587
O O4 0.863241 0.069782 0.779362
O O5 0.133890 0.573481 0.827632
O O6 0.244864 0.644297 0.709121
O O7 0.130835 0.664744 0.113955
O O8 0.224041 0.570840 0.058358
O O9 0.078848 0.500000 0.603715
O O10 0.066085 0.624363 0.580525
O O11 0.000000 0.564735 0.000000
O O12 0.815381 0.667431 0.581091
O O13 0.910988 0.745637 0.452335
O O14 0.250000 0.250000 0.500000
O O15 0.195642 0.132060 0.788926
O O16 0.500000 0.694156 0.500000
O O17 0.500000 0.709766 0.000000
O O18 0.801926 0.000000 0.180558
#
# Coordination Sequence:
#
# PCOD9214611 Si02
#       7
#     8   8   8   8   8   8   8
#     4   9  21  44  70 100 133 172 227 288 353 420
#     4  10  23  39  62  94 126 176 221 282 334 409
#     4  10  22  40  62  91 129 173 224 277 338 401
#     4  10  24  39  63  94 134 172 227 282 338 408
#     4  10  24  39  63  93 131 175 222 280 341 410
#     4  11  26  43  71 102 140 187 229 288 352 422
#     4  10  22  42  66  95 132 175 225 283 346 414
#
# _framework density 23.539763000000001
#
# number of rings (size 3 to 8) (size 9 to 14) (size 15 to 20)
#    0.000    2.000    0.000    0.857   10.000    8.857 
#    0.000    1.429    0.000    0.000    0.000    0.000 
#    0.000    0.000    0.000    0.000    0.000    0.000 
#
# Total GULP energy -155924.758401 kJ/mol
# GULP energy per Si atom -5568.741371 kJ/mol
# Density = 2.348619 g / cm^3
# Si number density = 23.539763 Si / 1000 Ang^3
#
#
#
# Elastic Constant Matrix: (Units=GPa)
#
#
# Indices 1 2 3 4 5 6 
#
# 1 98.6589 25.1963 15.4379 0.0000 -4.4027 0.0000
# 2 25.1963 153.1011 26.3014 0.0000 -11.7151 0.0000
# 3 15.4379 26.3014 67.5938 0.0000 -12.6242 0.0000
# 4 0.0000 0.0000 0.0000 -220.5070 0.0000 -93.8507
# 5 -4.4027 -11.7151 -12.6242 0.0000 27.7502 0.0000
# 6 0.0000 0.0000 0.0000 -93.8507 0.0000 -10.3656
#
#
#
# Elastic Compliance Matrix: (Units=1/GPa)
#
#
# Indices 1 2 3 4 5 6 
#
# 1 0.010806 -0.001439 -0.001859 0.000000 0.000261 0.000000
# 2 -0.001439 0.007282 -0.002156 0.000000 0.001865 0.000000
# 3 -0.001859 -0.002156 0.017303 0.000000 0.006666 0.000000
# 4 0.000000 0.000000 0.000000 0.001589 0.000000 -0.014389
# 5 0.000261 0.001865 0.006666 0.000000 0.039897 0.000000
# 6 0.000000 0.000000 0.000000 -0.014389 0.000000 0.033808
#
#
# Mechanical properties :
#
#
# Convention : Reuss Voigt Hill
#
# Bulk Modulus (GPa) = 40.84774 50.35833 45.60304
# Shear Modulus (GPa) = 38.53414 -23.79660 7.36877
#
# Velocity S-wave (km/s) = 4.05035 -3.18293 1.77120
# Velocity P-wave (km/s) = 6.26611 2.81625 4.85774
#
# Compressibility (1/GPa) = 0.02448116
#
# Stress axis : x y z
#
# Youngs Moduli (GPa) = 92.54096 137.33275 57.79345
#
# Poissons Ratio (x) = 0.19762 0.10746
# Poissons Ratio (y) = 0.13316 0.12463
# Poissons Ratio (z) = 0.17206 0.29615
#
# Static dielectric constant tensor:
#      x y z
#    x 1.991580 0.000000 0.014170 
#    y 0.000000 2.088760 0.000000 
#    z 0.014170 0.000000 2.162110 
# 
# From -- ./inp_files/29136.got.cif
#   From: 2010.05.17/outbox.cif.g08.bks.cpg/sg12_15_cif.got.tgz:29136.got - 2010.06.03 13:09:07.
