data_PCOD9214410
_publ_section_title
;
Structure prediction by ZEFSAII (Michael W. Deem and Ramdas Pophale) SiO2 
 PCOD9214410
Probable space group: C 2/M
;
_chemical_formula_sum "Si O2"
_cell_formula_units_Z 56
_cell_length_a 9.421369
_cell_length_b 16.726182
_cell_length_c 19.033193
_cell_angle_alpha 90.000000
_cell_angle_beta 63.661341
_cell_angle_gamma 90.000000
_cell_volume 2687.950434
_symmetry_space_group_name_H-M "C 2/M"
_symmetry_group_IT_number 12
_symmetry_cell_setting 'monoclinic'
loop_
_space_group_symop_operation_xyz
x,y,z
-x,y,-z
-x,-y,-z
x,-y,z
1/2+x,1/2+y,z
1/2-x,1/2+y,-z
1/2-x,1/2-y,-z
1/2+x,1/2-y,z
loop_
_atom_site_type_symbol
_atom_site_label
_atom_site_fract_x
_atom_site_fract_y
_atom_site_fract_z
Si Si1 0.615567 0.176438 0.685609
Si Si2 0.823995 0.833429 0.008935
Si Si3 0.699780 0.591417 0.248613
Si Si4 0.360466 0.360663 0.278982
Si Si5 0.519484 0.906901 0.413290
Si Si6 0.807697 0.403857 0.821253
Si Si7 0.657542 0.905394 0.925379
O O1 0.772117 0.141778 0.687629
O O2 0.611333 0.269778 0.702999
O O3 0.587166 0.150840 0.611651
O O4 0.472845 0.131363 0.757383
O O5 0.724957 0.872958 0.093709
O O6 0.750000 0.750000 0.000000
O O7 0.803366 0.889259 0.945467
O O8 0.000000 0.824882 0.000000
O O9 0.749672 0.500000 0.250049
O O10 0.518566 0.593210 0.264628
O O11 0.800765 0.627255 0.160802
O O12 0.201948 0.393047 0.351145
O O13 0.322084 0.369775 0.204869
O O14 0.500000 0.892034 0.500000
O O15 0.479491 0.000000 0.407340
O O16 0.807687 0.500000 0.818855
O O17 0.636644 0.000000 0.920585
O O18 0.500000 0.875109 0.000000
#
# Coordination Sequence:
#
# PCOD9214410 Si02
#       7
#     8   8   8   8   8   8   8
#     4  11  23  39  65  95 128 165 208 261 323 382
#     4  12  27  40  60  87 125 170 220 287 336 394
#     4  11  21  36  62  88 120 158 208 268 314 379
#     4  11  23  39  64  96 128 162 211 267 323 382
#     4  10  22  44  69  93 130 175 214 255 314 395
#     4  11  24  43  66  89 125 175 225 266 321 401
#     4  10  22  40  60  85 120 164 215 272 338 394
#
# _framework density 20.833717
#
# number of rings (size 3 to 8) (size 9 to 14) (size 15 to 20)
#    0.000    1.143    0.000    7.714    6.000    4.000 
#    0.000    0.714    0.000    2.571    0.000    0.000 
#    0.000    0.000    0.000    0.000    0.000    0.000 
#
# Total GULP energy -156571.185273 kJ/mol
# GULP energy per Si atom -5591.828045 kJ/mol
# Density = 2.078630 g / cm^3
# Si number density = 20.833717 Si / 1000 Ang^3
#
#
#
# Elastic Constant Matrix: (Units=GPa)
#
#
# Indices 1 2 3 4 5 6 
#
# 1 93.3804 2.2694 11.0483 0.0000 15.8354 0.0000
# 2 2.2694 102.5332 25.1124 0.0000 22.6984 0.0000
# 3 11.0483 25.1124 88.1747 0.0000 20.9095 0.0000
# 4 0.0000 0.0000 0.0000 24.2803 0.0000 7.7687
# 5 15.8354 22.6984 20.9095 0.0000 27.6569 0.0000
# 6 0.0000 0.0000 0.0000 7.7687 0.0000 36.1715
#
#
#
# Elastic Compliance Matrix: (Units=1/GPa)
#
#
# Indices 1 2 3 4 5 6 
#
# 1 0.012057 0.001543 -0.000016 0.000000 -0.008158 0.000000
# 2 0.001543 0.012241 -0.001325 0.000000 -0.009928 0.000000
# 3 -0.000016 -0.001325 0.013964 0.000000 -0.009461 0.000000
# 4 0.000000 0.000000 0.000000 0.044225 0.000000 -0.009498
# 5 -0.008158 -0.009928 -0.009461 0.000000 0.056129 0.000000
# 6 0.000000 0.000000 0.000000 -0.009498 0.000000 0.029686
#
#
# Mechanical properties :
#
#
# Convention : Reuss Voigt Hill
#
# Bulk Modulus (GPa) = 25.86282 40.10540 32.98411
# Shear Modulus (GPa) = 27.65702 33.99894 30.82798
#
# Velocity S-wave (km/s) = 3.64746 4.04408 3.85088
# Velocity P-wave (km/s) = 5.49358 6.41079 5.96983
#
# Compressibility (1/GPa) = 0.03866555
#
# Stress axis : x y z
#
# Youngs Moduli (GPa) = 82.94204 81.69136 71.61275
#
# Poissons Ratio (x) = -0.12604 0.00112
# Poissons Ratio (y) = -0.12797 0.09491
# Poissons Ratio (z) = 0.00130 0.10827
#
# Static dielectric constant tensor:
#      x y z
#    x 1.774600 0.000000 -0.002590 
#    y 0.000000 1.674810 0.000000 
#    z -0.002590 0.000000 1.742970 
# 
# From -- ./inp_files/257073.got.cif
#   From: 2010.05.17/outbox.cif.g08.bks.cpg/sg12_129_cif.got.tgz:257073.got - 2010.06.03 13:09:07.
