data_PCOD9214888
_publ_section_title
;
Structure prediction by ZEFSAII (Michael W. Deem and Ramdas Pophale) SiO2 
 PCOD9214888
Probable space group: C 2/M
;
_chemical_formula_sum "Si O2"
_cell_formula_units_Z 64
_cell_length_a 9.917202
_cell_length_b 17.298333
_cell_length_c 30.715704
_cell_angle_alpha 90.000000
_cell_angle_beta 38.680095
_cell_angle_gamma 90.000000
_cell_volume 3293.169565
_symmetry_space_group_name_H-M "C 2/M"
_symmetry_group_IT_number 12
_symmetry_cell_setting 'monoclinic'
loop_
_space_group_symop_operation_xyz
x,y,z
-x,y,-z
-x,-y,-z
x,-y,z
1/2+x,1/2+y,z
1/2-x,1/2+y,-z
1/2-x,1/2-y,-z
1/2+x,1/2-y,z
loop_
_atom_site_type_symbol
_atom_site_label
_atom_site_fract_x
_atom_site_fract_y
_atom_site_fract_z
Si Si1 0.918855 0.407601 0.090471
Si Si2 0.350133 0.171945 0.422377
Si Si3 0.196830 0.641152 0.202373
Si Si4 0.156708 0.092320 0.067379
Si Si5 0.634927 0.322126 0.229530
Si Si6 0.255223 0.913216 0.712190
Si Si7 0.453081 0.677406 0.582606
Si Si8 0.258219 0.410093 0.711727
O O1 0.910091 0.500000 0.101329
O O2 0.762852 0.392898 0.088144
O O3 0.831989 0.359290 0.152642
O O4 0.159974 0.387576 0.013972
O O5 0.519406 0.105858 0.367740
O O6 0.478534 0.244999 0.409349
O O7 0.223264 0.194364 0.410238
O O8 0.167761 0.149156 0.503353
O O9 0.427941 0.633392 0.121046
O O10 0.146773 0.730253 0.225143
O O11 0.216066 0.597100 0.243488
O O12 0.997926 0.605608 0.226250
O O13 0.121947 0.000000 0.073594
O O14 0.420290 0.352586 0.260191
O O15 0.643842 0.356426 0.275493
O O16 0.180214 0.000000 0.721619
O O17 0.357446 0.616733 0.640735
O O18 0.300246 0.500000 0.709650
#
# Coordination Sequence:
#
# PCOD9214888 Si02
#       8
#     8   8   8   8   8   8   8   8
#     4   9  18  36  62  90 120 158 204 250 303 363
#     4  10  22  40  65  94 125 162 205 252 307 364
#     4  12  23  39  64  91 123 158 207 259 302 359
#     4   9  18  35  63  92 118 155 205 256 300 358
#     4  12  25  41  62  90 126 164 202 253 309 366
#     4  12  24  41  65  92 120 162 214 253 294 364
#     4  10  22  41  64  92 127 165 202 250 309 367
#     4  12  26  41  59  91 129 162 197 253 316 362
#
# _framework density 19.434163999999999
#
# number of rings (size 3 to 8) (size 9 to 14) (size 15 to 20)
#    0.000    1.250    2.500    5.250    1.750    1.000 
#    0.000    1.875    0.000    3.750    0.000    0.000 
#    0.000    0.000    0.000    0.000    0.000    0.000 
#
# Total GULP energy -178922.055387 kJ/mol
# GULP energy per Si atom -5591.314231 kJ/mol
# Density = 1.938993 g / cm^3
# Si number density = 19.434164 Si / 1000 Ang^3
#
#
#
# Elastic Constant Matrix: (Units=GPa)
#
#
# Indices 1 2 3 4 5 6 
#
# 1 36.7228 1.9243 -4.6930 -0.0013 1.3624 0.0002
# 2 1.9243 67.8324 23.6591 0.0019 -3.6768 0.0000
# 3 -4.6930 23.6591 80.0401 0.0199 -1.8134 0.0023
# 4 -0.0013 0.0019 0.0199 11.2455 0.0053 0.4652
# 5 1.3624 -3.6768 -1.8134 0.0053 31.1316 -0.0015
# 6 0.0002 0.0000 0.0023 0.4652 -0.0015 18.2562
#
#
#
# Elastic Compliance Matrix: (Units=1/GPa)
#
#
# Indices 1 2 3 4 5 6 
#
# 1 0.027623 -0.001569 0.002055 0.000000 -0.001274 -0.000001
# 2 -0.001569 0.016612 -0.004963 0.000005 0.001742 0.000001
# 3 0.002055 -0.004963 0.014084 -0.000024 0.000144 -0.000001
# 4 0.000000 0.000005 -0.000024 0.089019 -0.000016 -0.002268
# 5 -0.001274 0.001742 0.000144 -0.000016 0.032392 0.000003
# 6 -0.000001 0.000001 -0.000001 -0.002268 0.000003 0.054834
#
#
# Mechanical properties :
#
#
# Convention : Reuss Voigt Hill
#
# Bulk Modulus (GPa) = 20.25746 25.15288 22.70517
# Shear Modulus (GPa) = 19.23269 23.04030 21.13650
#
# Velocity S-wave (km/s) = 3.14926 3.44693 3.30145
# Velocity P-wave (km/s) = 4.86518 5.36772 5.12262
#
# Compressibility (1/GPa) = 0.04936452
#
# Stress axis : x y z
#
# Youngs Moduli (GPa) = 36.20150 60.19690 71.00010
#
# Poissons Ratio (x) = 0.09447 -0.14588
# Poissons Ratio (y) = 0.05681 0.35237
# Poissons Ratio (z) = -0.07438 0.29875
#
# Static dielectric constant tensor:
#      x y z
#    x 1.656970 0.000000 -0.006170 
#    y 0.000000 1.641830 0.000000 
#    z -0.006170 0.000000 1.701570 
# 
# From -- ./inp_files/372901.got.cif
#   From: 2010.05.17/outbox.cif.g08.bks.cpg/sg12_187_cif.got.tgz:372901.got - 2010.06.03 13:09:07.
