data_PCOD9214762
_publ_section_title
;
Structure prediction by ZEFSAII (Michael W. Deem and Ramdas Pophale) SiO2 
 PCOD9214762
Probable space group: C 2/M
;
_chemical_formula_sum "Si O2"
_cell_formula_units_Z 50
_cell_length_a 18.286103
_cell_length_b 16.918779
_cell_length_c 9.387571
_cell_angle_alpha 90.000000
_cell_angle_beta 111.040261
_cell_angle_gamma 90.000000
_cell_volume 2710.677704
_symmetry_space_group_name_H-M "C 2/M"
_symmetry_group_IT_number 12
_symmetry_cell_setting 'monoclinic'
loop_
_space_group_symop_operation_xyz
x,y,z
-x,y,-z
-x,-y,-z
x,-y,z
1/2+x,1/2+y,z
1/2-x,1/2+y,-z
1/2-x,1/2-y,-z
1/2+x,1/2-y,z
loop_
_atom_site_type_symbol
_atom_site_label
_atom_site_fract_x
_atom_site_fract_y
_atom_site_fract_z
Si Si1 0.754670 0.686145 0.708154
Si Si2 0.871058 0.201236 0.135209
Si Si3 0.000000 0.500000 0.000000
Si Si4 0.874280 0.626769 0.021259
Si Si5 0.813524 0.851880 0.631807
Si Si6 0.511237 0.406587 0.178741
Si Si7 0.264005 0.585979 0.878020
O O1 0.684915 0.712337 0.766902
O O2 0.798790 0.761547 0.671509
O O3 0.716246 0.640130 0.549609
O O4 0.816130 0.636970 0.845041
O O5 0.896431 0.284729 0.086834
O O6 0.945269 0.145151 0.210825
O O7 0.816924 0.154577 0.983565
O O8 0.056061 0.569331 0.968373
O O9 0.820191 0.592961 0.109629
O O10 0.903026 0.877238 0.716160
O O11 0.763845 0.902675 0.709597
O O12 0.503484 0.500000 0.201303
O O13 0.500000 0.394706 0.000000
O O14 0.299116 0.500000 0.937302
#
# Coordination Sequence:
#
# PCOD9214762 Si02
#       7
#     8   8   2   8   8   8   8
#     4  10  22  40  64  90 120 162 212 251 309 374
#     4  11  21  39  67  90 121 165 213 257 308 371
#     4  12  28  40  64  98 126 160 218 260 308 348
#     4  11  22  42  63  91 123 164 212 259 303 361
#     4  11  21  38  61  94 123 160 202 256 315 375
#     4  11  22  37  60  97 126 159 201 260 312 370
#     4  11  19  37  63  95 121 159 208 254 306 374
#
# _framework density 18.445571000000001
#
# number of rings (size 3 to 8) (size 9 to 14) (size 15 to 20)
#    0.000    1.120    5.600    1.920    3.360    0.640 
#    2.880    0.800    0.000    1.920    0.000    0.000 
#    0.000    0.000    0.000    0.000    0.000    0.000 
#
# Total GULP energy -139338.029247 kJ/mol
# GULP energy per Si atom -5573.521170 kJ/mol
# Density = 1.840359 g / cm^3
# Si number density = 18.445571 Si / 1000 Ang^3
#
#
#
# Elastic Constant Matrix: (Units=GPa)
#
#
# Indices 1 2 3 4 5 6 
#
# 1 118.2377 57.6811 32.9438 0.0000 -5.6407 0.0000
# 2 57.6811 125.8616 27.5325 0.0000 -2.6338 0.0000
# 3 32.9438 27.5325 89.0314 0.0000 -7.3804 0.0000
# 4 0.0000 0.0000 0.0000 11.4062 0.0000 -5.6809
# 5 -5.6407 -2.6338 -7.3804 0.0000 16.5437 0.0000
# 6 0.0000 0.0000 0.0000 -5.6809 0.0000 15.6324
#
#
#
# Elastic Compliance Matrix: (Units=1/GPa)
#
#
# Indices 1 2 3 4 5 6 
#
# 1 0.011581 -0.004681 -0.002671 0.000000 0.002012 0.000000
# 2 -0.004681 0.010414 -0.001540 0.000000 -0.000625 0.000000
# 3 -0.002671 -0.001540 0.013085 0.000000 0.004681 0.000000
# 4 0.000000 0.000000 0.000000 0.107047 0.000000 0.038902
# 5 0.002012 -0.000625 0.004681 0.000000 0.063121 0.000000
# 6 0.000000 0.000000 0.000000 0.038902 0.000000 0.078107
#
#
# Mechanical properties :
#
#
# Convention : Reuss Voigt Hill
#
# Bulk Modulus (GPa) = 57.81820 63.27173 60.54496
# Shear Modulus (GPa) = 16.29164 23.04800 19.66982
#
# Velocity S-wave (km/s) = 2.97514 3.53868 3.26908
# Velocity P-wave (km/s) = 6.57383 7.14651 6.86615
#
# Compressibility (1/GPa) = 0.01729559
#
# Stress axis : x y z
#
# Youngs Moduli (GPa) = 86.34517 96.02027 76.42505
#
# Poissons Ratio (x) = 0.44950 0.20413
# Poissons Ratio (y) = 0.40420 0.11771
# Poissons Ratio (z) = 0.23063 0.14790
#
# Static dielectric constant tensor:
#      x y z
#    x 1.632610 0.000000 -0.010250 
#    y 0.000000 1.659830 0.000000 
#    z -0.010250 0.000000 1.632420 
# 
# From -- ./inp_files/75372.got.cif
#   From: 2010.05.17/outbox.cif.g08.bks.cpg/sg12_38_cif.got.tgz:75372.got - 2010.06.03 13:09:07.
