data_PCOD9214046
_publ_section_title
;
Structure prediction by ZEFSAII (Michael W. Deem and Ramdas Pophale) SiO2 
 PCOD9214046
Probable space group: C 2/M
;
_chemical_formula_sum "Si O2"
_cell_formula_units_Z 42
_cell_length_a 12.536341
_cell_length_b 32.885504
_cell_length_c 12.068519
_cell_angle_alpha 90.000000
_cell_angle_beta 157.406929
_cell_angle_gamma 90.000000
_cell_volume 1911.473059
_symmetry_space_group_name_H-M "C 2/M"
_symmetry_group_IT_number 12
_symmetry_cell_setting 'monoclinic'
loop_
_space_group_symop_operation_xyz
x,y,z
-x,y,-z
-x,-y,-z
x,-y,z
1/2+x,1/2+y,z
1/2-x,1/2+y,-z
1/2-x,1/2-y,-z
1/2+x,1/2-y,z
loop_
_atom_site_type_symbol
_atom_site_label
_atom_site_fract_x
_atom_site_fract_y
_atom_site_fract_z
Si Si1 0.157337 0.455847 0.847700
Si Si2 0.000000 0.000000 0.000000
Si Si3 0.721924 0.154034 0.299065
Si Si4 0.854475 0.097411 0.634611
Si Si5 0.915780 0.291843 0.172148
Si Si6 0.391264 0.676962 0.775599
O O1 0.173886 0.500000 0.922392
O O2 0.301820 0.465378 0.869188
O O3 0.843863 0.441236 0.539493
O O4 0.336613 0.420100 0.072774
O O5 0.784445 0.121950 0.455804
O O6 0.579493 0.192917 0.221540
O O7 0.000000 0.164989 0.500000
O O8 0.500000 0.136983 0.000000
O O9 0.797664 0.130227 0.677241
O O10 0.146296 0.295147 0.490692
O O11 0.750000 0.250000 0.000000
O O12 0.663304 0.322000 0.958459
O O13 0.500000 0.689168 0.000000
#
# Coordination Sequence:
#
# PCOD9214046 Si02
#       6
#     8   2   8   8   8   8
#     4  10  22  39  61  94 137 168 219 263 324 401
#     4   8  24  38  60 102 128 182 228 242 344 426
#     4  11  23  43  71  98 126 175 234 279 333 387
#     4  11  22  41  65  95 133 171 221 277 325 390
#     4  11  24  45  69 101 136 170 224 283 333 407
#     4  11  24  42  66 100 138 176 214 265 346 411
#
# _framework density 21.972581999999999
#
# number of rings (size 3 to 8) (size 9 to 14) (size 15 to 20)
#    0.571    0.762    0.000    7.429    1.333    2.286 
#    3.429    3.810    0.000   11.429    0.000    0.000 
#    0.000    0.000    0.000    0.000    0.000    0.000 
#
# Total GULP energy -117075.651939 kJ/mol
# GULP energy per Si atom -5575.031045 kJ/mol
# Density = 2.192257 g / cm^3
# Si number density = 21.972582 Si / 1000 Ang^3
#
#
#
# Elastic Constant Matrix: (Units=GPa)
#
#
# Indices 1 2 3 4 5 6 
#
# 1 74.2032 23.4408 29.2776 0.0000 11.2333 0.0000
# 2 23.4408 96.7737 28.6036 0.0000 -2.4399 0.0000
# 3 29.2776 28.6036 127.1002 0.0000 -8.1655 0.0000
# 4 0.0000 0.0000 0.0000 47.8004 0.0000 10.8622
# 5 11.2333 -2.4399 -8.1655 0.0000 50.1730 0.0000
# 6 0.0000 0.0000 0.0000 10.8622 0.0000 7.2625
#
#
#
# Elastic Compliance Matrix: (Units=1/GPa)
#
#
# Indices 1 2 3 4 5 6 
#
# 1 0.016450 -0.003098 -0.003374 0.000000 -0.004383 0.000000
# 2 -0.003098 0.011654 -0.001847 0.000000 0.000960 0.000000
# 3 -0.003374 -0.001847 0.009200 0.000000 0.002163 0.000000
# 4 0.000000 0.000000 0.000000 0.031691 0.000000 -0.047399
# 5 -0.004383 0.000960 0.002163 0.000000 0.021311 0.000000
# 6 0.000000 0.000000 0.000000 -0.047399 0.000000 0.208585
#
#
# Mechanical properties :
#
#
# Convention : Reuss Voigt Hill
#
# Bulk Modulus (GPa) = 48.38982 51.19124 49.79053
# Shear Modulus (GPa) = 15.50785 35.49752 25.50269
#
# Velocity S-wave (km/s) = 2.65954 4.02373 3.41054
# Velocity P-wave (km/s) = 5.61262 6.70340 6.18212
#
# Compressibility (1/GPa) = 0.02066551
#
# Stress axis : x y z
#
# Youngs Moduli (GPa) = 60.79153 85.80732 108.70012
#
# Poissons Ratio (x) = 0.26582 0.36671
# Poissons Ratio (y) = 0.18832 0.20082
# Poissons Ratio (z) = 0.20509 0.15853
#
# Static dielectric constant tensor:
#      x y z
#    x 1.812810 0.000000 -0.039080 
#    y 0.000000 1.819320 0.000000 
#    z -0.039080 0.000000 1.817450 
# 
# From -- ./inp_files/219498.got.cif
#   From: 2010.05.17/outbox.cif.g08.bks.cpg/sg12_110_cif.got.tgz:219498.got - 2010.06.03 13:09:07.
