data_PCOD9214722
_publ_section_title
;
Structure prediction by ZEFSAII (Michael W. Deem and Ramdas Pophale) SiO2 
 PCOD9214722
Probable space group: C 2/M
;
_chemical_formula_sum "Si O2"
_cell_formula_units_Z 50
_cell_length_a 18.693927
_cell_length_b 18.652131
_cell_length_c 7.854645
_cell_angle_alpha 90.000000
_cell_angle_beta 63.290731
_cell_angle_gamma 90.000000
_cell_volume 2446.539641
_symmetry_space_group_name_H-M "C 2/M"
_symmetry_group_IT_number 12
_symmetry_cell_setting 'monoclinic'
loop_
_space_group_symop_operation_xyz
x,y,z
-x,y,-z
-x,-y,-z
x,-y,z
1/2+x,1/2+y,z
1/2-x,1/2+y,-z
1/2-x,1/2-y,-z
1/2+x,1/2-y,z
loop_
_atom_site_type_symbol
_atom_site_label
_atom_site_fract_x
_atom_site_fract_y
_atom_site_fract_z
Si Si1 0.221650 0.421075 0.505916
Si Si2 0.948492 0.125414 0.817939
Si Si3 0.500000 0.500000 0.000000
Si Si4 0.365792 0.770886 0.981778
Si Si5 0.290621 0.224462 0.688235
Si Si6 0.907438 0.575911 0.054859
Si Si7 0.624553 0.366506 0.470416
O O1 0.221059 0.500000 0.423476
O O2 0.211749 0.353271 0.393056
O O3 0.149644 0.419257 0.719295
O O4 0.305178 0.412227 0.519307
O O5 0.925901 0.203706 0.913838
O O6 0.890811 0.115978 0.713428
O O7 0.039312 0.123172 0.650664
O O8 0.946693 0.063236 0.959105
O O9 0.323722 0.776345 0.843797
O O10 0.299031 0.755117 0.196281
O O11 0.400100 0.849343 0.968607
O O12 0.345926 0.284367 0.541365
O O13 0.884725 0.500000 0.990930
O O14 0.000000 0.570959 0.000000
#
# Coordination Sequence:
#
# PCOD9214722 Si02
#       7
#     8   8   2   8   8   8   8
#     4  11  24  38  64  94 122 169 213 262 317 372
#     4  10  26  40  63  93 130 168 210 252 319 376
#     4  12  28  42  60 100 130 170 210 264 302 380
#     4  10  22  42  63  90 127 169 203 262 322 370
#     4  10  22  40  63  94 123 160 220 260 307 381
#     4  10  23  41  62  91 123 162 212 261 319 375
#     4  10  22  44  63  89 126 172 206 258 314 382
#
# _framework density 20.437028000000002
#
# number of rings (size 3 to 8) (size 9 to 14) (size 15 to 20)
#    0.000    1.760    1.600    0.480    7.840    1.280 
#    0.000    0.000    0.000    2.880    0.000    0.000 
#    0.000    0.000    0.000    0.000    0.000    0.000 
#
# Total GULP energy -139247.460015 kJ/mol
# GULP energy per Si atom -5569.898401 kJ/mol
# Density = 2.039051 g / cm^3
# Si number density = 20.437028 Si / 1000 Ang^3
#
#
#
# Elastic Constant Matrix: (Units=GPa)
#
#
# Indices 1 2 3 4 5 6 
#
# 1 80.1744 52.0298 30.1974 0.0000 -4.9246 0.0000
# 2 52.0298 188.6490 19.0233 0.0000 18.0608 0.0000
# 3 30.1974 19.0233 20.8695 0.0000 -2.7480 0.0000
# 4 0.0000 0.0000 0.0000 -9.2282 0.0000 -36.4774
# 5 -4.9246 18.0608 -2.7480 0.0000 28.3564 0.0000
# 6 0.0000 0.0000 0.0000 -36.4774 0.0000 7.1374
#
#
#
# Elastic Compliance Matrix: (Units=1/GPa)
#
#
# Indices 1 2 3 4 5 6 
#
# 1 0.030881 -0.004982 -0.039523 0.000000 0.004706 0.000000
# 2 -0.004982 0.007206 -0.000079 0.000000 -0.005462 0.000000
# 3 -0.039523 -0.000079 0.105628 0.000000 0.003423 0.000000
# 4 0.000000 0.000000 0.000000 -0.005111 0.000000 -0.026121
# 5 0.004706 -0.005462 0.003423 0.000000 0.039894 0.000000
# 6 0.000000 0.000000 0.000000 -0.026121 0.000000 0.006608
#
#
# Mechanical properties :
#
#
# Convention : Reuss Voigt Hill
#
# Bulk Modulus (GPa) = 18.33276 54.68822 36.51049
# Shear Modulus (GPa) = 17.09659 17.81594 17.45626
#
# Velocity S-wave (km/s) = 2.89545 2.95574 2.92575
# Velocity P-wave (km/s) = 4.49089 6.20210 5.41452
#
# Compressibility (1/GPa) = 0.05454716
#
# Stress axis : x y z
#
# Youngs Moduli (GPa) = 32.38197 138.77628 9.46721
#
# Poissons Ratio (x) = 0.69141 0.37417
# Poissons Ratio (y) = 0.16133 0.00074
# Poissons Ratio (z) = 1.27984 0.01090
#
# Static dielectric constant tensor:
#      x y z
#    x 1.737990 0.000000 0.017480 
#    y 0.000000 1.767660 0.000000 
#    z 0.017480 0.000000 1.744150 
# 
# From -- ./inp_files/75781.got.cif
#   From: 2010.05.17/outbox.cif.g08.bks.cpg/sg12_38_cif.got.tgz:75781.got - 2010.06.03 13:09:07.
