data_PCOD9214504
_publ_section_title
;
Structure prediction by ZEFSAII (Michael W. Deem and Ramdas Pophale) SiO2 
 PCOD9214504
Probable space group: C 2/M
;
_chemical_formula_sum "Si O2"
_cell_formula_units_Z 48
_cell_length_a 16.429157
_cell_length_b 28.534626
_cell_length_c 16.952769
_cell_angle_alpha 90.000000
_cell_angle_beta 162.941752
_cell_angle_gamma 90.000000
_cell_volume 2331.336432
_symmetry_space_group_name_H-M "C 2/M"
_symmetry_group_IT_number 12
_symmetry_cell_setting 'monoclinic'
loop_
_space_group_symop_operation_xyz
x,y,z
-x,y,-z
-x,-y,-z
x,-y,z
1/2+x,1/2+y,z
1/2-x,1/2+y,-z
1/2-x,1/2-y,-z
1/2+x,1/2-y,z
loop_
_atom_site_type_symbol
_atom_site_label
_atom_site_fract_x
_atom_site_fract_y
_atom_site_fract_z
Si Si1 0.532788 0.370552 0.837782
Si Si2 0.206100 0.946758 0.264075
Si Si3 0.733395 0.270275 0.074302
Si Si4 0.807765 0.553012 0.751617
Si Si5 0.372249 0.872334 0.680455
Si Si6 0.188922 0.221862 0.598816
O O1 0.438000 0.412033 0.807679
O O2 0.274078 0.365492 0.539270
O O3 0.634269 0.323961 0.977433
O O4 0.800426 0.378529 0.030544
O O5 0.500000 0.930071 0.500000
O O6 0.249262 0.000000 0.336038
O O7 0.000000 0.949861 0.000000
O O8 0.018207 0.256050 0.381189
O O9 0.750000 0.250000 0.000000
O O10 0.485087 0.244746 0.889611
O O11 0.500000 0.550722 0.500000
O O12 0.910231 0.500000 0.830752
O O13 0.793539 0.582974 0.659397
O O14 0.000000 0.573564 0.000000
O O15 0.269969 0.827025 0.633542
O O16 0.000000 0.214775 0.500000
#
# Coordination Sequence:
#
# PCOD9214504 Si02
#       6
#     8   8   8   8   8   8
#     4  12  25  39  69  94 124 169 212 257 336 391
#     4  10  23  45  68  94 132 169 213 277 334 389
#     4  12  23  44  63  88 133 172 207 274 333 384
#     4  10  22  40  61  88 128 172 211 261 317 372
#     4  12  23  40  63  95 127 166 207 268 315 387
#     4  12  25  41  65  94 125 171 219 262 324 394
#
# _framework density 20.58905
#
# number of rings (size 3 to 8) (size 9 to 14) (size 15 to 20)
#    0.000    0.667    3.333    4.500    0.000    4.667 
#    0.000    0.000    0.000    0.000    0.000    0.000 
#    0.000    0.000    0.000    0.000    0.000    0.000 
#
# Total GULP energy -134050.247198 kJ/mol
# GULP energy per Si atom -5585.426967 kJ/mol
# Density = 2.054219 g / cm^3
# Si number density = 20.589050 Si / 1000 Ang^3
#
#
#
# Elastic Constant Matrix: (Units=GPa)
#
#
# Indices 1 2 3 4 5 6 
#
# 1 89.4146 44.7451 -7.0046 -0.0086 13.1070 -0.0111
# 2 44.7451 111.2485 -10.7574 -0.0052 0.9251 -0.0051
# 3 -7.0046 -10.7574 78.2803 0.0001 5.3817 -0.0111
# 4 -0.0086 -0.0052 0.0001 26.1659 -0.0011 -2.9931
# 5 13.1070 0.9251 5.3817 -0.0011 34.4998 -0.0043
# 6 -0.0111 -0.0051 -0.0111 -2.9931 -0.0043 30.9833
#
#
#
# Elastic Compliance Matrix: (Units=1/GPa)
#
#
# Indices 1 2 3 4 5 6 
#
# 1 0.015054 -0.005918 0.000926 0.000004 -0.005705 0.000004
# 2 -0.005918 0.011443 0.000919 0.000000 0.001798 0.000000
# 3 0.000926 0.000919 0.013151 0.000001 -0.002428 0.000005
# 4 0.000004 0.000000 0.000001 0.038645 0.000000 0.003733
# 5 -0.005705 0.001798 -0.002428 0.000000 0.031484 0.000002
# 6 0.000004 0.000000 0.000005 0.003733 0.000002 0.032636
#
#
# Mechanical properties :
#
#
# Convention : Reuss Voigt Hill
#
# Bulk Modulus (GPa) = 31.74308 36.98994 34.36651
# Shear Modulus (GPa) = 31.04462 35.12715 33.08589
#
# Velocity S-wave (km/s) = 3.88728 4.13499 4.01305
# Velocity P-wave (km/s) = 5.96648 6.38767 6.18066
#
# Compressibility (1/GPa) = 0.03150293
#
# Stress axis : x y z
#
# Youngs Moduli (GPa) = 66.42675 87.38900 76.04138
#
# Poissons Ratio (x) = 0.51716 -0.07042
# Poissons Ratio (y) = 0.39311 -0.06991
# Poissons Ratio (z) = -0.06151 -0.08034
#
# Static dielectric constant tensor:
#      x y z
#    x 1.718250 -0.000010 -0.093640 
#    y -0.000010 1.771420 0.000010 
#    z -0.093640 0.000010 1.489290 
# 
# From -- ./inp_files/12363.got.cif
#   From: 2010.05.17/outbox.cif.g08.bks.cpg/sg12_7_cif.got.tgz:12363.got - 2010.06.03 13:09:07.
