data_PCOD9214215
_publ_section_title
;
Structure prediction by ZEFSAII (Michael W. Deem and Ramdas Pophale) SiO2 
 PCOD9214215
Probable space group: C 2/M
;
_chemical_formula_sum "Si O2"
_cell_formula_units_Z 28
_cell_length_a 16.460207
_cell_length_b 7.467584
_cell_length_c 14.021360
_cell_angle_alpha 90.000000
_cell_angle_beta 38.630058
_cell_angle_gamma 90.000000
_cell_volume 1075.948745
_symmetry_space_group_name_H-M "C 2/M"
_symmetry_group_IT_number 12
_symmetry_cell_setting 'monoclinic'
loop_
_space_group_symop_operation_xyz
x,y,z
-x,y,-z
-x,-y,-z
x,-y,z
1/2+x,1/2+y,z
1/2-x,1/2+y,-z
1/2-x,1/2-y,-z
1/2+x,1/2-y,z
loop_
_atom_site_type_symbol
_atom_site_label
_atom_site_fract_x
_atom_site_fract_y
_atom_site_fract_z
Si Si1 0.820440 0.213958 0.257180
Si Si2 0.589017 0.699619 0.119743
Si Si3 0.961062 0.286646 0.429181
Si Si4 0.198305 0.500000 0.898971
O O1 0.692200 0.249158 0.438313
O O2 0.952686 0.254916 0.191514
O O3 0.817772 0.000000 0.236331
O O4 0.810296 0.341528 0.175447
O O5 0.616433 0.500000 0.060644
O O6 0.546824 0.698722 0.269258
O O7 0.686970 0.846526 0.993021
O O8 0.982812 0.500000 0.403147
O O9 0.000000 0.227701 0.500000
#
# Coordination Sequence:
#
# PCOD9214215 Si02
#       4
#     8   8   8   4
#     4  10  22  39  64  96 124 159 208 257 306 367
#     4  11  22  38  65  96 124 160 207 257 308 367
#     4  10  22  42  66  89 127 166 209 253 307 368
#     4  12  23  40  66  94 128 162 201 260 317 360
#
# _framework density 26.023544000000001
#
# number of rings (size 3 to 8) (size 9 to 14) (size 15 to 20)
#    0.000    1.429    1.429    4.286    2.000    2.857 
#    0.000    1.429    0.000    0.000    0.000    0.000 
#    0.000    0.000    0.000    0.000    0.000    0.000 
#
# Total GULP energy -78071.624627 kJ/mol
# GULP energy per Si atom -5576.544616 kJ/mol
# Density = 2.596431 g / cm^3
# Si number density = 26.023544 Si / 1000 Ang^3
#
#
#
# Elastic Constant Matrix: (Units=GPa)
#
#
# Indices 1 2 3 4 5 6 
#
# 1 64.6849 19.2266 45.0136 0.0000 9.2211 0.0000
# 2 19.2266 150.3480 59.0342 -0.0001 20.7046 0.0001
# 3 45.0136 59.0342 125.7874 0.0000 28.1849 0.0000
# 4 0.0000 -0.0001 0.0000 19.0953 0.0000 46.0339
# 5 9.2211 20.7046 28.1849 0.0000 50.2761 0.0000
# 6 0.0000 0.0001 0.0000 46.0339 0.0000 9.4852
#
#
#
# Elastic Compliance Matrix: (Units=1/GPa)
#
#
# Indices 1 2 3 4 5 6 
#
# 1 0.020604 0.000297 -0.007592 0.000000 0.000355 0.000000
# 2 0.000297 0.008244 -0.003662 0.000000 -0.001396 0.000000
# 3 -0.007592 -0.003662 0.013422 0.000000 -0.004623 0.000000
# 4 0.000000 0.000000 0.000000 -0.004894 0.000000 0.023753
# 5 0.000355 -0.001396 -0.004623 0.000000 0.022992 0.000000
# 6 0.000000 0.000000 0.000000 0.023753 0.000000 -0.009853
#
#
# Mechanical properties :
#
#
# Convention : Reuss Voigt Hill
#
# Bulk Modulus (GPa) = 49.12905 65.26325 57.19615
# Shear Modulus (GPa) = 63.12070 30.27437 46.69754
#
# Velocity S-wave (km/s) = 4.93030 3.41449 4.24067
# Velocity P-wave (km/s) = 7.16451 6.37793 6.78263
#
# Compressibility (1/GPa) = 0.02035455
#
# Stress axis : x y z
#
# Youngs Moduli (GPa) = 48.53425 121.30736 74.50636
#
# Poissons Ratio (x) = -0.03608 0.56568
# Poissons Ratio (y) = -0.01444 0.27287
# Poissons Ratio (z) = 0.36849 0.44428
#
# Static dielectric constant tensor:
#      x y z
#    x 2.172320 0.000000 -0.104980 
#    y 0.000000 1.913730 0.000000 
#    z -0.104980 0.000000 2.007420 
# 
# From -- ./inp_files/229010.got.cif
#   From: 2010.05.17/outbox.cif.g08.bks.cpg/sg12_115_cif.got.tgz:229010.got - 2010.06.03 13:09:07.
