data_PCOD9214721
_publ_section_title
;
Structure prediction by ZEFSAII (Michael W. Deem and Ramdas Pophale) SiO2 
 PCOD9214721
Probable space group: C 2/M
;
_chemical_formula_sum "Si O2"
_cell_formula_units_Z 42
_cell_length_a 24.153012
_cell_length_b 9.116529
_cell_length_c 11.842178
_cell_angle_alpha 90.000000
_cell_angle_beta 61.909698
_cell_angle_gamma 90.000000
_cell_volume 2300.396463
_symmetry_space_group_name_H-M "C 2/M"
_symmetry_group_IT_number 12
_symmetry_cell_setting 'monoclinic'
loop_
_space_group_symop_operation_xyz
x,y,z
-x,y,-z
-x,-y,-z
x,-y,z
1/2+x,1/2+y,z
1/2-x,1/2+y,-z
1/2-x,1/2-y,-z
1/2+x,1/2-y,z
loop_
_atom_site_type_symbol
_atom_site_label
_atom_site_fract_x
_atom_site_fract_y
_atom_site_fract_z
Si Si1 0.283061 0.827589 0.797932
Si Si2 0.152770 0.171837 0.058159
Si Si3 0.940404 0.160929 0.348551
Si Si4 0.203325 0.824304 0.456229
Si Si5 0.000000 0.000000 0.500000
Si Si6 0.028017 0.673613 0.096260
O O1 0.330549 0.755126 0.841998
O O2 0.285949 0.743616 0.677354
O O3 0.296447 0.000000 0.770606
O O4 0.213829 0.814322 0.919715
O O5 0.092315 0.240819 0.058067
O O6 0.142139 0.000000 0.092826
O O7 0.868603 0.203326 0.438643
O O8 0.978527 0.274458 0.237626
O O9 0.940591 0.000000 0.288438
O O10 0.973567 0.125436 0.436023
O O11 0.250000 0.750000 0.500000
O O12 0.212330 0.000000 0.444337
O O13 0.039481 0.500000 0.092338
O O14 0.000000 0.706709 0.000000
#
# Coordination Sequence:
#
# PCOD9214721 Si02
#       6
#     8   8   8   8   2   8
#     4  10  22  40  63  94 123 160 210 258 312 370
#     4  10  22  40  64  90 123 164 208 255 311 376
#     4   9  22  41  66  89 120 161 211 258 319 375
#     4  11  24  40  62  91 127 169 209 257 314 382
#     4   8  20  44  68  92 124 152 222 270 300 398
#     4  11  25  41  61  92 128 163 208 265 320 374
#
# _framework density 18.257722000000001
#
# number of rings (size 3 to 8) (size 9 to 14) (size 15 to 20)
#    0.571    1.333    0.000    2.286    5.333    5.333 
#    0.000    0.476    0.000    0.000    0.000    0.000 
#    0.000    0.000    0.000    0.000    0.000    0.000 
#
# Total GULP energy -116976.308386 kJ/mol
# GULP energy per Si atom -5570.300399 kJ/mol
# Density = 1.821617 g / cm^3
# Si number density = 18.257722 Si / 1000 Ang^3
#
#
#
# Elastic Constant Matrix: (Units=GPa)
#
#
# Indices 1 2 3 4 5 6 
#
# 1 154.9953 93.8567 75.2728 0.0000 22.1316 0.0000
# 2 93.8567 116.8925 63.7621 0.0000 6.3267 0.0000
# 3 75.2728 63.7621 63.6733 0.0000 15.4755 0.0000
# 4 0.0000 0.0000 0.0000 36.9213 0.0000 3.5059
# 5 22.1316 6.3267 15.4755 0.0000 15.2693 0.0000
# 6 0.0000 0.0000 0.0000 3.5059 0.0000 34.6218
#
#
#
# Elastic Compliance Matrix: (Units=1/GPa)
#
#
# Indices 1 2 3 4 5 6 
#
# 1 0.018319 -0.008626 -0.009862 0.000000 -0.012982 0.000000
# 2 -0.008626 0.025928 -0.021487 0.000000 0.023537 0.000000
# 3 -0.009862 -0.021487 0.057376 0.000000 -0.034954 0.000000
# 4 0.000000 0.000000 0.000000 0.027348 0.000000 -0.002769
# 5 -0.012982 0.023537 -0.034954 0.000000 0.109980 0.000000
# 6 0.000000 0.000000 0.000000 -0.002769 0.000000 0.029164
#
#
# Mechanical properties :
#
#
# Convention : Reuss Voigt Hill
#
# Bulk Modulus (GPa) = 46.14282 89.03825 67.59054
# Shear Modulus (GPa) = 14.07304 24.20712 19.14008
#
# Velocity S-wave (km/s) = 2.77934 3.64518 3.24130
# Velocity P-wave (km/s) = 5.96888 8.16026 7.14903
#
# Compressibility (1/GPa) = 0.02167184
#
# Stress axis : x y z
#
# Youngs Moduli (GPa) = 54.58897 38.56858 17.42883
#
# Poissons Ratio (x) = 0.33271 0.17189
# Poissons Ratio (y) = 0.47091 0.37449
# Poissons Ratio (z) = 0.53838 0.82871
#
# Static dielectric constant tensor:
#      x y z
#    x 1.596230 0.000000 -0.005540 
#    y 0.000000 1.616280 0.000000 
#    z -0.005540 0.000000 1.598220 
# 
# From -- ./inp_files/163041.got.cif
#   From: 2010.05.17/outbox.cif.g08.bks.cpg/sg12_82_cif.got.tgz:163041.got - 2010.06.03 13:09:07.
