data_PCOD9214798
_publ_section_title
;
Structure prediction by ZEFSAII (Michael W. Deem and Ramdas Pophale) SiO2 
 PCOD9214798
Probable space group: C 2/M
;
_chemical_formula_sum "Si O2"
_cell_formula_units_Z 64
_cell_length_a 31.817849
_cell_length_b 14.385376
_cell_length_c 21.627839
_cell_angle_alpha 90.000000
_cell_angle_beta 160.863397
_cell_angle_gamma 90.000000
_cell_volume 3245.208489
_symmetry_space_group_name_H-M "C 2/M"
_symmetry_group_IT_number 12
_symmetry_cell_setting 'monoclinic'
loop_
_space_group_symop_operation_xyz
x,y,z
-x,y,-z
-x,-y,-z
x,-y,z
1/2+x,1/2+y,z
1/2-x,1/2+y,-z
1/2-x,1/2-y,-z
1/2+x,1/2-y,z
loop_
_atom_site_type_symbol
_atom_site_label
_atom_site_fract_x
_atom_site_fract_y
_atom_site_fract_z
Si Si1 0.632364 0.238962 0.718600
Si Si2 0.989852 0.719720 0.323795
Si Si3 0.325804 0.607560 0.913036
Si Si4 0.793372 0.708017 0.625732
Si Si5 0.656471 0.106571 0.980370
Si Si6 0.564068 0.106753 0.993565
Si Si7 0.035858 0.107207 0.310819
Si Si8 0.207630 0.778605 0.249571
O O1 0.500000 0.260073 0.500000
O O2 0.595214 0.201281 0.734447
O O3 0.715689 0.167260 0.794022
O O4 0.717550 0.330320 0.846224
O O5 0.975490 0.824929 0.278341
O O6 0.139870 0.710087 0.547167
O O7 0.946486 0.652644 0.208436
O O8 0.288407 0.500000 0.855619
O O9 0.353633 0.651280 0.884739
O O10 0.448385 0.614371 0.128127
O O11 0.750000 0.750000 0.500000
O O12 0.674799 0.647749 0.486985
O O13 0.818805 0.785626 0.714126
O O14 0.920531 0.646430 0.797627
O O15 0.605385 0.110119 0.979404
O O16 0.680535 0.000000 0.996917
O O17 0.656529 0.176604 0.159059
O O18 0.571947 0.000000 0.025990
O O19 0.041825 0.000000 0.338421
#
# Coordination Sequence:
#
# PCOD9214798 Si02
#       8
#     8   8   8   8   8   8   8   8
#     4  12  23  43  66  91 129 168 214 263 315 374
#     4  11  22  40  64  89 128 168 210 263 314 374
#     4  11  23  42  66  90 128 170 213 262 316 381
#     4  11  23  39  66  93 128 169 213 264 318 378
#     4  11  24  41  64  94 132 166 208 262 319 380
#     4  11  22  40  65  96 129 167 213 263 318 375
#     4  10  22  40  64  93 126 169 214 262 318 378
#     4  11  22  41  63  90 129 165 207 264 315 376
#
# _framework density 19.721384
#
# number of rings (size 3 to 8) (size 9 to 14) (size 15 to 20)
#    0.000    1.000    3.750    3.375    0.000    5.000 
#    0.000    1.250    0.000    3.000    0.000    0.000 
#    0.000    0.000    0.000    0.000    0.000    0.000 
#
# Total GULP energy -178871.960199 kJ/mol
# GULP energy per Si atom -5589.748756 kJ/mol
# Density = 1.967650 g / cm^3
# Si number density = 19.721384 Si / 1000 Ang^3
#
#
#
# Elastic Constant Matrix: (Units=GPa)
#
#
# Indices 1 2 3 4 5 6 
#
# 1 73.6258 4.4904 6.0067 0.0000 -15.7694 0.0000
# 2 4.4904 83.6199 32.6540 0.0000 -8.5309 0.0000
# 3 6.0067 32.6540 101.9297 0.0000 -0.8182 0.0000
# 4 0.0000 0.0000 0.0000 8.8530 0.0000 0.0039
# 5 -15.7694 -8.5309 -0.8182 0.0000 31.7492 0.0000
# 6 0.0000 0.0000 0.0000 0.0039 0.0000 15.4434
#
#
#
# Elastic Compliance Matrix: (Units=1/GPa)
#
#
# Indices 1 2 3 4 5 6 
#
# 1 0.015278 0.000329 -0.000944 0.000000 0.007653 0.000000
# 2 0.000329 0.014091 -0.004503 0.000000 0.003833 0.000000
# 3 -0.000944 -0.004503 0.011298 0.000000 -0.001388 0.000000
# 4 0.000000 0.000000 0.000000 0.112956 0.000000 -0.000029
# 5 0.007653 0.003833 -0.001388 0.000000 0.036292 0.000000
# 6 0.000000 0.000000 0.000000 -0.000029 0.000000 0.064752
#
#
# Mechanical properties :
#
#
# Convention : Reuss Voigt Hill
#
# Bulk Modulus (GPa) = 32.86165 38.38640 35.62402
# Shear Modulus (GPa) = 18.17873 25.61073 21.89473
#
# Velocity S-wave (km/s) = 3.03937 3.60756 3.33558
# Velocity P-wave (km/s) = 5.38667 6.07118 5.73914
#
# Compressibility (1/GPa) = 0.03043061
#
# Stress axis : x y z
#
# Youngs Moduli (GPa) = 65.45260 70.96928 88.51392
#
# Poissons Ratio (x) = -0.02335 0.08359
# Poissons Ratio (y) = -0.02154 0.39855
# Poissons Ratio (z) = 0.06181 0.31955
#
# Static dielectric constant tensor:
#      x y z
#    x 1.703140 0.000000 -0.013260 
#    y 0.000000 1.676220 0.000000 
#    z -0.013260 0.000000 1.681630 
# 
# From -- ./inp_files/330397.got.cif
#   From: 2010.05.17/outbox.cif.g08.bks.cpg/sg12_166_cif.got.tgz:330397.got - 2010.06.03 13:09:07.
