data_PCOD9214848
_publ_section_title
;
Structure prediction by ZEFSAII (Michael W. Deem and Ramdas Pophale) SiO2 
 PCOD9214848
Probable space group: C 2/M
;
_chemical_formula_sum "Si O2"
_cell_formula_units_Z 40
_cell_length_a 12.189260
_cell_length_b 28.013010
_cell_length_c 6.438036
_cell_angle_alpha 90.000000
_cell_angle_beta 67.472306
_cell_angle_gamma 90.000000
_cell_volume 2030.574154
_symmetry_space_group_name_H-M "C 2/M"
_symmetry_group_IT_number 12
_symmetry_cell_setting 'monoclinic'
loop_
_space_group_symop_operation_xyz
x,y,z
-x,y,-z
-x,-y,-z
x,-y,z
1/2+x,1/2+y,z
1/2-x,1/2+y,-z
1/2-x,1/2-y,-z
1/2+x,1/2-y,z
loop_
_atom_site_type_symbol
_atom_site_label
_atom_site_fract_x
_atom_site_fract_y
_atom_site_fract_z
Si Si1 0.690011 0.840906 0.783728
Si Si2 0.055622 0.340527 0.262949
Si Si3 0.613138 0.733489 0.277605
Si Si4 0.000000 0.822275 0.000000
Si Si5 0.946622 0.000000 0.285025
Si Si6 0.607124 0.605640 0.591346
O O1 0.566013 0.828264 0.768170
O O2 0.768733 0.793253 0.739510
O O3 0.771311 0.877798 0.602547
O O4 0.650269 0.862208 0.036050
O O5 0.115790 0.290453 0.283619
O O6 0.000000 0.367649 0.500000
O O7 0.500000 0.719514 0.500000
O O8 0.583145 0.712041 0.074832
O O9 0.073783 0.857211 0.796453
O O10 0.885206 0.948446 0.334726
O O11 0.000000 0.000000 0.500000
O O12 0.000000 0.000000 0.000000
O O13 0.500000 0.608337 0.500000
#
# Coordination Sequence:
#
# PCOD9214848 Si02
#       6
#     8   8   8   4   4   8
#     4  11  21  40  54  82 115 153 207 243 295 356
#     4  10  25  38  53  78 115 165 203 253 288 338
#     4  11  22  36  53  83 114 152 203 246 299 346
#     4  12  18  33  58  86 114 154 188 231 308 360
#     4  10  22  40  64  99 134 149 192 252 321 390
#     4  11  22  38  61  91 120 151 187 246 307 375
#
# _framework density 19.698861000000001
#
# number of rings (size 3 to 8) (size 9 to 14) (size 15 to 20)
#    0.000    1.200    5.000    1.800    2.800    3.200 
#    0.000    0.000    0.000    2.400    0.000    1.400 
#    0.000    0.000    0.000    0.000    0.000    0.000 
#
# Total GULP energy -111401.109780 kJ/mol
# GULP energy per Si atom -5570.055489 kJ/mol
# Density = 1.965403 g / cm^3
# Si number density = 19.698861 Si / 1000 Ang^3
#
#
#
# Elastic Constant Matrix: (Units=GPa)
#
#
# Indices 1 2 3 4 5 6 
#
# 1 53.6575 -14.9260 21.5385 0.0000 -16.2111 0.0000
# 2 -14.9260 64.9019 33.9886 0.0000 -11.8102 0.0000
# 3 21.5385 33.9886 172.9327 0.0000 -35.4938 0.0000
# 4 0.0000 0.0000 0.0000 18.9184 0.0000 3.2497
# 5 -16.2111 -11.8102 -35.4938 0.0000 36.3606 0.0000
# 6 0.0000 0.0000 0.0000 3.2497 0.0000 4.8637
#
#
#
# Elastic Compliance Matrix: (Units=1/GPa)
#
#
# Indices 1 2 3 4 5 6 
#
# 1 0.026024 0.009572 -0.002630 0.000000 0.012145 0.000000
# 2 0.009572 0.020937 -0.003796 0.000000 0.007363 0.000000
# 3 -0.002630 -0.003796 0.007957 0.000000 0.005361 0.000000
# 4 0.000000 0.000000 0.000000 0.059712 0.000000 -0.039897
# 5 0.012145 0.007363 0.005361 0.000000 0.040542 0.000000
# 6 0.000000 0.000000 0.000000 -0.039897 0.000000 0.232263
#
#
# Mechanical properties :
#
#
# Convention : Reuss Voigt Hill
#
# Bulk Modulus (GPa) = 16.33707 41.41047 28.87377
# Shear Modulus (GPa) = 12.45188 28.75459 20.60324
#
# Velocity S-wave (km/s) = 2.51691 3.82476 3.23756
# Velocity P-wave (km/s) = 4.09364 6.36965 5.35398
#
# Compressibility (1/GPa) = 0.06121048
#
# Stress axis : x y z
#
# Youngs Moduli (GPa) = 38.42559 47.76221 125.68091
#
# Poissons Ratio (x) = -0.45719 0.33054
# Poissons Ratio (y) = -0.36782 0.47709
# Poissons Ratio (z) = 0.10106 0.18131
#
# Static dielectric constant tensor:
#      x y z
#    x 1.728100 0.000000 0.148100 
#    y 0.000000 1.643170 0.000000 
#    z 0.148100 0.000000 2.298500 
# 
# From -- ./inp_files/8345.got.cif
#   From: 2010.05.17/outbox.cif.g08.bks.cpg/sg12_5_cif.got.tgz:8345.got - 2010.06.03 13:09:07.
