data_PCOD9214029
_publ_section_title
;
Structure prediction by ZEFSAII (Michael W. Deem and Ramdas Pophale) SiO2 
 PCOD9214029
Probable space group: C 2/M
;
_chemical_formula_sum "Si O2"
_cell_formula_units_Z 56
_cell_length_a 13.440828
_cell_length_b 22.430717
_cell_length_c 14.823700
_cell_angle_alpha 90.000000
_cell_angle_beta 41.108342
_cell_angle_gamma 90.000000
_cell_volume 2938.404739
_symmetry_space_group_name_H-M "C 2/M"
_symmetry_group_IT_number 12
_symmetry_cell_setting 'monoclinic'
loop_
_space_group_symop_operation_xyz
x,y,z
-x,y,-z
-x,-y,-z
x,-y,z
1/2+x,1/2+y,z
1/2-x,1/2+y,-z
1/2-x,1/2-y,-z
1/2+x,1/2-y,z
loop_
_atom_site_type_symbol
_atom_site_label
_atom_site_fract_x
_atom_site_fract_y
_atom_site_fract_z
Si Si1 0.132456 0.570452 0.135812
Si Si2 0.567274 0.221110 0.356784
Si Si3 0.348567 0.649223 0.645387
Si Si4 0.166060 0.128014 0.851164
Si Si5 0.349358 0.147206 0.390988
Si Si6 0.642628 0.429260 0.668748
Si Si7 0.793453 0.069945 0.844539
O O1 0.111524 0.500000 0.146186
O O2 0.257441 0.585811 0.125957
O O3 0.979095 0.602349 0.268702
O O4 0.192876 0.591194 0.997212
O O5 0.500000 0.203682 0.500000
O O6 0.600838 0.291026 0.337696
O O7 0.719735 0.183761 0.235741
O O8 0.439090 0.202097 0.373730
O O9 0.500000 0.619953 0.500000
O O10 0.247468 0.666074 0.629025
O O11 0.268930 0.605931 0.769932
O O12 0.155474 0.094549 0.762354
O O13 0.000000 0.144967 0.000000
O O14 0.247305 0.111559 0.533103
O O15 0.682740 0.500000 0.636943
O O16 0.469312 0.423504 0.753651
O O17 0.764495 0.000000 0.849913
#
# Coordination Sequence:
#
# PCOD9214029 Si02
#       7
#     8   8   8   8   8   8   8
#     4  10  22  39  61  91 128 164 201 251 308 361
#     4  10  23  42  63  89 122 159 207 254 305 356
#     4  11  24  42  66  91 119 164 205 252 308 363
#     4  11  21  38  61  94 128 164 204 250 305 363
#     4  11  23  42  62  93 123 158 205 257 301 360
#     4  11  21  35  63  95 126 162 203 251 301 363
#     4  10  22  40  61  91 125 161 206 249 301 369
#
# _framework density 19.057959
#
# number of rings (size 3 to 8) (size 9 to 14) (size 15 to 20)
#    0.000    1.429    4.286    0.857    0.000    6.000 
#    2.571    5.000    0.000    0.000    0.000    0.000 
#    0.000    0.000    0.000    0.000    0.000    0.000 
#
# Total GULP energy -156442.798859 kJ/mol
# GULP energy per Si atom -5587.242816 kJ/mol
# Density = 1.901458 g / cm^3
# Si number density = 19.057959 Si / 1000 Ang^3
#
#
#
# Elastic Constant Matrix: (Units=GPa)
#
#
# Indices 1 2 3 4 5 6 
#
# 1 76.2547 10.3458 27.0369 -0.0004 19.1212 0.0005
# 2 10.3458 38.3982 32.7190 0.0003 17.2028 0.0001
# 3 27.0369 32.7190 119.6971 -0.0002 12.0577 0.0005
# 4 -0.0004 0.0003 -0.0002 20.0247 0.0002 12.0086
# 5 19.1212 17.2028 12.0577 0.0002 34.3495 -0.0003
# 6 0.0005 0.0001 0.0005 12.0086 -0.0003 14.7066
#
#
#
# Elastic Compliance Matrix: (Units=1/GPa)
#
#
# Indices 1 2 3 4 5 6 
#
# 1 0.016292 0.002709 -0.003494 0.000002 -0.009199 -0.000002
# 2 0.002709 0.042791 -0.010365 0.000000 -0.019300 0.000000
# 3 -0.003494 -0.010365 0.011671 0.000000 0.003039 0.000000
# 4 0.000002 0.000000 0.000000 0.097856 -0.000002 -0.079903
# 5 -0.009199 -0.019300 0.003039 -0.000002 0.042833 0.000003
# 6 -0.000002 0.000000 0.000000 -0.079903 0.000003 0.133241
#
#
# Mechanical properties :
#
#
# Convention : Reuss Voigt Hill
#
# Bulk Modulus (GPa) = 20.63778 41.61705 31.12741
# Shear Modulus (GPa) = 13.05027 24.76604 18.90816
#
# Velocity S-wave (km/s) = 2.61964 3.60879 3.15324
# Velocity P-wave (km/s) = 4.47242 6.26490 5.44295
#
# Compressibility (1/GPa) = 0.04845483
#
# Stress axis : x y z
#
# Youngs Moduli (GPa) = 61.37999 23.36920 85.68538
#
# Poissons Ratio (x) = -0.06330 0.29936
# Poissons Ratio (y) = -0.16626 0.88810
# Poissons Ratio (z) = 0.21444 0.24221
#
# Static dielectric constant tensor:
#      x y z
#    x 1.667500 0.000000 -0.010610 
#    y 0.000000 1.635840 0.000000 
#    z -0.010610 0.000000 1.651270 
# 
# From -- ./inp_files/218258.got.cif
#   From: 2010.05.17/outbox.cif.g08.bks.cpg/sg12_110_cif.got.tgz:218258.got - 2010.06.03 13:09:07.
