data_PCOD9214316
_publ_section_title
;
Structure prediction by ZEFSAII (Michael W. Deem and Ramdas Pophale) SiO2 
 PCOD9214316
Probable space group: C 2/M
;
_chemical_formula_sum "Si O2"
_cell_formula_units_Z 42
_cell_length_a 19.245712
_cell_length_b 7.554414
_cell_length_c 10.554070
_cell_angle_alpha 90.000000
_cell_angle_beta 102.404434
_cell_angle_gamma 90.000000
_cell_volume 1498.636151
_symmetry_space_group_name_H-M "C 2/M"
_symmetry_group_IT_number 12
_symmetry_cell_setting 'monoclinic'
loop_
_space_group_symop_operation_xyz
x,y,z
-x,y,-z
-x,-y,-z
x,-y,z
1/2+x,1/2+y,z
1/2-x,1/2+y,-z
1/2-x,1/2-y,-z
1/2+x,1/2-y,z
loop_
_atom_site_type_symbol
_atom_site_label
_atom_site_fract_x
_atom_site_fract_y
_atom_site_fract_z
Si Si1 0.841095 0.289005 0.616659
Si Si2 0.619160 0.781727 0.640134
Si Si3 0.243790 0.794042 0.164440
Si Si4 0.000000 0.000000 0.500000
Si Si5 0.032273 0.294342 0.178082
Si Si6 0.114710 0.796973 0.958567
O O1 0.833734 0.500000 0.618280
O O2 0.833009 0.238708 0.468271
O O3 0.795555 0.218989 0.715138
O O4 0.922295 0.235762 0.683966
O O5 0.674716 0.737021 0.777088
O O6 0.551948 0.656497 0.587852
O O7 0.606539 0.000000 0.633987
O O8 0.188628 0.712760 0.040050
O O9 0.247447 0.000000 0.138003
O O10 0.047849 0.500000 0.162134
O O11 0.068487 0.201589 0.073124
O O12 0.947563 0.282435 0.153931
O O13 0.124991 0.000000 0.931273
#
# Coordination Sequence:
#
# PCOD9214316 Si02
#       6
#     8   8   8   2   8   8
#     4   9  18  30  50  76 110 141 167 210 267 314
#     4  10  22  40  55  78 108 133 178 226 263 305
#     4   9  18  30  50  76 110 141 167 210 267 314
#     4  12  26  40  60  78  96 144 190 210 260 324
#     4   9  15  24  38  65 101 141 170 196 245 308
#     4   9  15  24  38  65 101 141 170 196 245 308
#
# _framework density 28.025483999999999
#
# number of rings (size 3 to 8) (size 9 to 14) (size 15 to 20)
#    0.000    2.667    0.000    3.143    2.667    1.524 
#    0.000    0.000    0.000    0.000    0.000    1.333 
#    0.000    0.000    0.000    0.000    0.000    0.000 
#
# Total GULP energy -117114.665520 kJ/mol
# GULP energy per Si atom -5576.888834 kJ/mol
# Density = 2.796170 g / cm^3
# Si number density = 28.025484 Si / 1000 Ang^3
#
#
#
# Elastic Constant Matrix: (Units=GPa)
#
#
# Indices 1 2 3 4 5 6 
#
# 1 110.2599 49.0424 10.3259 0.0000 45.0746 0.0000
# 2 49.0424 133.0013 73.1775 0.0000 2.6598 0.0000
# 3 10.3259 73.1775 230.5323 0.0000 59.9863 0.0000
# 4 0.0000 0.0000 0.0000 24.9070 0.0000 1.4097
# 5 45.0746 2.6598 59.9863 0.0000 46.3538 0.0000
# 6 0.0000 0.0000 0.0000 1.4097 0.0000 43.9859
#
#
#
# Elastic Compliance Matrix: (Units=1/GPa)
#
#
# Indices 1 2 3 4 5 6 
#
# 1 0.195169 -0.132019 0.121484 0.000000 -0.339420 0.000000
# 2 -0.132019 0.099199 -0.086690 0.000000 0.234868 0.000000
# 3 0.121484 -0.086690 0.084217 0.000000 -0.222143 0.000000
# 4 0.000000 0.000000 0.000000 0.040222 0.000000 -0.001289
# 5 -0.339420 0.234868 -0.222143 0.000000 0.625624 0.000000
# 6 0.000000 0.000000 0.000000 -0.001289 0.000000 0.022776
#
#
# Mechanical properties :
#
#
# Convention : Reuss Voigt Hill
#
# Bulk Modulus (GPa) = 5.43075 82.09835 43.76455
# Shear Modulus (GPa) = 3.77919 45.79919 24.78919
#
# Velocity S-wave (km/s) = 1.16250 4.04691 2.97732
# Velocity P-wave (km/s) = 1.93491 7.15503 5.24110
#
# Compressibility (1/GPa) = 0.18413647
#
# Stress axis : x y z
#
# Youngs Moduli (GPa) = 5.12376 10.08077 11.87404
#
# Poissons Ratio (x) = 1.33085 -1.44251
# Poissons Ratio (y) = 0.67643 1.02936
# Poissons Ratio (z) = -0.62246 0.87390
#
# Static dielectric constant tensor:
#      x y z
#    x 2.392030 0.000000 -0.021770 
#    y 0.000000 1.994390 0.000000 
#    z -0.021770 0.000000 2.277390 
# 
# From -- ./inp_files/195383.got.cif
#   From: 2010.05.17/outbox.cif.g08.bks.cpg/sg12_98_cif.got.tgz:195383.got - 2010.06.03 13:09:07.
