data_PCOD9214360
_publ_section_title
;
Structure prediction by ZEFSAII (Michael W. Deem and Ramdas Pophale) SiO2 
 PCOD9214360
Probable space group: C 2/M
;
_chemical_formula_sum "Si O2"
_cell_formula_units_Z 58
_cell_length_a 19.603916
_cell_length_b 7.284867
_cell_length_c 19.629175
_cell_angle_alpha 90.000000
_cell_angle_beta 49.210125
_cell_angle_gamma 90.000000
_cell_volume 2122.392898
_symmetry_space_group_name_H-M "C 2/M"
_symmetry_group_IT_number 12
_symmetry_cell_setting 'monoclinic'
loop_
_space_group_symop_operation_xyz
x,y,z
-x,y,-z
-x,-y,-z
x,-y,z
1/2+x,1/2+y,z
1/2-x,1/2+y,-z
1/2-x,1/2-y,-z
1/2+x,1/2-y,z
loop_
_atom_site_type_symbol
_atom_site_label
_atom_site_fract_x
_atom_site_fract_y
_atom_site_fract_z
Si Si1 0.026415 0.221902 0.092383
Si Si2 0.223096 0.779444 0.909131
Si Si3 0.872845 0.223110 0.467751
Si Si4 0.079536 0.788584 0.201283
Si Si5 0.434126 0.277782 0.635315
Si Si6 0.234561 0.213364 0.747651
Si Si7 0.000000 0.500000 0.000000
Si Si8 0.173057 0.789498 0.648783
O O1 0.022540 0.277882 0.174219
O O2 0.015700 0.000000 0.093519
O O3 0.128733 0.274767 0.002983
O O4 0.971393 0.337855 0.074273
O O5 0.314173 0.716774 0.886356
O O6 0.227122 0.709348 0.828540
O O7 0.226182 0.000000 0.906871
O O8 0.877757 0.283011 0.384851
O O9 0.777996 0.290765 0.557057
O O10 0.963440 0.276026 0.448750
O O11 0.868440 0.000000 0.470970
O O12 0.074906 0.710661 0.280054
O O13 0.054334 0.000000 0.226117
O O14 0.431943 0.500000 0.633455
O O15 0.341650 0.218688 0.660900
O O16 0.179411 0.292525 0.720148
O O17 0.207957 0.000000 0.770395
O O18 0.143759 0.000000 0.675825
#
# Coordination Sequence:
#
# PCOD9214360 Si02
#       8
#     8   8   8   8   8   8   2   8
#     4  10  22  40  59  84 114 155 194 230 281 335
#     4   9  18  33  57  83 109 138 182 232 278 332
#     4   9  18  33  52  72  99 136 180 220 266 325
#     4   9  18  33  57  83 109 138 182 232 278 332
#     4   9  18  33  52  78 107 138 173 221 274 324
#     4   9  18  33  52  78 107 138 173 221 274 324
#     4  12  26  40  60  78 124 156 190 238 280 334
#     4   9  18  33  52  72  99 136 180 220 266 325
#
# _framework density 27.327645
#
# number of rings (size 3 to 8) (size 9 to 14) (size 15 to 20)
#    0.000    2.759    0.000    0.621    1.931    1.655 
#    2.483    2.759    0.000    0.000    0.000    0.000 
#    0.000    0.000    0.000    0.000    0.000    0.000 
#
# Total GULP energy -161975.999679 kJ/mol
# GULP energy per Si atom -5585.379299 kJ/mol
# Density = 2.726545 g / cm^3
# Si number density = 27.327645 Si / 1000 Ang^3
#
#
#
# Elastic Constant Matrix: (Units=GPa)
#
#
# Indices 1 2 3 4 5 6 
#
# 1 183.6599 -2.2215 27.7838 0.0000 2.3058 0.0003
# 2 -2.2215 129.5464 -5.1360 0.0010 9.6467 0.0007
# 3 27.7838 -5.1360 77.3769 0.0001 1.7492 -0.0002
# 4 0.0000 0.0010 0.0001 -4.6531 0.0000 8.0650
# 5 2.3058 9.6467 1.7492 0.0000 63.3286 0.0000
# 6 0.0003 0.0007 -0.0002 8.0650 0.0000 -1.8772
#
#
#
# Elastic Compliance Matrix: (Units=1/GPa)
#
#
# Indices 1 2 3 4 5 6 
#
# 1 0.005759 0.000029 -0.002063 0.000000 -0.000157 0.000000
# 2 0.000029 0.007831 0.000537 -0.000001 -0.001209 -0.000002
# 3 -0.002063 0.000537 0.013709 0.000000 -0.000385 0.000000
# 4 0.000000 -0.000001 0.000000 0.033337 0.000000 0.143226
# 5 -0.000157 -0.001209 -0.000385 0.000000 0.015991 0.000000
# 6 0.000000 -0.000002 0.000000 0.143226 0.000000 0.082634
#
#
# Mechanical properties :
#
#
# Convention : Reuss Voigt Hill
#
# Bulk Modulus (GPa) = 41.14395 47.93731 44.54063
# Shear Modulus (GPa) = 29.35025 36.03681 32.69353
#
# Velocity S-wave (km/s) = 3.28077 3.63532 3.46259
# Velocity P-wave (km/s) = 5.42584 5.93300 5.68508
#
# Compressibility (1/GPa) = 0.02430491
#
# Stress axis : x y z
#
# Youngs Moduli (GPa) = 173.63592 127.69720 72.94644
#
# Poissons Ratio (x) = -0.00366 0.15045
# Poissons Ratio (y) = -0.00498 -0.03916
# Poissons Ratio (z) = 0.35812 -0.06855
#
# Static dielectric constant tensor:
#      x y z
#    x 2.153330 0.000000 -0.019310 
#    y 0.000000 2.064840 0.000000 
#    z -0.019310 0.000000 2.200710 
# 
# From -- ./inp_files/281140.got.cif
#   From: 2010.05.17/outbox.cif.g08.bks.cpg/sg12_141_cif.got.tgz:281140.got - 2010.06.03 13:09:07.
