data_PCOD9214428
_publ_section_title
;
Structure prediction by ZEFSAII (Michael W. Deem and Ramdas Pophale) SiO2 
 PCOD9214428
Probable space group: C 2/M
;
_chemical_formula_sum "Si O2"
_cell_formula_units_Z 60
_cell_length_a 26.699362
_cell_length_b 15.955991
_cell_length_c 14.707994
_cell_angle_alpha 90.000000
_cell_angle_beta 149.740462
_cell_angle_gamma 90.000000
_cell_volume 3157.459480
_symmetry_space_group_name_H-M "C 2/M"
_symmetry_group_IT_number 12
_symmetry_cell_setting 'monoclinic'
loop_
_space_group_symop_operation_xyz
x,y,z
-x,y,-z
-x,-y,-z
x,-y,z
1/2+x,1/2+y,z
1/2-x,1/2+y,-z
1/2-x,1/2-y,-z
1/2+x,1/2-y,z
loop_
_atom_site_type_symbol
_atom_site_label
_atom_site_fract_x
_atom_site_fract_y
_atom_site_fract_z
Si Si1 0.634453 0.839552 0.048639
Si Si2 0.000000 0.267230 0.000000
Si Si3 0.559726 0.906403 0.334185
Si Si4 0.643248 0.738605 0.374164
Si Si5 0.602283 0.097954 0.614849
Si Si6 0.831621 0.092076 0.443486
Si Si7 0.706181 0.299919 0.017714
Si Si8 0.465587 0.404463 0.350253
O O1 0.735805 0.886126 0.232712
O O2 0.663050 0.759621 0.030493
O O3 0.576368 0.817454 0.052688
O O4 0.557171 0.894209 0.869064
O O5 0.934024 0.216013 0.826046
O O6 0.609754 0.828067 0.362187
O O7 0.585131 0.898693 0.479932
O O8 0.589658 0.000000 0.350074
O O9 0.750000 0.750000 0.500000
O O10 0.651776 0.666575 0.460676
O O11 0.500000 0.130109 0.500000
O O12 0.701197 0.147075 0.797966
O O13 0.613384 0.000000 0.659008
O O14 0.932242 0.090156 0.544164
O O15 0.816504 0.000000 0.461872
O O16 0.750000 0.250000 0.000000
O O17 0.616903 0.355413 0.836147
O O18 0.500000 0.365017 0.500000
O O19 0.429196 0.500000 0.311073
#
# Coordination Sequence:
#
# PCOD9214428 Si02
#       8
#     8   4   8   8   8   8   8   8
#     4  11  22  39  62  92 127 158 204 259 315 373
#     4  10  22  40  62  88 122 168 200 258 320 360
#     4  10  22  40  63  91 121 161 205 252 311 374
#     4  11  22  41  62  88 126 158 204 262 312 365
#     4  10  22  40  61  89 127 164 206 259 313 370
#     4  11  23  41  65  92 124 166 210 256 312 377
#     4  12  24  37  63  93 123 165 211 256 314 382
#     4  10  22  40  60  87 126 166 208 257 310 373
#
# _framework density 19.002618999999999
#
# number of rings (size 3 to 8) (size 9 to 14) (size 15 to 20)
#    0.000    1.333    1.333    4.800    0.000    3.200 
#    0.000    7.333    0.000    0.000    0.000    0.000 
#    0.000    0.000    0.000    0.000    0.000    0.000 
#
# Total GULP energy -167439.059434 kJ/mol
# GULP energy per Si atom -5581.301981 kJ/mol
# Density = 1.895937 g / cm^3
# Si number density = 19.002619 Si / 1000 Ang^3
#
#
#
# Elastic Constant Matrix: (Units=GPa)
#
#
# Indices 1 2 3 4 5 6 
#
# 1 82.8272 48.7088 39.0152 0.0000 3.9233 0.0000
# 2 48.7088 124.3345 73.6956 0.0000 -4.8948 0.0000
# 3 39.0152 73.6956 166.6179 0.0000 1.3882 0.0000
# 4 0.0000 0.0000 0.0000 15.6945 0.0000 38.9103
# 5 3.9233 -4.8948 1.3882 0.0000 31.1297 0.0000
# 6 0.0000 0.0000 0.0000 38.9103 0.0000 -60.0107
#
#
#
# Elastic Compliance Matrix: (Units=1/GPa)
#
#
# Indices 1 2 3 4 5 6 
#
# 1 0.016147 -0.005709 -0.001232 0.000000 -0.002878 0.000000
# 2 -0.005709 0.013036 -0.004454 0.000000 0.002968 0.000000
# 3 -0.001232 -0.004454 0.008268 0.000000 -0.000914 0.000000
# 4 0.000000 0.000000 0.000000 0.024436 0.000000 0.015844
# 5 -0.002878 0.002968 -0.000914 0.000000 0.032994 0.000000
# 6 0.000000 0.000000 0.000000 0.015844 0.000000 -0.006391
#
#
# Mechanical properties :
#
#
# Convention : Reuss Voigt Hill
#
# Bulk Modulus (GPa) = 68.20495 77.40208 72.80352
# Shear Modulus (GPa) = 43.04172 11.52005 27.28088
#
# Velocity S-wave (km/s) = 4.76441 2.46485 3.79309
# Velocity P-wave (km/s) = 8.13858 6.99439 7.58808
#
# Compressibility (1/GPa) = 0.01466169
#
# Stress axis : x y z
#
# Youngs Moduli (GPa) = 61.93022 76.71071 120.95131
#
# Poissons Ratio (x) = 0.43793 0.14901
# Poissons Ratio (y) = 0.35355 0.53869
# Poissons Ratio (z) = 0.07630 0.34165
#
# Static dielectric constant tensor:
#      x y z
#    x 1.657630 0.000000 0.015240 
#    y 0.000000 1.656350 0.000000 
#    z 0.015240 0.000000 1.560930 
# 
# From -- ./inp_files/246754.got.cif
#   From: 2010.05.17/outbox.cif.g08.bks.cpg/sg12_124_cif.got.tgz:246754.got - 2010.06.03 13:09:07.
