data_PCOD9214741
_publ_section_title
;
Structure prediction by ZEFSAII (Michael W. Deem and Ramdas Pophale) SiO2 
 PCOD9214741
Probable space group: C 2/M
;
_chemical_formula_sum "Si O2"
_cell_formula_units_Z 42
_cell_length_a 21.162120
_cell_length_b 7.735073
_cell_length_c 14.340228
_cell_angle_alpha 90.000000
_cell_angle_beta 78.723382
_cell_angle_gamma 90.000000
_cell_volume 2302.042852
_symmetry_space_group_name_H-M "C 2/M"
_symmetry_group_IT_number 12
_symmetry_cell_setting 'monoclinic'
loop_
_space_group_symop_operation_xyz
x,y,z
-x,y,-z
-x,-y,-z
x,-y,z
1/2+x,1/2+y,z
1/2-x,1/2+y,-z
1/2-x,1/2-y,-z
1/2+x,1/2-y,z
loop_
_atom_site_type_symbol
_atom_site_label
_atom_site_fract_x
_atom_site_fract_y
_atom_site_fract_z
Si Si1 0.646655 0.500000 0.904609
Si Si2 0.072942 0.209862 0.455310
Si Si3 0.709887 0.803008 0.768554
Si Si4 0.887881 0.000000 0.886417
Si Si5 0.357028 0.198102 0.752744
Si Si6 0.817464 0.793101 0.430401
Si Si7 0.500000 0.500000 0.000000
O O1 0.675054 0.667926 0.846042
O O2 0.660961 0.500000 0.011357
O O3 0.569238 0.500000 0.923057
O O4 0.097243 0.281656 0.349980
O O5 0.123584 0.262641 0.520767
O O6 0.000000 0.260265 0.500000
O O7 0.075386 0.000000 0.448350
O O8 0.785006 0.750669 0.742270
O O9 0.682218 0.787539 0.672169
O O10 0.704456 0.000000 0.803095
O O11 0.877845 0.168196 0.826193
O O12 0.957542 0.000000 0.914847
O O13 0.356907 0.000000 0.784992
O O14 0.750000 0.750000 0.500000
O O15 0.821001 0.000000 0.418017
#
# Coordination Sequence:
#
# PCOD9214741 Si02
#       7
#     4   8   8   4   8   8   2
#     4  10  24  48  69  96 126 172 216 281 325 404
#     4  10  22  40  63  96 135 184 227 265 324 400
#     4  12  23  41  68 102 133 171 223 270 336 402
#     4  10  24  48  70  94 133 170 215 286 338 392
#     4  12  23  41  68 101 136 170 220 278 337 392
#     4  11  21  36  62  95 137 176 216 273 324 381
#     4   8  24  52  70  88 134 172 212 272 346 388
#
# _framework density 18.244662999999999
#
# number of rings (size 3 to 8) (size 9 to 14) (size 15 to 20)
#    0.571    0.571    5.714    0.571    0.000    4.190 
#    0.000    3.810    0.000    0.000    0.000    0.000 
#    0.000    0.000    0.000    0.000    0.000    0.000 
#
# Total GULP energy -117009.996273 kJ/mol
# GULP energy per Si atom -5571.904584 kJ/mol
# Density = 1.820314 g / cm^3
# Si number density = 18.244663 Si / 1000 Ang^3
#
#
#
# Elastic Constant Matrix: (Units=GPa)
#
#
# Indices 1 2 3 4 5 6 
#
# 1 124.3057 39.0876 63.5939 0.0000 -3.3673 0.0000
# 2 39.0876 141.1045 66.6428 0.0000 1.3189 0.0000
# 3 63.5939 66.6428 140.9429 0.0000 2.0395 0.0000
# 4 0.0000 0.0000 0.0000 -8.8742 0.0000 -2.4869
# 5 -3.3673 1.3189 2.0395 0.0000 42.8076 0.0000
# 6 0.0000 0.0000 0.0000 -2.4869 0.0000 11.3644
#
#
#
# Elastic Compliance Matrix: (Units=1/GPa)
#
#
# Indices 1 2 3 4 5 6 
#
# 1 0.010589 -0.000875 -0.004380 0.000000 0.001069 0.000000
# 2 -0.000875 0.009197 -0.003952 0.000000 -0.000164 0.000000
# 3 -0.004380 -0.003952 0.010950 0.000000 -0.000744 0.000000
# 4 0.000000 0.000000 0.000000 -0.106175 0.000000 -0.023234
# 5 0.001069 -0.000164 -0.000744 0.000000 0.023485 0.000000
# 6 0.000000 0.000000 0.000000 -0.023234 0.000000 0.082910
#
#
# Mechanical properties :
#
#
# Convention : Reuss Voigt Hill
#
# Bulk Modulus (GPa) = 81.13900 82.77796 81.95848
# Shear Modulus (GPa) = 93.49787 24.86147 59.17967
#
# Velocity S-wave (km/s) = 7.16645 3.69544 5.70150
# Velocity P-wave (km/s) = 10.63233 7.97985 9.40012
#
# Compressibility (1/GPa) = 0.01232453
#
# Stress axis : x y z
#
# Youngs Moduli (GPa) = 94.43420 108.72930 91.32014
#
# Poissons Ratio (x) = 0.09512 0.39996
# Poissons Ratio (y) = 0.08261 0.36086
# Poissons Ratio (z) = 0.41360 0.42966
#
# Static dielectric constant tensor:
#      x y z
#    x 1.608460 0.000000 0.007540 
#    y 0.000000 1.651940 0.000000 
#    z 0.007540 0.000000 1.615670 
# 
# From -- ./inp_files/163054.got.cif
#   From: 2010.05.17/outbox.cif.g08.bks.cpg/sg12_82_cif.got.tgz:163054.got - 2010.06.03 13:09:07.
