data_PCOD9214271
_publ_section_title
;
Structure prediction by ZEFSAII (Michael W. Deem and Ramdas Pophale) SiO2 
 PCOD9214271
Probable space group: C 2/M
;
_chemical_formula_sum "Si O2"
_cell_formula_units_Z 38
_cell_length_a 8.331764
_cell_length_b 16.780165
_cell_length_c 12.807154
_cell_angle_alpha 90.000000
_cell_angle_beta 98.275986
_cell_angle_gamma 90.000000
_cell_volume 1771.900992
_symmetry_space_group_name_H-M "C 2/M"
_symmetry_group_IT_number 12
_symmetry_cell_setting 'monoclinic'
loop_
_space_group_symop_operation_xyz
x,y,z
-x,y,-z
-x,-y,-z
x,-y,z
1/2+x,1/2+y,z
1/2-x,1/2+y,-z
1/2-x,1/2-y,-z
1/2+x,1/2-y,z
loop_
_atom_site_type_symbol
_atom_site_label
_atom_site_fract_x
_atom_site_fract_y
_atom_site_fract_z
Si Si1 0.504357 0.000000 0.877273
Si Si2 0.367643 0.500000 0.248400
Si Si3 0.844587 0.500000 0.412507
Si Si4 0.936500 0.136639 0.101005
Si Si5 0.177315 0.275212 0.180942
Si Si6 0.584376 0.863380 0.743784
Si Si7 0.000000 0.000000 0.500000
O O1 0.596829 0.078698 0.845373
O O2 0.323860 0.000000 0.805977
O O3 0.500000 0.000000 0.000000
O O4 0.448841 0.576396 0.199068
O O5 0.401025 0.500000 0.374274
O O6 0.866198 0.420811 0.344557
O O7 0.673741 0.500000 0.454259
O O8 0.000000 0.500000 0.500000
O O9 0.754325 0.170480 0.097169
O O10 0.044892 0.215333 0.123553
O O11 0.000000 0.098829 0.000000
O O12 0.307951 0.215263 0.241332
O O13 0.098814 0.330350 0.262931
#
# Coordination Sequence:
#
# PCOD9214271 Si02
#       7
#     4   4   4   8   8   8   2
#     4  11  24  40  69 101 150 186 243 298 364 440
#     4  12  25  45  69 103 136 191 244 305 347 432
#     4  11  25  47  79 101 138 188 255 310 364 425
#     4  11  23  39  65  99 141 181 231 288 360 433
#     4  10  22  39  66  94 146 182 221 285 366 448
#     4  10  22  44  65 100 134 188 230 291 366 434
#     4  12  26  48  78 104 138 190 254 300 362 416
#
# _framework density 21.445893999999999
#
# number of rings (size 3 to 8) (size 9 to 14) (size 15 to 20)
#    0.000    1.263    2.105    3.474    2.947    4.211 
#    0.000    1.053    9.263    0.000    0.000    0.000 
#    0.000    0.000    0.000    0.000    0.000    0.000 
#
# Total GULP energy -105797.496566 kJ/mol
# GULP energy per Si atom -5568.289293 kJ/mol
# Density = 2.139708 g / cm^3
# Si number density = 21.445894 Si / 1000 Ang^3
#
#
#
# Elastic Constant Matrix: (Units=GPa)
#
#
# Indices 1 2 3 4 5 6 
#
# 1 140.1520 42.7110 61.3893 0.0000 -32.5734 0.0000
# 2 42.7110 120.1730 49.2747 0.0000 -28.0441 0.0000
# 3 61.3893 49.2747 153.0294 0.0000 -32.0049 0.0000
# 4 0.0000 0.0000 0.0000 3.3150 0.0000 40.8713
# 5 -32.5734 -28.0441 -32.0049 0.0000 41.6340 0.0000
# 6 0.0000 0.0000 0.0000 40.8713 0.0000 -220.9371
#
#
#
# Elastic Compliance Matrix: (Units=1/GPa)
#
#
# Indices 1 2 3 4 5 6 
#
# 1 0.009744 -0.001322 -0.002473 0.000000 0.004833 0.000000
# 2 -0.001322 0.010672 -0.001929 0.000000 0.004672 0.000000
# 3 -0.002473 -0.001929 0.008903 0.000000 0.003610 0.000000
# 4 0.000000 0.000000 0.000000 0.091947 0.000000 0.017009
# 5 0.004833 0.004672 0.003610 0.000000 0.033721 0.000000
# 6 0.000000 0.000000 0.000000 0.017009 0.000000 -0.001380
#
#
# Mechanical properties :
#
#
# Convention : Reuss Voigt Hill
#
# Bulk Modulus (GPa) = 55.95280 80.01159 67.98219
# Shear Modulus (GPa) = 29.23760 -17.86568 5.68596
#
# Velocity S-wave (km/s) = 3.69632 -2.88941 1.63005
# Velocity P-wave (km/s) = 6.66062 5.12426 5.94230
#
# Compressibility (1/GPa) = 0.01787221
#
# Stress axis : x y z
#
# Youngs Moduli (GPa) = 102.62615 93.70067 112.32448
#
# Poissons Ratio (x) = 0.12383 0.27775
# Poissons Ratio (y) = 0.13562 0.21670
# Poissons Ratio (z) = 0.25377 0.18077
#
# Static dielectric constant tensor:
#      x y z
#    x 1.877940 0.000000 -0.000830 
#    y 0.000000 1.796780 0.000000 
#    z -0.000830 0.000000 1.785840 
# 
# From -- ./inp_files/118994.got.cif
#   From: 2010.05.17/outbox.cif.g08.bks.cpg/sg12_60_cif.got.tgz:118994.got - 2010.06.03 13:09:07.
