data_PCOD9214281
_publ_section_title
;
Structure prediction by ZEFSAII (Michael W. Deem and Ramdas Pophale) SiO2 
 PCOD9214281
Probable space group: C 2/M
;
_chemical_formula_sum "Si O2"
_cell_formula_units_Z 44
_cell_length_a 15.814301
_cell_length_b 15.155877
_cell_length_c 23.735271
_cell_angle_alpha 90.000000
_cell_angle_beta 157.788307
_cell_angle_gamma 90.000000
_cell_volume 2150.558326
_symmetry_space_group_name_H-M "C 2/M"
_symmetry_group_IT_number 12
_symmetry_cell_setting 'monoclinic'
loop_
_space_group_symop_operation_xyz
x,y,z
-x,y,-z
-x,-y,-z
x,-y,z
1/2+x,1/2+y,z
1/2-x,1/2+y,-z
1/2-x,1/2-y,-z
1/2+x,1/2-y,z
loop_
_atom_site_type_symbol
_atom_site_label
_atom_site_fract_x
_atom_site_fract_y
_atom_site_fract_z
Si Si1 0.847674 0.500000 0.573638
Si Si2 0.250317 0.000000 0.680867
Si Si3 0.000000 0.652318 0.000000
Si Si4 0.478975 0.140200 0.745893
Si Si5 0.909964 0.216104 0.047437
Si Si6 0.680608 0.000000 0.562489
Si Si7 0.234846 0.816599 0.344425
Si Si8 0.179023 0.000000 0.769295
O O1 0.905110 0.585210 0.646015
O O2 0.956866 0.500000 0.580203
O O3 0.587232 0.500000 0.396041
O O4 0.379283 0.084846 0.736647
O O5 0.000000 0.000000 0.500000
O O6 0.245207 0.000000 0.744297
O O7 0.975509 0.711844 0.040969
O O8 0.788729 0.586686 0.864166
O O9 0.746170 0.147324 0.915385
O O10 0.370613 0.236697 0.684575
O O11 0.750000 0.250000 0.000000
O O12 0.122368 0.182286 0.213198
O O13 0.500000 0.000000 0.500000
O O14 0.810294 0.908864 0.652101
O O15 0.500000 0.802781 0.500000
#
# Coordination Sequence:
#
# PCOD9214281 Si02
#       8
#     4   4   4   8   8   4   8   4
#     4  11  25  39  65 101 132 167 225 267 340 396
#     4  11  19  40  67 104 136 168 218 269 339 400
#     4  11  26  42  64  99 138 178 222 277 346 397
#     4  10  22  39  67 100 133 169 215 278 331 394
#     4  10  23  42  63  97 131 172 225 264 337 400
#     4  10  25  44  58  90 124 171 229 265 326 390
#     4  10  22  41  69  90 126 178 222 271 328 395
#     4  11  23  40  65  98 143 167 214 288 332 406
#
# _framework density 20.459803999999998
#
# number of rings (size 3 to 8) (size 9 to 14) (size 15 to 20)
#    0.000    1.636    1.818    2.727    7.636    5.091 
#    0.000    0.000    0.000    7.091    0.000    0.000 
#    0.000    0.000    0.000    0.000    0.000    0.000 
#
# Total GULP energy -122828.910536 kJ/mol
# GULP energy per Si atom -5583.132297 kJ/mol
# Density = 2.041324 g / cm^3
# Si number density = 20.459804 Si / 1000 Ang^3
#
#
#
# Elastic Constant Matrix: (Units=GPa)
#
#
# Indices 1 2 3 4 5 6 
#
# 1 84.6607 32.8206 24.7663 -0.0079 -23.2249 -0.0070
# 2 32.8206 150.5095 55.0845 0.0002 -17.8271 0.0054
# 3 24.7663 55.0845 175.3204 0.0101 -2.9483 0.0307
# 4 -0.0079 0.0002 0.0101 19.9642 0.0049 -5.7849
# 5 -23.2249 -17.8271 -2.9483 0.0049 38.2796 0.0076
# 6 -0.0070 0.0054 0.0307 -5.7849 0.0076 4.1546
#
#
#
# Elastic Compliance Matrix: (Units=1/GPa)
#
#
# Indices 1 2 3 4 5 6 
#
# 1 0.015203 -0.001808 -0.001440 0.000019 0.008271 0.000050
# 2 -0.001808 0.008169 -0.002268 -0.000001 0.002532 -0.000003
# 3 -0.001440 -0.002268 0.006596 -0.000028 -0.001422 -0.000085
# 4 0.000019 -0.000001 -0.000028 0.083968 -0.000025 0.116919
# 5 0.008271 0.002532 -0.001422 -0.000025 0.032211 -0.000073
# 6 0.000050 -0.000003 -0.000085 0.116919 -0.000073 0.403496
#
#
# Mechanical properties :
#
#
# Convention : Reuss Voigt Hill
#
# Bulk Modulus (GPa) = 52.81668 70.64817 61.73242
# Shear Modulus (GPa) = 8.81851 32.33431 20.57641
#
# Velocity S-wave (km/s) = 2.07835 3.97971 3.17472
# Velocity P-wave (km/s) = 5.62408 7.46476 6.60882
#
# Compressibility (1/GPa) = 0.01893341
#
# Stress axis : x y z
#
# Youngs Moduli (GPa) = 65.77532 122.41963 151.60359
#
# Poissons Ratio (x) = 0.22139 0.21836
# Poissons Ratio (y) = 0.11895 0.34391
# Poissons Ratio (z) = 0.09474 0.27771
#
# Static dielectric constant tensor:
#      x y z
#    x 1.822300 0.000020 0.002560 
#    y 0.000020 1.771730 -0.000010 
#    z 0.002560 -0.000010 1.756430 
# 
# From -- ./inp_files/344173.got.cif
#   From: 2010.05.17/outbox.cif.g08.bks.cpg/sg12_173_cif.got.tgz:344173.got - 2010.06.03 13:09:07.
