data_PCOD9214432
_publ_section_title
;
Structure prediction by ZEFSAII (Michael W. Deem and Ramdas Pophale) SiO2 
 PCOD9214432
Probable space group: C 2/M
;
_chemical_formula_sum "Si O2"
_cell_formula_units_Z 56
_cell_length_a 17.135795
_cell_length_b 27.440546
_cell_length_c 7.963399
_cell_angle_alpha 90.000000
_cell_angle_beta 140.557087
_cell_angle_gamma 90.000000
_cell_volume 2378.923920
_symmetry_space_group_name_H-M "C 2/M"
_symmetry_group_IT_number 12
_symmetry_cell_setting 'monoclinic'
loop_
_space_group_symop_operation_xyz
x,y,z
-x,y,-z
-x,-y,-z
x,-y,z
1/2+x,1/2+y,z
1/2-x,1/2+y,-z
1/2-x,1/2-y,-z
1/2+x,1/2-y,z
loop_
_atom_site_type_symbol
_atom_site_label
_atom_site_fract_x
_atom_site_fract_y
_atom_site_fract_z
Si Si1 0.864979 0.254276 0.559287
Si Si2 0.116310 0.571820 0.801855
Si Si3 0.802994 0.594241 0.717713
Si Si4 0.886900 0.841472 0.418146
Si Si5 0.000000 0.676950 0.000000
Si Si6 0.370817 0.410281 0.868526
Si Si7 0.322884 0.500000 0.999883
Si Si8 0.228445 0.331788 0.854383
O O1 0.750000 0.250000 0.500000
O O2 0.910044 0.200224 0.591481
O O3 0.979508 0.285981 0.815404
O O4 0.821561 0.286655 0.330865
O O5 0.233545 0.542001 0.935939
O O6 0.134908 0.628228 0.777745
O O7 0.000000 0.554873 0.500000
O O8 0.114181 0.567396 0.002246
O O9 0.686655 0.614082 0.626832
O O10 0.739400 0.572959 0.444964
O O11 0.883177 0.641604 0.804496
O O12 0.000000 0.860275 0.500000
O O13 0.803357 0.815369 0.140300
O O14 0.398592 0.456459 0.030782
O O15 0.313645 0.364436 0.872179
O O16 0.500000 0.396069 0.000000
#
# Coordination Sequence:
#
# PCOD9214432 Si02
#       8
#     8   8   8   8   4   8   4   8
#     4  12  24  40  60  93 132 174 223 275 333 384
#     4  10  22  42  66  90 134 171 216 271 335 402
#     4  11  24  44  69 100 128 184 229 270 339 404
#     4  11  24  40  62  94 130 174 228 274 330 388
#     4  12  24  42  66  93 138 168 228 279 330 390
#     4  11  22  44  69  97 135 172 220 273 336 403
#     4  10  24  42  64 105 131 167 217 273 340 405
#     4  10  22  40  60  88 127 169 223 266 320 397
#
# _framework density 23.540053
#
# number of rings (size 3 to 8) (size 9 to 14) (size 15 to 20)
#    0.000    1.143    2.857    2.571    4.000    3.429 
#    1.286    1.429    0.000    0.000    0.000    0.000 
#    0.000    0.000    0.000    0.000    0.000    0.000 
#
# Total GULP energy -155875.060007 kJ/mol
# GULP energy per Si atom -5566.966429 kJ/mol
# Density = 2.348648 g / cm^3
# Si number density = 23.540053 Si / 1000 Ang^3
#
#
#
# Elastic Constant Matrix: (Units=GPa)
#
#
# Indices 1 2 3 4 5 6 
#
# 1 32.9675 -3.1972 -12.2175 0.0000 2.6222 0.0000
# 2 -3.1972 62.7751 1.3974 0.0000 -1.4085 0.0000
# 3 -12.2175 1.3974 65.1126 0.0000 -6.3313 0.0000
# 4 0.0000 0.0000 0.0000 -27.6410 0.0000 16.2897
# 5 2.6222 -1.4085 -6.3313 0.0000 21.6390 0.0000
# 6 0.0000 0.0000 0.0000 16.2897 0.0000 -4.4258
#
#
#
# Elastic Compliance Matrix: (Units=1/GPa)
#
#
# Indices 1 2 3 4 5 6 
#
# 1 0.032843 0.001493 0.005921 0.000000 -0.002150 0.000000
# 2 0.001493 0.016025 0.000021 0.000000 0.000868 0.000000
# 3 0.005921 0.000021 0.016879 0.000000 0.004222 0.000000
# 4 0.000000 0.000000 0.000000 0.030946 0.000000 0.113899
# 5 -0.002150 0.000868 0.004222 0.000000 0.047765 0.000000
# 6 0.000000 0.000000 0.000000 0.113899 0.000000 0.193268
#
#
# Mechanical properties :
#
#
# Convention : Reuss Voigt Hill
#
# Bulk Modulus (GPa) = 12.40437 14.75785 13.58111
# Shear Modulus (GPa) = 14.29678 9.57262 11.93470
#
# Velocity S-wave (km/s) = 2.46710 2.01875 2.25410
# Velocity P-wave (km/s) = 3.66010 3.42296 3.54352
#
# Compressibility (1/GPa) = 0.08061672
#
# Stress axis : x y z
#
# Youngs Moduli (GPa) = 30.44777 62.40279 59.24446
#
# Poissons Ratio (x) = -0.09315 -0.35081
# Poissons Ratio (y) = -0.04545 -0.00122
# Poissons Ratio (z) = -0.18030 -0.00128
#
# Static dielectric constant tensor:
#      x y z
#    x 1.938420 0.000000 -0.026910 
#    y 0.000000 1.512460 0.000000 
#    z -0.026910 0.000000 2.064210 
# 
# From -- ./inp_files/80141.got.cif
#   From: 2010.05.17/outbox.cif.g08.bks.cpg/sg12_41_cif.got.tgz:80141.got - 2010.06.03 13:09:07.
