data_PCOD9214382
_publ_section_title
;
Structure prediction by ZEFSAII (Michael W. Deem and Ramdas Pophale) SiO2 
 PCOD9214382
Probable space group: C 2/M
;
_chemical_formula_sum "Si O2"
_cell_formula_units_Z 56
_cell_length_a 23.470010
_cell_length_b 13.705959
_cell_length_c 9.974169
_cell_angle_alpha 90.000000
_cell_angle_beta 66.991941
_cell_angle_gamma 90.000000
_cell_volume 2953.245655
_symmetry_space_group_name_H-M "C 2/M"
_symmetry_group_IT_number 12
_symmetry_cell_setting 'monoclinic'
loop_
_space_group_symop_operation_xyz
x,y,z
-x,y,-z
-x,-y,-z
x,-y,z
1/2+x,1/2+y,z
1/2-x,1/2+y,-z
1/2-x,1/2-y,-z
1/2+x,1/2-y,z
loop_
_atom_site_type_symbol
_atom_site_label
_atom_site_fract_x
_atom_site_fract_y
_atom_site_fract_z
Si Si1 0.489819 0.616839 0.286258
Si Si2 0.403523 0.382476 0.612154
Si Si3 0.219109 0.883270 0.140041
Si Si4 0.083805 0.383448 0.292289
Si Si5 0.840099 0.734737 0.999594
Si Si6 0.936381 0.615766 0.389547
Si Si7 0.057499 0.731750 0.873262
O O1 0.490027 0.500000 0.267286
O O2 0.553959 0.646928 0.299703
O O3 0.437688 0.644979 0.444186
O O4 0.473817 0.674336 0.167636
O O5 0.407509 0.500000 0.609778
O O6 0.332304 0.358518 0.699968
O O7 0.284661 0.833167 0.104679
O O8 0.223690 0.000000 0.122778
O O9 0.190853 0.831861 0.033332
O O10 0.094977 0.500000 0.271250
O O11 0.092052 0.353870 0.440732
O O12 0.010826 0.368173 0.329669
O O13 0.126713 0.325926 0.150184
O O14 0.890253 0.755233 0.067316
O O15 0.926699 0.500000 0.387502
O O16 0.915609 0.669051 0.274301
O O17 0.000000 0.678236 0.000000
#
# Coordination Sequence:
#
# PCOD9214382 Si02
#       7
#     8   8   8   8   8   8   8
#     4   9  19  34  57  88 119 150 185 227 287 343
#     4   8  16  34  59  84 107 148 198 232 268 328
#     4  10  22  40  60  80 110 152 199 240 273 330
#     4   9  18  36  59  82 111 153 196 232 272 332
#     4  11  23  37  58  88 113 151 194 230 286 342
#     4   9  20  35  55  83 116 152 188 232 284 329
#     4  12  23  34  53  91 124 147 176 233 299 341
#
# _framework density 18.962188999999999
#
# number of rings (size 3 to 8) (size 9 to 14) (size 15 to 20)
#    0.000    2.286    1.429    3.000    2.000    3.429 
#    0.000    0.714    0.000    0.000    0.000    0.000 
#    0.000    0.000    0.000    0.000    0.000    0.000 
#
# Total GULP energy -156313.938195 kJ/mol
# GULP energy per Si atom -5582.640650 kJ/mol
# Density = 1.891903 g / cm^3
# Si number density = 18.962189 Si / 1000 Ang^3
#
#
#
# Elastic Constant Matrix: (Units=GPa)
#
#
# Indices 1 2 3 4 5 6 
#
# 1 83.4457 8.7628 42.9930 0.0000 -5.8871 0.0000
# 2 8.7628 62.7378 22.6993 0.0000 -4.7110 0.0000
# 3 42.9930 22.6993 95.3542 0.0000 -3.3213 0.0000
# 4 0.0000 0.0000 0.0000 23.1871 0.0000 -2.8018
# 5 -5.8871 -4.7110 -3.3213 0.0000 37.9001 0.0000
# 6 0.0000 0.0000 0.0000 -2.8018 0.0000 19.7288
#
#
#
# Elastic Compliance Matrix: (Units=1/GPa)
#
#
# Indices 1 2 3 4 5 6 
#
# 1 0.015752 0.000533 -0.007163 0.000000 0.001885 0.000000
# 2 0.000533 0.017584 -0.004361 0.000000 0.001886 0.000000
# 3 -0.007163 -0.004361 0.014742 0.000000 -0.000363 0.000000
# 4 0.000000 0.000000 0.000000 0.043880 0.000000 0.006232
# 5 0.001885 0.001886 -0.000363 0.000000 0.026881 0.000000
# 6 0.000000 0.000000 0.000000 0.006232 0.000000 0.051572
#
#
# Mechanical properties :
#
#
# Convention : Reuss Voigt Hill
#
# Bulk Modulus (GPa) = 38.31893 43.38312 40.85103
# Shear Modulus (GPa) = 24.86425 27.30205 26.08315
#
# Velocity S-wave (km/s) = 3.62505 3.79861 3.71284
# Velocity P-wave (km/s) = 6.14600 6.49366 6.32222
#
# Compressibility (1/GPa) = 0.02609676
#
# Stress axis : x y z
#
# Youngs Moduli (GPa) = 63.48587 56.86895 67.83146
#
# Poissons Ratio (x) = -0.03033 0.48590
# Poissons Ratio (y) = -0.03385 0.29579
# Poissons Ratio (z) = 0.45477 0.24799
#
# Static dielectric constant tensor:
#      x y z
#    x 1.622220 0.000000 -0.014440 
#    y 0.000000 1.707270 0.000000 
#    z -0.014440 0.000000 1.676100 
# 
# From -- ./inp_files/96301.got.cif
#   From: 2010.05.17/outbox.cif.g08.bks.cpg/sg12_49_cif.got.tgz:96301.got - 2010.06.03 13:09:07.
