data_PCOD9214394
_publ_section_title
;
Structure prediction by ZEFSAII (Michael W. Deem and Ramdas Pophale) SiO2 
 PCOD9214394
Probable space group: C 2/M
;
_chemical_formula_sum "Si O2"
_cell_formula_units_Z 56
_cell_length_a 12.106788
_cell_length_b 14.670910
_cell_length_c 15.712282
_cell_angle_alpha 90.000000
_cell_angle_beta 114.149721
_cell_angle_gamma 90.000000
_cell_volume 2546.527470
_symmetry_space_group_name_H-M "C 2/M"
_symmetry_group_IT_number 12
_symmetry_cell_setting 'monoclinic'
loop_
_space_group_symop_operation_xyz
x,y,z
-x,y,-z
-x,-y,-z
x,-y,z
1/2+x,1/2+y,z
1/2-x,1/2+y,-z
1/2-x,1/2-y,-z
1/2+x,1/2-y,z
loop_
_atom_site_type_symbol
_atom_site_label
_atom_site_fract_x
_atom_site_fract_y
_atom_site_fract_z
Si Si1 0.995905 0.102333 0.297158
Si Si2 0.638262 0.792073 0.569445
Si Si3 0.703569 0.106627 0.919007
Si Si4 0.802794 0.844854 0.768292
Si Si5 0.715036 0.394813 0.879627
Si Si6 0.822989 0.110518 0.502530
Si Si7 0.545798 0.186014 0.105708
O O1 0.103837 0.099737 0.261526
O O2 0.059614 0.136932 0.402637
O O3 0.881429 0.148831 0.215500
O O4 0.958276 0.000000 0.309307
O O5 0.500000 0.802738 0.500000
O O6 0.683446 0.825600 0.675351
O O7 0.712229 0.855730 0.526218
O O8 0.675676 0.684855 0.572243
O O9 0.766579 0.116970 0.848453
O O10 0.571176 0.149994 0.882735
O O11 0.686880 0.000000 0.931342
O O12 0.782020 0.144036 0.023762
O O13 0.880285 0.755618 0.814108
O O14 0.677261 0.500000 0.874929
O O15 0.851672 0.387288 0.888716
O O16 0.822250 0.000000 0.486495
O O17 0.500000 0.224301 0.000000
#
# Coordination Sequence:
#
# PCOD9214394 Si02
#       7
#     8   8   8   8   8   8   8
#     4   9  19  36  61  89 120 155 199 250 302 364
#     4  10  23  41  62  90 124 160 203 264 310 360
#     4  10  22  40  60  84 123 166 202 244 297 366
#     4  11  24  36  59  89 124 157 199 250 308 361
#     4   9  19  36  60  87 118 159 204 246 294 358
#     4   9  20  41  65  89 121 162 206 255 311 368
#     4  10  23  37  58  85 122 159 202 248 295 352
#
# _framework density 21.990731
#
# number of rings (size 3 to 8) (size 9 to 14) (size 15 to 20)
#    0.000    2.286    0.000    0.857    6.000    6.286 
#    0.000    5.000    0.000    0.000    0.000    0.000 
#    0.000    0.000    0.000    0.000    0.000    0.000 
#
# Total GULP energy -156186.712689 kJ/mol
# GULP energy per Si atom -5578.096882 kJ/mol
# Density = 2.194068 g / cm^3
# Si number density = 21.990731 Si / 1000 Ang^3
#
#
#
# Elastic Constant Matrix: (Units=GPa)
#
#
# Indices 1 2 3 4 5 6 
#
# 1 51.0194 2.3580 1.0380 0.0000 11.1789 0.0000
# 2 2.3580 66.5828 9.2117 0.0000 7.4540 0.0000
# 3 1.0380 9.2117 64.3594 0.0000 31.4063 0.0000
# 4 0.0000 0.0000 0.0000 20.9551 0.0000 3.4506
# 5 11.1789 7.4540 31.4063 0.0000 37.8441 0.0000
# 6 0.0000 0.0000 0.0000 3.4506 0.0000 38.0176
#
#
#
# Elastic Compliance Matrix: (Units=1/GPa)
#
#
# Indices 1 2 3 4 5 6 
#
# 1 0.021770 -0.000271 0.004705 0.000000 -0.010282 0.000000
# 2 -0.000271 0.015417 -0.001276 0.000000 -0.001897 0.000000
# 3 0.004705 -0.001276 0.027226 0.000000 -0.023733 0.000000
# 4 0.000000 0.000000 0.000000 0.048445 0.000000 -0.004397
# 5 -0.010282 -0.001897 -0.023733 0.000000 0.049531 0.000000
# 6 0.000000 0.000000 0.000000 -0.004397 0.000000 0.026703
#
#
# Mechanical properties :
#
#
# Convention : Reuss Voigt Hill
#
# Bulk Modulus (GPa) = 14.13842 23.01967 18.57905
# Shear Modulus (GPa) = 24.23039 30.65362 27.44201
#
# Velocity S-wave (km/s) = 3.32301 3.73759 3.53638
# Velocity P-wave (km/s) = 4.60069 5.39599 5.01414
#
# Compressibility (1/GPa) = 0.07072928
#
# Stress axis : x y z
#
# Youngs Moduli (GPa) = 45.93448 64.86139 36.72998
#
# Poissons Ratio (x) = 0.01757 -0.17282
# Poissons Ratio (y) = 0.01244 0.04688
# Poissons Ratio (z) = -0.21613 0.08279
#
# Static dielectric constant tensor:
#      x y z
#    x 1.809850 0.000000 -0.008730 
#    y 0.000000 1.848020 0.000000 
#    z -0.008730 0.000000 1.836140 
# 
# From -- ./inp_files/263399.got.cif
#   From: 2010.05.17/outbox.cif.g08.bks.cpg/sg12_132_cif.got.tgz:263399.got - 2010.06.03 13:09:07.
