data_PCOD9214152
_publ_section_title
;
Structure prediction by ZEFSAII (Michael W. Deem and Ramdas Pophale) SiO2 
 PCOD9214152
Probable space group: C 2/M
;
_chemical_formula_sum "Si O2"
_cell_formula_units_Z 36
_cell_length_a 20.891018
_cell_length_b 7.259279
_cell_length_c 21.965271
_cell_angle_alpha 90.000000
_cell_angle_beta 154.397487
_cell_angle_gamma 90.000000
_cell_volume 1439.459182
_symmetry_space_group_name_H-M "C 2/M"
_symmetry_group_IT_number 12
_symmetry_cell_setting 'monoclinic'
loop_
_space_group_symop_operation_xyz
x,y,z
-x,y,-z
-x,-y,-z
x,-y,z
1/2+x,1/2+y,z
1/2-x,1/2+y,-z
1/2-x,1/2-y,-z
1/2+x,1/2-y,z
loop_
_atom_site_type_symbol
_atom_site_label
_atom_site_fract_x
_atom_site_fract_y
_atom_site_fract_z
Si Si1 0.018801 0.277656 0.665369
Si Si2 0.572533 0.217123 0.847499
Si Si3 0.283200 0.000000 0.858894
Si Si4 0.647390 0.778087 0.591616
Si Si5 0.466124 0.710178 0.888414
O O1 0.047218 0.500000 0.686406
O O2 0.007680 0.225932 0.726768
O O3 0.878797 0.237807 0.501986
O O4 0.154211 0.161455 0.755149
O O5 0.501369 0.299400 0.846378
O O6 0.551441 0.000000 0.835412
O O7 0.750000 0.250000 0.000000
O O8 0.411701 0.839667 0.978199
O O9 0.500000 0.716093 0.500000
O O10 0.800057 0.707982 0.750428
O O11 0.654143 0.000000 0.603315
O O12 0.469360 0.500000 0.912469
#
# Coordination Sequence:
#
# PCOD9214152 Si02
#       5
#     8   8   4   8   8
#     4  10  22  39  63  92 124 165 206 247 309 368
#     4  11  19  33  58  91 130 161 195 245 305 370
#     4  12  22  38  61  96 128 160 203 256 306 372
#     4   9  21  45  68  86 119 167 212 259 307 360
#     4  11  22  37  63  93 125 164 204 249 311 368
#
# _framework density 25.009392999999999
#
# number of rings (size 3 to 8) (size 9 to 14) (size 15 to 20)
#    0.000    1.556    3.333    1.333    1.556    1.778 
#    0.000    4.444    0.000    5.333    0.000    0.000 
#    0.000    0.000    0.000    0.000    0.000    0.000 
#
# Total GULP energy -100318.543446 kJ/mol
# GULP energy per Si atom -5573.252414 kJ/mol
# Density = 2.495247 g / cm^3
# Si number density = 25.009393 Si / 1000 Ang^3
#
#
#
# Elastic Constant Matrix: (Units=GPa)
#
#
# Indices 1 2 3 4 5 6 
#
# 1 124.3496 -11.4152 36.7615 0.0000 -22.5536 0.0000
# 2 -11.4152 153.2277 26.0196 0.0000 -3.2257 0.0000
# 3 36.7615 26.0196 141.4126 0.0000 -9.7142 0.0000
# 4 0.0000 0.0000 0.0000 32.4007 0.0000 47.5795
# 5 -22.5536 -3.2257 -9.7142 0.0000 45.0161 0.0000
# 6 0.0000 0.0000 0.0000 47.5795 0.0000 51.4121
#
#
#
# Elastic Compliance Matrix: (Units=1/GPa)
#
#
# Indices 1 2 3 4 5 6 
#
# 1 0.009675 0.001228 -0.002438 0.000000 0.004409 0.000000
# 2 0.001228 0.006895 -0.001534 0.000000 0.000778 0.000000
# 3 -0.002438 -0.001534 0.008015 0.000000 0.000398 0.000000
# 4 0.000000 0.000000 0.000000 -0.085970 0.000000 0.079561
# 5 0.004409 0.000778 0.000398 0.000000 0.024565 0.000000
# 6 0.000000 0.000000 0.000000 0.079561 0.000000 -0.054180
#
#
# Mechanical properties :
#
#
# Convention : Reuss Voigt Hill
#
# Bulk Modulus (GPa) = 52.36967 57.96909 55.16938
# Shear Modulus (GPa) = -63.17449 50.27404 -6.45022
#
# Velocity S-wave (km/s) = -5.03142 4.48840 -1.60771
# Velocity P-wave (km/s) = 3.57324 7.07744 4.31985
#
# Compressibility (1/GPa) = 0.01909502
#
# Stress axis : x y z
#
# Youngs Moduli (GPa) = 103.35907 145.04098 124.76659
#
# Poissons Ratio (x) = -0.17805 0.30419
# Poissons Ratio (y) = -0.12688 0.19143
# Poissons Ratio (z) = 0.25200 0.22253
#
# Static dielectric constant tensor:
#      x y z
#    x 2.050870 0.000000 -0.055530 
#    y 0.000000 1.958410 0.000000 
#    z -0.055530 0.000000 1.909990 
# 
# From -- ./inp_files/367464.got.cif
#   From: 2010.05.17/outbox.cif.g08.bks.cpg/sg12_184_cif.got.tgz:367464.got - 2010.06.03 13:09:07.
