data_PCOD9214702
_publ_section_title
;
Structure prediction by ZEFSAII (Michael W. Deem and Ramdas Pophale) SiO2 
 PCOD9214702
Probable space group: C 2/M
;
_chemical_formula_sum "Si O2"
_cell_formula_units_Z 34
_cell_length_a 14.735416
_cell_length_b 7.733720
_cell_length_c 12.094145
_cell_angle_alpha 90.000000
_cell_angle_beta 76.664985
_cell_angle_gamma 90.000000
_cell_volume 1341.083635
_symmetry_space_group_name_H-M "C 2/M"
_symmetry_group_IT_number 12
_symmetry_cell_setting 'monoclinic'
loop_
_space_group_symop_operation_xyz
x,y,z
-x,y,-z
-x,-y,-z
x,-y,z
1/2+x,1/2+y,z
1/2-x,1/2+y,-z
1/2-x,1/2-y,-z
1/2+x,1/2-y,z
loop_
_atom_site_type_symbol
_atom_site_label
_atom_site_fract_x
_atom_site_fract_y
_atom_site_fract_z
Si Si1 0.847736 0.794798 0.598400
Si Si2 0.844209 0.302738 0.276088
Si Si3 0.541096 0.701132 0.213995
Si Si4 0.350319 0.702919 0.019324
Si Si5 0.500000 0.000000 0.500000
O O1 0.740017 0.728825 0.627821
O O2 0.875547 0.790605 0.721946
O O3 0.917749 0.654040 0.529401
O O4 0.860500 0.000000 0.560013
O O5 0.815981 0.500000 0.275883
O O6 0.949740 0.290594 0.288051
O O7 0.852715 0.239668 0.147754
O O8 0.514284 0.500000 0.209603
O O9 0.573562 0.778489 0.087465
O O10 0.362967 0.500000 0.002862
O O11 0.250000 0.750000 0.000000
#
# Coordination Sequence:
#
# PCOD9214702 Si02
#       5
#     8   8   8   8   2
#     4  10  24  46  68  96 131 165 215 278 330 390
#     4  11  23  39  63  95 134 171 212 263 318 382
#     4  10  22  40  63  92 134 173 212 265 319 377
#     4  11  21  35  59  94 133 178 217 252 308 383
#     4  12  26  44  80  94 116 174 222 268 356 380
#
# _framework density 25.352632
#
# number of rings (size 3 to 8) (size 9 to 14) (size 15 to 20)
#    0.000    1.412    2.353    2.471    4.941    4.706 
#    0.000    1.176    0.000    0.000    0.000    0.000 
#    0.000    0.000    0.000    0.000    0.000    0.000 
#
# Total GULP energy -94801.932867 kJ/mol
# GULP energy per Si atom -5576.584286 kJ/mol
# Density = 2.529493 g / cm^3
# Si number density = 25.352632 Si / 1000 Ang^3
#
#
#
# Elastic Constant Matrix: (Units=GPa)
#
#
# Indices 1 2 3 4 5 6 
#
# 1 111.7572 3.2487 38.2016 0.0000 -52.8519 0.0000
# 2 3.2487 104.3349 34.3857 0.0000 -29.2269 0.0000
# 3 38.2016 34.3857 148.6927 0.0000 -30.8852 0.0000
# 4 0.0000 0.0000 0.0000 17.4878 0.0000 -8.5503
# 5 -52.8519 -29.2269 -30.8852 0.0000 63.0496 0.0000
# 6 0.0000 0.0000 0.0000 -8.5503 0.0000 31.4719
#
#
#
# Elastic Compliance Matrix: (Units=1/GPa)
#
#
# Indices 1 2 3 4 5 6 
#
# 1 0.016601 0.004369 -0.002187 0.000000 0.014870 0.000000
# 2 0.004369 0.012543 -0.002287 0.000000 0.008356 0.000000
# 3 -0.002187 -0.002287 0.008032 0.000000 0.001041 0.000000
# 4 0.000000 0.000000 0.000000 0.065942 0.000000 0.017915
# 5 0.014870 0.008356 0.001041 0.000000 0.032709 0.000000
# 6 0.000000 0.000000 0.000000 0.017915 0.000000 0.036642
#
#
# Mechanical properties :
#
#
# Convention : Reuss Voigt Hill
#
# Bulk Modulus (GPa) = 27.05175 57.38410 42.21793
# Shear Modulus (GPa) = 27.02691 41.66511 34.34601
#
# Velocity S-wave (km/s) = 3.26857 4.05831 3.68466
# Velocity P-wave (km/s) = 4.99380 6.68157 5.89837
#
# Compressibility (1/GPa) = 0.03696618
#
# Stress axis : x y z
#
# Youngs Moduli (GPa) = 60.23875 79.72445 124.49648
#
# Poissons Ratio (x) = -0.34833 0.27224
# Poissons Ratio (y) = -0.26319 0.28478
# Poissons Ratio (z) = 0.13173 0.18237
#
# Static dielectric constant tensor:
#      x y z
#    x 2.021490 0.000000 -0.026480 
#    y 0.000000 1.788930 0.000000 
#    z -0.026480 0.000000 2.107820 
# 
# From -- ./inp_files/210629.got.cif
#   From: 2010.05.17/outbox.cif.g08.bks.cpg/sg12_106_cif.got.tgz:210629.got - 2010.06.03 13:09:07.
