data_PCOD9214458
_publ_section_title
;
Structure prediction by ZEFSAII (Michael W. Deem and Ramdas Pophale) SiO2 
 PCOD9214458
Probable space group: C 2/M
;
_chemical_formula_sum "Si O2"
_cell_formula_units_Z 56
_cell_length_a 20.527138
_cell_length_b 33.087175
_cell_length_c 8.846768
_cell_angle_alpha 90.000000
_cell_angle_beta 150.404702
_cell_angle_gamma 90.000000
_cell_volume 2967.466485
_symmetry_space_group_name_H-M "C 2/M"
_symmetry_group_IT_number 12
_symmetry_cell_setting 'monoclinic'
loop_
_space_group_symop_operation_xyz
x,y,z
-x,y,-z
-x,-y,-z
x,-y,z
1/2+x,1/2+y,z
1/2-x,1/2+y,-z
1/2-x,1/2-y,-z
1/2+x,1/2-y,z
loop_
_atom_site_type_symbol
_atom_site_label
_atom_site_fract_x
_atom_site_fract_y
_atom_site_fract_z
Si Si1 0.909798 0.000000 0.469999
Si Si2 0.001819 0.081197 0.183511
Si Si3 0.003418 0.364016 0.829373
Si Si4 0.287840 0.726727 0.228544
Si Si5 0.727792 0.912936 0.797913
Si Si6 0.347468 0.000000 0.239592
Si Si7 0.222158 0.868669 0.785363
Si Si8 0.522314 0.231773 0.870268
O O1 0.945214 0.960401 0.636633
O O2 0.000000 0.000000 0.500000
O O3 0.757643 0.000000 0.110524
O O4 0.098679 0.115884 0.440043
O O5 0.000000 0.079185 0.000000
O O6 0.855690 0.088476 0.951075
O O7 0.890097 0.387243 0.511352
O O8 0.985396 0.315622 0.778443
O O9 0.000000 0.374042 0.000000
O O10 0.144356 0.374487 0.041289
O O11 0.290269 0.678808 0.205213
O O12 0.426340 0.742247 0.571766
O O13 0.250000 0.750000 0.000000
O O14 0.173003 0.735556 0.119852
O O15 0.683701 0.959187 0.732108
O O16 0.765889 0.894240 0.037133
O O17 0.500000 0.000000 0.500000
O O18 0.500000 0.242940 0.000000
#
# Coordination Sequence:
#
# PCOD9214458 Si02
#       8
#     4   8   8   8   8   4   8   8
#     4  12  21  46  67  89 131 164 205 251 306 369
#     4  12  25  41  64  94 125 165 208 257 308 362
#     4  10  22  41  62  89 124 160 201 255 310 368
#     4  11  23  38  61  91 121 156 211 260 305 366
#     4  12  23  41  65  90 123 162 209 250 304 369
#     4  12  24  40  67  97 120 161 205 244 299 361
#     4  11  23  40  62  90 122 164 205 257 310 366
#     4  10  22  40  61  85 122 165 199 247 318 373
#
# _framework density 18.871316
#
# number of rings (size 3 to 8) (size 9 to 14) (size 15 to 20)
#    0.000    0.857    2.857    4.500    0.000    6.286 
#    0.000    0.357    0.000    0.000    0.000    0.000 
#    0.000    0.000    0.000    0.000    0.000    0.000 
#
# Total GULP energy -156653.220009 kJ/mol
# GULP energy per Si atom -5594.757857 kJ/mol
# Density = 1.882836 g / cm^3
# Si number density = 18.871316 Si / 1000 Ang^3
#
#
#
# Elastic Constant Matrix: (Units=GPa)
#
#
# Indices 1 2 3 4 5 6 
#
# 1 136.0649 47.5387 41.3854 0.0000 -0.4766 0.0000
# 2 47.5387 69.8627 39.8851 0.0000 3.1915 0.0000
# 3 41.3854 39.8851 101.5788 0.0000 11.0818 0.0000
# 4 0.0000 0.0000 0.0000 38.5690 0.0000 -2.1122
# 5 -0.4766 3.1915 11.0818 0.0000 40.1310 0.0000
# 6 0.0000 0.0000 0.0000 -2.1122 0.0000 20.2447
#
#
#
# Elastic Compliance Matrix: (Units=1/GPa)
#
#
# Indices 1 2 3 4 5 6 
#
# 1 0.009934 -0.005711 -0.001925 0.000000 0.001104 0.000000
# 2 -0.005711 0.021745 -0.006202 0.000000 -0.000084 0.000000
# 3 -0.001925 -0.006202 0.013417 0.000000 -0.003235 0.000000
# 4 0.000000 0.000000 0.000000 0.026077 0.000000 0.002721
# 5 0.001104 -0.000084 -0.003235 0.000000 0.025831 0.000000
# 6 0.000000 0.000000 0.000000 0.002721 0.000000 0.049680
#
#
# Mechanical properties :
#
#
# Convention : Reuss Voigt Hill
#
# Bulk Modulus (GPa) = 57.40851 62.79164 60.10008
# Shear Modulus (GPa) = 27.75204 31.70208 29.72706
#
# Velocity S-wave (km/s) = 3.83899 4.10311 3.97325
# Velocity P-wave (km/s) = 7.08079 7.46949 7.27773
#
# Compressibility (1/GPa) = 0.01741902
#
# Stress axis : x y z
#
# Youngs Moduli (GPa) = 100.66154 45.98849 74.53144
#
# Poissons Ratio (x) = 0.26264 0.14350
# Poissons Ratio (y) = 0.57488 0.46225
# Poissons Ratio (z) = 0.19381 0.28522
#
# Static dielectric constant tensor:
#      x y z
#    x 1.632850 0.000000 0.006880 
#    y 0.000000 1.637630 0.000000 
#    z 0.006880 0.000000 1.616910 
# 
# From -- ./inp_files/91668.got.cif
#   From: 2010.05.17/outbox.cif.g08.bks.cpg/sg12_46_cif.got.tgz:91668.got - 2010.06.03 13:09:07.
