data_PCOD9214429
_publ_section_title
;
Structure prediction by ZEFSAII (Michael W. Deem and Ramdas Pophale) SiO2 
 PCOD9214429
Probable space group: C 2/M
;
_chemical_formula_sum "Si O2"
_cell_formula_units_Z 40
_cell_length_a 28.222528
_cell_length_b 15.736822
_cell_length_c 5.104624
_cell_angle_alpha 90.000000
_cell_angle_beta 112.660532
_cell_angle_gamma 90.000000
_cell_volume 2092.117299
_symmetry_space_group_name_H-M "C 2/M"
_symmetry_group_IT_number 12
_symmetry_cell_setting 'monoclinic'
loop_
_space_group_symop_operation_xyz
x,y,z
-x,y,-z
-x,-y,-z
x,-y,z
1/2+x,1/2+y,z
1/2-x,1/2+y,-z
1/2-x,1/2-y,-z
1/2+x,1/2-y,z
loop_
_atom_site_type_symbol
_atom_site_label
_atom_site_fract_x
_atom_site_fract_y
_atom_site_fract_z
Si Si1 0.109271 0.247446 0.171318
Si Si2 0.442054 0.189190 0.454516
Si Si3 0.749046 0.148366 0.033493
Si Si4 0.352054 0.094515 0.467187
Si Si5 0.311384 0.597663 0.664455
O O1 0.064692 0.256909 0.293649
O O2 0.145873 0.328433 0.319479
O O3 0.141951 0.162834 0.271818
O O4 0.086033 0.260151 0.836933
O O5 0.500000 0.170744 0.500000
O O6 0.406746 0.106991 0.437660
O O7 0.693809 0.113211 0.830841
O O8 0.788719 0.110679 0.905860
O O9 0.750000 0.250000 0.000000
O O10 0.767678 0.122700 0.360742
O O11 0.346833 0.000000 0.565505
O O12 0.325836 0.500000 0.655257
#
# Coordination Sequence:
#
# PCOD9214429 Si02
#       5
#     8   8   8   8   8
#     4  10  22  40  60  88 115 160 198 250 300 356
#     4  10  22  41  62  85 116 158 199 251 313 359
#     4  12  23  40  60  91 130 167 203 245 299 358
#     4  10  23  37  59  90 122 158 203 245 296 360
#     4  12  24  40  63  92 127 167 204 245 300 364
#
# _framework density 19.119387
#
# number of rings (size 3 to 8) (size 9 to 14) (size 15 to 20)
#    1.200    0.000    2.000    5.400    2.800    1.200 
#    0.000    1.000    0.000    3.600    0.000    0.000 
#    0.000    0.000    0.000    0.000    0.000    0.000 
#
# Total GULP energy -111647.235045 kJ/mol
# GULP energy per Si atom -5582.361752 kJ/mol
# Density = 1.907587 g / cm^3
# Si number density = 19.119387 Si / 1000 Ang^3
#
#
#
# Elastic Constant Matrix: (Units=GPa)
#
#
# Indices 1 2 3 4 5 6 
#
# 1 64.0675 14.3316 -19.5736 0.0000 6.0191 0.0000
# 2 14.3316 152.6292 7.4592 0.0000 12.0741 0.0000
# 3 -19.5736 7.4592 39.4024 0.0000 -8.9580 0.0000
# 4 0.0000 0.0000 0.0000 14.1274 0.0000 -8.4280
# 5 6.0191 12.0741 -8.9580 0.0000 31.5625 0.0000
# 6 0.0000 0.0000 0.0000 -8.4280 0.0000 11.0665
#
#
#
# Elastic Compliance Matrix: (Units=1/GPa)
#
#
# Indices 1 2 3 4 5 6 
#
# 1 0.019160 -0.002290 0.009963 0.000000 0.000050 0.000000
# 2 -0.002290 0.007180 -0.003230 0.000000 -0.003227 0.000000
# 3 0.009963 -0.003230 0.032912 0.000000 0.008677 0.000000
# 4 0.000000 0.000000 0.000000 0.129721 0.000000 0.098792
# 5 0.000050 -0.003227 0.008677 0.000000 0.035371 0.000000
# 6 0.000000 0.000000 0.000000 0.098792 0.000000 0.165601
#
#
# Mechanical properties :
#
#
# Convention : Reuss Voigt Hill
#
# Bulk Modulus (GPa) = 14.67628 28.94815 21.81222
# Shear Modulus (GPa) = 12.38322 28.27673 20.32997
#
# Velocity S-wave (km/s) = 2.54771 3.84989 3.26439
# Velocity P-wave (km/s) = 4.04317 5.91065 5.06375
#
# Compressibility (1/GPa) = 0.06813718
#
# Stress axis : x y z
#
# Youngs Moduli (GPa) = 52.19244 139.27612 30.38361
#
# Poissons Ratio (x) = 0.31893 -0.30270
# Poissons Ratio (y) = 0.11952 0.09815
# Poissons Ratio (z) = -0.51998 0.44991
#
# Static dielectric constant tensor:
#      x y z
#    x 1.688640 0.000000 -0.023910 
#    y 0.000000 1.648320 0.000000 
#    z -0.023910 0.000000 1.647130 
# 
# From -- ./inp_files/28054.got.cif
#   From: 2010.05.17/outbox.cif.g08.bks.cpg/sg12_15_cif.got.tgz:28054.got - 2010.06.03 13:09:07.
