data_PCOD9214545
_publ_section_title
;
Structure prediction by ZEFSAII (Michael W. Deem and Ramdas Pophale) SiO2 
 PCOD9214545
Probable space group: C 2/M
;
_chemical_formula_sum "Si O2"
_cell_formula_units_Z 40
_cell_length_a 12.954742
_cell_length_b 11.071729
_cell_length_c 11.699694
_cell_angle_alpha 90.000000
_cell_angle_beta 59.173025
_cell_angle_gamma 90.000000
_cell_volume 1441.018825
_symmetry_space_group_name_H-M "C 2/M"
_symmetry_group_IT_number 12
_symmetry_cell_setting 'monoclinic'
loop_
_space_group_symop_operation_xyz
x,y,z
-x,y,-z
-x,-y,-z
x,-y,z
1/2+x,1/2+y,z
1/2-x,1/2+y,-z
1/2-x,1/2-y,-z
1/2+x,1/2-y,z
loop_
_atom_site_type_symbol
_atom_site_label
_atom_site_fract_x
_atom_site_fract_y
_atom_site_fract_z
Si Si1 0.934225 0.235185 0.899017
Si Si2 0.699572 0.745819 0.689317
Si Si3 0.842170 0.000000 0.080401
Si Si4 0.512944 0.645972 0.624643
Si Si5 0.680757 0.000000 0.635013
Si Si6 0.904081 0.500000 0.872753
Si Si7 0.779805 0.500000 0.660170
O O1 0.883555 0.118386 0.991942
O O2 0.884911 0.371335 0.945813
O O3 0.078082 0.248643 0.836624
O O4 0.921400 0.200260 0.771581
O O5 0.864847 0.795711 0.392549
O O6 0.738471 0.883064 0.659097
O O7 0.795886 0.645721 0.667121
O O8 0.139416 0.000000 0.793321
O O9 0.695789 0.000000 0.170617
O O10 0.500000 0.678073 0.500000
O O11 0.514819 0.500000 0.631732
O O12 0.537912 0.000000 0.745409
O O13 0.692797 0.000000 0.492494
#
# Coordination Sequence:
#
# PCOD9214545 Si02
#       7
#     8   8   4   8   4   4   4
#     4   9  19  39  59  88 118 154 191 247 294 347
#     4   9  19  39  59  88 118 154 191 247 294 347
#     4  12  23  37  60  89 121 159 200 235 287 364
#     4   9  16  31  59  89 116 148 193 240 291 343
#     4  10  22  40  62  81 121 155 195 251 305 333
#     4  10  22  40  62  81 121 155 195 251 305 333
#     4  12  23  37  60  89 121 159 200 235 287 364
#
# _framework density 27.758139
#
# number of rings (size 3 to 8) (size 9 to 14) (size 15 to 20)
#    1.200    1.000    2.000    1.800    0.000    3.600 
#    0.000    1.000    0.000    3.600    0.000    0.000 
#    0.000    0.000    0.000    0.000    0.000    0.000 
#
# Total GULP energy -111577.854802 kJ/mol
# GULP energy per Si atom -5578.892740 kJ/mol
# Density = 2.769496 g / cm^3
# Si number density = 27.758139 Si / 1000 Ang^3
#
#
#
# Elastic Constant Matrix: (Units=GPa)
#
#
# Indices 1 2 3 4 5 6 
#
# 1 94.8496 50.7833 38.1834 0.0000 28.1822 0.0000
# 2 50.7833 327.7109 72.9304 0.0000 15.8954 0.0000
# 3 38.1834 72.9304 121.3642 0.0000 11.0721 0.0000
# 4 0.0000 0.0000 0.0000 20.9320 0.0000 6.0545
# 5 28.1822 15.8954 11.0721 0.0000 43.7220 0.0000
# 6 0.0000 0.0000 0.0000 6.0545 0.0000 35.2170
#
#
#
# Elastic Compliance Matrix: (Units=1/GPa)
#
#
# Indices 1 2 3 4 5 6 
#
# 1 0.014979 -0.001195 -0.003228 0.000000 -0.008403 0.000000
# 2 -0.001195 0.003643 -0.001804 0.000000 -0.000097 0.000000
# 3 -0.003228 -0.001804 0.010328 0.000000 0.000121 0.000000
# 4 0.000000 0.000000 0.000000 0.050274 0.000000 -0.008643
# 5 -0.008403 -0.000097 0.000121 0.000000 0.028293 0.000000
# 6 0.000000 0.000000 0.000000 -0.008643 0.000000 0.029881
#
#
# Mechanical properties :
#
#
# Convention : Reuss Voigt Hill
#
# Bulk Modulus (GPa) = 60.62127 96.41322 78.51724
# Shear Modulus (GPa) = 32.18505 45.44272 38.81389
#
# Velocity S-wave (km/s) = 3.40881 4.05049 3.74343
# Velocity P-wave (km/s) = 6.11390 7.52888 6.85798
#
# Compressibility (1/GPa) = 0.01649586
#
# Stress axis : x y z
#
# Youngs Moduli (GPa) = 66.75908 274.50511 96.82111
#
# Poissons Ratio (x) = 0.32812 0.31252
# Poissons Ratio (y) = 0.07980 0.17468
# Poissons Ratio (z) = 0.21549 0.49526
#
# Static dielectric constant tensor:
#      x y z
#    x 2.411340 0.000000 0.229370 
#    y 0.000000 2.176920 0.000000 
#    z 0.229370 0.000000 2.485240 
# 
# From -- ./inp_files/181857.got.cif
#   From: 2010.05.17/outbox.cif.g08.bks.cpg/sg12_91_cif.got.tgz:181857.got - 2010.06.03 13:09:07.
