data_PCOD9214807
_publ_section_title
;
Structure prediction by ZEFSAII (Michael W. Deem and Ramdas Pophale) SiO2 
 PCOD9214807
Probable space group: C 2/M
;
_chemical_formula_sum "Si O2"
_cell_formula_units_Z 52
_cell_length_a 22.235879
_cell_length_b 22.819546
_cell_length_c 5.758924
_cell_angle_alpha 90.000000
_cell_angle_beta 53.757875
_cell_angle_gamma 90.000000
_cell_volume 2356.790348
_symmetry_space_group_name_H-M "C 2/M"
_symmetry_group_IT_number 12
_symmetry_cell_setting 'monoclinic'
loop_
_space_group_symop_operation_xyz
x,y,z
-x,y,-z
-x,-y,-z
x,-y,z
1/2+x,1/2+y,z
1/2-x,1/2+y,-z
1/2-x,1/2-y,-z
1/2+x,1/2-y,z
loop_
_atom_site_type_symbol
_atom_site_label
_atom_site_fract_x
_atom_site_fract_y
_atom_site_fract_z
Si Si1 0.654858 0.712750 0.382687
Si Si2 0.245132 0.566557 0.378229
Si Si3 0.123346 0.650913 0.414793
Si Si4 0.002763 0.862977 0.744066
Si Si5 0.500000 0.900836 0.000000
Si Si6 0.128959 0.562198 0.021864
Si Si7 0.160552 0.171940 0.868390
O O1 0.640831 0.781527 0.397674
O O2 0.578055 0.675341 0.567703
O O3 0.690383 0.698745 0.556207
O O4 0.690135 0.694633 0.051447
O O5 0.250003 0.500000 0.279422
O O6 0.185990 0.608395 0.383466
O O7 0.320811 0.602900 0.191731
O O8 0.209301 0.563104 0.716261
O O9 0.118522 0.623484 0.172185
O O10 0.045493 0.638209 0.716472
O O11 0.000000 0.894861 0.500000
O O12 0.000000 0.895187 0.000000
O O13 0.929040 0.821670 0.917625
O O14 0.563077 0.938008 0.984324
O O15 0.121808 0.500000 0.173183
#
# Coordination Sequence:
#
# PCOD9214807 Si02
#       7
#     8   8   8   8   4   8   8
#     4  10  23  38  66  93 135 162 209 261 327 389
#     4  10  24  44  63  87 124 170 222 266 315 380
#     4  11  24  38  63  91 126 167 210 266 325 389
#     4   8  16  33  57  87 120 158 195 246 308 370
#     4  10  23  36  60  92 122 162 221 264 330 374
#     4  10  22  41  60  85 123 168 221 273 319 373
#     4  10  22  40  64  94 127 174 211 259 321 384
#
# _framework density 22.063907
#
# number of rings (size 3 to 8) (size 9 to 14) (size 15 to 20)
#    0.000    2.154    0.000    1.154    9.692    6.154 
#    0.000    0.000    0.000    8.308    0.000    0.000 
#    0.000    0.000    0.000    0.000    0.000    0.000 
#
# Total GULP energy -144822.504839 kJ/mol
# GULP energy per Si atom -5570.096340 kJ/mol
# Density = 2.201369 g / cm^3
# Si number density = 22.063907 Si / 1000 Ang^3
#
#
#
# Elastic Constant Matrix: (Units=GPa)
#
#
# Indices 1 2 3 4 5 6 
#
# 1 41.9136 4.9193 40.4864 0.0000 12.9707 0.0000
# 2 4.9193 120.2325 47.9471 0.0000 5.7730 0.0000
# 3 40.4864 47.9471 103.8983 0.0000 35.3178 0.0000
# 4 0.0000 0.0000 0.0000 26.7357 0.0000 -1.6194
# 5 12.9707 5.7730 35.3178 0.0000 48.6861 0.0000
# 6 0.0000 0.0000 0.0000 -1.6194 0.0000 14.7415
#
#
#
# Elastic Compliance Matrix: (Units=1/GPa)
#
#
# Indices 1 2 3 4 5 6 
#
# 1 0.041561 0.006116 -0.019919 0.000000 0.002652 0.000000
# 2 0.006116 0.011417 -0.008810 0.000000 0.003408 0.000000
# 3 -0.019919 -0.008810 0.025608 0.000000 -0.012225 0.000000
# 4 0.000000 0.000000 0.000000 0.037654 0.000000 0.004136
# 5 0.002652 0.003408 -0.012225 0.000000 0.028298 0.000000
# 6 0.000000 0.000000 0.000000 0.004136 0.000000 0.068290
#
#
# Mechanical properties :
#
#
# Convention : Reuss Voigt Hill
#
# Bulk Modulus (GPa) = 29.97719 50.30556 40.14138
# Shear Modulus (GPa) = 18.57542 29.54543 24.06043
#
# Velocity S-wave (km/s) = 2.90469 3.66332 3.30584
# Velocity P-wave (km/s) = 4.98654 6.38300 5.72749
#
# Compressibility (1/GPa) = 0.03335870
#
# Stress axis : x y z
#
# Youngs Moduli (GPa) = 24.06120 87.59074 39.05034
#
# Poissons Ratio (x) = -0.53566 0.77783
# Poissons Ratio (y) = -0.14715 0.34404
# Poissons Ratio (z) = 0.47927 0.77169
#
# Static dielectric constant tensor:
#      x y z
#    x 1.910860 0.000000 0.073830 
#    y 0.000000 1.748970 0.000000 
#    z 0.073830 0.000000 1.872550 
# 
# From -- ./inp_files/26179.got.cif
#   From: 2010.05.17/outbox.cif.g08.bks.cpg/sg12_14_cif.got.tgz:26179.got - 2010.06.03 13:09:07.
