data_PCOD9214517
_publ_section_title
;
Structure prediction by ZEFSAII (Michael W. Deem and Ramdas Pophale) SiO2 
 PCOD9214517
Probable space group: C 2/M
;
_chemical_formula_sum "Si O2"
_cell_formula_units_Z 48
_cell_length_a 9.998795
_cell_length_b 20.745398
_cell_length_c 12.343221
_cell_angle_alpha 90.000000
_cell_angle_beta 128.254285
_cell_angle_gamma 90.000000
_cell_volume 2010.561186
_symmetry_space_group_name_H-M "C 2/M"
_symmetry_group_IT_number 12
_symmetry_cell_setting 'monoclinic'
loop_
_space_group_symop_operation_xyz
x,y,z
-x,y,-z
-x,-y,-z
x,-y,z
1/2+x,1/2+y,z
1/2-x,1/2+y,-z
1/2-x,1/2-y,-z
1/2+x,1/2-y,z
loop_
_atom_site_type_symbol
_atom_site_label
_atom_site_fract_x
_atom_site_fract_y
_atom_site_fract_z
Si Si1 0.963573 0.116209 0.110022
Si Si2 0.309518 0.281451 0.415871
Si Si3 0.311843 0.928364 0.399329
Si Si4 0.588972 0.896459 0.926307
Si Si5 0.730463 0.068727 0.367309
Si Si6 0.495634 0.754756 0.126439
O O1 0.141603 0.097179 0.255489
O O2 0.919404 0.188285 0.130306
O O3 0.783295 0.079822 0.034448
O O4 0.000000 0.115918 0.000000
O O5 0.500000 0.260479 0.500000
O O6 0.250000 0.250000 0.500000
O O7 0.302727 0.358954 0.387258
O O8 0.186970 0.253362 0.264255
O O9 0.500000 0.895529 0.500000
O O10 0.266798 0.934010 0.502353
O O11 0.341280 0.000000 0.366098
O O12 0.459819 0.929717 0.778257
O O13 0.587126 0.822214 0.881834
O O14 0.500000 0.898577 0.000000
O O15 0.807707 0.000000 0.364982
O O16 0.500000 0.753608 0.000000
#
# Coordination Sequence:
#
# PCOD9214517 Si02
#       6
#     8   8   8   8   8   8
#     4  11  22  37  63  92 120 162 214 264 320 387
#     4  11  25  43  67  97 131 173 222 274 328 394
#     4  10  22  40  61  89 127 167 212 269 327 383
#     4  10  22  40  61  89 127 167 209 261 321 385
#     4  10  23  42  64  93 132 175 217 269 332 392
#     4   9  21  38  59  88 125 161 204 264 325 379
#
# _framework density 23.873932
#
# number of rings (size 3 to 8) (size 9 to 14) (size 15 to 20)
#    0.000    1.833    0.000    2.500    0.000   17.667 
#    0.000    1.667    0.000    0.000    0.000    0.000 
#    0.000    0.000    0.000    0.000    0.000    0.000 
#
# Total GULP energy -133783.009408 kJ/mol
# GULP energy per Si atom -5574.292059 kJ/mol
# Density = 2.381959 g / cm^3
# Si number density = 23.873932 Si / 1000 Ang^3
#
#
#
# Elastic Constant Matrix: (Units=GPa)
#
#
# Indices 1 2 3 4 5 6 
#
# 1 79.3955 9.1988 58.0414 0.0000 27.4345 0.0000
# 2 9.1988 118.9199 41.3422 0.0000 12.1458 0.0000
# 3 58.0414 41.3422 257.2228 0.0000 28.8671 0.0000
# 4 0.0000 0.0000 0.0000 22.9239 0.0000 -13.6962
# 5 27.4345 12.1458 28.8671 0.0000 50.5881 0.0000
# 6 0.0000 0.0000 0.0000 -13.6962 0.0000 0.7487
#
#
#
# Elastic Compliance Matrix: (Units=1/GPa)
#
#
# Indices 1 2 3 4 5 6 
#
# 1 0.017560 0.000545 -0.003169 0.000000 -0.007845 0.000000
# 2 0.000545 0.009019 -0.001385 0.000000 -0.001670 0.000000
# 3 -0.003169 -0.001385 0.004910 0.000000 -0.000750 0.000000
# 4 0.000000 0.000000 0.000000 -0.004393 0.000000 -0.080366
# 5 -0.007845 -0.001670 -0.000750 0.000000 0.024851 0.000000
# 6 0.000000 0.000000 0.000000 -0.080366 0.000000 -0.134511
#
#
# Mechanical properties :
#
#
# Convention : Reuss Voigt Hill
#
# Bulk Modulus (GPa) = 42.60913 74.74477 58.67695
# Shear Modulus (GPa) = -74.93819 37.98252 -18.47784
#
# Velocity S-wave (km/s) = -5.60868 3.99301 -2.78506
# Velocity P-wave (km/s) = 4.90477 7.25500 3.78009
#
# Compressibility (1/GPa) = 0.02346915
#
# Stress axis : x y z
#
# Youngs Moduli (GPa) = 56.94802 110.87700 203.67988
#
# Poissons Ratio (x) = -0.06041 0.64555
# Poissons Ratio (y) = -0.03103 0.28210
# Poissons Ratio (z) = 0.18049 0.15357
#
# Static dielectric constant tensor:
#      x y z
#    x 1.878440 0.000000 0.039490 
#    y 0.000000 2.122120 0.000000 
#    z 0.039490 0.000000 1.864110 
# 
# From -- ./inp_files/207994.got.cif
#   From: 2010.05.17/outbox.cif.g08.bks.cpg/sg12_104_cif.got.tgz:207994.got - 2010.06.03 13:09:07.
