data_PCOD9214398
_publ_section_title
;
Structure prediction by ZEFSAII (Michael W. Deem and Ramdas Pophale) SiO2 
 PCOD9214398
Probable space group: C 2/M
;
_chemical_formula_sum "Si O2"
_cell_formula_units_Z 48
_cell_length_a 10.019363
_cell_length_b 9.205052
_cell_length_c 26.308835
_cell_angle_alpha 90.000000
_cell_angle_beta 89.817412
_cell_angle_gamma 90.000000
_cell_volume 2426.418841
_symmetry_space_group_name_H-M "C 2/M"
_symmetry_group_IT_number 12
_symmetry_cell_setting 'monoclinic'
loop_
_space_group_symop_operation_xyz
x,y,z
-x,y,-z
-x,-y,-z
x,-y,z
1/2+x,1/2+y,z
1/2-x,1/2+y,-z
1/2-x,1/2-y,-z
1/2+x,1/2-y,z
loop_
_atom_site_type_symbol
_atom_site_label
_atom_site_fract_x
_atom_site_fract_y
_atom_site_fract_z
Si Si1 0.704825 0.329841 0.786396
Si Si2 0.967458 0.672061 0.609288
Si Si3 0.023787 0.670995 0.273474
Si Si4 0.801159 0.828690 0.449384
Si Si5 0.293762 0.326769 0.889232
Si Si6 0.063297 0.827372 0.944927
O O1 0.685205 0.500000 0.797645
O O2 0.572912 0.261686 0.762440
O O3 0.750692 0.248222 0.837074
O O4 0.824704 0.314679 0.745765
O O5 0.997488 0.500000 0.604750
O O6 0.814745 0.691567 0.592504
O O7 0.987765 0.716055 0.667745
O O8 0.063800 0.759511 0.571932
O O9 0.988453 0.500000 0.269856
O O10 0.750000 0.750000 0.500000
O O11 0.817448 0.000000 0.458750
O O12 0.279590 0.500000 0.886061
O O13 0.193895 0.263999 0.931922
O O14 0.446511 0.294952 0.904303
O O15 0.093476 0.000000 0.942742
O O16 0.000000 0.796794 0.000000
#
# Coordination Sequence:
#
# PCOD9214398 Si02
#       6
#     8   8   8   8   8   8
#     4  11  23  39  60  86 117 153 193 238 287 340
#     4  10  22  40  60  85 118 152 190 239 289 340
#     4  10  22  40  61  86 116 151 192 238 289 343
#     4  11  23  39  60  87 118 153 194 237 285 341
#     4  11  23  38  59  87 117 153 195 236 285 343
#     4  10  22  40  61  87 118 151 191 239 288 340
#
# _framework density 19.782240000000002
#
# number of rings (size 3 to 8) (size 9 to 14) (size 15 to 20)
#    0.000    1.500    0.000    4.500    0.000   11.000 
#    0.000    0.000    0.000    0.000    0.000    0.000 
#    0.000    0.000    0.000    0.000    0.000    0.000 
#
# Total GULP energy -134252.723761 kJ/mol
# GULP energy per Si atom -5593.863490 kJ/mol
# Density = 1.973722 g / cm^3
# Si number density = 19.782240 Si / 1000 Ang^3
#
#
#
# Elastic Constant Matrix: (Units=GPa)
#
#
# Indices 1 2 3 4 5 6 
#
# 1 46.3027 24.1703 -21.8630 0.0000 -1.1126 0.0000
# 2 24.1703 43.9204 5.9573 0.0000 1.7133 0.0000
# 3 -21.8630 5.9573 52.7988 0.0000 2.7219 0.0000
# 4 0.0000 0.0000 0.0000 31.0704 0.0000 -4.7985
# 5 -1.1126 1.7133 2.7219 0.0000 32.5321 0.0000
# 6 0.0000 0.0000 0.0000 -4.7985 0.0000 31.9757
#
#
#
# Elastic Compliance Matrix: (Units=1/GPa)
#
#
# Indices 1 2 3 4 5 6 
#
# 1 0.048028 -0.029622 0.023165 0.000000 0.001264 0.000000
# 2 -0.029622 0.041425 -0.016848 0.000000 -0.001785 0.000000
# 3 0.023165 -0.016848 0.030478 0.000000 -0.000871 0.000000
# 4 0.000000 0.000000 0.000000 0.032949 0.000000 0.004945
# 5 0.001264 -0.001785 -0.000871 0.000000 0.030949 0.000000
# 6 0.000000 0.000000 0.000000 0.004945 0.000000 0.032016
#
#
# Mechanical properties :
#
#
# Convention : Reuss Voigt Hill
#
# Bulk Modulus (GPa) = 13.63889 17.72789 15.68339
# Shear Modulus (GPa) = 17.42798 28.09945 22.76372
#
# Velocity S-wave (km/s) = 2.97137 3.77296 3.39590
# Velocity P-wave (km/s) = 4.32221 5.28784 4.82922
#
# Compressibility (1/GPa) = 0.07331975
#
# Stress axis : x y z
#
# Youngs Moduli (GPa) = 20.82116 24.14001 32.81092
#
# Poissons Ratio (x) = 0.71508 -0.76005
# Poissons Ratio (y) = 0.61677 0.55280
# Poissons Ratio (z) = -0.48231 0.40671
#
# Static dielectric constant tensor:
#      x y z
#    x 1.661510 0.000000 0.002040 
#    y 0.000000 1.657570 0.000000 
#    z 0.002040 0.000000 1.690900 
# 
# From -- ./inp_files/334812.got.cif
#   From: 2010.05.17/outbox.cif.g08.bks.cpg/sg12_168_cif.got.tgz:334812.got - 2010.06.03 13:09:07.
