data_PCOD9214726
_publ_section_title
;
Structure prediction by ZEFSAII (Michael W. Deem and Ramdas Pophale) SiO2 
 PCOD9214726
Probable space group: C 2/M
;
_chemical_formula_sum "Si O2"
_cell_formula_units_Z 44
_cell_length_a 10.792222
_cell_length_b 28.640523
_cell_length_c 8.004564
_cell_angle_alpha 90.000000
_cell_angle_beta 57.838927
_cell_angle_gamma 90.000000
_cell_volume 2094.520811
_symmetry_space_group_name_H-M "C 2/M"
_symmetry_group_IT_number 12
_symmetry_cell_setting 'monoclinic'
loop_
_space_group_symop_operation_xyz
x,y,z
-x,y,-z
-x,-y,-z
x,-y,z
1/2+x,1/2+y,z
1/2-x,1/2+y,-z
1/2-x,1/2-y,-z
1/2+x,1/2-y,z
loop_
_atom_site_type_symbol
_atom_site_label
_atom_site_fract_x
_atom_site_fract_y
_atom_site_fract_z
Si Si1 0.522067 0.732562 0.790740
Si Si2 0.642271 0.345876 0.276967
Si Si3 0.000000 0.389847 0.500000
Si Si4 0.345903 0.551673 0.704329
Si Si5 0.322449 0.185721 0.456949
Si Si6 0.038676 0.446105 0.789346
O O1 0.399002 0.695946 0.818379
O O2 0.539918 0.779632 0.669533
O O3 0.681962 0.709891 0.641752
O O4 0.500000 0.742975 0.000000
O O5 0.500000 0.348100 0.500000
O O6 0.661450 0.398638 0.193635
O O7 0.772609 0.331338 0.308111
O O8 0.131763 0.357126 0.462505
O O9 0.968500 0.420351 0.685139
O O10 0.500000 0.550664 0.500000
O O11 0.327531 0.500000 0.800125
O O12 0.215151 0.555096 0.662662
O O13 0.993392 0.500000 0.818492
O O14 0.000000 0.426727 0.000000
#
# Coordination Sequence:
#
# PCOD9214726 Si02
#       6
#     8   8   4   8   8   8
#     4  10  23  40  61  84 118 163 207 259 320 369
#     4   9  18  37  59  81 119 154 196 260 304 361
#     4  12  23  40  64  88 126 168 205 260 312 384
#     4   9  17  34  62  89 116 158 205 250 311 375
#     4  10  23  39  57  89 120 155 209 260 303 383
#     4  10  22  40  63  94 128 165 210 261 318 380
#
# _framework density 21.007192
#
# number of rings (size 3 to 8) (size 9 to 14) (size 15 to 20)
#    0.000    2.182    1.818    0.273    6.364    2.909 
#    0.000    0.000    0.000    0.545    0.000    0.000 
#    0.000    0.000    0.000    0.000    0.000    0.000 
#
# Total GULP energy -122647.629174 kJ/mol
# GULP energy per Si atom -5574.892235 kJ/mol
# Density = 2.095938 g / cm^3
# Si number density = 21.007192 Si / 1000 Ang^3
#
#
#
# Elastic Constant Matrix: (Units=GPa)
#
#
# Indices 1 2 3 4 5 6 
#
# 1 87.4824 41.3136 40.9875 0.0000 11.0146 0.0000
# 2 41.3136 125.1941 42.6553 0.0000 15.8423 0.0000
# 3 40.9875 42.6553 84.1494 0.0000 21.8876 0.0000
# 4 0.0000 0.0000 0.0000 48.4650 0.0000 -11.6041
# 5 11.0146 15.8423 21.8876 0.0000 28.7654 0.0000
# 6 0.0000 0.0000 0.0000 -11.6041 0.0000 55.1489
#
#
#
# Elastic Compliance Matrix: (Units=1/GPa)
#
#
# Indices 1 2 3 4 5 6 
#
# 1 0.015765 -0.003145 -0.006190 0.000000 0.000405 0.000000
# 2 -0.003145 0.010374 -0.003184 0.000000 -0.002086 0.000000
# 3 -0.006190 -0.003184 0.019250 0.000000 -0.010523 0.000000
# 4 0.000000 0.000000 0.000000 0.021728 0.000000 0.004572
# 5 0.000405 -0.002086 -0.010523 0.000000 0.043765 0.000000
# 6 0.000000 0.000000 0.000000 0.004572 0.000000 0.019095
#
#
# Mechanical properties :
#
#
# Convention : Reuss Voigt Hill
#
# Bulk Modulus (GPa) = 49.13776 60.74877 54.94327
# Shear Modulus (GPa) = 30.90240 37.93383 34.41811
#
# Velocity S-wave (km/s) = 3.83957 4.25403 4.05210
# Velocity P-wave (km/s) = 6.56492 7.28765 6.93570
#
# Compressibility (1/GPa) = 0.02035095
#
# Stress axis : x y z
#
# Youngs Moduli (GPa) = 63.43083 96.39217 51.94774
#
# Poissons Ratio (x) = 0.30312 0.32158
# Poissons Ratio (y) = 0.19947 0.16542
# Poissons Ratio (z) = 0.39266 0.30694
#
# Static dielectric constant tensor:
#      x y z
#    x 1.756610 0.000000 -0.026560 
#    y 0.000000 1.856180 0.000000 
#    z -0.026560 0.000000 1.734750 
# 
# From -- ./inp_files/53697.got.cif
#   From: 2010.05.17/outbox.cif.g08.bks.cpg/sg12_27_cif.got.tgz:53697.got - 2010.06.03 13:09:07.
