data_PCOD9214911
_publ_section_title
;
Structure prediction by ZEFSAII (Michael W. Deem and Ramdas Pophale) SiO2 
 PCOD9214911
Probable space group: C 2/M
;
_chemical_formula_sum "Si O2"
_cell_formula_units_Z 36
_cell_length_a 12.857396
_cell_length_b 26.504981
_cell_length_c 9.386755
_cell_angle_alpha 90.000000
_cell_angle_beta 33.598860
_cell_angle_gamma 90.000000
_cell_volume 1770.172203
_symmetry_space_group_name_H-M "C 2/M"
_symmetry_group_IT_number 12
_symmetry_cell_setting 'monoclinic'
loop_
_space_group_symop_operation_xyz
x,y,z
-x,y,-z
-x,-y,-z
x,-y,z
1/2+x,1/2+y,z
1/2-x,1/2+y,-z
1/2-x,1/2-y,-z
1/2+x,1/2-y,z
loop_
_atom_site_type_symbol
_atom_site_label
_atom_site_fract_x
_atom_site_fract_y
_atom_site_fract_z
Si Si1 0.595923 0.331413 0.035188
Si Si2 0.774226 0.944322 0.774104
Si Si3 0.272068 0.856196 0.390723
Si Si4 0.500000 0.233383 0.000000
Si Si5 0.934162 0.400651 0.724668
O O1 0.445190 0.345974 0.326577
O O2 0.599762 0.271828 0.996210
O O3 0.500000 0.353074 0.000000
O O4 0.795532 0.354814 0.840810
O O5 0.708497 0.897633 0.754253
O O6 0.000000 0.943647 0.500000
O O7 0.714381 0.000000 0.791907
O O8 0.688952 0.935184 0.028471
O O9 0.389080 0.878374 0.390212
O O10 0.359926 0.803386 0.241776
O O11 0.000000 0.424426 0.500000
#
# Coordination Sequence:
#
# PCOD9214911 Si02
#       5
#     8   8   8   4   8
#     4  10  23  40  61  96 143 170 216 273 323 392
#     4  11  25  46  72  98 132 175 221 279 343 391
#     4  12  22  43  67  98 131 178 226 270 325 397
#     4  10  22  40  65  96 137 182 220 262 334 388
#     4  12  23  41  70  97 134 176 222 273 330 391
#
# _framework density 20.337005999999999
#
# number of rings (size 3 to 8) (size 9 to 14) (size 15 to 20)
#    0.667    0.222    6.667    0.667    0.000    3.111 
#    0.000    3.333    0.000    4.000    0.000    0.000 
#    0.000    0.000    0.000    0.000    0.000    0.000 
#
# Total GULP energy -100451.396211 kJ/mol
# GULP energy per Si atom -5580.633123 kJ/mol
# Density = 2.029072 g / cm^3
# Si number density = 20.337006 Si / 1000 Ang^3
#
#
#
# Elastic Constant Matrix: (Units=GPa)
#
#
# Indices 1 2 3 4 5 6 
#
# 1 62.6998 15.6535 20.6153 0.0000 3.5134 0.0000
# 2 15.6535 76.4304 -1.3513 0.0000 9.3292 0.0000
# 3 20.6153 -1.3513 116.1243 0.0000 16.0261 0.0000
# 4 0.0000 0.0000 0.0000 5.4657 0.0000 -2.5106
# 5 3.5134 9.3292 16.0261 0.0000 38.3858 0.0000
# 6 0.0000 0.0000 0.0000 -2.5106 0.0000 17.1925
#
#
#
# Elastic Compliance Matrix: (Units=1/GPa)
#
#
# Indices 1 2 3 4 5 6 
#
# 1 0.017958 -0.003819 -0.003325 0.000000 0.000673 0.000000
# 2 -0.003819 0.014342 0.001356 0.000000 -0.003702 0.000000
# 3 -0.003325 0.001356 0.009785 0.000000 -0.004110 0.000000
# 4 0.000000 0.000000 0.000000 0.196115 0.000000 0.028639
# 5 0.000673 -0.003702 -0.004110 0.000000 0.028606 0.000000
# 6 0.000000 0.000000 0.000000 0.028639 0.000000 0.062347
#
#
# Mechanical properties :
#
#
# Convention : Reuss Voigt Hill
#
# Bulk Modulus (GPa) = 32.77849 36.12106 34.44978
# Shear Modulus (GPa) = 14.24912 26.89792 20.57352
#
# Velocity S-wave (km/s) = 2.64985 3.64072 3.18406
# Velocity P-wave (km/s) = 5.05123 5.95591 5.52213
#
# Compressibility (1/GPa) = 0.03050782
#
# Stress axis : x y z
#
# Youngs Moduli (GPa) = 55.68529 69.72630 102.19897
#
# Poissons Ratio (x) = 0.26627 0.33985
# Poissons Ratio (y) = 0.21265 -0.13856
# Poissons Ratio (z) = 0.18517 -0.09453
#
# Static dielectric constant tensor:
#      x y z
#    x 1.731060 0.000000 0.019230 
#    y 0.000000 1.678290 0.000000 
#    z 0.019230 0.000000 1.759200 
# 
# From -- ./inp_files/52250.got.cif
#   From: 2010.05.17/outbox.cif.g08.bks.cpg/sg12_27_cif.got.tgz:52250.got - 2010.06.03 13:09:07.
