data_PCOD9214664
_publ_section_title
;
Structure prediction by ZEFSAII (Michael W. Deem and Ramdas Pophale) SiO2 
 PCOD9214664
Probable space group: C 2/M
;
_chemical_formula_sum "Si O2"
_cell_formula_units_Z 48
_cell_length_a 16.922166
_cell_length_b 17.619362
_cell_length_c 14.627128
_cell_angle_alpha 90.000000
_cell_angle_beta 25.544750
_cell_angle_gamma 90.000000
_cell_volume 1880.615336
_symmetry_space_group_name_H-M "C 2/M"
_symmetry_group_IT_number 12
_symmetry_cell_setting 'monoclinic'
loop_
_space_group_symop_operation_xyz
x,y,z
-x,y,-z
-x,-y,-z
x,-y,z
1/2+x,1/2+y,z
1/2-x,1/2+y,-z
1/2-x,1/2-y,-z
1/2+x,1/2-y,z
loop_
_atom_site_type_symbol
_atom_site_label
_atom_site_fract_x
_atom_site_fract_y
_atom_site_fract_z
Si Si1 0.813576 0.195310 0.154314
Si Si2 0.808108 0.086816 0.005268
Si Si3 0.370876 0.085630 0.507690
Si Si4 0.701302 0.585175 0.335154
Si Si5 0.724322 0.836710 0.911900
Si Si6 0.814202 0.670962 0.393521
O O1 0.891027 0.134591 0.000743
O O2 0.695201 0.149054 0.351475
O O3 0.706384 0.260869 0.210897
O O4 0.000000 0.231266 0.000000
O O5 0.590165 0.087546 0.259898
O O6 0.866558 0.000000 0.939330
O O7 0.836689 0.127390 0.877870
O O8 0.283720 0.105842 0.500815
O O9 0.325141 0.000000 0.586852
O O10 0.500000 0.591338 0.500000
O O11 0.729452 0.500000 0.340009
O O12 0.818940 0.602559 0.122110
O O13 0.733387 0.645194 0.381234
O O14 0.530737 0.817084 0.157247
O O15 0.750000 0.750000 0.500000
#
# Coordination Sequence:
#
# PCOD9214664 Si02
#       6
#     8   8   8   8   8   8
#     4  12  24  39  61  96 132 162 202 256 321 381
#     4  10  23  43  66  91 121 164 215 260 308 373
#     4  10  22  40  63  90 122 165 212 257 308 372
#     4  11  25  43  66  98 133 169 213 269 328 384
#     4  11  24  43  66  94 128 171 217 261 318 385
#     4  11  23  43  67  94 128 168 218 267 317 382
#
# _framework density 25.52356
#
# number of rings (size 3 to 8) (size 9 to 14) (size 15 to 20)
#    0.000    1.167    0.000    6.000    0.000   12.000 
#    0.000    0.000    0.000    0.000    0.000    0.000 
#    0.000    0.000    0.000    0.000    0.000    0.000 
#
# Total GULP energy -134522.394384 kJ/mol
# GULP energy per Si atom -5605.099766 kJ/mol
# Density = 2.546547 g / cm^3
# Si number density = 25.523560 Si / 1000 Ang^3
#
#
#
# Elastic Constant Matrix: (Units=GPa)
#
#
# Indices 1 2 3 4 5 6 
#
# 1 92.5082 26.5191 2.2330 0.0096 36.1205 -0.0023
# 2 26.5191 142.2968 21.7188 0.0128 20.9781 -0.0032
# 3 2.2330 21.7188 55.0370 0.0276 13.5538 0.0003
# 4 0.0096 0.0128 0.0276 35.8543 -0.0047 10.7679
# 5 36.1205 20.9781 13.5538 -0.0047 36.9533 0.0017
# 6 -0.0023 -0.0032 0.0003 10.7679 0.0017 35.2720
#
#
#
# Elastic Compliance Matrix: (Units=1/GPa)
#
#
# Indices 1 2 3 4 5 6 
#
# 1 0.018476 -0.001329 0.004438 -0.000012 -0.018933 0.000006
# 2 -0.001329 0.008003 -0.002534 -0.000001 -0.002314 0.000001
# 3 0.004438 -0.002534 0.021660 -0.000020 -0.010843 0.000007
# 4 -0.000012 -0.000001 -0.000020 0.030706 0.000024 -0.009374
# 5 -0.018933 -0.002314 -0.010843 0.000024 0.050858 -0.000011
# 6 0.000006 0.000001 0.000007 -0.009374 -0.000011 0.031213
#
#
# Mechanical properties :
#
#
# Convention : Reuss Voigt Hill
#
# Bulk Modulus (GPa) = 20.28926 43.42042 31.85484
# Shear Modulus (GPa) = 28.37708 37.57399 32.97554
#
# Velocity S-wave (km/s) = 3.33798 3.84100 3.59829
# Velocity P-wave (km/s) = 4.77731 6.05969 5.45630
#
# Compressibility (1/GPa) = 0.04928715
#
# Stress axis : x y z
#
# Youngs Moduli (GPa) = 54.12327 124.94769 46.16787
#
# Poissons Ratio (x) = 0.16611 -0.20487
# Poissons Ratio (y) = 0.07196 0.11701
# Poissons Ratio (z) = -0.24018 0.31667
#
# Static dielectric constant tensor:
#      x y z
#    x 2.002560 -0.000010 -0.028840 
#    y -0.000010 1.975080 0.000000 
#    z -0.028840 0.000000 2.103050 
# 
# From -- ./inp_files/226753.got.cif
#   From: 2010.05.17/outbox.cif.g08.bks.cpg/sg12_114_cif.got.tgz:226753.got - 2010.06.03 13:09:07.
