data_PCOD9214322
_publ_section_title
;
Structure prediction by ZEFSAII (Michael W. Deem and Ramdas Pophale) SiO2 
 PCOD9214322
Probable space group: C 2/M
;
_chemical_formula_sum "Si O2"
_cell_formula_units_Z 64
_cell_length_a 14.689417
_cell_length_b 9.277852
_cell_length_c 27.613338
_cell_angle_alpha 90.000000
_cell_angle_beta 111.316614
_cell_angle_gamma 90.000000
_cell_volume 3505.853753
_symmetry_space_group_name_H-M "C 2/M"
_symmetry_group_IT_number 12
_symmetry_cell_setting 'monoclinic'
loop_
_space_group_symop_operation_xyz
x,y,z
-x,y,-z
-x,-y,-z
x,-y,z
1/2+x,1/2+y,z
1/2-x,1/2+y,-z
1/2-x,1/2-y,-z
1/2+x,1/2-y,z
loop_
_atom_site_type_symbol
_atom_site_label
_atom_site_fract_x
_atom_site_fract_y
_atom_site_fract_z
Si Si1 0.032208 0.324813 0.059109
Si Si2 0.259135 0.174295 0.856103
Si Si3 0.854006 0.668609 0.410610
Si Si4 0.853434 0.169890 0.674505
Si Si5 0.568754 0.173298 0.862124
Si Si6 0.650137 0.669449 0.493629
Si Si7 0.857379 0.672050 0.775399
Si Si8 0.497092 0.330484 0.375980
O O1 0.031192 0.500000 0.058705
O O2 0.143047 0.284686 0.094857
O O3 0.958457 0.282195 0.088009
O O4 0.000000 0.273731 0.000000
O O5 0.162491 0.248090 0.858208
O O6 0.285547 0.214231 0.805630
O O7 0.249522 0.000000 0.856292
O O8 0.874810 0.500000 0.421688
O O9 0.738866 0.687024 0.378954
O O10 0.885324 0.759070 0.463444
O O11 0.908118 0.731217 0.374285
O O12 0.837496 0.253734 0.720774
O O13 0.949483 0.213345 0.663120
O O14 0.861407 0.000000 0.686574
O O15 0.468855 0.204107 0.813332
O O16 0.583565 0.000000 0.864173
O O17 0.667644 0.500000 0.504582
O O18 0.750000 0.750000 0.500000
O O19 0.575099 0.683784 0.434866
O O20 0.849662 0.500000 0.768935
O O21 0.470079 0.500000 0.367849
#
# Coordination Sequence:
#
# PCOD9214322 Si02
#       8
#     8   8   8   8   8   8   8   8
#     4   8  15  30  51  75 107 146 180 212 258 315
#     4   9  18  33  53  77 105 138 178 221 262 313
#     4  11  23  39  57  83 111 138 176 218 261 318
#     4  10  22  40  57  77 109 139 171 221 272 313
#     4   9  18  33  53  77 105 137 177 222 262 309
#     4  11  21  37  60  82 110 144 176 214 262 315
#     4   9  20  37  54  74 102 137 178 217 261 319
#     4  10  22  40  57  79 110 141 172 213 264 316
#
# _framework density 18.255181
#
# number of rings (size 3 to 8) (size 9 to 14) (size 15 to 20)
#    0.000    2.375    1.250    2.625    0.000    6.500 
#    0.000    6.875    0.000    0.750    0.000    0.000 
#    0.000    0.000    0.000    0.000    0.000    0.000 
#
# Total GULP energy -178533.798198 kJ/mol
# GULP energy per Si atom -5579.181194 kJ/mol
# Density = 1.821363 g / cm^3
# Si number density = 18.255181 Si / 1000 Ang^3
#
#
#
# Elastic Constant Matrix: (Units=GPa)
#
#
# Indices 1 2 3 4 5 6 
#
# 1 112.5686 37.6940 23.2902 0.0000 -28.3714 0.0000
# 2 37.6940 36.6725 30.9525 0.0000 -8.4653 0.0000
# 3 23.2902 30.9525 89.4269 0.0000 -21.5582 0.0000
# 4 0.0000 0.0000 0.0000 21.6412 0.0000 -3.4669
# 5 -28.3714 -8.4653 -21.5582 0.0000 16.2624 0.0000
# 6 0.0000 0.0000 0.0000 -3.4669 0.0000 35.6897
#
#
#
# Elastic Compliance Matrix: (Units=1/GPa)
#
#
# Indices 1 2 3 4 5 6 
#
# 1 0.032981 -0.035150 0.019159 0.000000 0.064641 0.000000
# 2 -0.035150 0.076118 -0.032954 0.000000 -0.065385 0.000000
# 3 0.019159 -0.032954 0.031629 0.000000 0.058200 0.000000
# 4 0.000000 0.000000 0.000000 0.046939 0.000000 0.004560
# 5 0.064641 -0.065385 0.058200 0.000000 0.217381 0.000000
# 6 0.000000 0.000000 0.000000 0.004560 0.000000 0.028462
#
#
# Mechanical properties :
#
#
# Convention : Reuss Voigt Hill
#
# Bulk Modulus (GPa) = 23.34283 46.94904 35.14593
# Shear Modulus (GPa) = 9.16290 24.50074 16.83182
#
# Velocity S-wave (km/s) = 2.24282 3.66748 3.03979
# Velocity P-wave (km/s) = 4.41834 6.61119 5.62270
#
# Compressibility (1/GPa) = 0.04283971
#
# Stress axis : x y z
#
# Youngs Moduli (GPa) = 30.32026 13.13750 31.61666
#
# Poissons Ratio (x) = 0.46178 -0.60576
# Poissons Ratio (y) = 1.06575 1.04190
# Poissons Ratio (z) = -0.58092 0.43293
#
# Static dielectric constant tensor:
#      x y z
#    x 1.645030 0.000000 -0.012270 
#    y 0.000000 1.602690 0.000000 
#    z -0.012270 0.000000 1.636500 
# 
# From -- ./inp_files/359911.got.cif
#   From: 2010.05.17/outbox.cif.g08.bks.cpg/sg12_180_cif.got.tgz:359911.got - 2010.06.03 13:09:07.
