data_PCOD9214652
_publ_section_title
;
Structure prediction by ZEFSAII (Michael W. Deem and Ramdas Pophale) SiO2 
 PCOD9214652
Probable space group: C 2/M
;
_chemical_formula_sum "Si O2"
_cell_formula_units_Z 44
_cell_length_a 11.347704
_cell_length_b 26.235177
_cell_length_c 12.588387
_cell_angle_alpha 90.000000
_cell_angle_beta 36.150693
_cell_angle_gamma 90.000000
_cell_volume 2210.795543
_symmetry_space_group_name_H-M "C 2/M"
_symmetry_group_IT_number 12
_symmetry_cell_setting 'monoclinic'
loop_
_space_group_symop_operation_xyz
x,y,z
-x,y,-z
-x,-y,-z
x,-y,z
1/2+x,1/2+y,z
1/2-x,1/2+y,-z
1/2-x,1/2-y,-z
1/2+x,1/2-y,z
loop_
_atom_site_type_symbol
_atom_site_label
_atom_site_fract_x
_atom_site_fract_y
_atom_site_fract_z
Si Si1 0.277496 0.304618 0.704935
Si Si2 0.088569 0.134696 0.200418
Si Si3 0.753744 0.059025 0.503496
Si Si4 0.499633 0.103769 0.128124
Si Si5 0.666987 0.686769 0.789250
Si Si6 0.000000 0.389209 0.500000
O O1 0.500000 0.313207 0.500000
O O2 0.293688 0.325219 0.812504
O O3 0.228643 0.245434 0.733976
O O4 0.112656 0.341671 0.773873
O O5 0.953873 0.093603 0.360488
O O6 0.936735 0.166857 0.241582
O O7 0.268229 0.106761 0.008340
O O8 0.625628 0.067224 0.703994
O O9 0.624207 0.078106 0.495600
O O10 0.804461 0.000000 0.453677
O O11 0.500000 0.091358 0.000000
O O12 0.852643 0.649010 0.670755
O O13 0.500000 0.682294 0.000000
#
# Coordination Sequence:
#
# PCOD9214652 Si02
#       6
#     8   8   8   8   8   4
#     4  11  21  39  60  89 123 157 195 237 295 353
#     4  10  23  40  60  88 121 157 199 242 292 355
#     4  11  23  41  64  87 118 156 201 252 301 348
#     4  10  22  40  63  88 123 156 195 248 295 351
#     4  11  22  37  61  89 122 160 196 235 290 356
#     4  10  23  40  60  90 122 156 199 246 292 352
#
# _framework density 19.902335999999998
#
# number of rings (size 3 to 8) (size 9 to 14) (size 15 to 20)
#    0.000    1.455    2.727    3.000    0.000    6.182 
#    0.000    6.364    0.000    6.000    0.000    0.000 
#    0.000    0.000    0.000    0.000    0.000    0.000 
#
# Total GULP energy -122767.508130 kJ/mol
# GULP energy per Si atom -5580.341279 kJ/mol
# Density = 1.985704 g / cm^3
# Si number density = 19.902336 Si / 1000 Ang^3
#
#
#
# Elastic Constant Matrix: (Units=GPa)
#
#
# Indices 1 2 3 4 5 6 
#
# 1 41.1878 36.1117 7.2314 0.0000 -11.7601 0.0000
# 2 36.1117 118.9721 25.0156 0.0000 -3.3587 0.0000
# 3 7.2314 25.0156 113.8408 0.0000 -20.8065 0.0000
# 4 0.0000 0.0000 0.0000 21.0243 0.0000 11.1614
# 5 -11.7601 -3.3587 -20.8065 0.0000 30.2307 0.0000
# 6 0.0000 0.0000 0.0000 11.1614 0.0000 23.2822
#
#
#
# Elastic Compliance Matrix: (Units=1/GPa)
#
#
# Indices 1 2 3 4 5 6 
#
# 1 0.038754 -0.011960 0.003064 0.000000 0.015856 0.000000
# 2 -0.011960 0.012508 -0.002957 0.000000 -0.005298 0.000000
# 3 0.003064 -0.002957 0.010749 0.000000 0.008262 0.000000
# 4 0.000000 0.000000 0.000000 0.063801 0.000000 -0.030586
# 5 0.015856 -0.005298 0.008262 0.000000 0.044345 0.000000
# 6 0.000000 0.000000 0.000000 -0.030586 0.000000 0.057614
#
#
# Mechanical properties :
#
#
# Convention : Reuss Voigt Hill
#
# Bulk Modulus (GPa) = 26.10547 45.63534 35.87040
# Shear Modulus (GPa) = 18.92179 28.61692 23.76936
#
# Velocity S-wave (km/s) = 3.08674 3.79604 3.45961
# Velocity P-wave (km/s) = 5.08421 6.49558 5.83274
#
# Compressibility (1/GPa) = 0.03830616
#
# Stress axis : x y z
#
# Youngs Moduli (GPa) = 25.80364 79.95073 93.02902
#
# Poissons Ratio (x) = 0.95619 -0.28507
# Poissons Ratio (y) = 0.30861 0.27509
# Poissons Ratio (z) = -0.07907 0.23642
#
# Static dielectric constant tensor:
#      x y z
#    x 1.821960 0.000000 0.008620 
#    y 0.000000 1.652640 0.000000 
#    z 0.008620 0.000000 1.754500 
# 
# From -- ./inp_files/136855.got.cif
#   From: 2010.05.17/outbox.cif.g08.bks.cpg/sg12_69_cif.got.tgz:136855.got - 2010.06.03 13:09:07.
