data_PCOD9214449
_publ_section_title
;
Structure prediction by ZEFSAII (Michael W. Deem and Ramdas Pophale) SiO2 
 PCOD9214449
Probable space group: C 2/M
;
_chemical_formula_sum "Si O2"
_cell_formula_units_Z 48
_cell_length_a 23.235363
_cell_length_b 13.879273
_cell_length_c 19.066747
_cell_angle_alpha 90.000000
_cell_angle_beta 23.994277
_cell_angle_gamma 90.000000
_cell_volume 2500.395097
_symmetry_space_group_name_H-M "C 2/M"
_symmetry_group_IT_number 12
_symmetry_cell_setting 'monoclinic'
loop_
_space_group_symop_operation_xyz
x,y,z
-x,y,-z
-x,-y,-z
x,-y,z
1/2+x,1/2+y,z
1/2-x,1/2+y,-z
1/2-x,1/2-y,-z
1/2+x,1/2-y,z
loop_
_atom_site_type_symbol
_atom_site_label
_atom_site_fract_x
_atom_site_fract_y
_atom_site_fract_z
Si Si1 0.055173 0.105595 0.327627
Si Si2 0.129141 0.886101 0.673517
Si Si3 0.079907 0.386655 0.731877
Si Si4 0.270693 0.394449 0.734229
Si Si5 0.917253 0.240832 0.826359
Si Si6 0.892841 0.242993 0.174230
O O1 0.190252 0.119299 0.227762
O O2 0.031155 0.193962 0.303310
O O3 0.919047 0.098392 0.528113
O O4 0.069730 0.000000 0.275404
O O5 0.256965 0.870034 0.475291
O O6 0.168638 0.834524 0.702911
O O7 0.985299 0.834750 0.806628
O O8 0.111793 0.000000 0.700550
O O9 0.059313 0.500000 0.764177
O O10 0.051250 0.326805 0.834681
O O11 0.982659 0.341312 0.779261
O O12 0.199803 0.500000 0.804735
O O13 0.199908 0.304869 0.776111
O O14 0.750000 0.250000 0.000000
O O15 0.000000 0.194496 0.000000
#
# Coordination Sequence:
#
# PCOD9214449 Si02
#       6
#     8   8   8   8   8   8
#     4   9  18  33  54  78 108 145 182 219 268 335
#     4  10  22  42  63  80 108 155 201 233 269 333
#     4  10  22  40  61  84 112 151 196 235 277 335
#     4   9  18  32  53  81 110 143 178 218 274 338
#     4  11  22  34  56  85 116 146 180 234 286 332
#     4  11  22  34  56  85 115 142 179 235 289 332
#
# _framework density 19.196967000000001
#
# number of rings (size 3 to 8) (size 9 to 14) (size 15 to 20)
#    0.000    2.000    0.000    6.000    4.667    5.667 
#    0.000    0.000    0.000    0.000    0.000    4.667 
#    0.000    0.000    0.000    0.000    0.000    0.000 
#
# Total GULP energy -133690.287680 kJ/mol
# GULP energy per Si atom -5570.428653 kJ/mol
# Density = 1.915327 g / cm^3
# Si number density = 19.196967 Si / 1000 Ang^3
#
#
#
# Elastic Constant Matrix: (Units=GPa)
#
#
# Indices 1 2 3 4 5 6 
#
# 1 50.2407 27.3154 15.1294 0.0001 3.0766 -0.0001
# 2 27.3154 83.7391 15.3836 0.0001 2.1055 -0.0001
# 3 15.1294 15.3836 47.6424 0.0001 1.0972 -0.0001
# 4 0.0001 0.0001 0.0001 6.2558 -0.0001 -5.1289
# 5 3.0766 2.1055 1.0972 -0.0001 37.1617 0.0001
# 6 -0.0001 -0.0001 -0.0001 -5.1289 0.0001 27.0237
#
#
#
# Elastic Compliance Matrix: (Units=1/GPa)
#
#
# Indices 1 2 3 4 5 6 
#
# 1 0.025697 -0.007283 -0.005773 0.000000 -0.001544 0.000000
# 2 -0.007283 0.014772 -0.002453 0.000000 -0.000162 0.000000
# 3 -0.005773 -0.002453 0.023617 0.000000 -0.000080 0.000000
# 4 0.000000 0.000000 0.000000 0.189309 0.000000 0.035929
# 5 -0.001544 -0.000162 -0.000080 0.000000 0.027049 0.000000
# 6 0.000000 0.000000 0.000000 0.035929 0.000000 0.043824
#
#
# Mechanical properties :
#
#
# Convention : Reuss Voigt Hill
#
# Bulk Modulus (GPa) = 30.24132 33.03101 31.63617
# Shear Modulus (GPa) = 13.64967 22.34116 17.99541
#
# Velocity S-wave (km/s) = 2.66941 3.41513 3.06504
# Velocity P-wave (km/s) = 5.02876 5.72665 5.38901
#
# Compressibility (1/GPa) = 0.03306733
#
# Stress axis : x y z
#
# Youngs Moduli (GPa) = 38.91526 67.69434 42.34222
#
# Poissons Ratio (x) = 0.49301 0.24445
# Poissons Ratio (y) = 0.28341 0.10389
# Poissons Ratio (z) = 0.22466 0.16609
#
# Static dielectric constant tensor:
#      x y z
#    x 1.695770 0.000000 -0.027170 
#    y 0.000000 1.684540 0.000000 
#    z -0.027170 0.000000 1.745170 
# 
# From -- ./inp_files/283979.got.cif
#   From: 2010.05.17/outbox.cif.g08.bks.cpg/sg12_142_cif.got.tgz:283979.got - 2010.06.03 13:09:07.
