data_PCOD9214329
_publ_section_title
;
Structure prediction by ZEFSAII (Michael W. Deem and Ramdas Pophale) SiO2 
 PCOD9214329
Probable space group: C 2/M
;
_chemical_formula_sum "Si O2"
_cell_formula_units_Z 48
_cell_length_a 29.263595
_cell_length_b 8.773308
_cell_length_c 10.174161
_cell_angle_alpha 90.000000
_cell_angle_beta 100.363865
_cell_angle_gamma 90.000000
_cell_volume 2569.483087
_symmetry_space_group_name_H-M "C 2/M"
_symmetry_group_IT_number 12
_symmetry_cell_setting 'monoclinic'
loop_
_space_group_symop_operation_xyz
x,y,z
-x,y,-z
-x,-y,-z
x,-y,z
1/2+x,1/2+y,z
1/2-x,1/2+y,-z
1/2-x,1/2-y,-z
1/2+x,1/2-y,z
loop_
_atom_site_type_symbol
_atom_site_label
_atom_site_fract_x
_atom_site_fract_y
_atom_site_fract_z
Si Si1 0.710691 0.316384 0.883148
Si Si2 0.238313 0.316548 0.352602
Si Si3 0.562999 0.316657 0.415575
Si Si4 0.457240 0.316102 0.299928
Si Si5 0.867195 0.316506 0.757725
Si Si6 0.114307 0.317080 0.937303
O O1 0.710586 0.500000 0.892289
O O2 0.725538 0.272859 0.742719
O O3 0.660921 0.251542 0.897725
O O4 0.750000 0.250000 0.000000
O O5 0.238610 0.500000 0.360782
O O6 0.250000 0.250000 0.500000
O O7 0.186522 0.268514 0.282566
O O8 0.566068 0.500000 0.413551
O O9 0.511660 0.274939 0.335904
O O10 0.564646 0.271686 0.569928
O O11 0.602446 0.247487 0.345154
O O12 0.454285 0.500000 0.288173
O O13 0.429531 0.240807 0.167501
O O14 0.868317 0.500000 0.753144
O O15 0.886584 0.269314 0.910200
O O16 0.116965 0.500000 0.934067
#
# Coordination Sequence:
#
# PCOD9214329 Si02
#       6
#     8   8   8   8   8   8
#     4  11  22  40  62  85 117 154 193 237 283 337
#     4  10  23  41  58  83 118 153 191 237 283 337
#     4   9  20  39  62  85 115 151 189 236 290 344
#     4   9  20  40  61  86 116 148 190 239 288 342
#     4  10  22  40  57  82 120 152 188 238 287 338
#     4  11  23  39  59  86 118 154 194 235 286 342
#
# _framework density 18.680800999999999
#
# number of rings (size 3 to 8) (size 9 to 14) (size 15 to 20)
#    0.000    2.000    1.667    2.000    2.333    5.333 
#    0.000    5.000    0.000    0.000    0.000    0.000 
#    0.000    0.000    0.000    0.000    0.000    0.000 
#
# Total GULP energy -134047.919803 kJ/mol
# GULP energy per Si atom -5585.329992 kJ/mol
# Density = 1.863828 g / cm^3
# Si number density = 18.680801 Si / 1000 Ang^3
#
#
#
# Elastic Constant Matrix: (Units=GPa)
#
#
# Indices 1 2 3 4 5 6 
#
# 1 19.2353 1.9367 -3.6728 0.0000 -6.2671 0.0000
# 2 1.9367 18.1884 9.9688 0.0000 1.7154 0.0000
# 3 -3.6728 9.9688 77.0450 0.0000 6.6316 0.0000
# 4 0.0000 0.0000 0.0000 34.7211 0.0000 1.7974
# 5 -6.2671 1.7154 6.6316 0.0000 40.1381 0.0000
# 6 0.0000 0.0000 0.0000 1.7974 0.0000 34.3380
#
#
#
# Elastic Compliance Matrix: (Units=1/GPa)
#
#
# Indices 1 2 3 4 5 6 
#
# 1 0.056234 -0.008465 0.003032 0.000000 0.008641 0.000000
# 2 -0.008465 0.060516 -0.008011 0.000000 -0.002584 0.000000
# 3 0.003032 -0.008011 0.014294 0.000000 -0.001546 0.000000
# 4 0.000000 0.000000 0.000000 0.028879 0.000000 -0.001512
# 5 0.008641 -0.002584 -0.001546 0.000000 0.026629 0.000000
# 6 0.000000 0.000000 0.000000 -0.001512 0.000000 0.029201
#
#
# Mechanical properties :
#
#
# Convention : Reuss Voigt Hill
#
# Bulk Modulus (GPa) = 9.60094 14.54823 12.07458
# Shear Modulus (GPa) = 18.02716 28.92184 23.47450
#
# Velocity S-wave (km/s) = 3.10983 3.93900 3.54872
# Velocity P-wave (km/s) = 4.24798 5.33782 4.82378
#
# Compressibility (1/GPa) = 0.10415649
#
# Stress axis : x y z
#
# Youngs Moduli (GPa) = 17.78274 16.52462 69.96143
#
# Poissons Ratio (x) = 0.13987 -0.21214
# Poissons Ratio (y) = 0.15052 0.56047
# Poissons Ratio (z) = -0.05392 0.13238
#
# Static dielectric constant tensor:
#      x y z
#    x 1.622470 0.000000 0.003710 
#    y 0.000000 1.631560 0.000000 
#    z 0.003710 0.000000 1.630330 
# 
# From -- ./inp_files/108704.got.cif
#   From: 2010.05.17/outbox.cif.g08.bks.cpg/sg12_55_cif.got.tgz:108704.got - 2010.06.03 13:09:07.
