data_PCOD9214619
_publ_section_title
;
Structure prediction by ZEFSAII (Michael W. Deem and Ramdas Pophale) SiO2 
 PCOD9214619
Probable space group: C 2/M
;
_chemical_formula_sum "Si O2"
_cell_formula_units_Z 56
_cell_length_a 19.094351
_cell_length_b 8.707445
_cell_length_c 18.573839
_cell_angle_alpha 90.000000
_cell_angle_beta 67.964184
_cell_angle_gamma 90.000000
_cell_volume 2862.552067
_symmetry_space_group_name_H-M "C 2/M"
_symmetry_group_IT_number 12
_symmetry_cell_setting 'monoclinic'
loop_
_space_group_symop_operation_xyz
x,y,z
-x,y,-z
-x,-y,-z
x,-y,z
1/2+x,1/2+y,z
1/2-x,1/2+y,-z
1/2-x,1/2-y,-z
1/2+x,1/2-y,z
loop_
_atom_site_type_symbol
_atom_site_label
_atom_site_fract_x
_atom_site_fract_y
_atom_site_fract_z
Si Si1 0.441776 0.819981 0.964790
Si Si2 0.925041 0.186934 0.486122
Si Si3 0.033113 0.816350 0.201494
Si Si4 0.729371 0.178393 0.931391
Si Si5 0.114468 0.814606 0.659969
Si Si6 0.672315 0.182141 0.231983
Si Si7 0.778737 0.815868 0.633965
O O1 0.444735 0.737306 0.886953
O O2 0.459563 0.000000 0.944198
O O3 0.500000 0.754634 0.000000
O O4 0.360729 0.814543 0.033917
O O5 0.918642 0.233042 0.405180
O O6 0.847549 0.233870 0.555430
O O7 0.000000 0.240231 0.500000
O O8 0.927629 0.000000 0.486246
O O9 0.091870 0.744531 0.235340
O O10 0.947763 0.771195 0.256117
O O11 0.038666 0.000000 0.204136
O O12 0.768863 0.271466 0.853069
O O13 0.753449 0.000000 0.918028
O O14 0.750000 0.250000 0.000000
O O15 0.197290 0.747714 0.642004
O O16 0.120835 0.000000 0.657418
O O17 0.699051 0.259070 0.295336
O O18 0.669371 0.000000 0.241390
O O19 0.775600 0.000000 0.634274
#
# Coordination Sequence:
#
# PCOD9214619 Si02
#       7
#     8   8   8   8   8   8   8
#     4  10  23  41  61  87 121 160 201 250 306 360
#     4   9  18  37  65  92 123 161 203 249 300 361
#     4  11  23  40  63  90 120 159 207 254 305 368
#     4  11  22  39  63  91 122 160 202 254 308 362
#     4  10  22  40  62  92 128 163 200 250 307 364
#     4  12  25  41  62  88 123 163 205 258 309 361
#     4  11  23  39  63  93 123 163 206 250 304 364
#
# _framework density 19.562963
#
# number of rings (size 3 to 8) (size 9 to 14) (size 15 to 20)
#    0.000    1.429    1.429    3.857    2.000    4.286 
#    0.000    0.714    0.000    3.000    0.000    0.000 
#    0.000    0.000    0.000    0.000    0.000    0.000 
#
# Total GULP energy -156481.254868 kJ/mol
# GULP energy per Si atom -5588.616245 kJ/mol
# Density = 1.951844 g / cm^3
# Si number density = 19.562963 Si / 1000 Ang^3
#
#
#
# Elastic Constant Matrix: (Units=GPa)
#
#
# Indices 1 2 3 4 5 6 
#
# 1 129.1655 27.3297 24.5564 0.0000 -4.1540 0.0000
# 2 27.3297 47.0355 10.0501 0.0000 -7.9942 0.0000
# 3 24.5564 10.0501 70.3185 0.0000 -17.0491 0.0000
# 4 0.0000 0.0000 0.0000 20.6736 0.0000 -2.3775
# 5 -4.1540 -7.9942 -17.0491 0.0000 33.2068 0.0000
# 6 0.0000 0.0000 0.0000 -2.3775 0.0000 29.5985
#
#
#
# Elastic Compliance Matrix: (Units=1/GPa)
#
#
# Indices 1 2 3 4 5 6 
#
# 1 0.009314 -0.005053 -0.002904 0.000000 -0.001543 0.000000
# 2 -0.005053 0.025195 -0.000593 0.000000 0.005129 0.000000
# 3 -0.002904 -0.000593 0.017358 0.000000 0.008406 0.000000
# 4 0.000000 0.000000 0.000000 0.048822 0.000000 0.003922
# 5 -0.001543 0.005129 0.008406 0.000000 0.035472 0.000000
# 6 0.000000 0.000000 0.000000 0.003922 0.000000 0.034101
#
#
# Mechanical properties :
#
#
# Convention : Reuss Voigt Hill
#
# Bulk Modulus (GPa) = 28.76344 41.15463 34.95903
# Shear Modulus (GPa) = 25.13186 29.00132 27.06659
#
# Velocity S-wave (km/s) = 3.58811 3.85445 3.72366
# Velocity P-wave (km/s) = 5.64810 6.39466 6.03294
#
# Compressibility (1/GPa) = 0.03476636
#
# Stress axis : x y z
#
# Youngs Moduli (GPa) = 107.36796 39.69024 57.61019
#
# Poissons Ratio (x) = 0.20057 0.16732
# Poissons Ratio (y) = 0.54256 0.03414
# Poissons Ratio (z) = 0.31183 0.02352
#
# Static dielectric constant tensor:
#      x y z
#    x 1.693170 0.000000 -0.012180 
#    y 0.000000 1.668520 0.000000 
#    z -0.012180 0.000000 1.649390 
# 
# From -- ./inp_files/275094.got.cif
#   From: 2010.05.17/outbox.cif.g08.bks.cpg/sg12_138_cif.got.tgz:275094.got - 2010.06.03 13:09:07.
