data_PCOD9214106
_publ_section_title
;
Structure prediction by ZEFSAII (Michael W. Deem and Ramdas Pophale) SiO2 
 PCOD9214106
Probable space group: C 2/M
;
_chemical_formula_sum "Si O2"
_cell_formula_units_Z 48
_cell_length_a 13.418227
_cell_length_b 19.191257
_cell_length_c 11.748443
_cell_angle_alpha 90.000000
_cell_angle_beta 50.892606
_cell_angle_gamma 90.000000
_cell_volume 2347.583291
_symmetry_space_group_name_H-M "C 2/M"
_symmetry_group_IT_number 12
_symmetry_cell_setting 'monoclinic'
loop_
_space_group_symop_operation_xyz
x,y,z
-x,y,-z
-x,-y,-z
x,-y,z
1/2+x,1/2+y,z
1/2-x,1/2+y,-z
1/2-x,1/2-y,-z
1/2+x,1/2-y,z
loop_
_atom_site_type_symbol
_atom_site_label
_atom_site_fract_x
_atom_site_fract_y
_atom_site_fract_z
Si Si1 0.860844 0.636033 0.842172
Si Si2 0.249391 0.673324 0.439212
Si Si3 0.635111 0.416723 0.836894
Si Si4 0.391281 0.242317 0.643251
Si Si5 0.641492 0.821003 0.902467
Si Si6 0.875202 0.577805 0.288045
O O1 0.746662 0.606904 0.846080
O O2 0.920325 0.705673 0.741233
O O3 0.979334 0.583795 0.770476
O O4 0.819740 0.658859 0.998027
O O5 0.250000 0.750000 0.500000
O O6 0.354655 0.634928 0.281265
O O7 0.134570 0.682556 0.431366
O O8 0.214340 0.621449 0.564355
O O9 0.651756 0.500000 0.796348
O O10 0.500000 0.409342 0.000000
O O11 0.500000 0.286892 0.500000
O O12 0.254724 0.277929 0.762840
O O13 0.623925 0.888280 0.836620
O O14 0.500000 0.785457 0.000000
O O15 0.830276 0.500000 0.315793
#
# Coordination Sequence:
#
# PCOD9214106 Si02
#       6
#     8   8   8   8   8   8
#     4  10  22  39  62  94 125 167 210 266 320 382
#     4  11  22  40  62  91 127 165 211 265 325 385
#     4  10  23  42  65  94 126 169 217 267 329 392
#     4  11  21  37  61  91 128 164 217 264 323 378
#     4  10  23  40  61  93 131 172 212 263 325 385
#     4  11  22  40  66  95 127 168 214 264 321 383
#
# _framework density 20.446558
#
# number of rings (size 3 to 8) (size 9 to 14) (size 15 to 20)
#    0.000    1.500    3.333    1.500    0.000    7.667 
#    0.000    2.500    0.000    0.500    0.000    0.000 
#    0.000    0.000    0.000    0.000    0.000    0.000 
#
# Total GULP energy -133694.298213 kJ/mol
# GULP energy per Si atom -5570.595759 kJ/mol
# Density = 2.040002 g / cm^3
# Si number density = 20.446558 Si / 1000 Ang^3
#
#
#
# Elastic Constant Matrix: (Units=GPa)
#
#
# Indices 1 2 3 4 5 6 
#
# 1 62.9369 30.7849 49.6393 0.0000 16.9141 0.0000
# 2 30.7849 101.0314 74.9046 0.0000 1.0001 0.0000
# 3 49.6393 74.9046 178.5700 0.0000 8.5695 0.0000
# 4 0.0000 0.0000 0.0000 28.5519 0.0000 -4.1550
# 5 16.9141 1.0001 8.5695 0.0000 37.7567 0.0000
# 6 0.0000 0.0000 0.0000 -4.1550 0.0000 11.5994
#
#
#
# Elastic Compliance Matrix: (Units=1/GPa)
#
#
# Indices 1 2 3 4 5 6 
#
# 1 0.023952 -0.003785 -0.004611 0.000000 -0.009583 0.000000
# 2 -0.003785 0.015001 -0.005361 0.000000 0.002515 0.000000
# 3 -0.004611 -0.005361 0.009124 0.000000 0.000137 0.000000
# 4 0.000000 0.000000 0.000000 0.036950 0.000000 0.013236
# 5 -0.009583 0.002515 0.000137 0.000000 0.030681 0.000000
# 6 0.000000 0.000000 0.000000 0.013236 0.000000 0.090953
#
#
# Mechanical properties :
#
#
# Convention : Reuss Voigt Hill
#
# Bulk Modulus (GPa) = 48.62940 72.57732 60.60336
# Shear Modulus (GPa) = 20.74438 28.06223 24.40331
#
# Velocity S-wave (km/s) = 3.18868 3.70870 3.45848
# Velocity P-wave (km/s) = 6.11492 7.34251 6.75665
#
# Compressibility (1/GPa) = 0.02056369
#
# Stress axis : x y z
#
# Youngs Moduli (GPa) = 41.74937 66.66227 109.60213
#
# Poissons Ratio (x) = 0.25233 0.50534
# Poissons Ratio (y) = 0.15803 0.58757
# Poissons Ratio (z) = 0.19249 0.35737
#
# Static dielectric constant tensor:
#      x y z
#    x 1.757380 0.000000 -0.060920 
#    y 0.000000 1.754040 0.000000 
#    z -0.060920 0.000000 1.827250 
# 
# From -- ./inp_files/133725.got.cif
#   From: 2010.05.17/outbox.cif.g08.bks.cpg/sg12_67_cif.got.tgz:133725.got - 2010.06.03 13:09:07.
