data_PCOD9214836
_publ_section_title
;
Structure prediction by ZEFSAII (Michael W. Deem and Ramdas Pophale) SiO2 
 PCOD9214836
Probable space group: C 2/M
;
_chemical_formula_sum "Si O2"
_cell_formula_units_Z 40
_cell_length_a 7.634282
_cell_length_b 21.305311
_cell_length_c 15.494984
_cell_angle_alpha 90.000000
_cell_angle_beta 134.039066
_cell_angle_gamma 90.000000
_cell_volume 1811.736977
_symmetry_space_group_name_H-M "C 2/M"
_symmetry_group_IT_number 12
_symmetry_cell_setting 'monoclinic'
loop_
_space_group_symop_operation_xyz
x,y,z
-x,y,-z
-x,-y,-z
x,-y,z
1/2+x,1/2+y,z
1/2-x,1/2+y,-z
1/2-x,1/2-y,-z
1/2+x,1/2-y,z
loop_
_atom_site_type_symbol
_atom_site_label
_atom_site_fract_x
_atom_site_fract_y
_atom_site_fract_z
Si Si1 0.144053 0.687662 0.424234
Si Si2 0.802823 0.823480 0.008979
Si Si3 0.811556 0.881283 0.742205
Si Si4 0.916412 0.932081 0.597910
Si Si5 0.557396 0.880957 0.237449
O O1 0.250000 0.750000 0.500000
O O2 0.138072 0.675268 0.649139
O O3 0.288652 0.625941 0.506225
O O4 0.143903 0.681379 0.320084
O O5 0.567678 0.860508 0.894055
O O6 0.750000 0.750000 0.000000
O O7 0.000000 0.828861 0.000000
O O8 0.935386 0.853925 0.136327
O O9 0.845372 0.926603 0.673893
O O10 0.650217 0.906926 0.767557
O O11 0.793345 0.923165 0.308557
O O12 0.841794 0.000000 0.537689
#
# Coordination Sequence:
#
# PCOD9214836 Si02
#       5
#     8   8   8   8   8
#     4  10  24  43  67  99 139 173 221 279 335 402
#     4  10  22  40  64  97 133 172 216 276 342 396
#     4   9  24  42  63  97 130 170 224 270 335 391
#     4  12  26  43  68  99 132 182 224 269 338 404
#     4   9  24  42  63  97 130 170 224 270 335 391
#
# _framework density 22.078261999999999
#
# number of rings (size 3 to 8) (size 9 to 14) (size 15 to 20)
#    1.200    0.800    0.000    1.200    8.400    5.600 
#    0.000    2.000    0.000    3.600    0.000    0.000 
#    0.000    0.000    0.000    0.000    0.000    0.000 
#
# Total GULP energy -111631.235122 kJ/mol
# GULP energy per Si atom -5581.561756 kJ/mol
# Density = 2.202801 g / cm^3
# Si number density = 22.078262 Si / 1000 Ang^3
#
#
#
# Elastic Constant Matrix: (Units=GPa)
#
#
# Indices 1 2 3 4 5 6 
#
# 1 72.7252 21.1379 29.4904 0.0000 1.0140 0.0000
# 2 21.1379 114.6495 54.6704 0.0000 17.4697 0.0000
# 3 29.4904 54.6704 133.0061 0.0000 34.2341 0.0000
# 4 0.0000 0.0000 0.0000 19.6285 0.0000 -0.1274
# 5 1.0140 17.4697 34.2341 0.0000 22.6497 0.0000
# 6 0.0000 0.0000 0.0000 -0.1274 0.0000 11.5620
#
#
#
# Elastic Compliance Matrix: (Units=1/GPa)
#
#
# Indices 1 2 3 4 5 6 
#
# 1 0.016175 -0.001883 -0.004910 0.000000 0.008149 0.000000
# 2 -0.001883 0.011167 -0.003236 0.000000 -0.003637 0.000000
# 3 -0.004910 -0.003236 0.015121 0.000000 -0.020138 0.000000
# 4 0.000000 0.000000 0.000000 0.050950 0.000000 0.000562
# 5 0.008149 -0.003637 -0.020138 0.000000 0.077029 0.000000
# 6 0.000000 0.000000 0.000000 0.000562 0.000000 0.086497
#
#
# Mechanical properties :
#
#
# Convention : Reuss Voigt Hill
#
# Bulk Modulus (GPa) = 44.63414 58.99758 51.81586
# Shear Modulus (GPa) = 17.57688 25.10685 21.34187
#
# Velocity S-wave (km/s) = 2.82462 3.37586 3.11247
# Velocity P-wave (km/s) = 5.55861 6.47883 6.03628
#
# Compressibility (1/GPa) = 0.02240437
#
# Stress axis : x y z
#
# Youngs Moduli (GPa) = 61.82378 89.55122 66.13418
#
# Poissons Ratio (x) = 0.16859 0.32472
# Poissons Ratio (y) = 0.11639 0.21404
# Poissons Ratio (z) = 0.30356 0.28983
#
# Static dielectric constant tensor:
#      x y z
#    x 1.866680 0.000000 -0.010360 
#    y 0.000000 1.898460 0.000000 
#    z -0.010360 0.000000 1.849470 
# 
# From -- ./inp_files/208783.got.cif
#   From: 2010.05.17/outbox.cif.g08.bks.cpg/sg12_105_cif.got.tgz:208783.got - 2010.06.03 13:09:07.
