data_PCOD9214306
_publ_section_title
;
Structure prediction by ZEFSAII (Michael W. Deem and Ramdas Pophale) SiO2 
 PCOD9214306
Probable space group: C 2/M
;
_chemical_formula_sum "Si O2"
_cell_formula_units_Z 56
_cell_length_a 11.733380
_cell_length_b 26.963555
_cell_length_c 7.964687
_cell_angle_alpha 90.000000
_cell_angle_beta 106.479944
_cell_angle_gamma 90.000000
_cell_volume 2416.300628
_symmetry_space_group_name_H-M "C 2/M"
_symmetry_group_IT_number 12
_symmetry_cell_setting 'monoclinic'
loop_
_space_group_symop_operation_xyz
x,y,z
-x,y,-z
-x,-y,-z
x,-y,z
1/2+x,1/2+y,z
1/2-x,1/2+y,-z
1/2-x,1/2-y,-z
1/2+x,1/2-y,z
loop_
_atom_site_type_symbol
_atom_site_label
_atom_site_fract_x
_atom_site_fract_y
_atom_site_fract_z
Si Si1 0.123377 0.219373 0.650466
Si Si2 0.174100 0.913482 0.393835
Si Si3 0.746908 0.940951 0.204512
Si Si4 0.525998 0.868730 0.185967
Si Si5 0.065254 0.873574 0.853471
Si Si6 0.603377 0.947351 0.687953
Si Si7 0.821987 0.316633 0.476473
O O1 0.111325 0.178441 0.791856
O O2 0.143468 0.279031 0.658556
O O3 0.235130 0.205597 0.582723
O O4 0.000000 0.212996 0.500000
O O5 0.184775 0.930196 0.590919
O O6 0.264812 0.948551 0.332106
O O7 0.242532 0.862076 0.385808
O O8 0.038997 0.902313 0.291856
O O9 0.625523 0.910519 0.184634
O O10 0.825964 0.912438 0.098884
O O11 0.734049 0.000000 0.174233
O O12 0.415674 0.900779 0.202126
O O13 0.571976 0.837160 0.362477
O O14 0.500000 0.841164 0.000000
O O15 0.000000 0.862528 0.000000
O O16 0.500000 0.942954 0.500000
O O17 0.579333 0.000000 0.764286
#
# Coordination Sequence:
#
# PCOD9214306 Si02
#       7
#     8   8   8   8   8   8   8
#     4  11  21  43  72  95 125 172 229 282 343 404
#     4  11  22  42  68  97 129 185 233 284 335 406
#     4  11  23  43  70  99 135 189 243 276 329 412
#     4  11  24  42  67 103 144 180 219 289 358 409
#     4  12  26  45  66  99 144 179 223 294 353 403
#     4  11  22  37  62  99 137 180 232 278 330 407
#     4  10  22  39  73  97 122 173 237 283 331 419
#
# _framework density 23.175923000000001
#
# number of rings (size 3 to 8) (size 9 to 14) (size 15 to 20)
#    0.000    1.000    7.143    1.286    4.000    3.143 
#    0.000    1.429    0.000    0.000    0.000    0.000 
#    0.000    0.000    0.000    0.000    0.000    0.000 
#
# Total GULP energy -156185.505289 kJ/mol
# GULP energy per Si atom -5578.053760 kJ/mol
# Density = 2.312317 g / cm^3
# Si number density = 23.175923 Si / 1000 Ang^3
#
#
#
# Elastic Constant Matrix: (Units=GPa)
#
#
# Indices 1 2 3 4 5 6 
#
# 1 135.6837 53.2912 26.2191 0.0000 -16.3906 0.0000
# 2 53.2912 127.0110 -1.0719 0.0000 -8.7804 0.0000
# 3 26.2191 -1.0719 48.2645 0.0000 0.4463 0.0000
# 4 0.0000 0.0000 0.0000 2.4102 0.0000 -2.1175
# 5 -16.3906 -8.7804 0.4463 0.0000 36.6761 0.0000
# 6 0.0000 0.0000 0.0000 -2.1175 0.0000 35.2880
#
#
#
# Elastic Compliance Matrix: (Units=1/GPa)
#
#
# Indices 1 2 3 4 5 6 
#
# 1 0.010643 -0.004252 -0.005911 0.000000 0.003810 0.000000
# 2 -0.004252 0.009706 0.002522 0.000000 0.000393 0.000000
# 3 -0.005911 0.002522 0.024008 0.000000 -0.002330 0.000000
# 4 0.000000 0.000000 0.000000 0.437995 0.000000 0.026282
# 5 0.003810 0.000393 -0.002330 0.000000 0.029091 0.000000
# 6 0.000000 0.000000 0.000000 0.026282 0.000000 0.029915
#
#
# Mechanical properties :
#
#
# Convention : Reuss Voigt Hill
#
# Bulk Modulus (GPa) = 34.39545 51.98179 43.18862
# Shear Modulus (GPa) = 8.82876 30.37625 19.60250
#
# Velocity S-wave (km/s) = 1.95390 3.62426 2.91144
# Velocity P-wave (km/s) = 4.46806 6.32389 5.47518
#
# Compressibility (1/GPa) = 0.02907361
#
# Stress axis : x y z
#
# Youngs Moduli (GPa) = 93.96217 103.03147 41.65300
#
# Poissons Ratio (x) = 0.43808 0.24622
# Poissons Ratio (y) = 0.39952 -0.10504
# Poissons Ratio (z) = 0.55542 -0.25982
#
# Static dielectric constant tensor:
#      x y z
#    x 1.751070 0.000000 0.154110 
#    y 0.000000 1.969680 0.000000 
#    z 0.154110 0.000000 1.823110 
# 
# From -- ./inp_files/53288.got.cif
#   From: 2010.05.17/outbox.cif.g08.bks.cpg/sg12_27_cif.got.tgz:53288.got - 2010.06.03 13:09:07.
