data_PCOD9214007
_publ_section_title
;
Structure prediction by ZEFSAII (Michael W. Deem and Ramdas Pophale) SiO2 
 PCOD9214007
Probable space group: C 2/M
;
_chemical_formula_sum "Si O2"
_cell_formula_units_Z 40
_cell_length_a 25.418904
_cell_length_b 12.160729
_cell_length_c 11.811173
_cell_angle_alpha 90.000000
_cell_angle_beta 30.450871
_cell_angle_gamma 90.000000
_cell_volume 1850.314368
_symmetry_space_group_name_H-M "C 2/M"
_symmetry_group_IT_number 12
_symmetry_cell_setting 'monoclinic'
loop_
_space_group_symop_operation_xyz
x,y,z
-x,y,-z
-x,-y,-z
x,-y,z
1/2+x,1/2+y,z
1/2-x,1/2+y,-z
1/2-x,1/2-y,-z
1/2+x,1/2-y,z
loop_
_atom_site_type_symbol
_atom_site_label
_atom_site_fract_x
_atom_site_fract_y
_atom_site_fract_z
Si Si1 0.806977 0.872035 0.400481
Si Si2 0.511446 0.877147 0.349446
Si Si3 0.758938 0.310478 0.103377
Si Si4 0.073976 0.834172 0.588251
Si Si5 0.150763 0.883576 0.930880
O O1 0.750000 0.750000 0.500000
O O2 0.874520 0.864571 0.388478
O O3 0.868154 0.874258 0.168045
O O4 0.757723 0.000000 0.495892
O O5 0.500000 0.835985 0.500000
O O6 0.450707 0.795464 0.380660
O O7 0.470043 0.000000 0.421362
O O8 0.634184 0.877385 0.095735
O O9 0.653515 0.366620 0.340965
O O10 0.780052 0.216123 0.156717
O O11 0.750000 0.250000 0.000000
O O12 0.957890 0.880722 0.801592
O O13 0.203421 0.000000 0.856255
#
# Coordination Sequence:
#
# PCOD9214007 Si02
#       5
#     8   8   8   8   8
#     4  11  23  43  69  98 130 172 222 276 336 399
#     4  10  22  39  61  89 127 173 217 265 327 391
#     4  11  22  39  62  92 130 166 214 271 326 389
#     4  11  22  40  65  91 126 165 214 269 325 385
#     4  10  23  42  65  91 123 168 218 265 325 393
#
# _framework density 21.617947000000001
#
# number of rings (size 3 to 8) (size 9 to 14) (size 15 to 20)
#    0.000    1.400    4.000    1.200    0.000    5.600 
#    0.000    1.000    0.000    3.600    0.000    0.000 
#    0.000    0.000    0.000    0.000    0.000    0.000 
#
# Total GULP energy -111427.641211 kJ/mol
# GULP energy per Si atom -5571.382061 kJ/mol
# Density = 2.156874 g / cm^3
# Si number density = 21.617947 Si / 1000 Ang^3
#
#
#
# Elastic Constant Matrix: (Units=GPa)
#
#
# Indices 1 2 3 4 5 6 
#
# 1 63.7319 26.8002 9.2298 0.0000 15.2295 0.0000
# 2 26.8002 127.3989 14.1329 0.0000 -1.4318 0.0000
# 3 9.2298 14.1329 133.3918 0.0000 -0.9937 0.0000
# 4 0.0000 0.0000 0.0000 -10.1584 0.0000 22.8756
# 5 15.2295 -1.4318 -0.9937 0.0000 34.7214 0.0000
# 6 0.0000 0.0000 0.0000 22.8756 0.0000 -1.3934
#
#
#
# Elastic Compliance Matrix: (Units=1/GPa)
#
#
# Indices 1 2 3 4 5 6 
#
# 1 0.019681 -0.004130 -0.000990 0.000000 -0.008831 0.000000
# 2 -0.004130 0.008812 -0.000632 0.000000 0.002157 0.000000
# 3 -0.000990 -0.000632 0.007637 0.000000 0.000627 0.000000
# 4 0.000000 0.000000 0.000000 0.002737 0.000000 0.044930
# 5 -0.008831 0.002157 0.000627 0.000000 0.032781 0.000000
# 6 0.000000 0.000000 0.000000 0.044930 0.000000 0.019952
#
#
# Mechanical properties :
#
#
# Convention : Reuss Voigt Hill
#
# Bulk Modulus (GPa) = 40.60555 47.20540 43.90547
# Shear Modulus (GPa) = 44.91872 22.92457 33.92165
#
# Velocity S-wave (km/s) = 4.56328 3.25997 3.96554
# Velocity P-wave (km/s) = 6.82560 6.00446 6.42815
#
# Compressibility (1/GPa) = 0.02462717
#
# Stress axis : x y z
#
# Youngs Moduli (GPa) = 50.81055 113.47630 130.94431
#
# Poissons Ratio (x) = 0.46861 0.12964
# Poissons Ratio (y) = 0.20983 0.08274
# Poissons Ratio (z) = 0.05030 0.07170
#
# Static dielectric constant tensor:
#      x y z
#    x 1.746210 0.000000 0.002140 
#    y 0.000000 1.893940 0.000000 
#    z 0.002140 0.000000 1.797200 
# 
# From -- ./inp_files/140296.got.cif
#   From: 2010.05.17/outbox.cif.g08.bks.cpg/sg12_71_cif.got.tgz:140296.got - 2010.06.03 13:09:07.
