data_PCOD9214172
_publ_section_title
;
Structure prediction by ZEFSAII (Michael W. Deem and Ramdas Pophale) SiO2 
 PCOD9214172
Probable space group: C 2/M
;
_chemical_formula_sum "Si O2"
_cell_formula_units_Z 32
_cell_length_a 9.916227
_cell_length_b 27.567788
_cell_length_c 13.762722
_cell_angle_alpha 90.000000
_cell_angle_beta 152.927465
_cell_angle_gamma 90.000000
_cell_volume 1712.288151
_symmetry_space_group_name_H-M "C 2/M"
_symmetry_group_IT_number 12
_symmetry_cell_setting 'monoclinic'
loop_
_space_group_symop_operation_xyz
x,y,z
-x,y,-z
-x,-y,-z
x,-y,z
1/2+x,1/2+y,z
1/2-x,1/2+y,-z
1/2-x,1/2-y,-z
1/2+x,1/2-y,z
loop_
_atom_site_type_symbol
_atom_site_label
_atom_site_fract_x
_atom_site_fract_y
_atom_site_fract_z
Si Si1 0.727070 0.863749 0.885558
Si Si2 0.090658 0.557121 0.445467
Si Si3 0.170180 0.117939 0.823885
Si Si4 0.845696 0.202926 0.502247
O O1 0.622118 0.911924 0.760889
O O2 0.448492 0.828097 0.707855
O O3 0.821646 0.874806 0.055446
O O4 0.000000 0.842282 0.000000
O O5 0.071661 0.500000 0.414410
O O6 0.422121 0.577556 0.642313
O O7 0.000000 0.565818 0.500000
O O8 0.060651 0.167294 0.701294
O O9 0.500000 0.105451 0.000000
O O10 0.750000 0.250000 0.500000
O O11 0.000000 0.216109 0.500000
#
# Coordination Sequence:
#
# PCOD9214172 Si02
#       4
#     8   8   8   8
#     4  11  23  41  64  91 124 168 204 247 306 366
#     4  10  22  39  63  96 126 158 208 257 299 360
#     4  11  23  43  63  88 129 165 200 251 310 364
#     4  11  26  42  63  93 125 158 205 257 304 366
#
# _framework density 18.688441999999998
#
# number of rings (size 3 to 8) (size 9 to 14) (size 15 to 20)
#    0.000    1.250    5.000    0.000    3.500    4.000 
#    0.000    1.250    0.000    0.000    0.000    0.000 
#    0.000    0.000    0.000    0.000    0.000    0.000 
#
# Total GULP energy -89420.576041 kJ/mol
# GULP energy per Si atom -5588.786003 kJ/mol
# Density = 1.864591 g / cm^3
# Si number density = 18.688442 Si / 1000 Ang^3
#
#
#
# Elastic Constant Matrix: (Units=GPa)
#
#
# Indices 1 2 3 4 5 6 
#
# 1 147.8869 40.7247 36.8767 0.0000 4.6373 0.0000
# 2 40.7247 101.6779 19.4332 0.0000 -3.6500 0.0000
# 3 36.8767 19.4332 81.9975 -0.0001 3.8085 -0.0001
# 4 0.0000 0.0000 -0.0001 3.9470 0.0000 -1.6034
# 5 4.6373 -3.6500 3.8085 0.0000 48.5923 0.0000
# 6 0.0000 0.0000 -0.0001 -1.6034 0.0000 27.4274
#
#
#
# Elastic Compliance Matrix: (Units=1/GPa)
#
#
# Indices 1 2 3 4 5 6 
#
# 1 0.008309 -0.002773 -0.003044 0.000000 -0.000763 0.000000
# 2 -0.002773 0.011273 -0.001481 0.000000 0.001228 0.000000
# 3 -0.003044 -0.001481 0.013958 0.000000 -0.000915 0.000000
# 4 0.000000 0.000000 0.000000 0.259520 0.000000 0.015172
# 5 -0.000763 0.001228 -0.000915 0.000000 0.020816 0.000000
# 6 0.000000 0.000000 0.000000 0.015172 0.000000 0.037347
#
#
# Mechanical properties :
#
#
# Convention : Reuss Voigt Hill
#
# Bulk Modulus (GPa) = 52.79232 58.40351 55.59791
# Shear Modulus (GPa) = 13.43601 31.62850 22.53226
#
# Velocity S-wave (km/s) = 2.68423 4.11835 3.47606
# Velocity P-wave (km/s) = 6.15766 7.34394 6.77681
#
# Compressibility (1/GPa) = 0.01894215
#
# Stress axis : x y z
#
# Youngs Moduli (GPa) = 120.35719 88.70744 71.64347
#
# Poissons Ratio (x) = 0.24602 0.21808
# Poissons Ratio (y) = 0.33380 0.10613
# Poissons Ratio (z) = 0.36636 0.13141
#
# Static dielectric constant tensor:
#      x y z
#    x 1.633040 0.000000 0.007540 
#    y 0.000000 1.607870 0.000000 
#    z 0.007540 0.000000 1.639310 
# 
# From -- ./inp_files/3518.got.cif
#   From: 2010.05.17/outbox.cif.g08.bks.cpg/sg12_2_cif.got.tgz:3518.got - 2010.06.03 13:09:07.
