data_PCOD9214059
_publ_section_title
;
Structure prediction by ZEFSAII (Michael W. Deem and Ramdas Pophale) SiO2 
 PCOD9214059
Probable space group: C 2/M
;
_chemical_formula_sum "Si O2"
_cell_formula_units_Z 40
_cell_length_a 11.590926
_cell_length_b 24.154827
_cell_length_c 13.425966
_cell_angle_alpha 90.000000
_cell_angle_beta 149.027600
_cell_angle_gamma 90.000000
_cell_volume 1934.454766
_symmetry_space_group_name_H-M "C 2/M"
_symmetry_group_IT_number 12
_symmetry_cell_setting 'monoclinic'
loop_
_space_group_symop_operation_xyz
x,y,z
-x,y,-z
-x,-y,-z
x,-y,z
1/2+x,1/2+y,z
1/2-x,1/2+y,-z
1/2-x,1/2-y,-z
1/2+x,1/2-y,z
loop_
_atom_site_type_symbol
_atom_site_label
_atom_site_fract_x
_atom_site_fract_y
_atom_site_fract_z
Si Si1 0.248334 0.225708 0.352468
Si Si2 0.598638 0.833769 0.334836
Si Si3 0.421276 0.634288 0.041581
Si Si4 0.830272 0.063179 0.163248
Si Si5 0.698151 0.936476 0.285080
O O1 0.500000 0.234197 0.500000
O O2 0.284145 0.192601 0.482355
O O3 0.129862 0.284864 0.277677
O O4 0.088867 0.186222 0.171186
O O5 0.336817 0.846516 0.158273
O O6 0.710054 0.890057 0.378275
O O7 0.500000 0.602346 0.000000
O O8 0.439573 0.600689 0.158767
O O9 0.829409 0.078035 0.280157
O O10 0.910283 0.000000 0.213448
O O11 0.565402 0.063509 0.939557
O O12 0.750823 0.000000 0.352375
#
# Coordination Sequence:
#
# PCOD9214059 Si02
#       5
#     8   8   8   8   8
#     4  11  23  40  58  84 121 152 198 242 289 348
#     4  10  22  39  62  87 116 156 190 242 299 344
#     4  11  21  38  60  85 120 157 197 236 284 351
#     4   8  16  32  57  89 118 150 193 241 290 345
#     4   8  15  33  60  88 116 146 192 246 294 342
#
# _framework density 20.677661000000001
#
# number of rings (size 3 to 8) (size 9 to 14) (size 15 to 20)
#    0.000    2.400    2.000    1.800    0.000    3.600 
#    7.200    1.000    0.000    4.200    0.000    0.000 
#    0.000    0.000    0.000    0.200    0.000    0.000 
#
# Total GULP energy -111589.207826 kJ/mol
# GULP energy per Si atom -5579.460391 kJ/mol
# Density = 2.063060 g / cm^3
# Si number density = 20.677661 Si / 1000 Ang^3
#
#
#
# Elastic Constant Matrix: (Units=GPa)
#
#
# Indices 1 2 3 4 5 6 
#
# 1 148.4966 79.0712 26.3922 0.0002 12.2357 0.0000
# 2 79.0712 90.9031 22.1460 0.0000 7.2815 0.0000
# 3 26.3922 22.1460 69.5335 0.0007 19.5857 0.0000
# 4 0.0002 0.0000 0.0007 18.9677 0.0003 -8.2791
# 5 12.2357 7.2815 19.5857 0.0003 36.2717 0.0000
# 6 0.0000 0.0000 0.0000 -8.2791 0.0000 26.9091
#
#
#
# Elastic Compliance Matrix: (Units=1/GPa)
#
#
# Indices 1 2 3 4 5 6 
#
# 1 0.012751 -0.010726 -0.000965 0.000000 -0.001627 0.000000
# 2 -0.010726 0.020953 -0.002874 0.000000 0.000964 0.000000
# 3 -0.000965 -0.002874 0.018173 -0.000001 -0.008910 0.000000
# 4 0.000000 0.000000 -0.000001 0.060900 0.000000 0.018737
# 5 -0.001627 0.000964 -0.008910 0.000000 0.032736 0.000000
# 6 0.000000 0.000000 0.000000 0.018737 0.000000 0.042927
#
#
# Mechanical properties :
#
#
# Convention : Reuss Voigt Hill
#
# Bulk Modulus (GPa) = 43.96121 62.68355 53.32238
# Shear Modulus (GPa) = 22.20705 28.51795 25.36250
#
# Velocity S-wave (km/s) = 3.28069 3.71774 3.50603
# Velocity P-wave (km/s) = 5.97135 6.98636 6.49870
#
# Compressibility (1/GPa) = 0.02274733
#
# Stress axis : x y z
#
# Youngs Moduli (GPa) = 78.42460 47.72475 55.02625
#
# Poissons Ratio (x) = 0.51189 0.05312
# Poissons Ratio (y) = 0.84117 0.15814
# Poissons Ratio (z) = 0.07571 0.13715
#
# Static dielectric constant tensor:
#      x y z
#    x 1.767110 0.000000 -0.030970 
#    y 0.000000 1.716250 0.000000 
#    z -0.030970 0.000000 1.781250 
# 
# From -- ./inp_files/47072.got.cif
#   From: 2010.05.17/outbox.cif.g08.bks.cpg/sg12_24_cif.got.tgz:47072.got - 2010.06.03 13:09:07.
