data_PCOD9214214
_publ_section_title
;
Structure prediction by ZEFSAII (Michael W. Deem and Ramdas Pophale) SiO2 
 PCOD9214214
Probable space group: C 2/M
;
_chemical_formula_sum "Si O2"
_cell_formula_units_Z 48
_cell_length_a 12.224453
_cell_length_b 17.514350
_cell_length_c 15.341599
_cell_angle_alpha 90.000000
_cell_angle_beta 45.701449
_cell_angle_gamma 90.000000
_cell_volume 2350.885147
_symmetry_space_group_name_H-M "C 2/M"
_symmetry_group_IT_number 12
_symmetry_cell_setting 'monoclinic'
loop_
_space_group_symop_operation_xyz
x,y,z
-x,y,-z
-x,-y,-z
x,-y,z
1/2+x,1/2+y,z
1/2-x,1/2+y,-z
1/2-x,1/2-y,-z
1/2+x,1/2-y,z
loop_
_atom_site_type_symbol
_atom_site_label
_atom_site_fract_x
_atom_site_fract_y
_atom_site_fract_z
Si Si1 0.876727 0.312152 0.137532
Si Si2 0.428472 0.631009 0.130495
Si Si3 0.875946 0.084597 0.492322
Si Si4 0.087349 0.680735 0.684544
Si Si5 0.953646 0.150660 0.755049
Si Si6 0.912148 0.411384 0.637466
O O1 0.886737 0.219874 0.136009
O O2 0.919863 0.340330 0.209578
O O3 0.709909 0.334981 0.197488
O O4 0.000000 0.339910 0.000000
O O5 0.550062 0.628039 0.141593
O O6 0.271718 0.595722 0.256067
O O7 0.500000 0.600619 0.000000
O O8 0.754815 0.152510 0.564438
O O9 0.000000 0.093948 0.500000
O O10 0.958981 0.090741 0.353691
O O11 0.805344 0.000000 0.541706
O O12 0.048654 0.769928 0.698997
O O13 0.973228 0.636591 0.684806
O O14 0.953615 0.500000 0.624294
O O15 0.000000 0.384626 0.500000
#
# Coordination Sequence:
#
# PCOD9214214 Si02
#       6
#     8   8   8   8   8   8
#     4  10  22  39  64  96 124 158 207 265 315 361
#     4  10  23  39  63  93 125 165 207 258 317 377
#     4  11  23  40  62  90 128 163 202 255 316 371
#     4  11  22  39  67  93 122 162 209 259 305 378
#     4  11  22  40  66  95 124 161 205 264 309 370
#     4  11  24  42  63  90 130 170 209 257 314 376
#
# _framework density 20.417840999999999
#
# number of rings (size 3 to 8) (size 9 to 14) (size 15 to 20)
#    0.000    1.333    3.333    2.000    2.333    6.333 
#    0.000    0.000    0.000    2.500    0.000    0.000 
#    0.000    0.000    0.000    0.000    0.000    0.000 
#
# Total GULP energy -134011.467358 kJ/mol
# GULP energy per Si atom -5583.811140 kJ/mol
# Density = 2.037137 g / cm^3
# Si number density = 20.417841 Si / 1000 Ang^3
#
#
#
# Elastic Constant Matrix: (Units=GPa)
#
#
# Indices 1 2 3 4 5 6 
#
# 1 124.3773 28.9654 44.7867 0.0001 24.7756 0.0000
# 2 28.9654 40.6978 20.7691 0.0001 8.0083 -0.0001
# 3 44.7867 20.7691 123.5222 0.0002 21.1964 -0.0002
# 4 0.0001 0.0001 0.0002 8.4910 -0.0001 -0.7959
# 5 24.7756 8.0083 21.1964 -0.0001 37.4209 0.0001
# 6 0.0000 -0.0001 -0.0002 -0.7959 0.0001 -24.5755
#
#
#
# Elastic Compliance Matrix: (Units=1/GPa)
#
#
# Indices 1 2 3 4 5 6 
#
# 1 0.011181 -0.005858 -0.002231 0.000000 -0.004885 0.000000
# 2 -0.005858 0.030376 -0.002806 0.000000 -0.001033 0.000000
# 3 -0.002231 -0.002806 0.009991 0.000000 -0.003582 0.000000
# 4 0.000000 0.000000 0.000000 0.117415 0.000001 -0.003803
# 5 -0.004885 -0.001033 -0.003582 0.000001 0.032207 0.000000
# 6 0.000000 0.000000 0.000000 -0.003803 0.000000 -0.040568
#
#
# Mechanical properties :
#
#
# Convention : Reuss Voigt Hill
#
# Bulk Modulus (GPa) = 33.60439 53.07107 43.33773
# Shear Modulus (GPa) = 25.99966 17.20571 21.60268
#
# Velocity S-wave (km/s) = 3.57232 2.90604 3.25627
# Velocity P-wave (km/s) = 5.78872 6.10811 5.95056
#
# Compressibility (1/GPa) = 0.02975801
#
# Stress axis : x y z
#
# Youngs Moduli (GPa) = 89.44067 32.92097 100.09036
#
# Poissons Ratio (x) = 0.19284 0.22326
# Poissons Ratio (y) = 0.52393 0.28088
# Poissons Ratio (z) = 0.19951 0.09239
#
# Static dielectric constant tensor:
#      x y z
#    x 1.742460 0.000000 0.006020 
#    y 0.000000 1.703720 0.000000 
#    z 0.006020 0.000000 1.744890 
# 
# From -- ./inp_files/89717.got.cif
#   From: 2010.05.17/outbox.cif.g08.bks.cpg/sg12_45_cif.got.tgz:89717.got - 2010.06.03 13:09:07.
