data_PCOD9214158
_publ_section_title
;
Structure prediction by ZEFSAII (Michael W. Deem and Ramdas Pophale) SiO2 
 PCOD9214158
Probable space group: C 2/M
;
_chemical_formula_sum "Si O2"
_cell_formula_units_Z 40
_cell_length_a 20.756068
_cell_length_b 17.187727
_cell_length_c 14.570639
_cell_angle_alpha 90.000000
_cell_angle_beta 161.255563
_cell_angle_gamma 90.000000
_cell_volume 1670.386948
_symmetry_space_group_name_H-M "C 2/M"
_symmetry_group_IT_number 12
_symmetry_cell_setting 'monoclinic'
loop_
_space_group_symop_operation_xyz
x,y,z
-x,y,-z
-x,-y,-z
x,-y,z
1/2+x,1/2+y,z
1/2-x,1/2+y,-z
1/2-x,1/2-y,-z
1/2+x,1/2-y,z
loop_
_atom_site_type_symbol
_atom_site_label
_atom_site_fract_x
_atom_site_fract_y
_atom_site_fract_z
Si Si1 0.655190 0.093235 0.426980
Si Si2 0.335145 0.363152 0.474598
Si Si3 0.795983 0.689224 0.342138
Si Si4 0.720035 0.411787 0.791182
Si Si5 0.251720 0.820973 0.074329
O O1 0.744543 0.119860 0.450759
O O2 0.772388 0.131485 0.669824
O O3 0.658506 0.000000 0.436803
O O4 0.420336 0.119906 0.107972
O O5 0.304129 0.273659 0.401217
O O6 0.240326 0.411603 0.264243
O O7 0.574844 0.377652 0.803598
O O8 0.700709 0.698181 0.112475
O O9 0.017606 0.655573 0.618369
O O10 0.500000 0.370929 0.500000
O O11 0.695735 0.500000 0.792183
O O12 0.250000 0.750000 0.000000
#
# Coordination Sequence:
#
# PCOD9214158 Si02
#       5
#     8   8   8   8   8
#     4  11  24  43  61  92 136 171 210 260 320 389
#     4  11  22  36  65  93 130 164 214 264 321 374
#     4  10  22  40  65  94 125 167 214 264 321 379
#     4  10  22  39  63  93 127 171 215 262 320 378
#     4   9  21  40  63  95 125 159 212 269 322 374
#
# _framework density 23.946546000000001
#
# number of rings (size 3 to 8) (size 9 to 14) (size 15 to 20)
#    0.000    1.800    0.000    3.000   11.200    2.400 
#    3.600    6.000    0.000    0.000    0.000    0.000 
#    0.000    0.000    0.000    0.000    0.000    0.000 
#
# Total GULP energy -111663.181596 kJ/mol
# GULP energy per Si atom -5583.159080 kJ/mol
# Density = 2.389204 g / cm^3
# Si number density = 23.946546 Si / 1000 Ang^3
#
#
#
# Elastic Constant Matrix: (Units=GPa)
#
#
# Indices 1 2 3 4 5 6 
#
# 1 173.5843 44.4263 29.0191 0.0000 -39.0879 0.0000
# 2 44.4263 79.0801 20.3210 0.0000 -13.2804 0.0000
# 3 29.0191 20.3210 100.3251 0.0001 -11.5144 0.0000
# 4 0.0000 0.0000 0.0001 15.1494 0.0000 -2.0468
# 5 -39.0879 -13.2804 -11.5144 0.0000 47.5807 0.0000
# 6 0.0000 0.0000 0.0000 -2.0468 0.0000 28.3762
#
#
#
# Elastic Compliance Matrix: (Units=1/GPa)
#
#
# Indices 1 2 3 4 5 6 
#
# 1 0.007997 -0.003324 -0.001021 0.000000 0.005395 0.000000
# 2 -0.003324 0.015199 -0.001999 0.000000 0.001027 0.000000
# 3 -0.001021 -0.001999 0.010808 0.000000 0.001219 0.000000
# 4 0.000000 0.000000 0.000000 0.066659 0.000000 0.004808
# 5 0.005395 0.001027 0.001219 0.000000 0.026031 0.000000
# 6 0.000000 0.000000 0.000000 0.004808 0.000000 0.035588
#
#
# Mechanical properties :
#
#
# Convention : Reuss Voigt Hill
#
# Bulk Modulus (GPa) = 46.91378 60.05803 53.48591
# Shear Modulus (GPa) = 27.46119 35.50280 31.48200
#
# Velocity S-wave (km/s) = 3.39007 3.85461 3.62978
# Velocity P-wave (km/s) = 5.91245 6.70412 6.32069
#
# Compressibility (1/GPa) = 0.02131570
#
# Stress axis : x y z
#
# Youngs Moduli (GPa) = 125.04403 65.79240 92.52717
#
# Poissons Ratio (x) = 0.21872 0.09444
# Poissons Ratio (y) = 0.41571 0.18497
# Poissons Ratio (z) = 0.12762 0.13153
#
# Static dielectric constant tensor:
#      x y z
#    x 1.994950 0.000000 0.039860 
#    y 0.000000 1.894860 0.000000 
#    z 0.039860 0.000000 1.993000 
# 
# From -- ./inp_files/47061.got.cif
#   From: 2010.05.17/outbox.cif.g08.bks.cpg/sg12_24_cif.got.tgz:47061.got - 2010.06.03 13:09:07.
