data_PCOD9214375
_publ_section_title
;
Structure prediction by ZEFSAII (Michael W. Deem and Ramdas Pophale) SiO2 
 PCOD9214375
Probable space group: C 2/M
;
_chemical_formula_sum "Si O2"
_cell_formula_units_Z 54
_cell_length_a 8.875449
_cell_length_b 24.192650
_cell_length_c 16.843026
_cell_angle_alpha 90.000000
_cell_angle_beta 131.679074
_cell_angle_gamma 90.000000
_cell_volume 2701.129213
_symmetry_space_group_name_H-M "C 2/M"
_symmetry_group_IT_number 12
_symmetry_cell_setting 'monoclinic'
loop_
_space_group_symop_operation_xyz
x,y,z
-x,y,-z
-x,-y,-z
x,-y,z
1/2+x,1/2+y,z
1/2-x,1/2+y,-z
1/2-x,1/2-y,-z
1/2+x,1/2-y,z
loop_
_atom_site_type_symbol
_atom_site_label
_atom_site_fract_x
_atom_site_fract_y
_atom_site_fract_z
Si Si1 0.992225 0.625944 0.781082
Si Si2 0.990720 0.392047 0.599488
Si Si3 0.000000 0.500000 0.500000
Si Si4 0.339673 0.717618 0.298101
Si Si5 0.871266 0.807040 0.881367
Si Si6 0.038034 0.859934 0.246386
Si Si7 0.000000 0.290609 0.500000
Si Si8 0.651666 0.064906 0.121111
O O1 0.848860 0.677539 0.752220
O O2 0.947593 0.579477 0.829670
O O3 0.939890 0.608221 0.673815
O O4 0.224201 0.645203 0.862630
O O5 0.936364 0.449834 0.540170
O O6 0.234722 0.383229 0.677629
O O7 0.903093 0.336772 0.526473
O O8 0.272614 0.762442 0.209849
O O9 0.505467 0.681091 0.309527
O O10 0.398497 0.749477 0.399673
O O11 0.996613 0.829292 0.849970
O O12 0.000000 0.785444 0.000000
O O13 0.868848 0.906436 0.193985
O O14 0.676079 0.000000 0.118765
O O15 0.500000 0.086510 0.000000
#
# Coordination Sequence:
#
# PCOD9214375 Si02
#       8
#     8   8   2   8   8   8   4   8
#     4  10  22  40  59  91 124 159 199 253 303 361
#     4  10  23  40  63  90 118 159 205 250 306 356
#     4  10  24  40  64  90 114 160 206 262 318 346
#     4  11  23  37  60  92 127 166 200 241 306 354
#     4  11  22  38  60  91 126 162 203 243 297 367
#     4  10  22  40  59  91 124 159 199 253 303 361
#     4  11  22  39  62  90 125 160 207 246 286 378
#     4  10  22  40  64  88 118 161 204 254 310 361
#
# _framework density 19.991637999999998
#
# number of rings (size 3 to 8) (size 9 to 14) (size 15 to 20)
#    0.000    1.630    2.963    1.778    2.074    8.296 
#    0.000    0.000    0.000    6.222    0.000    0.000 
#    0.000    0.000    0.000    0.000    0.000    0.000 
#
# Total GULP energy -150353.772490 kJ/mol
# GULP energy per Si atom -5568.658240 kJ/mol
# Density = 1.994614 g / cm^3
# Si number density = 19.991638 Si / 1000 Ang^3
#
#
#
# Elastic Constant Matrix: (Units=GPa)
#
#
# Indices 1 2 3 4 5 6 
#
# 1 95.9173 8.9767 20.5115 0.0000 -11.0166 0.0000
# 2 8.9767 67.5296 13.6494 0.0000 5.0831 0.0000
# 3 20.5115 13.6494 107.5494 0.0000 -16.6223 0.0000
# 4 0.0000 0.0000 0.0000 44.9257 0.0000 -18.7452
# 5 -11.0166 5.0831 -16.6223 0.0000 25.9611 0.0000
# 6 0.0000 0.0000 0.0000 -18.7452 0.0000 22.9120
#
#
#
# Elastic Compliance Matrix: (Units=1/GPa)
#
#
# Indices 1 2 3 4 5 6 
#
# 1 0.011343 -0.001567 -0.001302 0.000000 0.004287 0.000000
# 2 -0.001567 0.015943 -0.002563 0.000000 -0.005428 0.000000
# 3 -0.001302 -0.002563 0.010947 0.000000 0.006959 0.000000
# 4 0.000000 0.000000 0.000000 0.033796 0.000000 0.027650
# 5 0.004287 -0.005428 0.006959 0.000000 0.045857 0.000000
# 6 0.000000 0.000000 0.000000 0.027650 0.000000 0.066267
#
#
# Mechanical properties :
#
#
# Convention : Reuss Voigt Hill
#
# Bulk Modulus (GPa) = 36.53861 39.69685 38.11773
# Shear Modulus (GPa) = 24.49292 33.95034 29.22163
#
# Velocity S-wave (km/s) = 3.50402 4.12543 3.82736
# Velocity P-wave (km/s) = 5.88961 6.52626 6.21609
#
# Compressibility (1/GPa) = 0.02736831
#
# Stress axis : x y z
#
# Youngs Moduli (GPa) = 88.15942 62.72187 91.34775
#
# Poissons Ratio (x) = 0.09831 0.11892
# Poissons Ratio (y) = 0.13818 0.23417
# Poissons Ratio (z) = 0.11477 0.16078
#
# Static dielectric constant tensor:
#      x y z
#    x 1.752700 0.000000 0.020730 
#    y 0.000000 1.695090 0.000000 
#    z 0.020730 0.000000 1.756530 
# 
# From -- ./inp_files/259280.got.cif
#   From: 2010.05.17/outbox.cif.g08.bks.cpg/sg12_130_cif.got.tgz:259280.got - 2010.06.03 13:09:07.
