data_PCOD9214553
_publ_section_title
;
Structure prediction by ZEFSAII (Michael W. Deem and Ramdas Pophale) SiO2 
 PCOD9214553
Probable space group: C 2/M
;
_chemical_formula_sum "Si O2"
_cell_formula_units_Z 64
_cell_length_a 30.561981
_cell_length_b 9.035586
_cell_length_c 25.266036
_cell_angle_alpha 90.000000
_cell_angle_beta 151.886033
_cell_angle_gamma 90.000000
_cell_volume 3287.797139
_symmetry_space_group_name_H-M "C 2/M"
_symmetry_group_IT_number 12
_symmetry_cell_setting 'monoclinic'
loop_
_space_group_symop_operation_xyz
x,y,z
-x,y,-z
-x,-y,-z
x,-y,z
1/2+x,1/2+y,z
1/2-x,1/2+y,-z
1/2-x,1/2-y,-z
1/2+x,1/2-y,z
loop_
_atom_site_type_symbol
_atom_site_label
_atom_site_fract_x
_atom_site_fract_y
_atom_site_fract_z
Si Si1 0.390853 0.826692 0.547461
Si Si2 0.914981 0.676541 0.300044
Si Si3 0.151198 0.324169 0.380992
Si Si4 0.575915 0.676614 0.194048
Si Si5 0.693640 0.826935 0.715219
Si Si6 0.257388 0.174276 0.679112
Si Si7 0.252550 0.675704 0.059880
Si Si8 0.635936 0.673503 0.021824
O O1 0.481340 0.796039 0.608958
O O2 0.408120 0.805772 0.628282
O O3 0.306728 0.726666 0.437942
O O4 0.365028 0.000000 0.512670
O O5 0.895978 0.500000 0.273266
O O6 0.890975 0.710385 0.335502
O O7 0.843535 0.766329 0.187738
O O8 0.162274 0.500000 0.383035
O O9 0.250000 0.250000 0.500000
O O10 0.105652 0.246480 0.282000
O O11 0.588846 0.500000 0.209437
O O12 0.644129 0.745203 0.223255
O O13 0.467430 0.708743 0.069296
O O14 0.705719 0.729313 0.676569
O O15 0.685553 0.000000 0.691336
O O16 0.786260 0.808887 0.849897
O O17 0.269749 0.000000 0.692181
O O18 0.252908 0.500000 0.055667
O O19 0.250000 0.750000 0.000000
O O20 0.167130 0.729890 0.005160
O O21 0.637672 0.500000 0.008054
#
# Coordination Sequence:
#
# PCOD9214553 Si02
#       8
#     8   8   8   8   8   8   8   8
#     4  10  22  40  62  87 118 157 200 242 292 352
#     4   9  20  40  63  88 116 152 199 245 293 352
#     4  11  22  37  59  87 121 158 196 240 294 350
#     4  11  23  40  62  88 120 155 199 246 295 353
#     4   9  19  40  65  85 116 154 194 244 297 352
#     4  12  25  39  59  87 120 155 200 247 296 355
#     4  11  22  36  57  85 120 158 196 241 290 347
#     4   9  21  41  63  88 116 153 198 243 293 353
#
# _framework density 19.465921000000002
#
# number of rings (size 3 to 8) (size 9 to 14) (size 15 to 20)
#    0.000    1.750    1.250    3.750    1.750    5.000 
#    0.000    5.000    0.000    0.000    0.000    0.000 
#    0.000    0.000    0.000    0.000    0.000    0.000 
#
# Total GULP energy -178816.766716 kJ/mol
# GULP energy per Si atom -5588.023960 kJ/mol
# Density = 1.942162 g / cm^3
# Si number density = 19.465921 Si / 1000 Ang^3
#
#
#
# Elastic Constant Matrix: (Units=GPa)
#
#
# Indices 1 2 3 4 5 6 
#
# 1 99.6114 40.6579 6.7251 0.0000 8.1197 0.0000
# 2 40.6579 79.4820 12.5604 0.0000 3.5597 0.0000
# 3 6.7251 12.5604 11.9330 0.0000 11.3404 0.0000
# 4 0.0000 0.0000 0.0000 21.8733 0.0000 -4.2587
# 5 8.1197 3.5597 11.3404 0.0000 31.0912 0.0000
# 6 0.0000 0.0000 0.0000 -4.2587 0.0000 31.9053
#
#
#
# Elastic Compliance Matrix: (Units=1/GPa)
#
#
# Indices 1 2 3 4 5 6 
#
# 1 0.012995 -0.007095 0.003976 0.000000 -0.004032 0.000000
# 2 -0.007095 0.019796 -0.025170 0.000000 0.008767 0.000000
# 3 0.003976 -0.025170 0.162698 0.000000 -0.057500 0.000000
# 4 0.000000 0.000000 0.000000 0.046938 0.000000 0.006265
# 5 -0.004032 0.008767 -0.057500 0.000000 0.053186 0.000000
# 6 0.000000 0.000000 0.000000 0.006265 0.000000 0.032179
#
#
# Mechanical properties :
#
#
# Convention : Reuss Voigt Hill
#
# Bulk Modulus (GPa) = 7.19883 34.54592 20.87237
# Shear Modulus (GPa) = 11.60973 25.71283 18.66128
#
# Velocity S-wave (km/s) = 2.44481 3.63838 3.09959
# Velocity P-wave (km/s) = 3.41696 5.95280 4.85343
#
# Compressibility (1/GPa) = 0.13891150
#
# Stress axis : x y z
#
# Youngs Moduli (GPa) = 76.95107 50.51563 6.14635
#
# Poissons Ratio (x) = 0.35842 -0.02444
# Poissons Ratio (y) = 0.54599 0.15470
# Poissons Ratio (z) = -0.30596 1.27146
#
# Static dielectric constant tensor:
#      x y z
#    x 1.703540 0.000000 0.011400 
#    y 0.000000 1.647610 0.000000 
#    z 0.011400 0.000000 1.664430 
# 
# From -- ./inp_files/353550.got.cif
#   From: 2010.05.17/outbox.cif.g08.bks.cpg/sg12_177_cif.got.tgz:353550.got - 2010.06.03 13:09:07.
