data_PCOD9214407
_publ_section_title
;
Structure prediction by ZEFSAII (Michael W. Deem and Ramdas Pophale) SiO2 
 PCOD9214407
Probable space group: C 2/M
;
_chemical_formula_sum "Si O2"
_cell_formula_units_Z 40
_cell_length_a 9.957974
_cell_length_b 9.088347
_cell_length_c 21.939846
_cell_angle_alpha 90.000000
_cell_angle_beta 96.567676
_cell_angle_gamma 90.000000
_cell_volume 1972.558951
_symmetry_space_group_name_H-M "C 2/M"
_symmetry_group_IT_number 12
_symmetry_cell_setting 'monoclinic'
loop_
_space_group_symop_operation_xyz
x,y,z
-x,y,-z
-x,-y,-z
x,-y,z
1/2+x,1/2+y,z
1/2-x,1/2+y,-z
1/2-x,1/2-y,-z
1/2+x,1/2-y,z
loop_
_atom_site_type_symbol
_atom_site_label
_atom_site_fract_x
_atom_site_fract_y
_atom_site_fract_z
Si Si1 0.626440 0.169822 0.960700
Si Si2 0.752141 0.674196 0.239304
Si Si3 0.949095 0.174537 0.430752
Si Si4 0.466042 0.674237 0.167670
Si Si5 0.664419 0.826314 0.359914
O O1 0.584062 0.250841 0.896712
O O2 0.661529 0.000000 0.949074
O O3 0.500000 0.172106 0.000000
O O4 0.750000 0.250000 0.000000
O O5 0.775838 0.500000 0.246973
O O6 0.625501 0.696314 0.186932
O O7 0.882511 0.753822 0.218615
O O8 0.706009 0.743639 0.300563
O O9 0.789734 0.195420 0.412895
O O10 0.000000 0.221167 0.500000
O O11 0.031043 0.260656 0.383414
O O12 0.977319 0.000000 0.425467
O O13 0.439916 0.500000 0.164855
O O14 0.649578 0.000000 0.347360
#
# Coordination Sequence:
#
# PCOD9214407 Si02
#       5
#     8   8   8   8   8
#     4  11  24  41  63  91 122 158 199 243 293 349
#     4  11  24  41  62  88 120 158 197 242 297 352
#     4  10  22  40  60  85 119 156 196 244 296 351
#     4  11  24  41  62  89 120 155 198 245 293 349
#     4  11  23  38  60  89 118 153 198 244 293 352
#
# _framework density 20.278229
#
# number of rings (size 3 to 8) (size 9 to 14) (size 15 to 20)
#    0.000    1.200    0.000    5.400    0.000   14.800 
#    0.000    0.000    0.000    0.000    0.000    0.000 
#    0.000    0.000    0.000    0.000    0.000    0.000 
#
# Total GULP energy -111954.071786 kJ/mol
# GULP energy per Si atom -5597.703589 kJ/mol
# Density = 2.023207 g / cm^3
# Si number density = 20.278229 Si / 1000 Ang^3
#
#
#
# Elastic Constant Matrix: (Units=GPa)
#
#
# Indices 1 2 3 4 5 6 
#
# 1 59.5694 30.3522 -18.4778 0.0000 -2.4596 0.0000
# 2 30.3522 82.3853 13.2921 0.0000 10.9369 0.0000
# 3 -18.4778 13.2921 61.1753 0.0000 5.8836 0.0000
# 4 0.0000 0.0000 0.0000 32.7362 0.0000 -1.9118
# 5 -2.4596 10.9369 5.8836 0.0000 34.6101 0.0000
# 6 0.0000 0.0000 0.0000 -1.9118 0.0000 35.2037
#
#
#
# Elastic Compliance Matrix: (Units=1/GPa)
#
#
# Indices 1 2 3 4 5 6 
#
# 1 0.026033 -0.011722 0.010040 0.000000 0.003847 0.000000
# 2 -0.011722 0.018306 -0.006996 0.000000 -0.005428 0.000000
# 3 0.010040 -0.006996 0.020960 0.000000 -0.000639 0.000000
# 4 0.000000 0.000000 0.000000 0.030644 0.000000 0.001664
# 5 0.003847 -0.005428 -0.000639 0.000000 0.030991 0.000000
# 6 0.000000 0.000000 0.000000 0.001664 0.000000 0.028497
#
#
# Mechanical properties :
#
#
# Convention : Reuss Voigt Hill
#
# Bulk Modulus (GPa) = 20.85759 28.16256 24.51008
# Shear Modulus (GPa) = 26.48767 32.37422 29.43095
#
# Velocity S-wave (km/s) = 3.61808 3.99996 3.81380
# Velocity P-wave (km/s) = 5.26897 5.93727 5.61307
#
# Compressibility (1/GPa) = 0.04794417
#
# Stress axis : x y z
#
# Youngs Moduli (GPa) = 38.41319 54.62726 47.70882
#
# Poissons Ratio (x) = 0.64031 -0.47899
# Poissons Ratio (y) = 0.45026 0.33376
# Poissons Ratio (z) = -0.38567 0.38216
#
# Static dielectric constant tensor:
#      x y z
#    x 1.685480 0.000000 0.022160 
#    y 0.000000 1.678270 0.000000 
#    z 0.022160 0.000000 1.700720 
# 
# From -- ./inp_files/260982.got.cif
#   From: 2010.05.17/outbox.cif.g08.bks.cpg/sg12_131_cif.got.tgz:260982.got - 2010.06.03 13:09:07.
