data_PCOD9214581
_publ_section_title
;
Structure prediction by ZEFSAII (Michael W. Deem and Ramdas Pophale) SiO2 
 PCOD9214581
Probable space group: C 2/M
;
_chemical_formula_sum "Si O2"
_cell_formula_units_Z 58
_cell_length_a 24.423363
_cell_length_b 8.090321
_cell_length_c 22.821357
_cell_angle_alpha 90.000000
_cell_angle_beta 143.627739
_cell_angle_gamma 90.000000
_cell_volume 2674.168171
_symmetry_space_group_name_H-M "C 2/M"
_symmetry_group_IT_number 12
_symmetry_cell_setting 'monoclinic'
loop_
_space_group_symop_operation_xyz
x,y,z
-x,y,-z
-x,-y,-z
x,-y,z
1/2+x,1/2+y,z
1/2-x,1/2+y,-z
1/2-x,1/2-y,-z
1/2+x,1/2-y,z
loop_
_atom_site_type_symbol
_atom_site_label
_atom_site_fract_x
_atom_site_fract_y
_atom_site_fract_z
Si Si1 0.670136 0.189919 0.474515
Si Si2 0.030671 0.307438 0.167145
Si Si3 0.781219 0.198704 0.091892
Si Si4 0.619794 0.687177 0.554663
Si Si5 0.500000 0.500000 0.500000
Si Si6 0.199083 0.298473 0.237137
Si Si7 0.489529 0.307692 0.258457
Si Si8 0.872293 0.191399 0.950377
O O1 0.750000 0.250000 0.500000
O O2 0.660140 0.296943 0.524969
O O3 0.573206 0.206232 0.357744
O O4 0.686554 0.000000 0.505740
O O5 0.038301 0.500000 0.190222
O O6 0.129339 0.246392 0.228687
O O7 0.994964 0.211001 0.192834
O O8 0.957919 0.289840 0.051734
O O9 0.713791 0.279758 0.080648
O O10 0.888192 0.245864 0.191236
O O11 0.773988 0.000000 0.090745
O O12 0.750000 0.250000 0.000000
O O13 0.617760 0.500000 0.583104
O O14 0.509667 0.665725 0.457538
O O15 0.697813 0.770702 0.661438
O O16 0.199592 0.500000 0.239737
O O17 0.157809 0.246366 0.139880
O O18 0.503201 0.500000 0.285442
O O19 0.898857 0.000000 0.972458
#
# Coordination Sequence:
#
# PCOD9214581 Si02
#       8
#     8   8   8   8   2   8   8   8
#     4  12  25  42  67 100 137 175 220 276 333 399
#     4  11  22  38  62  89 127 169 213 265 316 380
#     4  11  23  41  65  91 126 167 211 266 320 389
#     4   9  20  42  67  94 126 167 216 270 335 390
#     4   8  20  40  74  92 126 172 210 274 334 416
#     4  10  22  40  62  90 120 163 213 261 320 380
#     4  11  24  41  65  97 129 170 215 263 331 389
#     4  12  25  39  59  89 128 170 214 261 317 377
#
# _framework density 21.688986
#
# number of rings (size 3 to 8) (size 9 to 14) (size 15 to 20)
#    0.414    0.828    1.379    4.966    0.000    7.172 
#    2.483    0.345    0.000    0.000    0.000    0.000 
#    0.000    0.000    0.000    0.000    0.000    0.000 
#
# Total GULP energy -161494.464130 kJ/mol
# GULP energy per Si atom -5568.774625 kJ/mol
# Density = 2.163962 g / cm^3
# Si number density = 21.688986 Si / 1000 Ang^3
#
#
#
# Elastic Constant Matrix: (Units=GPa)
#
#
# Indices 1 2 3 4 5 6 
#
# 1 107.9444 18.6180 8.0306 0.0000 14.5999 0.0000
# 2 18.6180 37.5843 -4.6016 0.0000 17.1784 0.0000
# 3 8.0306 -4.6016 69.4600 0.0000 12.7308 0.0000
# 4 0.0000 0.0000 0.0000 19.8085 0.0000 -4.8585
# 5 14.5999 17.1784 12.7308 0.0000 29.4730 0.0000
# 6 0.0000 0.0000 0.0000 -4.8585 0.0000 24.7134
#
#
#
# Elastic Compliance Matrix: (Units=1/GPa)
#
#
# Indices 1 2 3 4 5 6 
#
# 1 0.010377 -0.004277 -0.001084 0.000000 -0.002180 0.000000
# 2 -0.004277 0.041269 0.007872 0.000000 -0.025335 0.000000
# 3 -0.001084 0.007872 0.017143 0.000000 -0.011456 0.000000
# 4 0.000000 0.000000 0.000000 0.053041 0.000000 0.010428
# 5 -0.002180 -0.025335 -0.011456 0.000000 0.054724 0.000000
# 6 0.000000 0.000000 0.000000 0.010428 0.000000 0.042514
#
#
# Mechanical properties :
#
#
# Convention : Reuss Voigt Hill
#
# Bulk Modulus (GPa) = 13.54784 28.78697 21.16740
# Shear Modulus (GPa) = 20.95117 27.66175 24.30646
#
# Velocity S-wave (km/s) = 3.11140 3.57512 3.35129
# Velocity P-wave (km/s) = 4.37809 5.50849 4.97550
#
# Compressibility (1/GPa) = 0.07381251
#
# Stress axis : x y z
#
# Youngs Moduli (GPa) = 96.36579 24.23120 58.33171
#
# Poissons Ratio (x) = 0.10364 0.06321
# Poissons Ratio (y) = 0.41215 -0.45919
# Poissons Ratio (z) = 0.10442 -0.19075
#
# Static dielectric constant tensor:
#      x y z
#    x 1.891740 0.000000 -0.012920 
#    y 0.000000 1.812700 0.000000 
#    z -0.012920 0.000000 1.764320 
# 
# From -- ./inp_files/324668.got.cif
#   From: 2010.05.17/outbox.cif.g08.bks.cpg/sg12_163_cif.got.tgz:324668.got - 2010.06.03 13:09:07.
