data_PCOD9214239
_publ_section_title
;
Structure prediction by ZEFSAII (Michael W. Deem and Ramdas Pophale) SiO2 
 PCOD9214239
Probable space group: C 2/M
;
_chemical_formula_sum "Si O2"
_cell_formula_units_Z 52
_cell_length_a 15.988656
_cell_length_b 15.359884
_cell_length_c 14.873826
_cell_angle_alpha 90.000000
_cell_angle_beta 40.801221
_cell_angle_gamma 90.000000
_cell_volume 2386.855555
_symmetry_space_group_name_H-M "C 2/M"
_symmetry_group_IT_number 12
_symmetry_cell_setting 'monoclinic'
loop_
_space_group_symop_operation_xyz
x,y,z
-x,y,-z
-x,-y,-z
x,-y,z
1/2+x,1/2+y,z
1/2-x,1/2+y,-z
1/2-x,1/2-y,-z
1/2+x,1/2-y,z
loop_
_atom_site_type_symbol
_atom_site_label
_atom_site_fract_x
_atom_site_fract_y
_atom_site_fract_z
Si Si1 0.933744 0.000000 0.457316
Si Si2 0.136364 0.698296 0.431858
Si Si3 0.986248 0.336665 0.279548
Si Si4 0.722147 0.126760 0.679087
Si Si5 0.368267 0.309392 0.936854
Si Si6 0.150926 0.500000 0.887301
Si Si7 0.764791 0.398916 0.814504
Si Si8 0.651424 0.500000 0.131667
O O1 0.839462 0.917933 0.531237
O O2 0.000000 0.000000 0.500000
O O3 0.044179 0.000000 0.295634
O O4 0.105348 0.676040 0.559792
O O5 0.240047 0.773838 0.343016
O O6 0.186324 0.622564 0.325450
O O7 0.000000 0.728578 0.500000
O O8 0.907586 0.389812 0.269840
O O9 0.018871 0.246302 0.200659
O O10 0.113555 0.380339 0.218055
O O11 0.707671 0.082509 0.787630
O O12 0.366048 0.407986 0.902785
O O13 0.250000 0.250000 0.000000
O O14 0.342617 0.330046 0.063335
O O15 0.207295 0.500000 0.940360
O O16 0.000000 0.500000 0.000000
O O17 0.726946 0.500000 0.851295
#
# Coordination Sequence:
#
# PCOD9214239 Si02
#       8
#     4   8   8   8   8   4   8   4
#     4  11  22  40  64 101 132 168 217 264 352 405
#     4  10  22  39  65  92 125 171 222 268 320 400
#     4  10  23  39  67  97 132 168 220 280 341 391
#     4  11  23  40  64  95 135 165 211 279 341 400
#     4  10  23  39  68  96 130 177 228 275 337 401
#     4  11  29  36  60  97 130 170 207 271 353 393
#     4  10  22  41  66  95 129 176 229 274 326 402
#     4  12  23  43  68  93 134 176 224 285 324 427
#
# _framework density 21.785986999999999
#
# number of rings (size 3 to 8) (size 9 to 14) (size 15 to 20)
#    0.000    1.538    2.308    1.846   12.923    2.769 
#    0.000    0.000    1.692    0.923    0.000    0.000 
#    0.000    0.000    0.000    0.000    0.000    0.000 
#
# Total GULP energy -145094.655680 kJ/mol
# GULP energy per Si atom -5580.563680 kJ/mol
# Density = 2.173640 g / cm^3
# Si number density = 21.785987 Si / 1000 Ang^3
#
#
#
# Elastic Constant Matrix: (Units=GPa)
#
#
# Indices 1 2 3 4 5 6 
#
# 1 39.9478 10.0361 4.1060 0.0000 0.9280 0.0000
# 2 10.0361 94.6091 34.8079 0.0000 3.0763 0.0000
# 3 4.1060 34.8079 119.6570 0.0000 12.7788 0.0000
# 4 0.0000 0.0000 0.0000 18.6239 0.0000 -10.4817
# 5 0.9280 3.0763 12.7788 0.0000 17.7383 0.0000
# 6 0.0000 0.0000 0.0000 -10.4817 0.0000 6.2993
#
#
#
# Elastic Compliance Matrix: (Units=1/GPa)
#
#
# Indices 1 2 3 4 5 6 
#
# 1 0.025732 -0.002700 -0.000004 0.000000 -0.000875 0.000000
# 2 -0.002700 0.012123 -0.003493 0.000000 0.000555 0.000000
# 3 -0.000004 -0.003493 0.010085 0.000000 -0.006659 0.000000
# 4 0.000000 0.000000 0.000000 0.845221 0.000000 1.406389
# 5 -0.000875 0.000555 -0.006659 0.000000 0.061122 0.000000
# 6 0.000000 0.000000 0.000000 1.406389 0.000000 2.498881
#
#
# Mechanical properties :
#
#
# Convention : Reuss Voigt Hill
#
# Bulk Modulus (GPa) = 28.13300 39.12376 33.62838
# Shear Modulus (GPa) = 1.43785 22.21657 11.82721
#
# Velocity S-wave (km/s) = 0.81328 3.19684 2.33251
# Velocity P-wave (km/s) = 3.71797 5.62348 4.76691
#
# Compressibility (1/GPa) = 0.03554544
#
# Stress axis : x y z
#
# Youngs Moduli (GPa) = 38.86262 82.48545 99.15995
#
# Poissons Ratio (x) = 0.22268 0.00042
# Poissons Ratio (y) = 0.10491 0.34640
# Poissons Ratio (z) = 0.00017 0.28815
#
# Static dielectric constant tensor:
#      x y z
#    x 1.809740 0.000000 0.012090 
#    y 0.000000 1.768000 0.000000 
#    z 0.012090 0.000000 1.846410 
# 
# From -- ./inp_files/225651.got.cif
#   From: 2010.05.17/outbox.cif.g08.bks.cpg/sg12_113_cif.got.tgz:225651.got - 2010.06.03 13:09:07.
