data_PCOD9214871
_publ_section_title
;
Structure prediction by ZEFSAII (Michael W. Deem and Ramdas Pophale) SiO2 
 PCOD9214871
Probable space group: C 2/M
;
_chemical_formula_sum "Si O2"
_cell_formula_units_Z 58
_cell_length_a 21.934642
_cell_length_b 16.310002
_cell_length_c 23.375255
_cell_angle_alpha 90.000000
_cell_angle_beta 22.477604
_cell_angle_gamma 90.000000
_cell_volume 3197.205285
_symmetry_space_group_name_H-M "C 2/M"
_symmetry_group_IT_number 12
_symmetry_cell_setting 'monoclinic'
loop_
_space_group_symop_operation_xyz
x,y,z
-x,y,-z
-x,-y,-z
x,-y,z
1/2+x,1/2+y,z
1/2-x,1/2+y,-z
1/2-x,1/2-y,-z
1/2+x,1/2-y,z
loop_
_atom_site_type_symbol
_atom_site_label
_atom_site_fract_x
_atom_site_fract_y
_atom_site_fract_z
Si Si1 0.809921 0.192152 0.397329
Si Si2 0.501164 0.902953 0.374787
Si Si3 0.351691 0.778186 0.664219
Si Si4 0.179080 0.345344 0.900868
Si Si5 0.000000 0.500000 0.000000
Si Si6 0.438542 0.722119 0.165908
Si Si7 0.624189 0.597655 0.161218
Si Si8 0.288307 0.596093 0.039786
O O1 0.750000 0.250000 0.500000
O O2 0.665951 0.136596 0.498492
O O3 0.878115 0.239914 0.282621
O O4 0.951987 0.136212 0.298389
O O5 0.576338 0.854231 0.362892
O O6 0.486306 0.000000 0.398466
O O7 0.626154 0.890099 0.214559
O O8 0.500000 0.741741 0.500000
O O9 0.274117 0.713359 0.775007
O O10 0.211952 0.803470 0.741882
O O11 0.117301 0.427580 0.924830
O O12 0.293078 0.364556 0.855458
O O13 0.026731 0.296992 0.058486
O O14 0.570320 0.650865 0.057276
O O15 0.612565 0.500000 0.177851
O O16 0.724849 0.615229 0.016115
O O17 0.330149 0.500000 0.008570
#
# Coordination Sequence:
#
# PCOD9214871 Si02
#       8
#     8   8   8   8   2   8   8   8
#     4  11  24  40  63  94 130 170 209 256 319 377
#     4  11  23  41  64  95 135 169 213 261 311 379
#     4  12  24  43  64  93 128 171 210 263 321 380
#     4  12  24  44  70  92 124 163 222 268 320 377
#     4  12  24  44  70  96 122 168 214 280 318 370
#     4  11  23  40  66  91 125 168 212 263 309 386
#     4  10  22  40  65  92 124 163 207 259 322 376
#     4   9  21  39  63  96 127 162 206 262 312 379
#
# _framework density 18.140844000000001
#
# number of rings (size 3 to 8) (size 9 to 14) (size 15 to 20)
#    0.000    1.103    4.828    1.241    1.931    2.483 
#    0.000    1.724    4.552    0.000    0.000    0.000 
#    0.000    0.000    0.000    0.000    0.000    0.000 
#
# Total GULP energy -161736.676527 kJ/mol
# GULP energy per Si atom -5577.126777 kJ/mol
# Density = 1.809955 g / cm^3
# Si number density = 18.140844 Si / 1000 Ang^3
#
#
#
# Elastic Constant Matrix: (Units=GPa)
#
#
# Indices 1 2 3 4 5 6 
#
# 1 127.7939 46.9660 46.1414 0.0006 -10.3967 -0.0002
# 2 46.9660 79.5326 56.2051 0.0007 7.2971 -0.0024
# 3 46.1414 56.2051 116.8266 0.0087 7.4498 -0.0068
# 4 0.0006 0.0007 0.0087 20.2005 -0.0043 -5.0090
# 5 -10.3967 7.2971 7.4498 -0.0043 29.2356 0.0032
# 6 -0.0002 -0.0024 -0.0068 -5.0090 0.0032 36.6002
#
#
#
# Elastic Compliance Matrix: (Units=1/GPa)
#
#
# Indices 1 2 3 4 5 6 
#
# 1 0.011124 -0.005665 -0.002044 0.000002 0.005891 -0.000001
# 2 -0.005665 0.022111 -0.008051 0.000002 -0.005482 0.000001
# 3 -0.002044 -0.008051 0.013375 -0.000006 -0.002126 0.000001
# 4 0.000002 0.000002 -0.000006 0.051243 0.000008 0.007013
# 5 0.005891 -0.005482 -0.002126 0.000008 0.038210 -0.000003
# 6 -0.000001 0.000001 0.000001 0.007013 -0.000003 0.028282
#
#
# Mechanical properties :
#
#
# Convention : Reuss Voigt Hill
#
# Bulk Modulus (GPa) = 66.26068 69.19755 67.72912
# Shear Modulus (GPa) = 24.88855 28.86330 26.87592
#
# Velocity S-wave (km/s) = 3.70802 3.99315 3.85322
# Velocity P-wave (km/s) = 7.41199 7.71283 7.56390
#
# Compressibility (1/GPa) = 0.01509191
#
# Stress axis : x y z
#
# Youngs Moduli (GPa) = 89.89265 45.22571 74.76368
#
# Poissons Ratio (x) = 0.25623 0.15279
# Poissons Ratio (y) = 0.50929 0.60189
# Poissons Ratio (z) = 0.18371 0.36409
#
# Static dielectric constant tensor:
#      x y z
#    x 1.614260 0.000000 0.017270 
#    y 0.000000 1.593690 0.000000 
#    z 0.017270 0.000000 1.630590 
# 
# From -- ./inp_files/278815.got.cif
#   From: 2010.05.17/outbox.cif.g08.bks.cpg/sg12_140_cif.got.tgz:278815.got - 2010.06.03 13:09:07.
