data_PCOD9214359
_publ_section_title
;
Structure prediction by ZEFSAII (Michael W. Deem and Ramdas Pophale) SiO2 
 PCOD9214359
Probable space group: C 2/M
;
_chemical_formula_sum "Si O2"
_cell_formula_units_Z 64
_cell_length_a 19.136099
_cell_length_b 8.903668
_cell_length_c 31.506743
_cell_angle_alpha 90.000000
_cell_angle_beta 142.751954
_cell_angle_gamma 90.000000
_cell_volume 3249.172429
_symmetry_space_group_name_H-M "C 2/M"
_symmetry_group_IT_number 12
_symmetry_cell_setting 'monoclinic'
loop_
_space_group_symop_operation_xyz
x,y,z
-x,y,-z
-x,-y,-z
x,-y,z
1/2+x,1/2+y,z
1/2-x,1/2+y,-z
1/2-x,1/2-y,-z
1/2+x,1/2-y,z
loop_
_atom_site_type_symbol
_atom_site_label
_atom_site_fract_x
_atom_site_fract_y
_atom_site_fract_z
Si Si1 0.822587 0.318524 0.439357
Si Si2 0.724150 0.322825 0.941945
Si Si3 0.559200 0.672754 0.982962
Si Si4 0.871090 0.678678 0.832071
Si Si5 0.132572 0.681410 0.722209
Si Si6 0.916165 0.679778 0.677221
Si Si7 0.043112 0.177780 0.211299
Si Si8 0.431719 0.181944 0.403741
O O1 0.811417 0.500000 0.434941
O O2 0.705575 0.242946 0.398230
O O3 0.850954 0.272591 0.404212
O O4 0.936736 0.276347 0.521078
O O5 0.746617 0.500000 0.954710
O O6 0.591978 0.300551 0.865007
O O7 0.750000 0.250000 0.000000
O O8 0.814542 0.244723 0.954304
O O9 0.567618 0.500000 0.972308
O O10 0.479278 0.762572 0.911587
O O11 0.500000 0.676101 0.000000
O O12 0.869860 0.500000 0.830561
O O13 0.752334 0.743428 0.793609
O O14 0.885654 0.745319 0.791911
O O15 0.146197 0.500000 0.729242
O O16 0.105727 0.731298 0.660907
O O17 0.024601 0.719867 0.699880
O O18 0.911308 0.500000 0.677715
O O19 0.932960 0.751011 0.731655
O O20 0.068918 0.000000 0.224459
O O21 0.429181 0.000000 0.402397
#
# Coordination Sequence:
#
# PCOD9214359 Si02
#       8
#     8   8   8   8   8   8   8   8
#     4   9  17  34  62  89 114 152 204 251 295 355
#     4  11  23  40  65  93 120 154 199 250 302 358
#     4  11  25  43  64  90 123 162 200 242 299 359
#     4  12  25  41  64  91 120 154 199 250 300 357
#     4  10  22  40  59  83 123 166 201 242 297 359
#     4  11  24  38  56  87 123 160 202 249 300 349
#     4  11  24  42  64  87 117 158 201 246 301 360
#     4   8  16  34  61  88 113 153 203 246 294 355
#
# _framework density 19.697323999999998
#
# number of rings (size 3 to 8) (size 9 to 14) (size 15 to 20)
#    0.000    1.625    1.250    4.125    1.750    5.000 
#    0.000    1.875    0.000    0.000    0.000    0.000 
#    0.000    0.000    0.000    0.000    0.000    0.000 
#
# Total GULP energy -178905.255662 kJ/mol
# GULP energy per Si atom -5590.789239 kJ/mol
# Density = 1.965249 g / cm^3
# Si number density = 19.697324 Si / 1000 Ang^3
#
#
#
# Elastic Constant Matrix: (Units=GPa)
#
#
# Indices 1 2 3 4 5 6 
#
# 1 89.9597 44.1132 24.6030 0.0000 29.8974 0.0000
# 2 44.1132 70.1844 32.3081 0.0000 23.4429 -0.0001
# 3 24.6030 32.3081 51.2876 0.0000 13.5700 0.0000
# 4 0.0000 0.0000 0.0000 24.3544 0.0000 5.8323
# 5 29.8974 23.4429 13.5700 0.0000 35.9024 0.0000
# 6 0.0000 -0.0001 0.0000 5.8323 0.0000 29.4877
#
#
#
# Elastic Compliance Matrix: (Units=1/GPa)
#
#
# Indices 1 2 3 4 5 6 
#
# 1 0.018578 -0.007711 -0.001437 0.000000 -0.009893 0.000000
# 2 -0.007711 0.026475 -0.011226 0.000000 -0.006622 0.000000
# 3 -0.001437 -0.011226 0.027781 0.000000 -0.001973 0.000000
# 4 0.000000 0.000000 0.000000 0.043102 0.000000 -0.008525
# 5 -0.009893 -0.006622 -0.001973 0.000000 0.041161 0.000000
# 6 0.000000 0.000000 0.000000 -0.008525 0.000000 0.035599
#
#
# Mechanical properties :
#
#
# Convention : Reuss Voigt Hill
#
# Bulk Modulus (GPa) = 31.16698 45.94225 38.55461
# Shear Modulus (GPa) = 20.48011 25.30941 22.89476
#
# Velocity S-wave (km/s) = 3.22800 3.58846 3.41299
# Velocity P-wave (km/s) = 5.45441 6.36743 5.92852
#
# Compressibility (1/GPa) = 0.03208524
#
# Stress axis : x y z
#
# Youngs Moduli (GPa) = 53.82684 37.77201 35.99558
#
# Poissons Ratio (x) = 0.29127 0.05173
# Poissons Ratio (y) = 0.41507 0.40409
# Poissons Ratio (z) = 0.07735 0.42403
#
# Static dielectric constant tensor:
#      x y z
#    x 1.695730 0.000000 0.005240 
#    y 0.000000 1.656130 0.000000 
#    z 0.005240 0.000000 1.687480 
# 
# From -- ./inp_files/378360.got.cif
#   From: 2010.05.17/outbox.cif.g08.bks.cpg/sg12_190_cif.got.tgz:378360.got - 2010.06.03 13:09:07.
