data_PCOD9214752
_publ_section_title
;
Structure prediction by ZEFSAII (Michael W. Deem and Ramdas Pophale) SiO2 
 PCOD9214752
Probable space group: C 2/M
;
_chemical_formula_sum "Si O2"
_cell_formula_units_Z 52
_cell_length_a 5.783202
_cell_length_b 24.741181
_cell_length_c 18.352087
_cell_angle_alpha 90.000000
_cell_angle_beta 129.182081
_cell_angle_gamma 90.000000
_cell_volume 2035.427236
_symmetry_space_group_name_H-M "C 2/M"
_symmetry_group_IT_number 12
_symmetry_cell_setting 'monoclinic'
loop_
_space_group_symop_operation_xyz
x,y,z
-x,y,-z
-x,-y,-z
x,-y,z
1/2+x,1/2+y,z
1/2-x,1/2+y,-z
1/2-x,1/2-y,-z
1/2+x,1/2-y,z
loop_
_atom_site_type_symbol
_atom_site_label
_atom_site_fract_x
_atom_site_fract_y
_atom_site_fract_z
Si Si1 0.357497 0.730076 0.343853
Si Si2 0.904362 0.231368 0.126439
Si Si3 0.802856 0.558368 0.104725
Si Si4 0.261423 0.440380 0.735326
Si Si5 0.685304 0.115849 0.105226
Si Si6 0.359426 0.500000 0.556183
Si Si7 0.847202 0.111633 0.392201
O O1 0.684854 0.751939 0.384305
O O2 0.371581 0.664997 0.348588
O O3 0.131954 0.751650 0.236488
O O4 0.578200 0.250065 0.089316
O O5 0.858479 0.167262 0.113827
O O6 0.952756 0.500000 0.113474
O O7 0.776935 0.555968 0.185185
O O8 0.921519 0.618793 0.110539
O O9 0.500000 0.556189 0.000000
O O10 0.227816 0.500000 0.696650
O O11 0.592831 0.418618 0.800754
O O12 0.996442 0.402104 0.657771
O O13 0.500000 0.090932 0.000000
O O14 0.500000 0.500000 0.500000
O O15 0.500443 0.557186 0.610938
O O16 0.000000 0.500000 0.500000
O O17 0.000000 0.122861 0.500000
#
# Coordination Sequence:
#
# PCOD9214752 Si02
#       7
#     8   8   8   8   8   4   8
#     4  10  23  44  73 106 145 194 250 309 373 445
#     4  10  24  44  67 100 141 187 245 309 367 440
#     4  10  22  40  64 101 145 188 245 310 372 450
#     4  11  23  43  69 103 149 193 246 304 382 452
#     4  12  25  40  71 101 142 197 249 311 378 447
#     4  10  24  50  76 110 150 190 244 310 380 448
#     4  11  25  48  76 108 150 196 251 318 380 456
#
# _framework density 25.547463
#
# number of rings (size 3 to 8) (size 9 to 14) (size 15 to 20)
#    0.000    1.385    2.308    2.308    6.462    4.308 
#    5.538    0.000    0.000    0.000    0.000    0.000 
#    0.000    0.000    0.000    0.000    0.000    0.000 
#
# Total GULP energy -145029.693793 kJ/mol
# GULP energy per Si atom -5578.065146 kJ/mol
# Density = 2.548932 g / cm^3
# Si number density = 25.547463 Si / 1000 Ang^3
#
#
#
# Elastic Constant Matrix: (Units=GPa)
#
#
# Indices 1 2 3 4 5 6 
#
# 1 130.2643 39.9704 17.1250 0.0000 18.5444 0.0000
# 2 39.9704 88.4566 17.1590 0.0000 21.8491 0.0000
# 3 17.1250 17.1590 128.5542 0.0000 18.4053 0.0000
# 4 0.0000 0.0000 0.0000 35.3408 0.0000 9.8780
# 5 18.5444 21.8491 18.4053 0.0000 26.1223 0.0000
# 6 0.0000 0.0000 0.0000 9.8780 0.0000 32.2264
#
#
#
# Elastic Compliance Matrix: (Units=1/GPa)
#
#
# Indices 1 2 3 4 5 6 
#
# 1 0.009219 -0.003206 -0.000275 0.000000 -0.003669 0.000000
# 2 -0.003206 0.015369 -0.000122 0.000000 -0.010493 0.000000
# 3 -0.000275 -0.000122 0.008663 0.000000 -0.005807 0.000000
# 4 0.000000 0.000000 0.000000 0.030947 0.000000 -0.009486
# 5 -0.003669 -0.010493 -0.005807 0.000000 0.053754 0.000000
# 6 0.000000 0.000000 0.000000 -0.009486 0.000000 0.033938
#
#
# Mechanical properties :
#
#
# Convention : Reuss Voigt Hill
#
# Bulk Modulus (GPa) = 38.39449 55.08711 46.74080
# Shear Modulus (GPa) = 29.80123 36.93929 33.37026
#
# Velocity S-wave (km/s) = 3.41912 3.80664 3.61807
# Velocity P-wave (km/s) = 5.53611 6.39766 5.98241
#
# Compressibility (1/GPa) = 0.02604540
#
# Stress axis : x y z
#
# Youngs Moduli (GPa) = 108.47227 65.06531 115.43264
#
# Poissons Ratio (x) = 0.20860 0.03172
# Poissons Ratio (y) = 0.34777 0.01409
# Poissons Ratio (z) = 0.02981 0.00794
#
# Static dielectric constant tensor:
#      x y z
#    x 2.081700 0.000000 -0.011680 
#    y 0.000000 2.148750 0.000000 
#    z -0.011680 0.000000 1.952060 
# 
# From -- ./inp_files/298394.got.cif
#   From: 2010.05.17/outbox.cif.g08.bks.cpg/sg12_150_cif.got.tgz:298394.got - 2010.06.03 13:09:07.
