data_PCOD9214828
_publ_section_title
;
Structure prediction by ZEFSAII (Michael W. Deem and Ramdas Pophale) SiO2 
 PCOD9214828
Probable space group: C 2/M
;
_chemical_formula_sum "Si O2"
_cell_formula_units_Z 36
_cell_length_a 9.674834
_cell_length_b 23.787397
_cell_length_c 8.759541
_cell_angle_alpha 90.000000
_cell_angle_beta 45.653101
_cell_angle_gamma 90.000000
_cell_volume 1441.621365
_symmetry_space_group_name_H-M "C 2/M"
_symmetry_group_IT_number 12
_symmetry_cell_setting 'monoclinic'
loop_
_space_group_symop_operation_xyz
x,y,z
-x,y,-z
-x,-y,-z
x,-y,z
1/2+x,1/2+y,z
1/2-x,1/2+y,-z
1/2-x,1/2-y,-z
1/2+x,1/2-y,z
loop_
_atom_site_type_symbol
_atom_site_label
_atom_site_fract_x
_atom_site_fract_y
_atom_site_fract_z
Si Si1 0.209218 0.000000 0.560794
Si Si2 0.000000 0.598600 0.000000
Si Si3 0.426720 0.176902 0.817337
Si Si4 0.762912 0.000000 0.821617
Si Si5 0.023416 0.198350 0.302931
Si Si6 0.187959 0.111365 0.752395
O O1 0.263676 0.944182 0.610252
O O2 0.269506 0.000000 0.337121
O O3 0.977185 0.000000 0.717156
O O4 0.160836 0.557614 0.946474
O O5 0.064364 0.637611 0.811225
O O6 0.516774 0.236202 0.702597
O O7 0.339887 0.143163 0.742459
O O8 0.242002 0.188925 0.070990
O O9 0.000000 0.188500 0.500000
O O10 0.891270 0.156465 0.307989
O O11 0.000000 0.095500 0.000000
#
# Coordination Sequence:
#
# PCOD9214828 Si02
#       6
#     4   4   8   4   8   8
#     4  11  23  41  71  97 126 167 236 270 306 403
#     4  11  24  44  64  90 144 171 208 276 340 395
#     4  10  24  41  64  94 133 177 213 271 337 386
#     4  10  24  41  65 102 123 177 218 268 339 377
#     4  10  23  40  65  95 129 174 227 266 321 394
#     4  10  22  40  64  96 130 170 224 269 324 380
#
# _framework density 24.971882999999998
#
# number of rings (size 3 to 8) (size 9 to 14) (size 15 to 20)
#    0.000    1.778    0.000    3.000   14.000    4.444 
#    0.000    1.111    0.000    0.000    0.000    0.000 
#    0.000    0.000    0.000    0.000    0.000    0.000 
#
# Total GULP energy -100945.184093 kJ/mol
# GULP energy per Si atom -5608.065783 kJ/mol
# Density = 2.491505 g / cm^3
# Si number density = 24.971883 Si / 1000 Ang^3
#
#
#
# Elastic Constant Matrix: (Units=GPa)
#
#
# Indices 1 2 3 4 5 6 
#
# 1 85.9129 67.1638 40.7554 0.0000 29.0763 0.0000
# 2 67.1638 178.8321 39.8061 0.0000 31.4074 0.0000
# 3 40.7554 39.8061 113.1415 0.0000 21.9470 0.0000
# 4 0.0000 0.0000 0.0000 30.6916 0.0000 31.5968
# 5 29.0763 31.4074 21.9470 0.0000 45.9696 0.0000
# 6 0.0000 0.0000 0.0000 31.5968 0.0000 -6.2426
#
#
#
# Elastic Compliance Matrix: (Units=1/GPa)
#
#
# Indices 1 2 3 4 5 6 
#
# 1 0.020207 -0.005447 -0.003973 0.000000 -0.007163 0.000000
# 2 -0.005447 0.008074 -0.000526 0.000000 -0.001820 0.000000
# 3 -0.003973 -0.000526 0.010908 0.000000 -0.002335 0.000000
# 4 0.000000 0.000000 0.000000 0.005246 0.000000 0.026553
# 5 -0.007163 -0.001820 -0.002335 0.000000 0.028643 0.000000
# 6 0.000000 0.000000 0.000000 0.026553 0.000000 -0.025792
#
#
# Mechanical properties :
#
#
# Convention : Reuss Voigt Hill
#
# Bulk Modulus (GPa) = 51.81953 74.81525 63.31739
# Shear Modulus (GPa) = 67.92721 29.42779 48.67750
#
# Velocity S-wave (km/s) = 5.22116 3.43656 4.41987
# Velocity P-wave (km/s) = 7.55934 6.76546 7.17339
#
# Compressibility (1/GPa) = 0.01929774
#
# Stress axis : x y z
#
# Youngs Moduli (GPa) = 49.48872 123.85231 91.67925
#
# Poissons Ratio (x) = 0.67458 0.36425
# Poissons Ratio (y) = 0.26955 0.04819
# Poissons Ratio (z) = 0.19662 0.06510
#
# Static dielectric constant tensor:
#      x y z
#    x 1.932430 0.000000 -0.044490 
#    y 0.000000 1.939640 0.000000 
#    z -0.044490 0.000000 1.996040 
# 
# From -- ./inp_files/50383.got.cif
#   From: 2010.05.17/outbox.cif.g08.bks.cpg/sg12_26_cif.got.tgz:50383.got - 2010.06.03 13:09:07.
