data_PCOD9214823
_publ_section_title
;
Structure prediction by ZEFSAII (Michael W. Deem and Ramdas Pophale) SiO2 
 PCOD9214823
Probable space group: C 2/M
;
_chemical_formula_sum "Si O2"
_cell_formula_units_Z 32
_cell_length_a 7.758811
_cell_length_b 22.820033
_cell_length_c 8.273984
_cell_angle_alpha 90.000000
_cell_angle_beta 81.210563
_cell_angle_gamma 90.000000
_cell_volume 1447.757514
_symmetry_space_group_name_H-M "C 2/M"
_symmetry_group_IT_number 12
_symmetry_cell_setting 'monoclinic'
loop_
_space_group_symop_operation_xyz
x,y,z
-x,y,-z
-x,-y,-z
x,-y,z
1/2+x,1/2+y,z
1/2-x,1/2+y,-z
1/2-x,1/2-y,-z
1/2+x,1/2-y,z
loop_
_atom_site_type_symbol
_atom_site_label
_atom_site_fract_x
_atom_site_fract_y
_atom_site_fract_z
Si Si1 0.176271 0.836128 0.214917
Si Si2 0.589956 0.934308 0.660351
Si Si3 0.353976 0.865676 0.892050
Si Si4 0.802287 0.779207 0.321772
O O1 0.265696 0.884958 0.317574
O O2 0.289918 0.776591 0.206766
O O3 0.985601 0.813453 0.295262
O O4 0.186769 0.862003 0.031909
O O5 0.500000 0.926412 0.500000
O O6 0.432159 0.925440 0.810845
O O7 0.662457 0.000000 0.660311
O O8 0.331897 0.824681 0.739353
O O9 0.500000 0.847549 0.000000
O O10 0.750000 0.750000 0.500000
#
# Coordination Sequence:
#
# PCOD9214823 Si02
#       4
#     8   8   8   8
#     4  11  23  39  63  95 133 171 218 270 329 395
#     4  10  22  43  68  94 129 174 223 273 331 397
#     4  10  22  40  64  95 132 173 219 269 330 395
#     4  12  24  41  65  97 135 173 217 271 335 400
#
# _framework density 22.103148000000001
#
# number of rings (size 3 to 8) (size 9 to 14) (size 15 to 20)
#    0.000    1.250    0.000    6.750    0.000    6.500 
#    0.000    1.250    0.000   13.500    0.000    0.000 
#    0.000    0.000    0.000    0.000    0.000    0.000 
#
# Total GULP energy -89196.161935 kJ/mol
# GULP energy per Si atom -5574.760121 kJ/mol
# Density = 2.205284 g / cm^3
# Si number density = 22.103148 Si / 1000 Ang^3
#
#
#
# Elastic Constant Matrix: (Units=GPa)
#
#
# Indices 1 2 3 4 5 6 
#
# 1 126.1670 53.5038 40.7856 0.0000 4.5255 0.0000
# 2 53.5038 130.3173 11.3161 0.0000 11.8669 0.0000
# 3 40.7856 11.3161 109.1868 0.0000 -5.3214 0.0000
# 4 0.0000 0.0000 0.0000 17.2019 0.0000 -10.4085
# 5 4.5255 11.8669 -5.3214 0.0000 34.4270 0.0000
# 6 0.0000 0.0000 0.0000 -10.4085 0.0000 8.5206
#
#
#
# Elastic Compliance Matrix: (Units=1/GPa)
#
#
# Indices 1 2 3 4 5 6 
#
# 1 0.010866 -0.004090 -0.003663 0.000000 -0.000585 0.000000
# 2 -0.004090 0.009563 0.000405 0.000000 -0.002696 0.000000
# 3 -0.003663 0.000405 0.010581 0.000000 0.001977 0.000000
# 4 0.000000 0.000000 0.000000 0.222858 0.000000 0.272237
# 5 -0.000585 -0.002696 0.001977 0.000000 0.030359 0.000000
# 6 0.000000 0.000000 0.000000 0.272237 0.000000 0.449920
#
#
# Mechanical properties :
#
#
# Convention : Reuss Voigt Hill
#
# Bulk Modulus (GPa) = 61.29634 64.09802 62.69718
# Shear Modulus (GPa) = 6.62883 29.36761 17.99822
#
# Velocity S-wave (km/s) = 1.73365 3.64904 2.85666
# Velocity P-wave (km/s) = 5.63911 6.84225 6.26961
#
# Compressibility (1/GPa) = 0.01631419
#
# Stress axis : x y z
#
# Youngs Moduli (GPa) = 92.03425 104.56996 94.50532
#
# Poissons Ratio (x) = 0.42765 0.34621
# Poissons Ratio (y) = 0.37639 -0.03829
# Poissons Ratio (z) = 0.33715 -0.04237
#
# Static dielectric constant tensor:
#      x y z
#    x 1.993050 0.000000 -0.069780 
#    y 0.000000 1.771430 0.000000 
#    z -0.069780 0.000000 1.923300 
# 
# From -- ./inp_files/37645.got.cif
#   From: 2010.05.17/outbox.cif.g08.bks.cpg/sg12_19_cif.got.tgz:37645.got - 2010.06.03 13:09:07.
