data_PCOD9214789
_publ_section_title
;
Structure prediction by ZEFSAII (Michael W. Deem and Ramdas Pophale) SiO2 
 PCOD9214789
Probable space group: C 2/M
;
_chemical_formula_sum "Si O2"
_cell_formula_units_Z 42
_cell_length_a 10.129102
_cell_length_b 7.714284
_cell_length_c 28.715548
_cell_angle_alpha 90.000000
_cell_angle_beta 124.482407
_cell_angle_gamma 90.000000
_cell_volume 1849.562503
_symmetry_space_group_name_H-M "C 2/M"
_symmetry_group_IT_number 12
_symmetry_cell_setting 'monoclinic'
loop_
_space_group_symop_operation_xyz
x,y,z
-x,y,-z
-x,-y,-z
x,-y,z
1/2+x,1/2+y,z
1/2-x,1/2+y,-z
1/2-x,1/2-y,-z
1/2+x,1/2-y,z
loop_
_atom_site_type_symbol
_atom_site_label
_atom_site_fract_x
_atom_site_fract_y
_atom_site_fract_z
Si Si1 0.500000 0.500000 0.500000
Si Si2 0.809605 0.201469 0.774322
Si Si3 0.180986 0.793364 0.036317
Si Si4 0.337863 0.296768 0.163641
Si Si5 0.011289 0.293539 0.337160
Si Si6 0.634258 0.802596 0.591977
O O1 0.599326 0.653621 0.547928
O O2 0.784022 0.210898 0.824662
O O3 0.647401 0.276766 0.719982
O O4 0.981787 0.276633 0.795110
O O5 0.813204 0.000000 0.760750
O O6 0.281622 0.721685 0.099486
O O7 0.178249 0.000000 0.041974
O O8 0.250000 0.750000 0.000000
O O9 0.000000 0.726198 0.000000
O O10 0.339912 0.500000 0.175441
O O11 0.023263 0.500000 0.330413
O O12 0.977622 0.270452 0.385452
O O13 0.178931 0.210179 0.356473
O O14 0.605450 0.000000 0.569871
#
# Coordination Sequence:
#
# PCOD9214789 Si02
#       6
#     2   8   8   8   8   8
#     4  12  26  48  68 100 136 176 218 270 326 382
#     4  10  22  40  64  92 129 164 204 266 315 375
#     4  11  24  41  61  86 122 167 211 263 319 378
#     4  11  23  39  60  95 127 162 215 262 314 380
#     4  10  22  44  67  97 132 170 216 266 328 387
#     4  11  25  45  69  99 133 174 219 271 322 395
#
# _framework density 22.708072999999999
#
# number of rings (size 3 to 8) (size 9 to 14) (size 15 to 20)
#    0.000    1.333    0.952    3.714    1.333   10.667 
#    0.000    0.000    0.000    0.000    0.000    0.000 
#    0.000    0.000    0.000    0.000    0.000    0.000 
#
# Total GULP energy -117207.667465 kJ/mol
# GULP energy per Si atom -5581.317498 kJ/mol
# Density = 2.265639 g / cm^3
# Si number density = 22.708073 Si / 1000 Ang^3
#
#
#
# Elastic Constant Matrix: (Units=GPa)
#
#
# Indices 1 2 3 4 5 6 
#
# 1 71.7099 -4.2422 -12.1802 0.0000 -32.8417 0.0000
# 2 -4.2422 86.5168 15.1239 0.0000 -15.1952 0.0000
# 3 -12.1802 15.1239 70.5481 0.0000 7.7406 0.0000
# 4 0.0000 0.0000 0.0000 21.4898 0.0000 6.1534
# 5 -32.8417 -15.1952 7.7406 0.0000 -64.0646 0.0000
# 6 0.0000 0.0000 0.0000 6.1534 0.0000 7.6970
#
#
#
# Elastic Compliance Matrix: (Units=1/GPa)
#
#
# Indices 1 2 3 4 5 6 
#
# 1 0.011847 -0.000885 0.002841 0.000000 -0.005520 0.000000
# 2 -0.000885 0.011475 -0.002333 0.000000 -0.002550 0.000000
# 3 0.002841 -0.002333 0.015065 0.000000 0.000917 0.000000
# 4 0.000000 0.000000 0.000000 0.060348 0.000000 -0.048245
# 5 -0.005520 -0.002550 0.000917 0.000000 -0.012064 0.000000
# 6 0.000000 0.000000 0.000000 -0.048245 0.000000 0.168490
#
#
# Mechanical properties :
#
#
# Convention : Reuss Voigt Hill
#
# Bulk Modulus (GPa) = 26.57300 25.13084 25.85192
# Shear Modulus (GPa) = 18.62477 8.36269 13.49373
#
# Velocity S-wave (km/s) = 2.86699 1.92112 2.44032
# Velocity P-wave (km/s) = 4.76308 4.00148 4.39879
#
# Compressibility (1/GPa) = 0.03763218
#
# Stress axis : x y z
#
# Youngs Moduli (GPa) = 84.40833 87.14566 66.38028
#
# Poissons Ratio (x) = 0.07714 -0.18858
# Poissons Ratio (y) = 0.07472 0.15487
# Poissons Ratio (z) = -0.23979 0.20331
#
# Static dielectric constant tensor:
#      x y z
#    x 1.817010 0.000000 0.003340 
#    y 0.000000 1.831760 0.000000 
#    z 0.003340 0.000000 1.861560 
# 
# From -- ./inp_files/371819.got.cif
#   From: 2010.05.17/outbox.cif.g08.bks.cpg/sg12_186_cif.got.tgz:371819.got - 2010.06.03 13:09:07.
