data_PCOD9214089
_publ_section_title
;
Structure prediction by ZEFSAII (Michael W. Deem and Ramdas Pophale) SiO2 
 PCOD9214089
Probable space group: C 2/M
;
_chemical_formula_sum "Si O2"
_cell_formula_units_Z 56
_cell_length_a 26.430313
_cell_length_b 18.541608
_cell_length_c 8.359303
_cell_angle_alpha 90.000000
_cell_angle_beta 44.222735
_cell_angle_gamma 90.000000
_cell_volume 2857.146752
_symmetry_space_group_name_H-M "C 2/M"
_symmetry_group_IT_number 12
_symmetry_cell_setting 'monoclinic'
loop_
_space_group_symop_operation_xyz
x,y,z
-x,y,-z
-x,-y,-z
x,-y,z
1/2+x,1/2+y,z
1/2-x,1/2+y,-z
1/2-x,1/2-y,-z
1/2+x,1/2-y,z
loop_
_atom_site_type_symbol
_atom_site_label
_atom_site_fract_x
_atom_site_fract_y
_atom_site_fract_z
Si Si1 0.314627 0.792438 0.438467
Si Si2 0.957185 0.681277 0.934621
Si Si3 0.764692 0.916632 0.509779
Si Si4 0.577085 0.414107 0.736675
Si Si5 0.825433 0.713573 0.786323
Si Si6 0.644459 0.914784 0.053911
Si Si7 0.953326 0.802675 0.465941
O O1 0.250000 0.750000 0.500000
O O2 0.385395 0.782688 0.171345
O O3 0.283026 0.873233 0.507499
O O4 0.331749 0.777694 0.581881
O O5 0.923204 0.619719 0.894135
O O6 0.000000 0.655966 0.000000
O O7 0.004279 0.739864 0.729947
O O8 0.848492 0.893681 0.339404
O O9 0.717498 0.907330 0.779537
O O10 0.765509 0.000000 0.467171
O O11 0.582717 0.500000 0.689822
O O12 0.574512 0.363911 0.588489
O O13 0.500000 0.402498 0.000000
O O14 0.889528 0.762983 0.706165
O O15 0.750000 0.750000 0.000000
O O16 0.839742 0.634685 0.827046
O O17 0.632902 0.000000 0.110189
O O18 0.000000 0.837352 0.500000
#
# Coordination Sequence:
#
# PCOD9214089 Si02
#       7
#     8   8   8   8   8   8   8
#     4  11  23  37  63  89 118 162 211 254 296 366
#     4  11  22  41  63  90 123 162 215 257 309 370
#     4   9  20  40  61  86 121 159 203 252 307 366
#     4  10  22  39  62  91 123 163 208 255 310 371
#     4  12  24  40  61  94 126 163 211 257 316 371
#     4  10  22  42  64  90 129 167 206 259 321 378
#     4  12  24  39  62  89 128 163 201 263 312 369
#
# _framework density 19.599972999999999
#
# number of rings (size 3 to 8) (size 9 to 14) (size 15 to 20)
#    0.000    1.286    2.857    3.857    2.000    1.143 
#    0.000    1.429    0.000    5.143    0.000    0.000 
#    0.000    0.000    0.000    0.000    0.000    0.000 
#
# Total GULP energy -156152.303388 kJ/mol
# GULP energy per Si atom -5576.867978 kJ/mol
# Density = 1.955536 g / cm^3
# Si number density = 19.599973 Si / 1000 Ang^3
#
#
#
# Elastic Constant Matrix: (Units=GPa)
#
#
# Indices 1 2 3 4 5 6 
#
# 1 74.6026 17.6192 11.7597 0.0000 -10.4232 0.0000
# 2 17.6192 60.2251 13.9607 0.0000 -1.0734 0.0000
# 3 11.7597 13.9607 59.2612 0.0000 -26.7755 0.0000
# 4 0.0000 0.0000 0.0000 24.4550 0.0000 3.1705
# 5 -10.4232 -1.0734 -26.7755 0.0000 33.3600 0.0000
# 6 0.0000 0.0000 0.0000 3.1705 0.0000 34.2375
#
#
#
# Elastic Compliance Matrix: (Units=1/GPa)
#
#
# Indices 1 2 3 4 5 6 
#
# 1 0.015065 -0.004360 0.000159 0.000000 0.004694 0.000000
# 2 -0.004360 0.019232 -0.006278 0.000000 -0.005783 0.000000
# 3 0.000159 -0.006278 0.028639 0.000000 0.022834 0.000000
# 4 0.000000 0.000000 0.000000 0.041388 0.000000 -0.003833
# 5 0.004694 -0.005783 0.022834 0.000000 0.049583 0.000000
# 6 0.000000 0.000000 0.000000 -0.003833 0.000000 0.029563
#
#
# Mechanical properties :
#
#
# Convention : Reuss Voigt Hill
#
# Bulk Modulus (GPa) = 23.82308 31.19646 27.50977
# Shear Modulus (GPa) = 22.89140 28.46043 25.67592
#
# Velocity S-wave (km/s) = 3.42121 3.81473 3.62332
# Velocity P-wave (km/s) = 5.27136 5.94593 5.61878
#
# Compressibility (1/GPa) = 0.04197609
#
# Stress axis : x y z
#
# Youngs Moduli (GPa) = 66.37888 51.99577 34.91775
#
# Poissons Ratio (x) = 0.22673 -0.00554
# Poissons Ratio (y) = 0.28944 0.21922
# Poissons Ratio (z) = -0.01053 0.32644
#
# Static dielectric constant tensor:
#      x y z
#    x 1.699210 0.000000 -0.024670 
#    y 0.000000 1.892720 0.000000 
#    z -0.024670 0.000000 1.724890 
# 
# From -- ./inp_files/105934.got.cif
#   From: 2010.05.17/outbox.cif.g08.bks.cpg/sg12_53_cif.got.tgz:105934.got - 2010.06.03 13:09:07.
