data_PCOD9214987
_publ_section_title
;
Structure prediction by ZEFSAII (Michael W. Deem and Ramdas Pophale) SiO2 
 PCOD9214987
Probable space group: C 2/M
;
_chemical_formula_sum "Si O2"
_cell_formula_units_Z 44
_cell_length_a 12.014349
_cell_length_b 21.408726
_cell_length_c 9.079645
_cell_angle_alpha 90.000000
_cell_angle_beta 106.371770
_cell_angle_gamma 90.000000
_cell_volume 2240.699552
_symmetry_space_group_name_H-M "C 2/M"
_symmetry_group_IT_number 12
_symmetry_cell_setting 'monoclinic'
loop_
_space_group_symop_operation_xyz
x,y,z
-x,y,-z
-x,-y,-z
x,-y,z
1/2+x,1/2+y,z
1/2-x,1/2+y,-z
1/2-x,1/2-y,-z
1/2+x,1/2-y,z
loop_
_atom_site_type_symbol
_atom_site_label
_atom_site_fract_x
_atom_site_fract_y
_atom_site_fract_z
Si Si1 0.635917 0.890421 0.397846
Si Si2 0.597592 0.000000 0.159013
Si Si3 0.000000 0.711419 0.500000
Si Si4 0.685216 0.000000 0.623942
Si Si5 0.044416 0.000000 0.346814
Si Si6 0.734287 0.500000 0.033707
Si Si7 0.877680 0.168167 0.382007
Si Si8 0.928422 0.892103 0.105879
O O1 0.550012 0.833056 0.392221
O O2 0.635383 0.936131 0.539363
O O3 0.765196 0.863322 0.413427
O O4 0.598094 0.937689 0.255733
O O5 0.500000 0.000000 0.000000
O O6 0.715963 0.000000 0.111120
O O7 0.104535 0.757808 0.585905
O O8 0.817323 0.000000 0.612889
O O9 0.679429 0.000000 0.797251
O O10 0.000000 0.000000 0.500000
O O11 0.999184 0.940816 0.235702
O O12 0.659836 0.437214 0.013321
O O13 0.875209 0.153500 0.207351
O O14 0.000000 0.144193 0.500000
O O15 0.000000 0.861071 0.000000
#
# Coordination Sequence:
#
# PCOD9214987 Si02
#       8
#     8   4   4   4   4   4   8   8
#     4  11  23  45  65  97 125 163 221 257 313 383
#     4  11  26  42  69  93 129 166 198 264 330 379
#     4  10  26  41  68  87 124 178 222 260 292 366
#     4  11  22  33  65  93 124 164 195 261 311 386
#     4  11  19  29  52  93 129 161 197 242 329 378
#     4  11  21  35  55  97 128 161 195 256 332 373
#     4  10  22  40  67  90 125 169 215 264 309 369
#     4  11  19  34  56  94 135 157 197 261 322 385
#
# _framework density 19.636723
#
# number of rings (size 3 to 8) (size 9 to 14) (size 15 to 20)
#    0.545    0.727    3.636    3.818    5.091    0.727 
#    0.000    1.364    0.000    3.273    0.000    0.000 
#    0.000    0.000    0.000    0.000    0.000    0.000 
#
# Total GULP energy -122685.906624 kJ/mol
# GULP energy per Si atom -5576.632119 kJ/mol
# Density = 1.959203 g / cm^3
# Si number density = 19.636723 Si / 1000 Ang^3
#
#
#
# Elastic Constant Matrix: (Units=GPa)
#
#
# Indices 1 2 3 4 5 6 
#
# 1 76.0265 38.6445 20.8614 0.0000 -4.5204 0.0000
# 2 38.6445 125.3830 45.9643 0.0000 -6.6021 0.0000
# 3 20.8614 45.9643 113.9585 0.0000 -16.8448 0.0000
# 4 0.0000 0.0000 0.0000 -1.2824 0.0000 -6.6132
# 5 -4.5204 -6.6021 -16.8448 0.0000 35.8620 0.0000
# 6 0.0000 0.0000 0.0000 -6.6132 0.0000 27.8855
#
#
#
# Elastic Compliance Matrix: (Units=1/GPa)
#
#
# Indices 1 2 3 4 5 6 
#
# 1 0.015726 -0.004451 -0.000980 0.000000 0.000703 0.000000
# 2 -0.004451 0.010619 -0.003506 0.000000 -0.000253 0.000000
# 3 -0.000980 -0.003506 0.011020 0.000000 0.004407 0.000000
# 4 0.000000 0.000000 0.000000 -0.350784 0.000000 -0.083190
# 5 0.000703 -0.000253 0.004407 0.000000 0.029997 0.000000
# 6 0.000000 0.000000 0.000000 -0.083190 0.000000 0.016132
#
#
# Mechanical properties :
#
#
# Convention : Reuss Voigt Hill
#
# Bulk Modulus (GPa) = 51.30123 58.47871 54.88997
# Shear Modulus (GPa) = -20.58299 26.48621 2.95161
#
# Velocity S-wave (km/s) = -3.24109 3.67660 1.22734
# Velocity P-wave (km/s) = 3.48937 6.91868 5.47922
#
# Compressibility (1/GPa) = 0.01949271
#
# Stress axis : x y z
#
# Youngs Moduli (GPa) = 63.58770 94.16869 90.74421
#
# Poissons Ratio (x) = 0.41913 0.08891
# Poissons Ratio (y) = 0.28302 0.31813
# Poissons Ratio (z) = 0.06230 0.33013
#
# Static dielectric constant tensor:
#      x y z
#    x 1.774220 0.000000 -0.013050 
#    y 0.000000 1.699700 0.000000 
#    z -0.013050 0.000000 1.680570 
# 
# From -- ./inp_files/49442.got.cif
#   From: 2010.05.17/outbox.cif.g08.bks.cpg/sg12_25_cif.got.tgz:49442.got - 2010.06.03 13:09:07.
