data_PCOD9214527
_publ_section_title
;
Structure prediction by ZEFSAII (Michael W. Deem and Ramdas Pophale) SiO2 
 PCOD9214527
Probable space group: C 2/M
;
_chemical_formula_sum "Si O2"
_cell_formula_units_Z 50
_cell_length_a 30.288379
_cell_length_b 7.723652
_cell_length_c 10.542666
_cell_angle_alpha 90.000000
_cell_angle_beta 56.570842
_cell_angle_gamma 90.000000
_cell_volume 2058.309622
_symmetry_space_group_name_H-M "C 2/M"
_symmetry_group_IT_number 12
_symmetry_cell_setting 'monoclinic'
loop_
_space_group_symop_operation_xyz
x,y,z
-x,y,-z
-x,-y,-z
x,-y,z
1/2+x,1/2+y,z
1/2-x,1/2+y,-z
1/2-x,1/2-y,-z
1/2+x,1/2-y,z
loop_
_atom_site_type_symbol
_atom_site_label
_atom_site_fract_x
_atom_site_fract_y
_atom_site_fract_z
Si Si1 0.552542 0.800841 0.357359
Si Si2 0.821733 0.705256 0.188366
Si Si3 0.996283 0.699531 0.838167
Si Si4 0.000000 0.000000 0.000000
Si Si5 0.293121 0.709324 0.685210
Si Si6 0.334005 0.697652 0.879335
Si Si7 0.117447 0.292782 0.659886
O O1 0.500000 0.720588 0.500000
O O2 0.536365 0.806913 0.237495
O O3 0.607994 0.707775 0.276852
O O4 0.558362 0.000000 0.397976
O O5 0.820089 0.500000 0.214214
O O6 0.761528 0.773149 0.289813
O O7 0.858026 0.774575 0.245765
O O8 0.837123 0.724159 0.015344
O O9 0.996656 0.500000 0.880608
O O10 0.057214 0.765301 0.725857
O O11 0.970884 0.844280 0.965857
O O12 0.290612 0.500000 0.698380
O O13 0.298304 0.775407 0.822436
O O14 0.342377 0.752181 0.517446
O O15 0.318541 0.500000 0.923566
O O16 0.113158 0.500000 0.674684
#
# Coordination Sequence:
#
# PCOD9214527 Si02
#       7
#     8   8   8   2   8   8   8
#     4  10  22  42  65  89 121 162 205 256 314 374
#     4  10  22  40  62  89 122 161 204 252 312 369
#     4  10  24  42  63  95 129 163 215 262 308 382
#     4  12  26  40  66  90 128 180 206 254 332 358
#     4  10  22  40  61  90 125 159 203 258 308 372
#     4  11  24  38  60  92 124 158 205 257 307 370
#     4  10  22  40  64  90 121 162 207 255 311 377
#
# _framework density 24.291778000000001
#
# number of rings (size 3 to 8) (size 9 to 14) (size 15 to 20)
#    0.000    1.760    0.000    2.640    4.480    4.160 
#    0.000    0.000    0.000    0.000    0.000    0.000 
#    0.000    0.000    0.000    0.000    0.000    0.000 
#
# Total GULP energy -139379.402671 kJ/mol
# GULP energy per Si atom -5575.176107 kJ/mol
# Density = 2.423649 g / cm^3
# Si number density = 24.291778 Si / 1000 Ang^3
#
#
#
# Elastic Constant Matrix: (Units=GPa)
#
#
# Indices 1 2 3 4 5 6 
#
# 1 118.9177 8.8875 22.7873 0.0000 2.3561 0.0000
# 2 8.8875 72.7024 1.1590 0.0000 2.5122 0.0000
# 3 22.7873 1.1590 74.3244 0.0000 -2.8597 0.0000
# 4 0.0000 0.0000 0.0000 19.9235 0.0000 -8.7033
# 5 2.3561 2.5122 -2.8597 0.0000 41.6536 0.0000
# 6 0.0000 0.0000 0.0000 -8.7033 0.0000 -22.6035
#
#
#
# Elastic Compliance Matrix: (Units=1/GPa)
#
#
# Indices 1 2 3 4 5 6 
#
# 1 0.009032 -0.001038 -0.002777 0.000000 -0.000639 0.000000
# 2 -0.001038 0.013907 0.000071 0.000000 -0.000775 0.000000
# 3 -0.002777 0.000071 0.014349 0.000000 0.001138 0.000000
# 4 0.000000 0.000000 0.000000 0.042965 0.000000 -0.016543
# 5 -0.000639 -0.000775 0.001138 0.000000 0.024169 0.000000
# 6 0.000000 0.000000 0.000000 -0.016543 0.000000 -0.037871
#
#
# Mechanical properties :
#
#
# Convention : Reuss Voigt Hill
#
# Bulk Modulus (GPa) = 33.55680 36.84577 35.20128
# Shear Modulus (GPa) = 59.54437 23.33543 41.43990
#
# Velocity S-wave (km/s) = 4.95635 3.10277 4.13476
# Velocity P-wave (km/s) = 6.82626 5.29501 6.10881
#
# Compressibility (1/GPa) = 0.02980022
#
# Stress axis : x y z
#
# Youngs Moduli (GPa) = 110.72225 71.90514 69.69260
#
# Poissons Ratio (x) = 0.07462 0.19357
# Poissons Ratio (y) = 0.11490 -0.00498
# Poissons Ratio (z) = 0.30752 -0.00514
#
# Static dielectric constant tensor:
#      x y z
#    x 1.900330 0.000000 -0.073890 
#    y 0.000000 1.908200 0.000000 
#    z -0.073890 0.000000 1.906890 
# 
# From -- ./inp_files/186308.got.cif
#   From: 2010.05.17/outbox.cif.g08.bks.cpg/sg12_94_cif.got.tgz:186308.got - 2010.06.03 13:09:07.
