data_PCOD9214459
_publ_section_title
;
Structure prediction by ZEFSAII (Michael W. Deem and Ramdas Pophale) SiO2 
 PCOD9214459
Probable space group: C 2/M
;
_chemical_formula_sum "Si O2"
_cell_formula_units_Z 42
_cell_length_a 17.147025
_cell_length_b 13.428724
_cell_length_c 9.857353
_cell_angle_alpha 90.000000
_cell_angle_beta 57.843095
_cell_angle_gamma 90.000000
_cell_volume 1921.581839
_symmetry_space_group_name_H-M "C 2/M"
_symmetry_group_IT_number 12
_symmetry_cell_setting 'monoclinic'
loop_
_space_group_symop_operation_xyz
x,y,z
-x,y,-z
-x,-y,-z
x,-y,z
1/2+x,1/2+y,z
1/2-x,1/2+y,-z
1/2-x,1/2-y,-z
1/2+x,1/2-y,z
loop_
_atom_site_type_symbol
_atom_site_label
_atom_site_fract_x
_atom_site_fract_y
_atom_site_fract_z
Si Si1 0.670987 0.684874 0.873240
Si Si2 0.931623 0.174965 0.768518
Si Si3 0.625121 0.887580 0.280913
Si Si4 0.500000 0.000000 0.500000
Si Si5 0.759641 0.112354 0.755916
Si Si6 0.365141 0.382042 0.393203
O O1 0.765898 0.624642 0.815429
O O2 0.695303 0.801229 0.873186
O O3 0.646277 0.669041 0.740795
O O4 0.593435 0.654311 0.051496
O O5 0.914134 0.291385 0.754079
O O6 0.854663 0.118415 0.752109
O O7 0.034852 0.145074 0.641188
O O8 0.590372 0.000000 0.262612
O O9 0.576645 0.908881 0.469474
O O10 0.788107 0.141155 0.576572
O O11 0.723291 0.000000 0.796640
O O12 0.361573 0.500000 0.374254
#
# Coordination Sequence:
#
# PCOD9214459 Si02
#       6
#     8   8   8   2   8   8
#     4  11  23  39  61  88 121 156 192 243 298 350
#     4  11  23  37  62  89 120 156 194 241 295 349
#     4   9  20  36  59  89 114 152 199 237 288 336
#     4   8  20  36  60  92 110 160 192 252 278 340
#     4  10  22  40  61  86 114 156 198 244 288 347
#     4  11  24  40  60  88 118 156 197 243 295 349
#
# _framework density 21.856992999999999
#
# number of rings (size 3 to 8) (size 9 to 14) (size 15 to 20)
#    0.571    1.143    0.000    5.143    5.333    7.619 
#    0.000    0.952    0.000    2.286    0.000    0.000 
#    0.000    0.000    0.000    0.000    0.000    0.000 
#
# Total GULP energy -116944.948069 kJ/mol
# GULP energy per Si atom -5568.807051 kJ/mol
# Density = 2.180725 g / cm^3
# Si number density = 21.856993 Si / 1000 Ang^3
#
#
#
# Elastic Constant Matrix: (Units=GPa)
#
#
# Indices 1 2 3 4 5 6 
#
# 1 17.2227 -0.8079 1.5882 0.0000 0.7727 0.0000
# 2 -0.8079 61.2643 18.8574 0.0000 -0.3212 0.0000
# 3 1.5882 18.8574 64.7568 0.0000 4.5093 0.0000
# 4 0.0000 0.0000 0.0000 -22.4644 0.0000 -2.0288
# 5 0.7727 -0.3212 4.5093 0.0000 33.5709 0.0000
# 6 0.0000 0.0000 0.0000 -2.0288 0.0000 8.6299
#
#
#
# Elastic Compliance Matrix: (Units=1/GPa)
#
#
# Indices 1 2 3 4 5 6 
#
# 1 0.058333 0.001296 -0.001732 0.000000 -0.001098 0.000000
# 2 0.001296 0.017984 -0.005329 0.000000 0.000858 0.000000
# 3 -0.001732 -0.005329 0.017198 0.000000 -0.002321 0.000000
# 4 0.000000 0.000000 0.000000 -0.043589 0.000000 -0.010248
# 5 -0.001098 0.000858 -0.002321 0.000000 0.030133 0.000000
# 6 0.000000 0.000000 0.000000 -0.010248 0.000000 0.113467
#
#
# Mechanical properties :
#
#
# Convention : Reuss Voigt Hill
#
# Bulk Modulus (GPa) = 12.19700 20.27992 16.23846
# Shear Modulus (GPa) = 21.51621 12.18769 16.85195
#
# Velocity S-wave (km/s) = 3.14093 2.36394 2.77972
# Velocity P-wave (km/s) = 4.32971 4.09262 4.21284
#
# Compressibility (1/GPa) = 0.08198737
#
# Stress axis : x y z
#
# Youngs Moduli (GPa) = 17.14310 55.60345 58.14548
#
# Poissons Ratio (x) = -0.07209 0.10069
# Poissons Ratio (y) = -0.02223 0.30984
# Poissons Ratio (z) = 0.02969 0.29629
#
# Static dielectric constant tensor:
#      x y z
#    x 1.846210 0.000000 -0.152540 
#    y 0.000000 1.811760 0.000000 
#    z -0.152540 0.000000 2.535100 
# 
# From -- ./inp_files/73548.got.cif
#   From: 2010.05.17/outbox.cif.g08.bks.cpg/sg12_37_cif.got.tgz:73548.got - 2010.06.03 13:09:07.
