data_PCOD9214951
_publ_section_title
;
Structure prediction by ZEFSAII (Michael W. Deem and Ramdas Pophale) SiO2 
 PCOD9214951
Probable space group: C 2/M
;
_chemical_formula_sum "Si O2"
_cell_formula_units_Z 36
_cell_length_a 12.389215
_cell_length_b 17.283803
_cell_length_c 7.546905
_cell_angle_alpha 90.000000
_cell_angle_beta 108.109889
_cell_angle_gamma 90.000000
_cell_volume 1535.984321
_symmetry_space_group_name_H-M "C 2/M"
_symmetry_group_IT_number 12
_symmetry_cell_setting 'monoclinic'
loop_
_space_group_symop_operation_xyz
x,y,z
-x,y,-z
-x,-y,-z
x,-y,z
1/2+x,1/2+y,z
1/2-x,1/2+y,-z
1/2-x,1/2-y,-z
1/2+x,1/2-y,z
loop_
_atom_site_type_symbol
_atom_site_label
_atom_site_fract_x
_atom_site_fract_y
_atom_site_fract_z
Si Si1 0.156281 0.000000 0.964354
Si Si2 0.304237 0.000000 0.372318
Si Si3 0.141847 0.500000 0.218449
Si Si4 0.000000 0.371042 0.000000
Si Si5 0.500000 0.630932 0.000000
Si Si6 0.371218 0.173931 0.429175
Si Si7 0.667317 0.759088 0.206306
O O1 0.198678 0.000000 0.188825
O O2 0.077640 0.923909 0.914514
O O3 0.269960 0.000000 0.901341
O O4 0.281574 0.000000 0.569772
O O5 0.364226 0.916877 0.375587
O O6 0.052543 0.429485 0.168739
O O7 0.108356 0.315409 0.032256
O O8 0.417238 0.685455 0.841926
O O9 0.500000 0.199710 0.500000
O O10 0.330097 0.193274 0.608068
O O11 0.291939 0.223871 0.258999
#
# Coordination Sequence:
#
# PCOD9214951 Si02
#       7
#     4   4   4   4   4   8   8
#     4  11  25  43  73  97 133 185 224 269 341 394
#     4  12  23  46  68  98 139 166 235 277 316 413
#     4  11  25  43  68 101 134 180 222 277 336 389
#     4  10  22  40  66  94 140 168 222 280 324 400
#     4  10  22  46  64  98 136 176 228 276 324 410
#     4  11  24  40  67  98 130 183 224 271 342 394
#     4  10  22  42  63  94 140 170 220 283 327 400
#
# _framework density 23.437739000000001
#
# number of rings (size 3 to 8) (size 9 to 14) (size 15 to 20)
#    0.000    1.333    4.444    0.333    3.111    1.778 
#    0.000    6.667    0.000    0.000    0.000    2.333 
#    0.000    0.000    0.000    0.000    0.000    0.000 
#
# Total GULP energy -100340.737080 kJ/mol
# GULP energy per Si atom -5574.485393 kJ/mol
# Density = 2.338439 g / cm^3
# Si number density = 23.437739 Si / 1000 Ang^3
#
#
#
# Elastic Constant Matrix: (Units=GPa)
#
#
# Indices 1 2 3 4 5 6 
#
# 1 108.5677 62.0082 54.7377 0.0000 29.2338 0.0000
# 2 62.0082 154.4720 42.5748 0.0000 23.2660 0.0000
# 3 54.7377 42.5748 83.8218 0.0000 21.8872 0.0000
# 4 0.0000 0.0000 0.0000 61.3634 0.0000 -22.1006
# 5 29.2338 23.2660 21.8872 0.0000 51.9679 0.0000
# 6 0.0000 0.0000 0.0000 -22.1006 0.0000 -1.2306
#
#
#
# Elastic Compliance Matrix: (Units=1/GPa)
#
#
# Indices 1 2 3 4 5 6 
#
# 1 0.016414 -0.003833 -0.007650 0.000000 -0.004295 0.000000
# 2 -0.003833 0.008608 -0.001602 0.000000 -0.001023 0.000000
# 3 -0.007650 -0.001602 0.018458 0.000000 -0.002754 0.000000
# 4 0.000000 0.000000 0.000000 0.002182 0.000000 -0.039189
# 5 -0.004295 -0.001023 -0.002754 0.000000 0.023276 0.000000
# 6 0.000000 0.000000 0.000000 -0.039189 0.000000 -0.108810
#
#
# Mechanical properties :
#
#
# Convention : Reuss Voigt Hill
#
# Bulk Modulus (GPa) = 57.77133 73.94476 65.85805
# Shear Modulus (GPa) = -630.42190 34.92285 -297.74952
#
# Velocity S-wave (km/s) = -16.41832 3.86427 -11.28336
# Velocity P-wave (km/s) = 18.29515 7.17831 11.89925
#
# Compressibility (1/GPa) = 0.01730962
#
# Stress axis : x y z
#
# Youngs Moduli (GPa) = 60.92405 116.17083 54.17618
#
# Poissons Ratio (x) = 0.44534 0.41445
# Poissons Ratio (y) = 0.23355 0.08678
# Poissons Ratio (z) = 0.46607 0.18608
#
# Static dielectric constant tensor:
#      x y z
#    x 1.871270 0.000000 -0.038730 
#    y 0.000000 1.952360 0.000000 
#    z -0.038730 0.000000 1.900680 
# 
# From -- ./inp_files/46875.got.cif
#   From: 2010.05.17/outbox.cif.g08.bks.cpg/sg12_24_cif.got.tgz:46875.got - 2010.06.03 13:09:07.
