data_PCOD9214768
_publ_section_title
;
Structure prediction by ZEFSAII (Michael W. Deem and Ramdas Pophale) SiO2 
 PCOD9214768
Probable space group: C 2/M
;
_chemical_formula_sum "Si O2"
_cell_formula_units_Z 40
_cell_length_a 11.278643
_cell_length_b 26.873636
_cell_length_c 6.014595
_cell_angle_alpha 90.000000
_cell_angle_beta 66.265443
_cell_angle_gamma 90.000000
_cell_volume 1668.822189
_symmetry_space_group_name_H-M "C 2/M"
_symmetry_group_IT_number 12
_symmetry_cell_setting 'monoclinic'
loop_
_space_group_symop_operation_xyz
x,y,z
-x,y,-z
-x,-y,-z
x,-y,z
1/2+x,1/2+y,z
1/2-x,1/2+y,-z
1/2-x,1/2-y,-z
1/2+x,1/2-y,z
loop_
_atom_site_type_symbol
_atom_site_label
_atom_site_fract_x
_atom_site_fract_y
_atom_site_fract_z
Si Si1 0.870286 0.198797 0.980172
Si Si2 0.289342 0.790600 0.287324
Si Si3 0.850064 0.058555 0.572513
Si Si4 0.617150 0.942983 0.086670
Si Si5 0.814500 0.630023 0.601016
O O1 0.841013 0.191653 0.742000
O O2 0.862542 0.257640 0.047437
O O3 0.756835 0.169316 0.187534
O O4 0.000000 0.180349 0.000000
O O5 0.250000 0.750000 0.500000
O O6 0.360951 0.835533 0.358514
O O7 0.788173 0.092201 0.429444
O O8 0.000000 0.070949 0.500000
O O9 0.843742 0.000000 0.516485
O O10 0.754241 0.064519 0.856583
O O11 0.604941 0.903493 0.290712
O O12 0.613316 0.000000 0.173002
O O13 0.500000 0.937937 0.000000
#
# Coordination Sequence:
#
# PCOD9214768 Si02
#       5
#     8   8   8   8   8
#     4  10  22  40  64  90 128 174 220 275 342 402
#     4   9  21  41  58  88 124 163 219 273 330 392
#     4  10  23  41  64  98 137 172 217 273 331 395
#     4  10  23  44  66  95 138 182 224 275 337 405
#     4  11  22  37  66  96 130 172 227 276 333 397
#
# _framework density 23.969002
#
# number of rings (size 3 to 8) (size 9 to 14) (size 15 to 20)
#    0.000    2.000    0.000    1.800    5.600    3.200 
#    0.000   30.000    0.000    0.000    0.000    0.000 
#    0.000    0.000    0.000    0.000    0.000    0.000 
#
# Total GULP energy -111740.079248 kJ/mol
# GULP energy per Si atom -5587.003962 kJ/mol
# Density = 2.391445 g / cm^3
# Si number density = 23.969002 Si / 1000 Ang^3
#
#
#
# Elastic Constant Matrix: (Units=GPa)
#
#
# Indices 1 2 3 4 5 6 
#
# 1 85.1114 46.8369 55.5014 0.0000 1.6084 0.0000
# 2 46.8369 141.0747 60.3957 0.0000 21.7587 0.0000
# 3 55.5014 60.3957 88.3756 0.0000 25.3229 0.0000
# 4 0.0000 0.0000 0.0000 -3.8329 0.0000 39.0987
# 5 1.6084 21.7587 25.3229 0.0000 41.8163 0.0000
# 6 0.0000 0.0000 0.0000 39.0987 0.0000 31.9748
#
#
#
# Elastic Compliance Matrix: (Units=1/GPa)
#
#
# Indices 1 2 3 4 5 6 
#
# 1 0.023160 -0.002509 -0.015668 0.000000 0.009903 0.000000
# 2 -0.002509 0.010350 -0.004818 0.000000 -0.002371 0.000000
# 3 -0.015668 -0.004818 0.028502 0.000000 -0.014151 0.000000
# 4 0.000000 0.000000 0.000000 -0.019364 0.000000 0.023678
# 5 0.009903 -0.002371 -0.014151 0.000000 0.033336 0.000000
# 6 0.000000 0.000000 0.000000 0.023678 0.000000 0.002321
#
#
# Mechanical properties :
#
#
# Convention : Reuss Voigt Hill
#
# Bulk Modulus (GPa) = 62.41123 71.11442 66.76282
# Shear Modulus (GPa) = 38.56988 24.11347 31.34167
#
# Velocity S-wave (km/s) = 4.01578 3.17523 3.61999
# Velocity P-wave (km/s) = 6.89905 6.57089 6.73696
#
# Compressibility (1/GPa) = 0.01602276
#
# Stress axis : x y z
#
# Youngs Moduli (GPa) = 43.17847 96.62087 35.08523
#
# Poissons Ratio (x) = 0.24241 0.54970
# Poissons Ratio (y) = 0.10833 0.16904
# Poissons Ratio (z) = 0.67650 0.46551
#
# Static dielectric constant tensor:
#      x y z
#    x 1.993000 0.000000 -0.011040 
#    y 0.000000 1.916470 0.000000 
#    z -0.011040 0.000000 1.957950 
# 
# From -- ./inp_files/7577.got.cif
#   From: 2010.05.17/outbox.cif.g08.bks.cpg/sg12_4_cif.got.tgz:7577.got - 2010.06.03 13:09:07.
