data_PCOD9214236
_publ_section_title
;
Structure prediction by ZEFSAII (Michael W. Deem and Ramdas Pophale) SiO2 
 PCOD9214236
Probable space group: C 2/M
;
_chemical_formula_sum "Si O2"
_cell_formula_units_Z 48
_cell_length_a 30.832936
_cell_length_b 16.240756
_cell_length_c 9.317332
_cell_angle_alpha 90.000000
_cell_angle_beta 25.047197
_cell_angle_gamma 90.000000
_cell_volume 1975.273877
_symmetry_space_group_name_H-M "C 2/M"
_symmetry_group_IT_number 12
_symmetry_cell_setting 'monoclinic'
loop_
_space_group_symop_operation_xyz
x,y,z
-x,y,-z
-x,-y,-z
x,-y,z
1/2+x,1/2+y,z
1/2-x,1/2+y,-z
1/2-x,1/2-y,-z
1/2+x,1/2-y,z
loop_
_atom_site_type_symbol
_atom_site_label
_atom_site_fract_x
_atom_site_fract_y
_atom_site_fract_z
Si Si1 0.229111 0.637958 0.414837
Si Si2 0.825982 0.863754 0.735421
Si Si3 0.101994 0.594842 0.536024
Si Si4 0.512559 0.500000 0.792212
Si Si5 0.728893 0.167437 0.737737
Si Si6 0.388501 0.500000 0.907234
Si Si7 0.432635 0.781801 0.581039
O O1 0.128867 0.619252 0.619601
O O2 0.257916 0.734001 0.319105
O O3 0.223324 0.623789 0.602605
O O4 0.319160 0.579611 0.084320
O O5 0.814244 0.855106 0.598240
O O6 0.856635 0.781064 0.728056
O O7 0.921673 0.923311 0.460818
O O8 0.716571 0.896009 0.120470
O O9 0.069192 0.500000 0.625185
O O10 0.032810 0.660057 0.654604
O O11 0.408110 0.500000 0.019130
O O12 0.500000 0.500000 0.000000
O O13 0.624109 0.156887 0.138859
O O14 0.500000 0.500000 0.500000
O O15 0.500000 0.735024 0.500000
#
# Coordination Sequence:
#
# PCOD9214236 Si02
#       7
#     8   8   8   4   8   4   8
#     4  11  21  39  63  95 127 171 216 263 320 401
#     4  11  21  42  62  90 131 176 218 261 324 407
#     4  11  20  41  68  90 121 168 224 270 320 399
#     4  12  26  38  58 100 143 171 200 265 345 398
#     4  10  22  39  65  89 128 174 224 261 319 397
#     4  12  26  38  64 104 139 167 206 269 341 402
#     4  11  24  41  65  94 125 169 223 283 330 378
#
# _framework density 24.300426999999999
#
# number of rings (size 3 to 8) (size 9 to 14) (size 15 to 20)
#    0.000    1.000    5.000    3.000    2.333    0.333 
#    1.500    0.833    0.000    1.000    0.000    0.000 
#    0.000    0.000    0.000    0.000    0.000    0.000 
#
# Total GULP energy -134002.162438 kJ/mol
# GULP energy per Si atom -5583.423435 kJ/mol
# Density = 2.424512 g / cm^3
# Si number density = 24.300427 Si / 1000 Ang^3
#
#
#
# Elastic Constant Matrix: (Units=GPa)
#
#
# Indices 1 2 3 4 5 6 
#
# 1 198.5916 16.8483 13.4084 0.0000 22.3535 0.0000
# 2 16.8483 66.7116 6.0268 0.0000 7.5290 0.0000
# 3 13.4084 6.0268 43.9051 0.0000 19.9509 0.0000
# 4 0.0000 0.0000 0.0000 16.1631 0.0000 7.0003
# 5 22.3535 7.5290 19.9509 0.0000 42.4073 0.0000
# 6 0.0000 0.0000 0.0000 7.0003 0.0000 27.4529
#
#
#
# Elastic Compliance Matrix: (Units=1/GPa)
#
#
# Indices 1 2 3 4 5 6 
#
# 1 0.005432 -0.001056 -0.000379 0.000000 -0.002497 0.000000
# 2 -0.001056 0.015544 -0.001030 0.000000 -0.001718 0.000000
# 3 -0.000379 -0.001030 0.029075 0.000000 -0.013296 0.000000
# 4 0.000000 0.000000 0.000000 0.069550 0.000000 -0.017735
# 5 -0.002497 -0.001718 -0.013296 0.000000 0.031458 0.000000
# 6 0.000000 0.000000 0.000000 -0.017735 0.000000 0.040948
#
#
# Mechanical properties :
#
#
# Convention : Reuss Voigt Hill
#
# Bulk Modulus (GPa) = 22.16297 42.41950 32.29124
# Shear Modulus (GPa) = 23.58741 35.39964 29.49353
#
# Velocity S-wave (km/s) = 3.11892 3.82088 3.48761
# Velocity P-wave (km/s) = 4.70217 6.07945 5.43462
#
# Compressibility (1/GPa) = 0.04512030
#
# Stress axis : x y z
#
# Youngs Moduli (GPa) = 184.10369 64.33538 34.39329
#
# Poissons Ratio (x) = 0.06792 0.01304
# Poissons Ratio (y) = 0.19436 0.03544
# Poissons Ratio (z) = 0.06979 0.06629
#
# Static dielectric constant tensor:
#      x y z
#    x 2.055360 0.000000 -0.027980 
#    y 0.000000 1.796910 0.000000 
#    z -0.027980 0.000000 2.014540 
# 
# From -- ./inp_files/112778.got.cif
#   From: 2010.05.17/outbox.cif.g08.bks.cpg/sg12_57_cif.got.tgz:112778.got - 2010.06.03 13:09:07.
