data_PCOD9214105
_publ_section_title
;
Structure prediction by ZEFSAII (Michael W. Deem and Ramdas Pophale) SiO2 
 PCOD9214105
Probable space group: C 2/M
;
_chemical_formula_sum "Si O2"
_cell_formula_units_Z 56
_cell_length_a 10.805723
_cell_length_b 16.979437
_cell_length_c 14.383347
_cell_angle_alpha 90.000000
_cell_angle_beta 97.928884
_cell_angle_gamma 90.000000
_cell_volume 2613.757350
_symmetry_space_group_name_H-M "C 2/M"
_symmetry_group_IT_number 12
_symmetry_cell_setting 'monoclinic'
loop_
_space_group_symop_operation_xyz
x,y,z
-x,y,-z
-x,-y,-z
x,-y,z
1/2+x,1/2+y,z
1/2-x,1/2+y,-z
1/2-x,1/2-y,-z
1/2+x,1/2-y,z
loop_
_atom_site_type_symbol
_atom_site_label
_atom_site_fract_x
_atom_site_fract_y
_atom_site_fract_z
Si Si1 0.367212 0.413284 0.323679
Si Si2 0.575477 0.913668 0.605516
Si Si3 0.087587 0.414868 0.225878
Si Si4 0.363541 0.748136 0.439179
Si Si5 0.438190 0.795334 0.091062
Si Si6 0.795432 0.089001 0.953409
Si Si7 0.037237 0.875799 0.855771
O O1 0.378202 0.500000 0.371769
O O2 0.233303 0.411104 0.259419
O O3 0.367162 0.334943 0.385718
O O4 0.463032 0.408446 0.248065
O O5 0.500000 0.914934 0.500000
O O6 0.479457 0.910129 0.681073
O O7 0.650016 0.831367 0.617400
O O8 0.640776 0.000000 0.618324
O O9 0.056953 0.500000 0.180647
O O10 0.036997 0.348220 0.155069
O O11 0.500000 0.752617 0.500000
O O12 0.250000 0.750000 0.500000
O O13 0.313955 0.846690 0.063195
O O14 0.422134 0.715348 0.145801
O O15 0.500000 0.771710 0.000000
O O16 0.903775 0.111497 0.891148
O O17 0.750552 0.000000 0.929507
O O18 0.862117 0.089027 0.061239
#
# Coordination Sequence:
#
# PCOD9214105 Si02
#       7
#     8   8   8   8   8   8   8
#     4  11  23  41  67  95 132 174 217 266 329 402
#     4   9  18  38  65  93 124 163 209 263 325 389
#     4  10  22  39  62  94 125 163 215 270 328 391
#     4  11  24  43  68  99 132 168 217 271 332 399
#     4  12  24  39  63  93 129 168 225 279 328 383
#     4  11  23  41  63  90 129 175 221 272 331 401
#     4  11  23  40  64  90 128 175 220 266 332 398
#
# _framework density 21.425094000000001
#
# number of rings (size 3 to 8) (size 9 to 14) (size 15 to 20)
#    0.000    1.286    1.429    6.000    2.000    4.286 
#    2.571    0.000    0.000    0.000    0.000    0.000 
#    0.000    0.000    0.000    0.000    0.000    0.000 
#
# Total GULP energy -156379.670035 kJ/mol
# GULP energy per Si atom -5584.988216 kJ/mol
# Density = 2.137633 g / cm^3
# Si number density = 21.425094 Si / 1000 Ang^3
#
#
#
# Elastic Constant Matrix: (Units=GPa)
#
#
# Indices 1 2 3 4 5 6 
#
# 1 67.6381 24.5096 -2.2267 0.0000 -10.4118 0.0000
# 2 24.5096 185.3384 26.2925 0.0000 -5.4235 0.0000
# 3 -2.2267 26.2925 46.6961 0.0000 -16.3021 0.0000
# 4 0.0000 0.0000 0.0000 16.3380 0.0000 5.2204
# 5 -10.4118 -5.4235 -16.3021 0.0000 26.6631 0.0000
# 6 0.0000 0.0000 0.0000 5.2204 0.0000 19.5741
#
#
#
# Elastic Compliance Matrix: (Units=1/GPa)
#
#
# Indices 1 2 3 4 5 6 
#
# 1 0.017537 -0.002867 0.005896 0.000000 0.009870 0.000000
# 2 -0.002867 0.006356 -0.004647 0.000000 -0.002668 0.000000
# 3 0.005896 -0.004647 0.031513 0.000000 0.020624 0.000000
# 4 0.000000 0.000000 0.000000 0.066909 0.000000 -0.017845
# 5 0.009870 -0.002668 0.020624 0.000000 0.053427 0.000000
# 6 0.000000 0.000000 0.000000 -0.017845 0.000000 0.055847
#
#
# Mechanical properties :
#
#
# Convention : Reuss Voigt Hill
#
# Bulk Modulus (GPa) = 19.16789 44.09149 31.62969
# Shear Modulus (GPa) = 19.82454 29.25485 24.53969
#
# Velocity S-wave (km/s) = 3.04517 3.69921 3.38801
# Velocity P-wave (km/s) = 4.61843 6.23454 5.48632
#
# Compressibility (1/GPa) = 0.05217059
#
# Stress axis : x y z
#
# Youngs Moduli (GPa) = 57.02310 157.33753 31.73317
#
# Poissons Ratio (x) = 0.45104 -0.18710
# Poissons Ratio (y) = 0.16347 0.14745
# Poissons Ratio (z) = -0.33621 0.73109
#
# Static dielectric constant tensor:
#      x y z
#    x 1.750320 0.000000 -0.016870 
#    y 0.000000 1.857070 0.000000 
#    z -0.016870 0.000000 1.747580 
# 
# From -- ./inp_files/205005.got.cif
#   From: 2010.05.17/outbox.cif.g08.bks.cpg/sg12_103_cif.got.tgz:205005.got - 2010.06.03 13:09:07.
