data_PCOD9214348
_publ_section_title
;
Structure prediction by ZEFSAII (Michael W. Deem and Ramdas Pophale) SiO2 
 PCOD9214348
Probable space group: C 2/M
;
_chemical_formula_sum "Si O2"
_cell_formula_units_Z 64
_cell_length_a 20.829737
_cell_length_b 7.655778
_cell_length_c 19.039998
_cell_angle_alpha 90.000000
_cell_angle_beta 93.040759
_cell_angle_gamma 90.000000
_cell_volume 3031.992489
_symmetry_space_group_name_H-M "C 2/M"
_symmetry_group_IT_number 12
_symmetry_cell_setting 'monoclinic'
loop_
_space_group_symop_operation_xyz
x,y,z
-x,y,-z
-x,-y,-z
x,-y,z
1/2+x,1/2+y,z
1/2-x,1/2+y,-z
1/2-x,1/2-y,-z
1/2+x,1/2-y,z
loop_
_atom_site_type_symbol
_atom_site_label
_atom_site_fract_x
_atom_site_fract_y
_atom_site_fract_z
Si Si1 0.437732 0.788251 0.904758
Si Si2 0.962059 0.298762 0.303685
Si Si3 0.402443 0.702248 0.748646
Si Si4 0.297650 0.708508 0.439459
Si Si5 0.349323 0.213693 0.192080
Si Si6 0.261961 0.706488 0.714045
Si Si7 0.939569 0.800525 0.457250
Si Si8 0.914273 0.712542 0.058052
O O1 0.406101 0.714754 0.833142
O O2 0.513318 0.739268 0.913665
O O3 0.435402 0.000000 0.900393
O O4 0.406554 0.732027 0.976908
O O5 0.945674 0.500000 0.318306
O O6 0.910847 0.236131 0.243035
O O7 0.954974 0.198218 0.375741
O O8 0.033754 0.290307 0.277813
O O9 0.406708 0.500000 0.726896
O O10 0.334326 0.778235 0.719601
O O11 0.303036 0.500000 0.432474
O O12 0.250000 0.750000 0.500000
O O13 0.271162 0.773998 0.363462
O O14 0.368847 0.779335 0.460426
O O15 0.285669 0.276213 0.228381
O O16 0.363621 0.271744 0.113521
O O17 0.347840 0.000000 0.191127
O O18 0.268906 0.500000 0.728598
O O19 0.000000 0.716128 0.500000
O O20 0.934694 0.000000 0.484400
O O21 0.913534 0.500000 0.057223
#
# Coordination Sequence:
#
# PCOD9214348 Si02
#       8
#     8   8   8   8   8   8   8   8
#     4   9  16  30  53  81 110 142 187 235 279 332
#     4  11  21  36  62  87 109 142 192 243 275 323
#     4  11  23  36  53  80 118 154 184 231 291 340
#     4  11  24  41  62  86 116 152 188 228 273 332
#     4   9  16  32  58  83 104 139 189 234 274 323
#     4  10  22  40  59  79 111 154 193 229 277 337
#     4  10  23  42  61  85 119 152 179 221 286 343
#     4   8  14  27  53  83 108 138 183 237 282 325
#
# _framework density 21.108232999999998
#
# number of rings (size 3 to 8) (size 9 to 14) (size 15 to 20)
#    0.000    2.125    2.500    1.875    1.750    1.750 
#    0.000    1.875    0.000    0.000    0.000    0.000 
#    0.000    0.000    0.000    0.000    0.000    0.000 
#
# Total GULP energy -178672.642448 kJ/mol
# GULP energy per Si atom -5583.520077 kJ/mol
# Density = 2.106019 g / cm^3
# Si number density = 21.108233 Si / 1000 Ang^3
#
#
#
# Elastic Constant Matrix: (Units=GPa)
#
#
# Indices 1 2 3 4 5 6 
#
# 1 128.3058 -1.4177 34.5852 0.0000 -4.3991 0.0000
# 2 -1.4177 41.7746 -14.1413 0.0000 0.2415 0.0000
# 3 34.5852 -14.1413 72.3951 0.0000 -19.3668 0.0000
# 4 0.0000 0.0000 0.0000 26.9773 0.0000 11.7544
# 5 -4.3991 0.2415 -19.3668 0.0000 33.6043 0.0000
# 6 0.0000 0.0000 0.0000 11.7544 0.0000 42.9900
#
#
#
# Elastic Compliance Matrix: (Units=1/GPa)
#
#
# Indices 1 2 3 4 5 6 
#
# 1 0.009088 -0.001400 -0.005077 0.000000 -0.001726 0.000000
# 2 -0.001400 0.026142 0.006711 0.000000 0.003496 0.000000
# 3 -0.005077 0.006711 0.020523 0.000000 0.011115 0.000000
# 4 0.000000 0.000000 0.000000 0.042082 0.000000 -0.011506
# 5 -0.001726 0.003496 0.011115 0.000000 0.035913 0.000000
# 6 0.000000 0.000000 0.000000 -0.011506 0.000000 0.026407
#
#
# Mechanical properties :
#
#
# Convention : Reuss Voigt Hill
#
# Bulk Modulus (GPa) = 17.78737 31.16978 24.47858
# Shear Modulus (GPa) = 28.02285 35.61093 31.81689
#
# Velocity S-wave (km/s) = 3.64755 4.11184 3.88664
# Velocity P-wave (km/s) = 5.11708 6.11079 5.63588
#
# Compressibility (1/GPa) = 0.05621966
#
# Stress axis : x y z
#
# Youngs Moduli (GPa) = 110.03937 38.25279 48.72696
#
# Poissons Ratio (x) = 0.05356 0.24737
# Poissons Ratio (y) = 0.15407 -0.32699
# Poissons Ratio (z) = 0.55863 -0.25670
#
# Static dielectric constant tensor:
#      x y z
#    x 1.761490 0.000000 -0.029700 
#    y 0.000000 1.802140 0.000000 
#    z -0.029700 0.000000 1.623420 
# 
# From -- ./inp_files/314148.got.cif
#   From: 2010.05.17/outbox.cif.g08.bks.cpg/sg12_158_cif.got.tgz:314148.got - 2010.06.03 13:09:07.
