data_PCOD9214622
_publ_section_title
;
Structure prediction by ZEFSAII (Michael W. Deem and Ramdas Pophale) SiO2 
 PCOD9214622
Probable space group: C 2/M
;
_chemical_formula_sum "Si O2"
_cell_formula_units_Z 32
_cell_length_a 7.320688
_cell_length_b 25.860737
_cell_length_c 13.259954
_cell_angle_alpha 90.000000
_cell_angle_beta 138.494884
_cell_angle_gamma 90.000000
_cell_volume 1663.578168
_symmetry_space_group_name_H-M "C 2/M"
_symmetry_group_IT_number 12
_symmetry_cell_setting 'monoclinic'
loop_
_space_group_symop_operation_xyz
x,y,z
-x,y,-z
-x,-y,-z
x,-y,z
1/2+x,1/2+y,z
1/2-x,1/2+y,-z
1/2-x,1/2-y,-z
1/2+x,1/2-y,z
loop_
_atom_site_type_symbol
_atom_site_label
_atom_site_fract_x
_atom_site_fract_y
_atom_site_fract_z
Si Si1 0.250985 0.309858 0.028765
Si Si2 0.900996 0.940360 0.345118
Si Si3 0.303618 0.905450 0.142084
Si Si4 0.265828 0.632722 0.669328
O O1 0.533124 0.324104 0.202256
O O2 0.250000 0.250000 0.000000
O O3 0.214604 0.349322 0.920422
O O4 0.000000 0.320292 0.000000
O O5 0.570105 0.933134 0.206847
O O6 0.000000 0.928055 0.500000
O O7 0.052334 0.903384 0.328518
O O8 0.971150 0.000000 0.353332
O O9 0.337223 0.898913 0.275588
O O10 0.000000 0.929668 0.000000
O O11 0.000000 0.652503 0.500000
#
# Coordination Sequence:
#
# PCOD9214622 Si02
#       4
#     8   8   8   8
#     4  11  22  42  66  92 127 165 207 261 321 372
#     4  11  23  40  64  94 130 170 210 263 319 369
#     4  10  22  40  62  92 129 166 208 268 312 369
#     4  11  22  40  65  93 129 166 212 261 309 372
#
# _framework density 19.235644000000001
#
# number of rings (size 3 to 8) (size 9 to 14) (size 15 to 20)
#    0.000    1.250    5.000    2.250    0.000    2.000 
#    0.000   15.000    0.000    0.000    0.000    0.000 
#    0.000    0.000    0.000    0.000    0.000    0.000 
#
# Total GULP energy -89346.062690 kJ/mol
# GULP energy per Si atom -5584.128918 kJ/mol
# Density = 1.919186 g / cm^3
# Si number density = 19.235644 Si / 1000 Ang^3
#
#
#
# Elastic Constant Matrix: (Units=GPa)
#
#
# Indices 1 2 3 4 5 6 
#
# 1 121.3062 34.7949 31.7333 0.0000 4.5457 0.0000
# 2 34.7949 83.6729 31.7065 0.0000 -10.2449 0.0000
# 3 31.7333 31.7065 112.7111 0.0000 3.7624 0.0000
# 4 0.0000 0.0000 0.0000 19.7696 0.0000 -3.5743
# 5 4.5457 -10.2449 3.7624 0.0000 36.3217 0.0000
# 6 0.0000 0.0000 0.0000 -3.5743 0.0000 10.9199
#
#
#
# Elastic Compliance Matrix: (Units=1/GPa)
#
#
# Indices 1 2 3 4 5 6 
#
# 1 0.009820 -0.003717 -0.001649 0.000000 -0.002106 0.000000
# 2 -0.003717 0.015447 -0.003472 0.000000 0.005182 0.000000
# 3 -0.001649 -0.003472 0.010375 0.000000 -0.001848 0.000000
# 4 0.000000 0.000000 0.000000 0.053765 0.000000 0.017598
# 5 -0.002106 0.005182 -0.001848 0.000000 0.029448 0.000000
# 6 0.000000 0.000000 0.000000 0.017598 0.000000 0.097336
#
#
# Mechanical properties :
#
#
# Convention : Reuss Voigt Hill
#
# Bulk Modulus (GPa) = 55.65836 57.12884 56.39360
# Shear Modulus (GPa) = 20.84598 28.03260 24.43929
#
# Velocity S-wave (km/s) = 3.29556 3.82164 3.56830
# Velocity P-wave (km/s) = 6.59384 7.01692 6.80867
#
# Compressibility (1/GPa) = 0.01796675
#
# Stress axis : x y z
#
# Youngs Moduli (GPa) = 101.83334 64.73778 96.38707
#
# Poissons Ratio (x) = 0.24061 0.15894
# Poissons Ratio (y) = 0.37848 0.33465
# Poissons Ratio (z) = 0.16792 0.22476
#
# Static dielectric constant tensor:
#      x y z
#    x 1.682280 0.000000 0.010060 
#    y 0.000000 1.642780 0.000000 
#    z 0.010060 0.000000 1.683550 
# 
# From -- ./inp_files/115998.got.cif
#   From: 2010.05.17/outbox.cif.g08.bks.cpg/sg12_58_cif.got.tgz:115998.got - 2010.06.03 13:09:07.
