data_PCOD9214513
_publ_section_title
;
Structure prediction by ZEFSAII (Michael W. Deem and Ramdas Pophale) SiO2 
 PCOD9214513
Probable space group: C 2/M
;
_chemical_formula_sum "Si O2"
_cell_formula_units_Z 50
_cell_length_a 28.617347
_cell_length_b 7.786881
_cell_length_c 13.082256
_cell_angle_alpha 90.000000
_cell_angle_beta 57.439991
_cell_angle_gamma 90.000000
_cell_volume 2457.053594
_symmetry_space_group_name_H-M "C 2/M"
_symmetry_group_IT_number 12
_symmetry_cell_setting 'monoclinic'
loop_
_space_group_symop_operation_xyz
x,y,z
-x,y,-z
-x,-y,-z
x,-y,z
1/2+x,1/2+y,z
1/2-x,1/2+y,-z
1/2-x,1/2-y,-z
1/2+x,1/2-y,z
loop_
_atom_site_type_symbol
_atom_site_label
_atom_site_fract_x
_atom_site_fract_y
_atom_site_fract_z
Si Si1 0.805489 0.701172 0.662533
Si Si2 0.817208 0.301786 0.248587
Si Si3 0.390060 0.300443 0.973852
Si Si4 0.481812 0.700645 0.165329
Si Si5 0.375437 0.208878 0.388329
Si Si6 0.000000 0.500000 0.000000
Si Si7 0.689382 0.205934 0.114584
O O1 0.819490 0.500000 0.652869
O O2 0.740602 0.714223 0.712115
O O3 0.841990 0.771613 0.526565
O O4 0.815322 0.774303 0.764193
O O5 0.803581 0.500000 0.283912
O O6 0.845178 0.232716 0.319112
O O7 0.858032 0.291539 0.103468
O O8 0.389283 0.500000 0.002652
O O9 0.454361 0.250657 0.885565
O O10 0.356443 0.274179 0.909382
O O11 0.479502 0.500000 0.135752
O O12 0.438284 0.725444 0.307455
O O13 0.466161 0.845729 0.101098
O O14 0.375794 0.000000 0.388159
O O15 0.684825 0.000000 0.121113
O O16 0.750000 0.250000 0.000000
#
# Coordination Sequence:
#
# PCOD9214513 Si02
#       7
#     8   8   8   8   8   2   8
#     4  10  22  40  61  89 125 167 211 258 316 380
#     4  11  22  34  59  92 122 164 206 252 315 380
#     4  11  24  40  61  90 127 161 210 265 316 375
#     4  11  25  41  63  96 129 171 216 263 319 378
#     4  10  22  41  62  88 129 173 210 253 316 387
#     4  12  22  40  68  90 134 168 214 264 316 364
#     4  11  22  38  63  91 123 161 208 266 320 373
#
# _framework density 20.349575999999999
#
# number of rings (size 3 to 8) (size 9 to 14) (size 15 to 20)
#    0.000    1.280    2.400    3.120    4.480    3.840 
#    0.000    0.800    0.000    4.800    0.000    0.000 
#    0.000    0.000    0.000    0.000    0.000    0.000 
#
# Total GULP energy -139427.571096 kJ/mol
# GULP energy per Si atom -5577.102844 kJ/mol
# Density = 2.030326 g / cm^3
# Si number density = 20.349576 Si / 1000 Ang^3
#
#
#
# Elastic Constant Matrix: (Units=GPa)
#
#
# Indices 1 2 3 4 5 6 
#
# 1 108.3609 -3.4510 81.6506 0.0000 -5.5350 0.0000
# 2 -3.4510 58.8109 8.8899 0.0000 -0.4954 0.0000
# 3 81.6506 8.8899 181.0612 0.0000 -1.0724 0.0000
# 4 0.0000 0.0000 0.0000 14.5674 0.0000 -6.4230
# 5 -5.5350 -0.4954 -1.0724 0.0000 30.7521 0.0000
# 6 0.0000 0.0000 0.0000 -6.4230 0.0000 11.9872
#
#
#
# Elastic Compliance Matrix: (Units=1/GPa)
#
#
# Indices 1 2 3 4 5 6 
#
# 1 0.014339 0.001851 -0.006543 0.000000 0.002383 0.000000
# 2 0.001851 0.017371 -0.001684 0.000000 0.000554 0.000000
# 3 -0.006543 -0.001684 0.008551 0.000000 -0.000907 0.000000
# 4 0.000000 0.000000 0.000000 0.089881 0.000000 0.048160
# 5 0.002383 0.000554 -0.000907 0.000000 0.032924 0.000000
# 6 0.000000 0.000000 0.000000 0.048160 0.000000 0.109228
#
#
# Mechanical properties :
#
#
# Convention : Reuss Voigt Hill
#
# Bulk Modulus (GPa) = 36.35261 58.04576 47.19919
# Shear Modulus (GPa) = 16.99419 28.87089 22.93254
#
# Velocity S-wave (km/s) = 2.89297 3.77071 3.36062
# Velocity P-wave (km/s) = 5.39091 6.89521 6.18893
#
# Compressibility (1/GPa) = 0.02750834
#
# Stress axis : x y z
#
# Youngs Moduli (GPa) = 69.73801 57.56556 116.94537
#
# Poissons Ratio (x) = -0.10653 0.76519
# Poissons Ratio (y) = -0.12906 0.19696
# Poissons Ratio (z) = 0.45631 0.09695
#
# Static dielectric constant tensor:
#      x y z
#    x 1.736230 0.000000 0.000210 
#    y 0.000000 1.750790 0.000000 
#    z 0.000210 0.000000 1.748820 
# 
# From -- ./inp_files/180556.got.cif
#   From: 2010.05.17/outbox.cif.g08.bks.cpg/sg12_91_cif.got.tgz:180556.got - 2010.06.03 13:09:07.
