data_PCOD9214184
_publ_section_title
;
Structure prediction by ZEFSAII (Michael W. Deem and Ramdas Pophale) SiO2 
 PCOD9214184
Probable space group: C 2/M
;
_chemical_formula_sum "Si O2"
_cell_formula_units_Z 48
_cell_length_a 14.354943
_cell_length_b 26.104185
_cell_length_c 10.116942
_cell_angle_alpha 90.000000
_cell_angle_beta 149.656458
_cell_angle_gamma 90.000000
_cell_volume 1915.182342
_symmetry_space_group_name_H-M "C 2/M"
_symmetry_group_IT_number 12
_symmetry_cell_setting 'monoclinic'
loop_
_space_group_symop_operation_xyz
x,y,z
-x,y,-z
-x,-y,-z
x,-y,z
1/2+x,1/2+y,z
1/2-x,1/2+y,-z
1/2-x,1/2-y,-z
1/2+x,1/2-y,z
loop_
_atom_site_type_symbol
_atom_site_label
_atom_site_fract_x
_atom_site_fract_y
_atom_site_fract_z
Si Si1 0.919215 0.093047 0.142227
Si Si2 0.038786 0.500000 0.238876
Si Si3 0.222128 0.239513 0.267560
Si Si4 0.076211 0.389248 0.858924
Si Si5 0.740027 0.332310 0.533291
Si Si6 0.122454 0.000000 0.519707
Si Si7 0.799000 0.000000 0.817645
Si Si8 0.000000 0.667483 0.500000
O O1 0.063202 0.135436 0.266652
O O2 0.054866 0.051943 0.370085
O O3 0.791210 0.120619 0.094364
O O4 0.798387 0.054226 0.899347
O O5 0.921716 0.449071 0.106862
O O6 0.166368 0.500000 0.266066
O O7 0.159775 0.500000 0.524110
O O8 0.289666 0.297713 0.372767
O O9 0.285316 0.207908 0.473482
O O10 0.323448 0.206076 0.278909
O O11 0.000000 0.240154 0.000000
O O12 0.925418 0.365534 0.772239
O O13 0.994660 0.370017 0.618527
O O14 0.000000 0.000000 0.500000
O O15 0.000000 0.000000 0.000000
#
# Coordination Sequence:
#
# PCOD9214184 Si02
#       8
#     8   4   8   8   8   4   4   4
#     4  11  22  40  63  94 130 174 216 260 329 379
#     4  12  21  40  64 100 140 167 213 269 320 400
#     4  10  22  41  64  89 126 168 215 270 333 382
#     4  11  22  38  64  97 133 167 212 264 327 390
#     4  10  22  42  61  90 130 166 217 274 313 396
#     4  11  24  45  62  86 133 179 218 261 309 377
#     4  11  19  34  63  96 132 170 208 263 331 391
#     4  10  22  39  64 102 132 163 208 270 336 390
#
# _framework density 25.062885999999999
#
# number of rings (size 3 to 8) (size 9 to 14) (size 15 to 20)
#    0.000    1.333    3.333    3.000    0.000    5.667 
#    4.500    6.667    0.000    0.000    0.000    0.000 
#    0.000    0.000    0.000    0.000    0.000    0.000 
#
# Total GULP energy -133784.870308 kJ/mol
# GULP energy per Si atom -5574.369596 kJ/mol
# Density = 2.500584 g / cm^3
# Si number density = 25.062886 Si / 1000 Ang^3
#
#
#
# Elastic Constant Matrix: (Units=GPa)
#
#
# Indices 1 2 3 4 5 6 
#
# 1 87.4859 41.7974 22.3469 0.0000 14.2720 0.0000
# 2 41.7974 123.6377 9.6581 0.0000 8.9991 0.0000
# 3 22.3469 9.6581 76.0587 0.0000 21.8556 -0.0001
# 4 0.0000 0.0000 0.0000 10.5590 0.0000 11.9737
# 5 14.2720 8.9991 21.8556 0.0000 37.0519 0.0000
# 6 0.0000 0.0000 -0.0001 11.9737 0.0000 -24.2959
#
#
#
# Elastic Compliance Matrix: (Units=1/GPa)
#
#
# Indices 1 2 3 4 5 6 
#
# 1 0.014839 -0.004577 -0.002957 0.000000 -0.002860 0.000000
# 2 -0.004577 0.009666 0.000344 0.000000 -0.000787 0.000000
# 3 -0.002957 0.000344 0.016459 0.000000 -0.008653 0.000000
# 4 0.000000 0.000000 0.000000 0.060753 0.000000 0.029941
# 5 -0.002860 -0.000787 -0.008653 0.000000 0.033386 0.000000
# 6 0.000000 0.000000 0.000000 0.029941 0.000000 -0.026404
#
#
# Mechanical properties :
#
#
# Convention : Reuss Voigt Hill
#
# Bulk Modulus (GPa) = 37.61737 48.30969 42.96353
# Shear Modulus (GPa) = 37.89511 18.88834 28.39172
#
# Velocity S-wave (km/s) = 3.89266 2.74822 3.36939
# Velocity P-wave (km/s) = 5.93680 5.42103 5.68477
#
# Compressibility (1/GPa) = 0.02658347
#
# Stress axis : x y z
#
# Youngs Moduli (GPa) = 67.38919 103.45465 60.75560
#
# Poissons Ratio (x) = 0.47356 0.17964
# Poissons Ratio (y) = 0.30847 -0.02088
# Poissons Ratio (z) = 0.19926 -0.03556
#
# Static dielectric constant tensor:
#      x y z
#    x 2.064580 0.000000 -0.007940 
#    y 0.000000 1.993000 0.000000 
#    z -0.007940 0.000000 2.049420 
# 
# From -- ./inp_files/149695.got.cif
#   From: 2010.05.17/outbox.cif.g08.bks.cpg/sg12_75_cif.got.tgz:149695.got - 2010.06.03 13:09:07.
