data_PCOD9214825
_publ_section_title
;
Structure prediction by ZEFSAII (Michael W. Deem and Ramdas Pophale) SiO2 
 PCOD9214825
Probable space group: C 2/M
;
_chemical_formula_sum "Si O2"
_cell_formula_units_Z 34
_cell_length_a 7.884374
_cell_length_b 26.914520
_cell_length_c 10.674094
_cell_angle_alpha 90.000000
_cell_angle_beta 45.644975
_cell_angle_gamma 90.000000
_cell_volume 1619.586254
_symmetry_space_group_name_H-M "C 2/M"
_symmetry_group_IT_number 12
_symmetry_cell_setting 'monoclinic'
loop_
_space_group_symop_operation_xyz
x,y,z
-x,y,-z
-x,-y,-z
x,-y,z
1/2+x,1/2+y,z
1/2-x,1/2+y,-z
1/2-x,1/2-y,-z
1/2+x,1/2-y,z
loop_
_atom_site_type_symbol
_atom_site_label
_atom_site_fract_x
_atom_site_fract_y
_atom_site_fract_z
Si Si1 0.646197 0.919647 0.805404
Si Si2 0.041431 0.363605 0.624847
Si Si3 0.440894 0.677206 0.682589
Si Si4 0.500000 0.500000 0.500000
Si Si5 0.180548 0.774238 0.797057
O O1 0.500826 0.904534 0.753651
O O2 0.761207 0.867892 0.792505
O O3 0.848193 0.956854 0.654407
O O4 0.500000 0.939018 0.000000
O O5 0.315848 0.346772 0.495595
O O6 0.000000 0.379367 0.500000
O O7 0.873617 0.316065 0.733053
O O8 0.312382 0.724471 0.686906
O O9 0.527383 0.701286 0.767369
O O10 0.000000 0.761462 0.000000
#
# Coordination Sequence:
#
# PCOD9214825 Si02
#       5
#     8   8   8   2   8
#     4  12  24  45  73  98 128 171 220 273 331 393
#     4  10  22  40  64  95 138 180 213 263 322 387
#     4  11  21  37  60  94 137 178 217 261 319 383
#     4  12  26  48  74  96 128 156 232 280 346 376
#     4  11  21  34  58  98 139 179 220 257 311 393
#
# _framework density 20.993016000000001
#
# number of rings (size 3 to 8) (size 9 to 14) (size 15 to 20)
#    0.000    0.941    2.353    5.294    0.000    3.765 
#    0.000    0.588    0.000    1.412    0.000    0.000 
#    0.000    0.000    0.000    0.000    0.000    0.000 
#
# Total GULP energy -94733.929891 kJ/mol
# GULP energy per Si atom -5572.584111 kJ/mol
# Density = 2.094524 g / cm^3
# Si number density = 20.993016 Si / 1000 Ang^3
#
#
#
# Elastic Constant Matrix: (Units=GPa)
#
#
# Indices 1 2 3 4 5 6 
#
# 1 88.2173 31.9047 32.0933 0.0000 5.5935 0.0000
# 2 31.9047 121.8160 44.0640 0.0000 8.1181 0.0000
# 3 32.0933 44.0640 179.8769 0.0000 19.3415 0.0000
# 4 0.0000 0.0000 0.0000 39.6074 0.0000 -5.0341
# 5 5.5935 8.1181 19.3415 0.0000 26.7286 0.0000
# 6 0.0000 0.0000 0.0000 -5.0341 0.0000 -6.3190
#
#
#
# Elastic Compliance Matrix: (Units=1/GPa)
#
#
# Indices 1 2 3 4 5 6 
#
# 1 0.012953 -0.002782 -0.001549 0.000000 -0.000744 0.000000
# 2 -0.002782 0.009643 -0.001750 0.000000 -0.001080 0.000000
# 3 -0.001549 -0.001750 0.006693 0.000000 -0.003988 0.000000
# 4 0.000000 0.000000 0.000000 0.022926 0.000000 -0.018265
# 5 -0.000744 -0.001080 -0.003988 0.000000 0.040783 0.000000
# 6 0.000000 0.000000 0.000000 -0.018265 0.000000 -0.143702
#
#
# Mechanical properties :
#
#
# Convention : Reuss Voigt Hill
#
# Bulk Modulus (GPa) = 58.39067 67.33711 62.86389
# Shear Modulus (GPa) = -152.28544 30.79327 -60.74609
#
# Velocity S-wave (km/s) = -8.52634 3.83408 -5.38509
# Velocity P-wave (km/s) = 8.31003 7.19346 2.94200
#
# Compressibility (1/GPa) = 0.01712602
#
# Stress axis : x y z
#
# Youngs Moduli (GPa) = 77.20355 103.70544 149.40618
#
# Poissons Ratio (x) = 0.28855 0.23149
# Poissons Ratio (y) = 0.21481 0.26139
# Poissons Ratio (z) = 0.11962 0.18144
#
# Static dielectric constant tensor:
#      x y z
#    x 1.833050 0.000000 0.050690 
#    y 0.000000 1.694150 0.000000 
#    z 0.050690 0.000000 1.789800 
# 
# From -- ./inp_files/123327.got.cif
#   From: 2010.05.17/outbox.cif.g08.bks.cpg/sg12_62_cif.got.tgz:123327.got - 2010.06.03 13:09:07.
