data_PCOD9214889
_publ_section_title
;
Structure prediction by ZEFSAII (Michael W. Deem and Ramdas Pophale) SiO2 
 PCOD9214889
Probable space group: C 2/M
;
_chemical_formula_sum "Si O2"
_cell_formula_units_Z 36
_cell_length_a 10.291482
_cell_length_b 18.234242
_cell_length_c 9.616559
_cell_angle_alpha 90.000000
_cell_angle_beta 65.109779
_cell_angle_gamma 90.000000
_cell_volume 1636.997796
_symmetry_space_group_name_H-M "C 2/M"
_symmetry_group_IT_number 12
_symmetry_cell_setting 'monoclinic'
loop_
_space_group_symop_operation_xyz
x,y,z
-x,y,-z
-x,-y,-z
x,-y,z
1/2+x,1/2+y,z
1/2-x,1/2+y,-z
1/2-x,1/2-y,-z
1/2+x,1/2-y,z
loop_
_atom_site_type_symbol
_atom_site_label
_atom_site_fract_x
_atom_site_fract_y
_atom_site_fract_z
Si Si1 0.259829 0.664013 0.628593
Si Si2 0.500000 0.626714 0.000000
Si Si3 0.452765 0.911842 0.752871
Si Si4 0.758923 0.081443 0.908270
Si Si5 0.718631 0.666911 0.678541
O O1 0.298238 0.629962 0.759074
O O2 0.334044 0.641364 0.450001
O O3 0.277335 0.751129 0.633958
O O4 0.096369 0.635732 0.679113
O O5 0.389753 0.581193 0.957235
O O6 0.593910 0.671687 0.848410
O O7 0.340378 0.886194 0.685744
O O8 0.476162 0.000000 0.733332
O O9 0.375346 0.895230 0.935727
O O10 0.727617 0.000000 0.870059
#
# Coordination Sequence:
#
# PCOD9214889 Si02
#       5
#     8   4   8   8   8
#     4  11  23  39  63  96 126 158 215 264 309 367
#     4  10  23  42  62  84 129 170 206 248 319 382
#     4  10  22  42  67  94 126 166 211 261 319 376
#     4  10  22  40  65  94 126 162 209 261 312 375
#     4  10  25  40  61  93 128 167 206 259 313 378
#
# _framework density 21.991477
#
# number of rings (size 3 to 8) (size 9 to 14) (size 15 to 20)
#    0.000    1.778    0.000    2.333    6.222    8.000 
#    0.000    1.111    0.000    0.000    0.000    0.000 
#    0.000    0.000    0.000    0.000    0.000    0.000 
#
# Total GULP energy -100524.290423 kJ/mol
# GULP energy per Si atom -5584.682801 kJ/mol
# Density = 2.194142 g / cm^3
# Si number density = 21.991477 Si / 1000 Ang^3
#
#
#
# Elastic Constant Matrix: (Units=GPa)
#
#
# Indices 1 2 3 4 5 6 
#
# 1 44.0775 9.7594 25.7079 0.0000 -2.9485 0.0000
# 2 9.7594 56.1315 31.4549 0.0000 20.6478 0.0000
# 3 25.7079 31.4549 148.9700 0.0000 29.8508 0.0000
# 4 0.0000 0.0000 0.0000 57.8202 0.0000 -1.4236
# 5 -2.9485 20.6478 29.8508 0.0000 25.6606 0.0000
# 6 0.0000 0.0000 0.0000 -1.4236 0.0000 24.3283
#
#
#
# Elastic Compliance Matrix: (Units=1/GPa)
#
#
# Indices 1 2 3 4 5 6 
#
# 1 0.029741 -0.007799 -0.007078 0.000000 0.017927 0.000000
# 2 -0.007799 0.027664 0.000189 0.000000 -0.023376 0.000000
# 3 -0.007078 0.000189 0.010546 0.000000 -0.013233 0.000000
# 4 0.000000 0.000000 0.000000 0.017320 0.000000 0.001014
# 5 0.017927 -0.023376 -0.013233 0.000000 0.075233 0.000000
# 6 0.000000 0.000000 0.000000 0.001014 0.000000 0.041164
#
#
# Mechanical properties :
#
#
# Convention : Reuss Voigt Hill
#
# Bulk Modulus (GPa) = 25.92340 42.55817 34.24079
# Shear Modulus (GPa) = 20.49990 33.71226 27.10608
#
# Velocity S-wave (km/s) = 3.05647 3.91956 3.51461
# Velocity P-wave (km/s) = 4.92641 6.31491 5.66337
#
# Compressibility (1/GPa) = 0.03857518
#
# Stress axis : x y z
#
# Youngs Moduli (GPa) = 33.62309 36.14781 94.82212
#
# Poissons Ratio (x) = 0.28192 0.67114
# Poissons Ratio (y) = 0.26223 -0.01788
# Poissons Ratio (z) = 0.23798 -0.00682
#
# Static dielectric constant tensor:
#      x y z
#    x 1.830550 0.000000 0.002110 
#    y 0.000000 1.765380 0.000000 
#    z 0.002110 0.000000 1.842470 
# 
# From -- ./inp_files/46820.got.cif
#   From: 2010.05.17/outbox.cif.g08.bks.cpg/sg12_24_cif.got.tgz:46820.got - 2010.06.03 13:09:07.
