data_PCOD9214528
_publ_section_title
;
Structure prediction by ZEFSAII (Michael W. Deem and Ramdas Pophale) SiO2 
 PCOD9214528
Probable space group: C 2/M
;
_chemical_formula_sum "Si O2"
_cell_formula_units_Z 48
_cell_length_a 9.771488
_cell_length_b 15.448221
_cell_length_c 27.834920
_cell_angle_alpha 90.000000
_cell_angle_beta 145.180187
_cell_angle_gamma 90.000000
_cell_volume 2399.182873
_symmetry_space_group_name_H-M "C 2/M"
_symmetry_group_IT_number 12
_symmetry_cell_setting 'monoclinic'
loop_
_space_group_symop_operation_xyz
x,y,z
-x,y,-z
-x,-y,-z
x,-y,z
1/2+x,1/2+y,z
1/2-x,1/2+y,-z
1/2-x,1/2-y,-z
1/2+x,1/2-y,z
loop_
_atom_site_type_symbol
_atom_site_label
_atom_site_fract_x
_atom_site_fract_y
_atom_site_fract_z
Si Si1 0.724016 0.654794 0.211783
Si Si2 0.735239 0.855326 0.240570
Si Si3 0.487944 0.227793 0.444129
Si Si4 0.678480 0.396556 0.093788
Si Si5 0.739059 0.596832 0.642692
Si Si6 0.352859 0.595450 0.709799
O O1 0.767906 0.753989 0.238927
O O2 0.620864 0.647337 0.128451
O O3 0.586336 0.614963 0.217233
O O4 0.975231 0.603904 0.280779
O O5 0.452710 0.876131 0.158057
O O6 0.816368 0.882809 0.317345
O O7 0.906026 0.900945 0.251746
O O8 0.500000 0.184703 0.500000
O O9 0.361947 0.320945 0.414194
O O10 0.330493 0.167774 0.363448
O O11 0.750000 0.250000 0.500000
O O12 0.658629 0.500000 0.094705
O O13 0.500000 0.369619 0.000000
O O14 0.657724 0.500000 0.606587
O O15 0.242943 0.500000 0.674267
#
# Coordination Sequence:
#
# PCOD9214528 Si02
#       6
#     8   8   8   8   8   8
#     4  11  20  39  64  89 119 159 208 252 294 358
#     4  11  20  39  64  89 120 160 206 252 298 359
#     4  12  25  40  60  88 126 157 199 259 317 358
#     4  10  22  40  61  90 126 163 203 247 299 364
#     4  11  22  41  64  86 117 166 213 247 298 371
#     4  12  23  39  63  92 120 159 209 254 304 360
#
# _framework density 20.006810999999999
#
# number of rings (size 3 to 8) (size 9 to 14) (size 15 to 20)
#    0.000    0.833    3.333    7.000    0.000    2.000 
#    0.000    0.833    0.000    3.000    0.000    0.000 
#    0.000    0.000    0.000    0.000    0.000    0.000 
#
# Total GULP energy -134070.579303 kJ/mol
# GULP energy per Si atom -5586.274138 kJ/mol
# Density = 1.996127 g / cm^3
# Si number density = 20.006811 Si / 1000 Ang^3
#
#
#
# Elastic Constant Matrix: (Units=GPa)
#
#
# Indices 1 2 3 4 5 6 
#
# 1 120.8876 -6.0367 28.0419 0.0002 -20.8475 -0.0004
# 2 -6.0367 126.6292 9.1594 0.0001 -10.7655 -0.0002
# 3 28.0419 9.1594 82.6690 0.0001 -15.6782 -0.0002
# 4 0.0002 0.0001 0.0001 32.8728 0.0000 -33.6504
# 5 -20.8475 -10.7655 -15.6782 0.0000 24.8595 0.0000
# 6 -0.0004 -0.0002 -0.0002 -33.6504 0.0000 81.8424
#
#
#
# Elastic Compliance Matrix: (Units=1/GPa)
#
#
# Indices 1 2 3 4 5 6 
#
# 1 0.010165 0.001297 -0.002122 0.000000 0.007748 0.000000
# 2 0.001297 0.008370 -0.000538 0.000000 0.004373 0.000000
# 3 -0.002122 -0.000538 0.014192 0.000000 0.006937 0.000000
# 4 0.000000 0.000000 0.000000 0.052529 0.000000 0.021598
# 5 0.007748 0.004373 0.006937 0.000000 0.052992 0.000000
# 6 0.000000 0.000000 0.000000 0.021598 0.000000 0.021099
#
#
# Mechanical properties :
#
#
# Convention : Reuss Voigt Hill
#
# Bulk Modulus (GPa) = 33.33391 43.61279 38.47335
# Shear Modulus (GPa) = 29.05727 47.84968 38.45347
#
# Velocity S-wave (km/s) = 3.81513 4.89578 4.38884
# Velocity P-wave (km/s) = 6.00869 7.33515 6.70481
#
# Compressibility (1/GPa) = 0.02999948
#
# Stress axis : x y z
#
# Youngs Moduli (GPa) = 98.37293 119.48062 70.46389
#
# Poissons Ratio (x) = -0.15495 0.14956
# Poissons Ratio (y) = -0.12757 0.03790
# Poissons Ratio (z) = 0.20879 0.06427
#
# Static dielectric constant tensor:
#      x y z
#    x 1.724900 0.000000 -0.023200 
#    y 0.000000 1.723310 0.000000 
#    z -0.023200 0.000000 1.705280 
# 
# From -- ./inp_files/255787.got.cif
#   From: 2010.05.17/outbox.cif.g08.bks.cpg/sg12_128_cif.got.tgz:255787.got - 2010.06.03 13:09:07.
