data_PCOD9214668
_publ_section_title
;
Structure prediction by ZEFSAII (Michael W. Deem and Ramdas Pophale) SiO2 
 PCOD9214668
Probable space group: C 2/M
;
_chemical_formula_sum "Si O2"
_cell_formula_units_Z 40
_cell_length_a 20.070841
_cell_length_b 11.311725
_cell_length_c 9.541065
_cell_angle_alpha 90.000000
_cell_angle_beta 83.355551
_cell_angle_gamma 90.000000
_cell_volume 2151.614179
_symmetry_space_group_name_H-M "C 2/M"
_symmetry_group_IT_number 12
_symmetry_cell_setting 'monoclinic'
loop_
_space_group_symop_operation_xyz
x,y,z
-x,y,-z
-x,-y,-z
x,-y,z
1/2+x,1/2+y,z
1/2-x,1/2+y,-z
1/2-x,1/2-y,-z
1/2+x,1/2-y,z
loop_
_atom_site_type_symbol
_atom_site_label
_atom_site_fract_x
_atom_site_fract_y
_atom_site_fract_z
Si Si1 0.810303 0.279833 0.587031
Si Si2 0.298232 0.852609 0.916349
Si Si3 0.393568 0.000000 0.511073
Si Si4 0.950264 0.728288 0.898270
Si Si5 0.509616 0.000000 0.258638
Si Si6 0.560684 0.360698 0.389093
O O1 0.750000 0.250000 0.500000
O O2 0.793481 0.323214 0.750018
O O3 0.849315 0.386305 0.505913
O O4 0.865542 0.176716 0.579817
O O5 0.374403 0.818191 0.947898
O O6 0.287464 0.000000 0.939198
O O7 0.250000 0.750000 0.000000
O O8 0.451492 0.000000 0.384783
O O9 0.423516 0.000000 0.661549
O O10 0.990492 0.613876 0.836207
O O11 0.945026 0.812039 0.765664
O O12 0.000000 0.784170 0.000000
O O13 0.500000 0.309642 0.500000
O O14 0.554562 0.500000 0.391395
#
# Coordination Sequence:
#
# PCOD9214668 Si02
#       6
#     8   8   4   8   4   8
#     4  11  23  41  64  91 125 164 208 263 314 382
#     4  11  24  44  63  91 133 174 214 264 320 386
#     4  11  20  38  68  96 119 154 207 268 323 353
#     4  11  22  40  64  91 125 158 208 263 316 372
#     4  11  19  36  70  94 118 148 204 272 314 361
#     4  10  22  40  63  90 124 162 209 257 314 383
#
# _framework density 18.590693999999999
#
# number of rings (size 3 to 8) (size 9 to 14) (size 15 to 20)
#    0.000    1.200    6.000    1.500    1.400    6.800 
#    0.000    2.000    0.000    0.000    0.000    0.000 
#    0.000    0.000    0.000    0.000    0.000    0.000 
#
# Total GULP energy -111383.481075 kJ/mol
# GULP energy per Si atom -5569.174054 kJ/mol
# Density = 1.854838 g / cm^3
# Si number density = 18.590694 Si / 1000 Ang^3
#
#
#
# Elastic Constant Matrix: (Units=GPa)
#
#
# Indices 1 2 3 4 5 6 
#
# 1 116.9646 35.9091 67.2788 0.0000 17.0897 0.0000
# 2 35.9091 97.7199 29.7910 0.0000 -11.2797 0.0000
# 3 67.2788 29.7910 63.9657 0.0000 1.9423 0.0000
# 4 0.0000 0.0000 0.0000 34.5147 0.0000 3.3796
# 5 17.0897 -11.2797 1.9423 0.0000 35.9573 0.0000
# 6 0.0000 0.0000 0.0000 3.3796 0.0000 51.4746
#
#
#
# Elastic Compliance Matrix: (Units=1/GPa)
#
#
# Indices 1 2 3 4 5 6 
#
# 1 0.025828 -0.003137 -0.025343 0.000000 -0.011891 0.000000
# 2 -0.003137 0.012927 -0.002894 0.000000 0.005702 0.000000
# 3 -0.025343 -0.002894 0.043370 0.000000 0.008795 0.000000
# 4 0.000000 0.000000 0.000000 0.029161 0.000000 -0.001915
# 5 -0.011891 0.005702 0.008795 0.000000 0.034776 0.000000
# 6 0.000000 0.000000 0.000000 -0.001915 0.000000 0.019553
#
#
# Mechanical properties :
#
#
# Convention : Reuss Voigt Hill
#
# Bulk Modulus (GPa) = 51.61098 60.51200 56.06149
# Shear Modulus (GPa) = 21.29280 34.10073 27.69676
#
# Velocity S-wave (km/s) = 3.38797 4.28751 3.86400
# Velocity P-wave (km/s) = 6.56707 7.55848 7.08015
#
# Compressibility (1/GPa) = 0.01937572
#
# Stress axis : x y z
#
# Youngs Moduli (GPa) = 38.71800 77.35988 23.05734
#
# Poissons Ratio (x) = 0.24270 0.58435
# Poissons Ratio (y) = 0.12147 0.06672
# Poissons Ratio (z) = 0.98125 0.22386
#
# Static dielectric constant tensor:
#      x y z
#    x 1.516360 0.000000 -0.187750 
#    y 0.000000 1.765580 0.000000 
#    z -0.187750 0.000000 1.419040 
# 
# From -- ./inp_files/83487.got.cif
#   From: 2010.05.17/outbox.cif.g08.bks.cpg/sg12_42_cif.got.tgz:83487.got - 2010.06.03 13:09:07.
