data_PCOD9214017
_publ_section_title
;
Structure prediction by ZEFSAII (Michael W. Deem and Ramdas Pophale) SiO2 
 PCOD9214017
Probable space group: C 2/M
;
_chemical_formula_sum "Si O2"
_cell_formula_units_Z 56
_cell_length_a 10.625034
_cell_length_b 18.872329
_cell_length_c 12.196793
_cell_angle_alpha 90.000000
_cell_angle_beta 90.940487
_cell_angle_gamma 90.000000
_cell_volume 2445.360935
_symmetry_space_group_name_H-M "C 2/M"
_symmetry_group_IT_number 12
_symmetry_cell_setting 'monoclinic'
loop_
_space_group_symop_operation_xyz
x,y,z
-x,y,-z
-x,-y,-z
x,-y,z
1/2+x,1/2+y,z
1/2-x,1/2+y,-z
1/2-x,1/2-y,-z
1/2+x,1/2-y,z
loop_
_atom_site_type_symbol
_atom_site_label
_atom_site_fract_x
_atom_site_fract_y
_atom_site_fract_z
Si Si1 0.471361 0.796976 0.770477
Si Si2 0.827918 0.918790 0.444881
Si Si3 0.916481 0.155204 0.229852
Si Si4 0.631476 0.283305 0.436474
Si Si5 0.215629 0.672788 0.047748
Si Si6 0.963159 0.419958 0.617314
Si Si7 0.115589 0.918273 0.091235
O O1 0.581675 0.740176 0.774632
O O2 0.380013 0.756136 0.680922
O O3 0.414002 0.813422 0.888672
O O4 0.506739 0.869965 0.714165
O O5 0.899923 0.879527 0.347216
O O6 0.841604 0.867610 0.549928
O O7 0.687067 0.921399 0.394558
O O8 0.865138 0.000000 0.465129
O O9 0.801521 0.139590 0.147214
O O10 0.048554 0.127619 0.183925
O O11 0.500000 0.270078 0.500000
O O12 0.750000 0.250000 0.500000
O O13 0.250000 0.750000 0.000000
O O14 0.257557 0.618697 0.952095
O O15 0.012098 0.500000 0.627426
O O16 0.000000 0.390257 0.500000
O O17 0.136924 0.000000 0.121212
O O18 0.000000 0.917620 0.000000
#
# Coordination Sequence:
#
# PCOD9214017 Si02
#       7
#     8   8   8   8   8   8   8
#     4  12  23  37  63  90 122 167 210 262 315 383
#     4  11  23  39  62  94 131 167 209 266 328 395
#     4  11  21  38  61  95 122 158 207 261 321 394
#     4  12  24  41  63  96 132 175 218 265 326 394
#     4  11  22  38  59  89 123 156 209 258 319 381
#     4  10  22  39  61  90 123 164 215 263 314 384
#     4   9  19  35  58  85 119 152 190 254 317 368
#
# _framework density 22.900504999999999
#
# number of rings (size 3 to 8) (size 9 to 14) (size 15 to 20)
#    0.000    1.143    5.714    0.857    0.000    1.429 
#    0.000    0.000    0.000    0.857    0.000    2.000 
#    0.000    0.000    0.000    0.000    0.000    0.000 
#
# Total GULP energy -156253.109422 kJ/mol
# GULP energy per Si atom -5580.468194 kJ/mol
# Density = 2.284838 g / cm^3
# Si number density = 22.900505 Si / 1000 Ang^3
#
#
#
# Elastic Constant Matrix: (Units=GPa)
#
#
# Indices 1 2 3 4 5 6 
#
# 1 38.7836 2.1272 7.9653 0.0000 -9.4492 0.0000
# 2 2.1272 148.6098 26.0312 0.0000 -12.6984 0.0000
# 3 7.9653 26.0312 77.8198 0.0000 -15.1636 0.0000
# 4 0.0000 0.0000 0.0000 -23.8024 0.0000 -9.2471
# 5 -9.4492 -12.6984 -15.1636 0.0000 33.8149 0.0000
# 6 0.0000 0.0000 0.0000 -9.2471 0.0000 28.4825
#
#
#
# Elastic Compliance Matrix: (Units=1/GPa)
#
#
# Indices 1 2 3 4 5 6 
#
# 1 0.027853 0.000502 -0.001606 0.000000 0.007252 0.000000
# 2 0.000502 0.007255 -0.002104 0.000000 0.001921 0.000000
# 3 -0.001606 -0.002104 0.014767 0.000000 0.005383 0.000000
# 4 0.000000 0.000000 0.000000 -0.037307 0.000000 -0.012112
# 5 0.007252 0.001921 0.005383 0.000000 0.034735 0.000000
# 6 0.000000 0.000000 0.000000 -0.012112 0.000000 0.031177
#
#
# Mechanical properties :
#
#
# Convention : Reuss Voigt Hill
#
# Bulk Modulus (GPa) = 23.00958 37.49563 30.25261
# Shear Modulus (GPa) = 50.31145 22.97163 36.64154
#
# Velocity S-wave (km/s) = 4.69226 3.17062 4.00438
# Velocity P-wave (km/s) = 6.27900 5.46009 5.88381
#
# Compressibility (1/GPa) = 0.04346015
#
# Stress axis : x y z
#
# Youngs Moduli (GPa) = 35.90255 137.84538 67.71744
#
# Poissons Ratio (x) = -0.06923 0.10875
# Poissons Ratio (y) = -0.01803 0.14246
# Poissons Ratio (z) = 0.05766 0.28999
#
# Static dielectric constant tensor:
#      x y z
#    x 1.857470 0.000000 0.020420 
#    y 0.000000 1.870420 0.000000 
#    z 0.020420 0.000000 1.887650 
# 
# From -- ./inp_files/206115.got.cif
#   From: 2010.05.17/outbox.cif.g08.bks.cpg/sg12_104_cif.got.tgz:206115.got - 2010.06.03 13:09:07.
