data_PCOD9214634
_publ_section_title
;
Structure prediction by ZEFSAII (Michael W. Deem and Ramdas Pophale) SiO2 
 PCOD9214634
Probable space group: C 2/M
;
_chemical_formula_sum "Si O2"
_cell_formula_units_Z 56
_cell_length_a 9.135085
_cell_length_b 23.857003
_cell_length_c 13.789832
_cell_angle_alpha 90.000000
_cell_angle_beta 70.964272
_cell_angle_gamma 90.000000
_cell_volume 2840.953828
_symmetry_space_group_name_H-M "C 2/M"
_symmetry_group_IT_number 12
_symmetry_cell_setting 'monoclinic'
loop_
_space_group_symop_operation_xyz
x,y,z
-x,y,-z
-x,-y,-z
x,-y,z
1/2+x,1/2+y,z
1/2-x,1/2+y,-z
1/2-x,1/2-y,-z
1/2+x,1/2-y,z
loop_
_atom_site_type_symbol
_atom_site_label
_atom_site_fract_x
_atom_site_fract_y
_atom_site_fract_z
Si Si1 0.057583 0.259895 0.261958
Si Si2 0.211319 0.628019 0.200686
Si Si3 0.641336 0.594866 0.405963
Si Si4 0.441959 0.630364 0.790037
Si Si5 0.518123 0.064177 0.608216
Si Si6 0.174739 0.064282 0.005885
Si Si7 0.776377 0.222710 0.597257
O O1 0.161279 0.307943 0.191899
O O2 0.084034 0.197115 0.216982
O O3 0.101390 0.256947 0.366049
O O4 0.877388 0.275830 0.302604
O O5 0.378343 0.624815 0.217143
O O6 0.084227 0.602465 0.300049
O O7 0.222623 0.592772 0.099478
O O8 0.500000 0.571854 0.500000
O O9 0.593896 0.599190 0.303443
O O10 0.804214 0.566319 0.394988
O O11 0.669229 0.659609 0.429535
O O12 0.338266 0.602160 0.895685
O O13 0.500000 0.082387 0.500000
O O14 0.461482 0.000000 0.625984
O O15 0.220283 0.000000 0.016200
O O16 0.000000 0.062938 0.000000
O O17 0.750000 0.250000 0.500000
#
# Coordination Sequence:
#
# PCOD9214634 Si02
#       7
#     8   8   8   8   8   8   8
#     4  11  21  34  58  90 126 163 201 251 316 366
#     4  11  21  40  66  89 125 162 212 264 304 373
#     4  11  23  39  60  90 127 164 206 251 307 375
#     4  10  22  40  62  94 127 160 209 257 310 371
#     4  11  25  41  61  90 126 167 209 257 313 370
#     4   9  20  40  67  91 113 159 217 264 310 366
#     4  11  21  34  54  89 122 165 206 244 297 377
#
# _framework density 19.711689
#
# number of rings (size 3 to 8) (size 9 to 14) (size 15 to 20)
#    0.000    1.429    2.857    3.429    2.000    2.000 
#    0.000    0.714    0.000    1.714    0.000    0.000 
#    0.000    0.000    0.000    0.000    0.000    0.000 
#
# Total GULP energy -156408.378445 kJ/mol
# GULP energy per Si atom -5586.013516 kJ/mol
# Density = 1.966682 g / cm^3
# Si number density = 19.711689 Si / 1000 Ang^3
#
#
#
# Elastic Constant Matrix: (Units=GPa)
#
#
# Indices 1 2 3 4 5 6 
#
# 1 88.6056 22.9697 44.5011 0.0000 -2.1119 0.0000
# 2 22.9697 96.4963 70.3336 0.0000 -5.9210 0.0000
# 3 44.5011 70.3336 140.0243 0.0000 1.6455 0.0000
# 4 0.0000 0.0000 0.0000 18.0782 0.0000 13.6318
# 5 -2.1119 -5.9210 1.6455 0.0000 20.8932 0.0000
# 6 0.0000 0.0000 0.0000 13.6318 0.0000 1.1748
#
#
#
# Elastic Compliance Matrix: (Units=1/GPa)
#
#
# Indices 1 2 3 4 5 6 
#
# 1 0.013490 0.000054 -0.004334 0.000000 0.001720 0.000000
# 2 0.000054 0.016953 -0.008597 0.000000 0.005487 0.000000
# 3 -0.004334 -0.008597 0.012883 0.000000 -0.003889 0.000000
# 4 0.000000 0.000000 0.000000 -0.007138 0.000000 0.082824
# 5 0.001720 0.005487 -0.003889 0.000000 0.049898 0.000000
# 6 0.000000 0.000000 0.000000 0.082824 0.000000 -0.109840
#
#
# Mechanical properties :
#
#
# Convention : Reuss Voigt Hill
#
# Bulk Modulus (GPa) = 56.91311 66.74835 61.83073
# Shear Modulus (GPa) = 636.30164 20.51737 328.40951
#
# Velocity S-wave (km/s) = 17.98624 3.22976 12.92162
# Velocity P-wave (km/s) = 21.45403 6.91696 15.93926
#
# Compressibility (1/GPa) = 0.01757064
#
# Stress axis : x y z
#
# Youngs Moduli (GPa) = 74.12920 58.98618 77.62108
#
# Poissons Ratio (x) = -0.00317 0.33644
# Poissons Ratio (y) = -0.00398 0.66731
# Poissons Ratio (z) = 0.32131 0.50711
#
# Static dielectric constant tensor:
#      x y z
#    x 1.694910 0.000000 -0.001450 
#    y 0.000000 1.687650 0.000000 
#    z -0.001450 0.000000 1.668620 
# 
# From -- ./inp_files/124255.got.cif
#   From: 2010.05.17/outbox.cif.g08.bks.cpg/sg12_63_cif.got.tgz:124255.got - 2010.06.03 13:09:07.
