data_PCOD9214119
_publ_section_title
;
Structure prediction by ZEFSAII (Michael W. Deem and Ramdas Pophale) SiO2 
 PCOD9214119
Probable space group: C 2/M
;
_chemical_formula_sum "Si O2"
_cell_formula_units_Z 56
_cell_length_a 22.044025
_cell_length_b 17.229442
_cell_length_c 16.746183
_cell_angle_alpha 90.000000
_cell_angle_beta 24.282740
_cell_angle_gamma 90.000000
_cell_volume 2615.610451
_symmetry_space_group_name_H-M "C 2/M"
_symmetry_group_IT_number 12
_symmetry_cell_setting 'monoclinic'
loop_
_space_group_symop_operation_xyz
x,y,z
-x,y,-z
-x,-y,-z
x,-y,z
1/2+x,1/2+y,z
1/2-x,1/2+y,-z
1/2-x,1/2-y,-z
1/2+x,1/2-y,z
loop_
_atom_site_type_symbol
_atom_site_label
_atom_site_fract_x
_atom_site_fract_y
_atom_site_fract_z
Si Si1 0.021226 0.639558 0.616616
Si Si2 0.969969 0.000000 0.943708
Si Si3 0.356434 0.283820 0.633674
Si Si4 0.616623 0.207401 0.800918
Si Si5 0.776519 0.796910 0.050049
Si Si6 0.096010 0.848032 0.710331
Si Si7 0.096340 0.592684 0.702937
Si Si8 0.647004 0.000000 0.375172
O O1 0.073126 0.715473 0.506125
O O2 0.035929 0.631267 0.694064
O O3 0.129717 0.574249 0.452206
O O4 0.847079 0.634700 0.804356
O O5 0.041644 0.922351 0.824457
O O6 0.000000 0.000000 0.000000
O O7 0.793722 0.000000 0.147754
O O8 0.500000 0.325033 0.500000
O O9 0.248184 0.322283 0.699590
O O10 0.262908 0.249215 0.820699
O O11 0.654744 0.276066 0.693079
O O12 0.534878 0.137635 0.853114
O O13 0.500000 0.246944 0.000000
O O14 0.750000 0.750000 0.000000
O O15 0.947420 0.820114 0.845377
O O16 0.232355 0.881135 0.496963
O O17 0.078782 0.500000 0.722119
O O18 0.500000 0.000000 0.500000
#
# Coordination Sequence:
#
# PCOD9214119 Si02
#       8
#     8   4   8   8   8   8   8   4
#     4  11  22  40  60  93 135 174 208 262 331 404
#     4  12  24  36  64  98 142 169 202 262 326 413
#     4  10  22  39  62  95 129 169 213 265 330 396
#     4  12  25  42  72  95 126 175 229 280 328 395
#     4  11  24  39  63  97 134 171 223 275 326 394
#     4  12  23  42  65 102 135 171 217 268 339 398
#     4  12  26  46  66  97 133 178 225 279 337 393
#     4  12  22  36  60  90 132 182 198 244 324 410
#
# _framework density 21.409915999999999
#
# number of rings (size 3 to 8) (size 9 to 14) (size 15 to 20)
#    0.000    0.571    4.286    5.571    4.000    0.286 
#    0.000    0.000    0.000    0.429    0.000    0.000 
#    0.000    0.000    0.000    0.000    0.000    0.000 
#
# Total GULP energy -156325.550024 kJ/mol
# GULP energy per Si atom -5583.055358 kJ/mol
# Density = 2.136119 g / cm^3
# Si number density = 21.409916 Si / 1000 Ang^3
#
#
#
# Elastic Constant Matrix: (Units=GPa)
#
#
# Indices 1 2 3 4 5 6 
#
# 1 144.0652 30.2351 19.7064 0.0010 1.8776 -0.0003
# 2 30.2351 73.6561 11.6812 0.0010 13.4463 -0.0002
# 3 19.7064 11.6812 55.7784 0.0016 -10.6617 -0.0009
# 4 0.0010 0.0010 0.0016 24.9300 -0.0009 3.4684
# 5 1.8776 13.4463 -10.6617 -0.0009 36.8581 0.0002
# 6 -0.0003 -0.0002 -0.0009 3.4684 0.0002 12.5982
#
#
#
# Elastic Compliance Matrix: (Units=1/GPa)
#
#
# Indices 1 2 3 4 5 6 
#
# 1 0.007841 -0.002881 -0.002162 0.000000 0.000026 0.000000
# 2 -0.002881 0.016647 -0.003812 -0.000001 -0.007029 0.000000
# 3 -0.002162 -0.003812 0.020935 -0.000001 0.007556 0.000002
# 4 0.000000 -0.000001 -0.000001 0.041710 0.000001 -0.011483
# 5 0.000026 -0.007029 0.007556 0.000001 0.031880 0.000000
# 6 0.000000 0.000000 0.000002 -0.011483 0.000000 0.082537
#
#
# Mechanical properties :
#
#
# Convention : Reuss Voigt Hill
#
# Bulk Modulus (GPa) = 36.08377 44.08277 40.08327
# Shear Modulus (GPa) = 21.88213 29.00240 25.44226
#
# Velocity S-wave (km/s) = 3.20043 3.68452 3.45097
# Velocity P-wave (km/s) = 5.52697 6.22378 5.88569
#
# Compressibility (1/GPa) = 0.02771329
#
# Stress axis : x y z
#
# Youngs Moduli (GPa) = 127.53043 60.07170 47.76777
#
# Poissons Ratio (x) = 0.17304 0.10328
# Poissons Ratio (y) = 0.36737 0.18209
# Poissons Ratio (z) = 0.27573 0.22899
#
# Static dielectric constant tensor:
#      x y z
#    x 1.820260 0.000000 0.009100 
#    y 0.000000 1.943180 0.000000 
#    z 0.009100 0.000000 1.812480 
# 
# From -- ./inp_files/234683.got.cif
#   From: 2010.05.17/outbox.cif.g08.bks.cpg/sg12_118_cif.got.tgz:234683.got - 2010.06.03 13:09:07.
