data_PCOD9214011
_publ_section_title
;
Structure prediction by ZEFSAII (Michael W. Deem and Ramdas Pophale) SiO2 
 PCOD9214011
Probable space group: C 2/M
;
_chemical_formula_sum "Si O2"
_cell_formula_units_Z 32
_cell_length_a 6.940376
_cell_length_b 17.999669
_cell_length_c 14.014014
_cell_angle_alpha 90.000000
_cell_angle_beta 117.177144
_cell_angle_gamma 90.000000
_cell_volume 1557.414371
_symmetry_space_group_name_H-M "C 2/M"
_symmetry_group_IT_number 12
_symmetry_cell_setting 'monoclinic'
loop_
_space_group_symop_operation_xyz
x,y,z
-x,y,-z
-x,-y,-z
x,-y,z
1/2+x,1/2+y,z
1/2-x,1/2+y,-z
1/2-x,1/2-y,-z
1/2+x,1/2-y,z
loop_
_atom_site_type_symbol
_atom_site_label
_atom_site_fract_x
_atom_site_fract_y
_atom_site_fract_z
Si Si1 0.950943 0.082890 0.693316
Si Si2 0.129607 0.704833 0.616778
Si Si3 0.879724 0.656917 0.734943
Si Si4 0.814047 0.912734 0.883556
O O1 0.197521 0.097901 0.720581
O O2 0.802905 0.146879 0.615552
O O3 0.911793 0.091394 0.798492
O O4 0.884503 0.000000 0.651080
O O5 0.257383 0.763542 0.712283
O O6 0.000000 0.740313 0.500000
O O7 0.964212 0.659180 0.645351
O O8 0.098855 0.637585 0.841456
O O9 0.756839 0.000000 0.886652
O O10 0.000000 0.891670 0.000000
#
# Coordination Sequence:
#
# PCOD9214011 Si02
#       4
#     8   8   8   8
#     4  10  22  39  61  90 121 155 202 249 292 351
#     4  11  23  39  63  85 120 164 201 240 299 358
#     4  11  21  37  62  89 117 156 199 248 291 350
#     4   9  20  40  64  89 120 158 198 244 301 358
#
# _framework density 20.546876999999999
#
# number of rings (size 3 to 8) (size 9 to 14) (size 15 to 20)
#    0.000    1.750    2.500    1.500    0.000    2.500 
#    0.000   10.000    0.000    0.000    0.000    0.000 
#    0.000    0.000    0.000    0.000    0.000    0.000 
#
# Total GULP energy -89208.142985 kJ/mol
# GULP energy per Si atom -5575.508937 kJ/mol
# Density = 2.050011 g / cm^3
# Si number density = 20.546877 Si / 1000 Ang^3
#
#
#
# Elastic Constant Matrix: (Units=GPa)
#
#
# Indices 1 2 3 4 5 6 
#
# 1 103.3111 20.8603 13.5077 0.0000 20.4105 0.0000
# 2 20.8603 96.5892 39.6499 0.0000 19.8517 0.0000
# 3 13.5077 39.6499 81.6162 0.0000 23.0664 0.0000
# 4 0.0000 0.0000 0.0000 26.8362 0.0000 6.7715
# 5 20.4105 19.8517 23.0664 0.0000 19.6839 0.0000
# 6 0.0000 0.0000 0.0000 6.7715 0.0000 38.1538
#
#
#
# Elastic Compliance Matrix: (Units=1/GPa)
#
#
# Indices 1 2 3 4 5 6 
#
# 1 0.012500 -0.000593 0.002562 0.000000 -0.015365 0.000000
# 2 -0.000593 0.013985 -0.004312 0.000000 -0.008437 0.000000
# 3 0.002562 -0.004312 0.020103 0.000000 -0.021865 0.000000
# 4 0.000000 0.000000 0.000000 0.039010 0.000000 -0.006923
# 5 -0.015365 -0.008437 -0.021865 0.000000 0.100867 0.000000
# 6 0.000000 0.000000 0.000000 -0.006923 0.000000 0.027438
#
#
# Mechanical properties :
#
#
# Convention : Reuss Voigt Hill
#
# Bulk Modulus (GPa) = 23.86522 47.72803 35.79663
# Shear Modulus (GPa) = 21.50020 30.76804 26.13412
#
# Velocity S-wave (km/s) = 3.23832 3.87390 3.57028
# Velocity P-wave (km/s) = 5.06187 6.57941 5.86989
#
# Compressibility (1/GPa) = 0.04190199
#
# Stress axis : x y z
#
# Youngs Moduli (GPa) = 80.00041 71.50455 49.74478
#
# Poissons Ratio (x) = 0.04243 -0.12745
# Poissons Ratio (y) = 0.04747 0.21448
# Poissons Ratio (z) = -0.20496 0.30829
#
# Static dielectric constant tensor:
#      x y z
#    x 1.755890 0.000000 0.024920 
#    y 0.000000 1.764820 0.000000 
#    z 0.024920 0.000000 1.720850 
# 
# From -- ./inp_files/190966.got.cif
#   From: 2010.05.17/outbox.cif.g08.bks.cpg/sg12_96_cif.got.tgz:190966.got - 2010.06.03 13:09:07.
