data_PCOD9214609
_publ_section_title
;
Structure prediction by ZEFSAII (Michael W. Deem and Ramdas Pophale) SiO2 
 PCOD9214609
Probable space group: C 2/M
;
_chemical_formula_sum "Si O2"
_cell_formula_units_Z 56
_cell_length_a 19.285944
_cell_length_b 8.991750
_cell_length_c 27.922304
_cell_angle_alpha 90.000000
_cell_angle_beta 34.121878
_cell_angle_gamma 90.000000
_cell_volume 2716.217294
_symmetry_space_group_name_H-M "C 2/M"
_symmetry_group_IT_number 12
_symmetry_cell_setting 'monoclinic'
loop_
_space_group_symop_operation_xyz
x,y,z
-x,y,-z
-x,-y,-z
x,-y,z
1/2+x,1/2+y,z
1/2-x,1/2+y,-z
1/2-x,1/2-y,-z
1/2+x,1/2-y,z
loop_
_atom_site_type_symbol
_atom_site_label
_atom_site_fract_x
_atom_site_fract_y
_atom_site_fract_z
Si Si1 0.440803 0.827702 0.941891
Si Si2 0.538663 0.826435 0.777723
Si Si3 0.390896 0.676680 0.655591
Si Si4 0.642783 0.176744 0.529520
Si Si5 0.283246 0.174353 0.885156
Si Si6 0.701228 0.174734 0.384342
Si Si7 0.819945 0.826415 0.162626
O O1 0.480287 0.815259 0.863997
O O2 0.540318 0.730496 0.913794
O O3 0.450411 0.000000 0.950484
O O4 0.304420 0.768434 0.030243
O O5 0.426991 0.784448 0.806333
O O6 0.657671 0.724770 0.704512
O O7 0.574205 0.000000 0.749645
O O8 0.400051 0.500000 0.651379
O O9 0.508655 0.750607 0.613968
O O10 0.379943 0.735007 0.607413
O O11 0.266234 0.731075 0.752969
O O12 0.750000 0.250000 0.500000
O O13 0.671091 0.201670 0.457069
O O14 0.637967 0.000000 0.541154
O O15 0.231709 0.190238 0.861251
O O16 0.275824 0.000000 0.903259
O O17 0.684191 0.000000 0.384206
O O18 0.813310 0.000000 0.180036
#
# Coordination Sequence:
#
# PCOD9214609 Si02
#       7
#     8   8   8   8   8   8   8
#     4  11  22  38  61  91 124 165 214 267 319 377
#     4  10  22  40  62  91 126 167 213 260 316 377
#     4  12  25  43  68  97 129 170 215 262 318 379
#     4  11  26  46  69 101 135 168 208 258 315 378
#     4  10  23  40  60  88 124 169 215 262 319 379
#     4  11  24  43  68  97 128 168 215 261 312 377
#     4  11  23  40  63  91 125 169 214 265 318 375
#
# _framework density 20.616906
#
# number of rings (size 3 to 8) (size 9 to 14) (size 15 to 20)
#    0.000    1.143    1.429    4.286    2.000    8.000 
#    0.000    0.000    0.000    0.000    0.000    0.000 
#    0.000    0.000    0.000    0.000    0.000    0.000 
#
# Total GULP energy -156705.133652 kJ/mol
# GULP energy per Si atom -5596.611916 kJ/mol
# Density = 2.056998 g / cm^3
# Si number density = 20.616906 Si / 1000 Ang^3
#
#
#
# Elastic Constant Matrix: (Units=GPa)
#
#
# Indices 1 2 3 4 5 6 
#
# 1 77.7166 35.5298 2.4753 0.0000 -26.2612 0.0008
# 2 35.5298 89.6560 27.3341 -0.0009 0.4654 0.0004
# 3 2.4753 27.3341 55.9698 0.0000 -7.1841 -0.0002
# 4 0.0000 -0.0009 0.0000 20.7882 0.0000 -2.9435
# 5 -26.2612 0.4654 -7.1841 0.0000 28.6614 -0.0005
# 6 0.0008 0.0004 -0.0002 -2.9435 -0.0005 29.7185
#
#
#
# Elastic Compliance Matrix: (Units=1/GPa)
#
#
# Indices 1 2 3 4 5 6 
#
# 1 0.029206 -0.014668 0.009648 -0.000001 0.029417 0.000000
# 2 -0.014668 0.020570 -0.011536 0.000001 -0.016665 0.000000
# 3 0.009648 -0.011536 0.025038 0.000000 0.015303 0.000000
# 4 -0.000001 0.000001 0.000000 0.048788 -0.000001 0.004832
# 5 0.029417 -0.016665 0.015303 -0.000001 0.065950 0.000001
# 6 0.000000 0.000000 0.000000 0.004832 0.000001 0.034128
#
#
# Mechanical properties :
#
#
# Convention : Reuss Voigt Hill
#
# Bulk Modulus (GPa) = 23.98020 39.33564 31.65792
# Shear Modulus (GPa) = 18.47101 26.36717 22.41909
#
# Velocity S-wave (km/s) = 2.99643 3.58007 3.30117
# Velocity P-wave (km/s) = 4.86087 6.01747 5.46982
#
# Compressibility (1/GPa) = 0.04170106
#
# Stress axis : x y z
#
# Youngs Moduli (GPa) = 34.23957 48.61376 39.93854
#
# Poissons Ratio (x) = 0.71307 -0.38532
# Poissons Ratio (y) = 0.50223 0.46075
# Poissons Ratio (z) = -0.33033 0.56083
#
# Static dielectric constant tensor:
#      x y z
#    x 1.739570 0.000000 0.006090 
#    y 0.000000 1.694230 0.000000 
#    z 0.006090 0.000000 1.721660 
# 
# From -- ./inp_files/380587.got.cif
#   From: 2010.05.17/outbox.cif.g08.bks.cpg/sg12_191_cif.got.tgz:380587.got - 2010.06.03 13:09:07.
