data_PCOD9214925
_publ_section_title
;
Structure prediction by ZEFSAII (Michael W. Deem and Ramdas Pophale) SiO2 
 PCOD9214925
Probable space group: C 2/M
;
_chemical_formula_sum "Si O2"
_cell_formula_units_Z 64
_cell_length_a 16.076197
_cell_length_b 17.507416
_cell_length_c 15.060690
_cell_angle_alpha 90.000000
_cell_angle_beta 48.094866
_cell_angle_gamma 90.000000
_cell_volume 3154.787247
_symmetry_space_group_name_H-M "C 2/M"
_symmetry_group_IT_number 12
_symmetry_cell_setting 'monoclinic'
loop_
_space_group_symop_operation_xyz
x,y,z
-x,y,-z
-x,-y,-z
x,-y,z
1/2+x,1/2+y,z
1/2-x,1/2+y,-z
1/2-x,1/2-y,-z
1/2+x,1/2-y,z
loop_
_atom_site_type_symbol
_atom_site_label
_atom_site_fract_x
_atom_site_fract_y
_atom_site_fract_z
Si Si1 0.940366 0.847686 0.447499
Si Si2 0.638439 0.090171 0.247628
Si Si3 0.520338 0.590635 0.211138
Si Si4 0.801776 0.589569 0.341146
Si Si5 0.131582 0.409095 0.907274
Si Si6 0.774192 0.090430 0.324596
Si Si7 0.590656 0.171629 0.576847
Si Si8 0.252390 0.159527 0.004151
O O1 0.825183 0.894000 0.539803
O O2 0.914371 0.761957 0.433209
O O3 0.000000 0.844881 0.500000
O O4 0.014839 0.886819 0.318669
O O5 0.736440 0.100097 0.250027
O O6 0.529004 0.134463 0.359552
O O7 0.613456 0.000000 0.258260
O O8 0.676716 0.123369 0.126405
O O9 0.531556 0.500000 0.194602
O O10 0.400993 0.613630 0.254513
O O11 0.625946 0.629315 0.090853
O O12 0.829367 0.500000 0.336734
O O13 0.818208 0.606306 0.225663
O O14 0.879219 0.643788 0.345549
O O15 0.142090 0.500000 0.916658
O O16 0.194429 0.365988 0.940602
O O17 0.000000 0.390476 0.000000
O O18 0.687571 0.136702 0.446419
O O19 0.763787 0.000000 0.354020
O O20 0.250000 0.250000 0.000000
#
# Coordination Sequence:
#
# PCOD9214925 Si02
#       8
#     8   8   8   8   8   8   8   8
#     4  12  25  40  62  98 137 176 218 270 339 402
#     4  11  23  41  69  95 127 177 228 276 329 397
#     4  11  24  44  68  93 134 179 223 277 328 396
#     4  11  23  40  67  97 128 176 227 270 328 397
#     4  10  22  43  69  97 129 169 223 278 325 384
#     4  10  22  40  65  99 132 173 225 271 329 399
#     4  12  23  42  65 101 138 173 217 282 343 391
#     4  12  26  46  64  97 133 172 221 275 339 402
#
# _framework density 20.286628
#
# number of rings (size 3 to 8) (size 9 to 14) (size 15 to 20)
#    0.000    0.875    1.250    6.375    0.000    5.500 
#    2.250    1.875    0.000    0.000    0.000    0.000 
#    0.000    0.000    0.000    0.000    0.000    0.000 
#
# Total GULP energy -179150.475369 kJ/mol
# GULP energy per Si atom -5598.452355 kJ/mol
# Density = 2.024046 g / cm^3
# Si number density = 20.286628 Si / 1000 Ang^3
#
#
#
# Elastic Constant Matrix: (Units=GPa)
#
#
# Indices 1 2 3 4 5 6 
#
# 1 103.2372 32.2731 12.1827 0.0000 1.8233 0.0000
# 2 32.2731 53.6585 21.9681 0.0000 -4.6851 0.0000
# 3 12.1827 21.9681 66.8400 0.0000 -13.2314 0.0000
# 4 0.0000 0.0000 0.0000 -181.0347 0.0000 85.6312
# 5 1.8233 -4.6851 -13.2314 0.0000 34.3102 0.0000
# 6 0.0000 0.0000 0.0000 85.6312 0.0000 -13.5549
#
#
#
# Elastic Compliance Matrix: (Units=1/GPa)
#
#
# Indices 1 2 3 4 5 6 
#
# 1 0.012021 -0.007330 -0.000115 0.000000 -0.001684 0.000000
# 2 -0.007330 0.026005 -0.006962 0.000000 0.001256 0.000000
# 3 -0.000115 -0.006962 0.018495 0.000000 0.006188 0.000000
# 4 0.000000 0.000000 0.000000 0.002778 0.000000 0.017552
# 5 -0.001684 0.001256 0.006188 0.000000 0.031793 0.000000
# 6 0.000000 0.000000 0.000000 0.017552 0.000000 0.037106
#
#
# Mechanical properties :
#
#
# Convention : Reuss Voigt Hill
#
# Bulk Modulus (GPa) = 36.09315 39.62039 37.85677
# Shear Modulus (GPa) = 30.07505 -21.56841 4.25332
#
# Velocity S-wave (km/s) = 3.85451 -3.26419 1.44954
# Velocity P-wave (km/s) = 6.13513 2.31649 4.63713
#
# Compressibility (1/GPa) = 0.02770609
#
# Stress axis : x y z
#
# Youngs Moduli (GPa) = 83.18606 38.45391 54.06747
#
# Poissons Ratio (x) = 0.28187 0.00624
# Poissons Ratio (y) = 0.60976 0.37644
# Poissons Ratio (z) = 0.00959 0.26773
#
# Static dielectric constant tensor:
#      x y z
#    x 1.726350 0.000000 0.001700 
#    y 0.000000 1.666970 0.000000 
#    z 0.001700 0.000000 1.688540 
# 
# From -- ./inp_files/216799.got.cif
#   From: 2010.05.17/outbox.cif.g08.bks.cpg/sg12_109_cif.got.tgz:216799.got - 2010.06.03 13:09:07.
