data_PCOD9214832
_publ_section_title
;
Structure prediction by ZEFSAII (Michael W. Deem and Ramdas Pophale) SiO2 
 PCOD9214832
Probable space group: C 2/M
;
_chemical_formula_sum "Si O2"
_cell_formula_units_Z 56
_cell_length_a 7.381440
_cell_length_b 25.123667
_cell_length_c 13.752051
_cell_angle_alpha 90.000000
_cell_angle_beta 85.204146
_cell_angle_gamma 90.000000
_cell_volume 2541.373081
_symmetry_space_group_name_H-M "C 2/M"
_symmetry_group_IT_number 12
_symmetry_cell_setting 'monoclinic'
loop_
_space_group_symop_operation_xyz
x,y,z
-x,y,-z
-x,-y,-z
x,-y,z
1/2+x,1/2+y,z
1/2-x,1/2+y,-z
1/2-x,1/2-y,-z
1/2+x,1/2-y,z
loop_
_atom_site_type_symbol
_atom_site_label
_atom_site_fract_x
_atom_site_fract_y
_atom_site_fract_z
Si Si1 0.000821 0.848529 0.385186
Si Si2 0.254246 0.942752 0.830518
Si Si3 0.303262 0.919301 0.032952
Si Si4 0.841304 0.333175 0.730995
Si Si5 0.313504 0.693826 0.954982
Si Si6 0.865539 0.058148 0.750027
Si Si7 0.759554 0.716980 0.258608
O O1 0.123896 0.894475 0.328221
O O2 0.111197 0.795346 0.348396
O O3 0.000000 0.854627 0.500000
O O4 0.791980 0.848353 0.354114
O O5 0.348184 0.886989 0.795632
O O6 0.073768 0.944146 0.775132
O O7 0.351003 0.000000 0.810521
O O8 0.191609 0.939531 0.945327
O O9 0.310512 0.856094 0.018145
O O10 0.241666 0.931587 0.144521
O O11 0.500000 0.941554 0.000000
O O12 0.731957 0.279791 0.768189
O O13 0.048351 0.310227 0.720932
O O14 0.319547 0.693982 0.838366
O O15 0.500000 0.681625 0.000000
O O16 0.250000 0.750000 0.000000
O O17 0.811973 0.000000 0.713079
#
# Coordination Sequence:
#
# PCOD9214832 Si02
#       7
#     8   8   8   8   8   8   8
#     4  11  26  47  71 101 136 179 235 302 364 413
#     4  10  22  40  64  96 137 187 230 274 339 414
#     4  12  23  37  59  97 139 183 228 277 340 416
#     4  11  24  44  73 100 144 181 234 291 351 425
#     4  12  24  38  62  96 141 185 227 275 336 417
#     4  10  22  43  67  93 132 181 233 287 343 416
#     4  12  23  45  69 103 139 185 233 285 349 420
#
# _framework density 22.035333000000001
#
# number of rings (size 3 to 8) (size 9 to 14) (size 15 to 20)
#    0.000    0.857    2.857    4.714    2.000    3.714 
#    0.000    0.000    0.000    0.000    0.000    5.000 
#    0.000    0.000    0.000    0.000    0.000    0.000 
#
# Total GULP energy -156113.403580 kJ/mol
# GULP energy per Si atom -5575.478699 kJ/mol
# Density = 2.198518 g / cm^3
# Si number density = 22.035333 Si / 1000 Ang^3
#
#
#
# Elastic Constant Matrix: (Units=GPa)
#
#
# Indices 1 2 3 4 5 6 
#
# 1 112.6033 26.3283 39.7115 0.0000 3.6783 0.0000
# 2 26.3283 172.6688 45.6910 0.0000 -8.3198 0.0000
# 3 39.7115 45.6910 128.9244 0.0000 17.9961 0.0000
# 4 0.0000 0.0000 0.0000 -27.3620 0.0000 5.3289
# 5 3.6783 -8.3198 17.9961 0.0000 25.3463 0.0000
# 6 0.0000 0.0000 0.0000 5.3289 0.0000 16.7933
#
#
#
# Elastic Compliance Matrix: (Units=1/GPa)
#
#
# Indices 1 2 3 4 5 6 
#
# 1 0.010062 -0.000757 -0.002878 0.000000 0.000335 0.000000
# 2 -0.000757 0.006859 -0.002805 0.000000 0.004353 0.000000
# 3 -0.002878 -0.002805 0.010775 0.000000 -0.008154 0.000000
# 4 0.000000 0.000000 0.000000 -0.034420 0.000000 0.010922
# 5 0.000335 0.004353 -0.008154 0.000000 0.046623 0.000000
# 6 0.000000 0.000000 0.000000 0.010922 0.000000 0.056082
#
#
# Mechanical properties :
#
#
# Convention : Reuss Voigt Hill
#
# Bulk Modulus (GPa) = 67.49315 70.85093 69.17204
# Shear Modulus (GPa) = 43.93718 23.11990 33.52854
#
# Velocity S-wave (km/s) = 4.47020 3.24268 3.90498
# Velocity P-wave (km/s) = 7.57229 6.80023 7.19662
#
# Compressibility (1/GPa) = 0.01481632
#
# Stress axis : x y z
#
# Youngs Moduli (GPa) = 99.38778 145.79627 92.80485
#
# Poissons Ratio (x) = 0.11030 0.26707
# Poissons Ratio (y) = 0.07519 0.26035
# Poissons Ratio (z) = 0.28602 0.40902
#
# Static dielectric constant tensor:
#      x y z
#    x 2.312280 0.000000 0.149260 
#    y 0.000000 1.954250 0.000000 
#    z 0.149260 0.000000 1.826330 
# 
# From -- ./inp_files/124240.got.cif
#   From: 2010.05.17/outbox.cif.g08.bks.cpg/sg12_63_cif.got.tgz:124240.got - 2010.06.03 13:09:07.
