data_PCOD9214081
_publ_section_title
;
Structure prediction by ZEFSAII (Michael W. Deem and Ramdas Pophale) SiO2 
 PCOD9214081
Probable space group: C 2/M
;
_chemical_formula_sum "Si O2"
_cell_formula_units_Z 50
_cell_length_a 24.411098
_cell_length_b 7.566058
_cell_length_c 12.317254
_cell_angle_alpha 90.000000
_cell_angle_beta 73.654423
_cell_angle_gamma 90.000000
_cell_volume 2182.995532
_symmetry_space_group_name_H-M "C 2/M"
_symmetry_group_IT_number 12
_symmetry_cell_setting 'monoclinic'
loop_
_space_group_symop_operation_xyz
x,y,z
-x,y,-z
-x,-y,-z
x,-y,z
1/2+x,1/2+y,z
1/2-x,1/2+y,-z
1/2-x,1/2-y,-z
1/2+x,1/2-y,z
loop_
_atom_site_type_symbol
_atom_site_label
_atom_site_fract_x
_atom_site_fract_y
_atom_site_fract_z
Si Si1 0.813302 0.298539 0.004649
Si Si2 0.459394 0.788162 0.167022
Si Si3 0.353893 0.783652 0.633666
Si Si4 0.727582 0.703277 0.750091
Si Si5 0.500000 0.500000 0.000000
Si Si6 0.355044 0.788415 0.386481
Si Si7 0.417976 0.215522 0.807303
O O1 0.819030 0.500000 0.969813
O O2 0.811942 0.286652 0.135489
O O3 0.750000 0.250000 0.000000
O O4 0.867007 0.214834 0.913145
O O5 0.409968 0.753533 0.281567
O O6 0.519888 0.730709 0.186687
O O7 0.459411 0.000000 0.141198
O O8 0.455997 0.658016 0.067569
O O9 0.291624 0.723817 0.710052
O O10 0.361831 0.724476 0.505643
O O11 0.401267 0.731133 0.694498
O O12 0.352819 0.000000 0.633051
O O13 0.732076 0.500000 0.780412
O O14 0.699228 0.716185 0.648235
O O15 0.347839 0.000000 0.394849
O O16 0.420532 0.000000 0.807267
#
# Coordination Sequence:
#
# PCOD9214081 Si02
#       7
#     8   8   8   8   2   8   8
#     4  11  21  36  58  86 121 156 199 251 307 371
#     4  10  24  43  66  97 126 167 211 257 318 377
#     4   9  18  37  62  89 121 164 209 256 309 374
#     4  11  22  36  59  88 124 164 208 256 311 368
#     4  12  26  44  68  88 136 164 210 260 310 374
#     4  10  22  39  62  90 123 161 210 256 309 375
#     4   9  19  38  62  88 122 161 206 256 312 373
#
# _framework density 22.904306999999999
#
# number of rings (size 3 to 8) (size 9 to 14) (size 15 to 20)
#    0.000    1.920    1.600    1.680    3.360    0.640 
#    1.440    4.000    1.760    0.960    0.000    0.000 
#    0.000    0.000    0.000    0.000    0.000    0.000 
#
# Total GULP energy -139456.280994 kJ/mol
# GULP energy per Si atom -5578.251240 kJ/mol
# Density = 2.285218 g / cm^3
# Si number density = 22.904307 Si / 1000 Ang^3
#
#
#
# Elastic Constant Matrix: (Units=GPa)
#
#
# Indices 1 2 3 4 5 6 
#
# 1 85.3346 1.9149 6.4894 0.0000 15.1019 0.0000
# 2 1.9149 64.4799 1.8586 0.0000 -9.4040 0.0000
# 3 6.4894 1.8586 70.4714 0.0000 15.4694 0.0000
# 4 0.0000 0.0000 0.0000 8.4596 0.0000 2.7230
# 5 15.1019 -9.4040 15.4694 0.0000 34.4937 0.0000
# 6 0.0000 0.0000 0.0000 2.7230 0.0000 7.2474
#
#
#
# Elastic Compliance Matrix: (Units=1/GPa)
#
#
# Indices 1 2 3 4 5 6 
#
# 1 0.012800 -0.001265 0.000178 0.000000 -0.006029 0.000000
# 2 -0.001265 0.016429 -0.001577 0.000000 0.005740 0.000000
# 3 0.000178 -0.001577 0.015891 0.000000 -0.007635 0.000000
# 4 0.000000 0.000000 0.000000 0.134472 0.000000 -0.050524
# 5 -0.006029 0.005740 -0.007635 0.000000 0.036619 0.000000
# 6 0.000000 0.000000 0.000000 -0.050524 0.000000 0.156963
#
#
# Mechanical properties :
#
#
# Convention : Reuss Voigt Hill
#
# Bulk Modulus (GPa) = 25.12956 26.75685 25.94321
# Shear Modulus (GPa) = 12.76275 24.04168 18.40221
#
# Velocity S-wave (km/s) = 2.36311 3.24336 2.83758
# Velocity P-wave (km/s) = 4.29431 5.07279 4.69970
#
# Compressibility (1/GPa) = 0.03979377
#
# Stress axis : x y z
#
# Youngs Moduli (GPa) = 78.12288 60.86864 62.92783
#
# Poissons Ratio (x) = 0.07697 -0.01120
# Poissons Ratio (y) = 0.09879 0.09922
# Poissons Ratio (z) = -0.01391 0.09598
#
# Static dielectric constant tensor:
#      x y z
#    x 1.883850 0.000000 0.005660 
#    y 0.000000 1.979160 0.000000 
#    z 0.005660 0.000000 1.882370 
# 
# From -- ./inp_files/179833.got.cif
#   From: 2010.05.17/outbox.cif.g08.bks.cpg/sg12_90_cif.got.tgz:179833.got - 2010.06.03 13:09:07.
