data_PCOD9214077
_publ_section_title
;
Structure prediction by ZEFSAII (Michael W. Deem and Ramdas Pophale) SiO2 
 PCOD9214077
Probable space group: C 2/M
;
_chemical_formula_sum "Si O2"
_cell_formula_units_Z 56
_cell_length_a 9.106366
_cell_length_b 14.734493
_cell_length_c 24.420501
_cell_angle_alpha 90.000000
_cell_angle_beta 59.521662
_cell_angle_gamma 90.000000
_cell_volume 2823.917031
_symmetry_space_group_name_H-M "C 2/M"
_symmetry_group_IT_number 12
_symmetry_cell_setting 'monoclinic'
loop_
_space_group_symop_operation_xyz
x,y,z
-x,y,-z
-x,-y,-z
x,-y,z
1/2+x,1/2+y,z
1/2-x,1/2+y,-z
1/2-x,1/2-y,-z
1/2+x,1/2-y,z
loop_
_atom_site_type_symbol
_atom_site_label
_atom_site_fract_x
_atom_site_fract_y
_atom_site_fract_z
Si Si1 0.484319 0.609520 0.068398
Si Si2 0.488385 0.605910 0.592420
Si Si3 0.810442 0.269784 0.163711
Si Si4 0.064555 0.245275 0.741617
Si Si5 0.567215 0.209699 0.343855
Si Si6 0.283786 0.894211 0.455470
Si Si7 0.669608 0.099246 0.933209
O O1 0.451614 0.500000 0.078157
O O2 0.350022 0.670056 0.129531
O O3 0.667913 0.629618 0.061705
O O4 0.500000 0.631627 0.000000
O O5 0.487137 0.500000 0.609472
O O6 0.447316 0.681583 0.644797
O O7 0.347882 0.615994 0.570588
O O8 0.671951 0.627328 0.530177
O O9 0.885076 0.284981 0.209430
O O10 0.614336 0.298402 0.208979
O O11 0.881893 0.335590 0.105362
O O12 0.232219 0.188459 0.692743
O O13 0.014570 0.309763 0.700106
O O14 0.451322 0.163440 0.411628
O O15 0.329974 0.000000 0.449676
O O16 0.716528 0.000000 0.902560
O O17 0.500000 0.092243 0.000000
#
# Coordination Sequence:
#
# PCOD9214077 Si02
#       7
#     8   8   8   8   8   8   8
#     4  10  22  39  62  90 117 146 186 236 291 343
#     4   9  18  34  59  88 114 145 188 236 290 347
#     4  11  21  42  58  82 115 157 188 242 276 333
#     4  10  24  36  58  82 114 152 204 230 272 334
#     4  11  19  40  56  82 115 155 186 240 282 333
#     4   9  18  34  59  88 114 145 188 236 290 347
#     4  10  22  39  62  90 117 146 186 236 291 343
#
# _framework density 19.83061
#
# number of rings (size 3 to 8) (size 9 to 14) (size 15 to 20)
#    0.000    2.000    2.857    1.714    2.000    1.143 
#    0.000    9.286    0.000    1.714    0.000    0.000 
#    0.000    0.000    0.000    0.000    0.000    0.000 
#
# Total GULP energy -155890.861205 kJ/mol
# GULP energy per Si atom -5567.530757 kJ/mol
# Density = 1.978547 g / cm^3
# Si number density = 19.830610 Si / 1000 Ang^3
#
#
#
# Elastic Constant Matrix: (Units=GPa)
#
#
# Indices 1 2 3 4 5 6 
#
# 1 64.0598 7.0417 9.4570 0.0000 -11.2907 0.0000
# 2 7.0417 48.1235 35.3667 0.0000 -2.2092 0.0000
# 3 9.4570 35.3667 74.7319 0.0000 -14.7344 0.0000
# 4 0.0000 0.0000 0.0000 -18.9192 0.0000 4.4562
# 5 -11.2907 -2.2092 -14.7344 0.0000 33.9350 0.0000
# 6 0.0000 0.0000 0.0000 4.4562 0.0000 -0.9424
#
#
#
# Elastic Compliance Matrix: (Units=1/GPa)
#
#
# Indices 1 2 3 4 5 6 
#
# 1 0.016814 -0.002201 -0.000012 0.000000 0.005446 0.000001
# 2 -0.002201 0.032909 -0.016424 0.000000 -0.005721 0.000001
# 3 -0.000012 -0.016424 0.022904 0.000000 0.008872 -0.000001
# 4 0.000000 0.000000 0.000000 0.464582 0.000000 2.196842
# 5 0.005446 -0.005721 0.008872 0.000000 0.034760 0.000000
# 6 0.000001 0.000001 -0.000001 2.196842 0.000000 9.326937
#
#
# Mechanical properties :
#
#
# Convention : Reuss Voigt Hill
#
# Bulk Modulus (GPa) = 28.28605 32.29402 30.29003
# Shear Modulus (GPa) = 0.50262 11.81800 6.16031
#
# Velocity S-wave (km/s) = 0.50399 2.44385 1.76443
# Velocity P-wave (km/s) = 3.82537 4.92783 4.41118
#
# Compressibility (1/GPa) = 0.03535312
#
# Stress axis : x y z
#
# Youngs Moduli (GPa) = 59.47421 30.38647 43.65972
#
# Poissons Ratio (x) = 0.06689 0.00054
# Poissons Ratio (y) = 0.13092 0.71706
# Poissons Ratio (z) = 0.00073 0.49906
#
# Static dielectric constant tensor:
#      x y z
#    x 1.766320 0.000000 0.016550 
#    y 0.000000 1.700160 0.000000 
#    z 0.016550 0.000000 1.724490 
# 
# From -- ./inp_files/332809.got.cif
#   From: 2010.05.17/outbox.cif.g08.bks.cpg/sg12_167_cif.got.tgz:332809.got - 2010.06.03 13:09:07.
