data_PCOD9214073
_publ_section_title
;
Structure prediction by ZEFSAII (Michael W. Deem and Ramdas Pophale) SiO2 
 PCOD9214073
Probable space group: C 2/M
;
_chemical_formula_sum "Si O2"
_cell_formula_units_Z 56
_cell_length_a 18.620881
_cell_length_b 9.010936
_cell_length_c 27.481172
_cell_angle_alpha 90.000000
_cell_angle_beta 142.071754
_cell_angle_gamma 90.000000
_cell_volume 2834.329371
_symmetry_space_group_name_H-M "C 2/M"
_symmetry_group_IT_number 12
_symmetry_cell_setting 'monoclinic'
loop_
_space_group_symop_operation_xyz
x,y,z
-x,y,-z
-x,-y,-z
x,-y,z
1/2+x,1/2+y,z
1/2-x,1/2+y,-z
1/2-x,1/2-y,-z
1/2+x,1/2-y,z
loop_
_atom_site_type_symbol
_atom_site_label
_atom_site_fract_x
_atom_site_fract_y
_atom_site_fract_z
Si Si1 0.491647 0.175296 0.264524
Si Si2 0.599197 0.677989 0.158293
Si Si3 0.684292 0.324217 0.306874
Si Si4 0.850167 0.322820 0.019758
Si Si5 0.890179 0.166974 0.476364
Si Si6 0.713994 0.323694 0.115587
Si Si7 0.123181 0.323972 0.434667
O O1 0.559587 0.271852 0.261275
O O2 0.353368 0.198135 0.192383
O O3 0.548385 0.211494 0.347063
O O4 0.512507 0.000000 0.265843
O O5 0.577127 0.500000 0.146989
O O6 0.684451 0.709733 0.249392
O O7 0.478267 0.763145 0.102030
O O8 0.654672 0.714829 0.135482
O O9 0.698434 0.500000 0.320920
O O10 0.782446 0.241155 0.390556
O O11 0.844036 0.500000 0.020791
O O12 0.750000 0.250000 0.000000
O O13 0.831916 0.269438 0.954433
O O14 0.928631 0.259799 0.543627
O O15 0.000000 0.159726 0.500000
O O16 0.855295 0.000000 0.472549
O O17 0.691858 0.500000 0.095006
O O18 0.134039 0.500000 0.443739
O O19 0.250000 0.250000 0.500000
#
# Coordination Sequence:
#
# PCOD9214073 Si02
#       7
#     8   8   8   8   8   8   8
#     4  10  22  39  62  89 123 162 204 253 308 368
#     4  10  23  42  65  94 128 163 202 249 306 367
#     4  11  23  39  63  91 121 161 208 257 306 366
#     4  12  25  42  66  95 126 163 207 251 301 362
#     4  11  25  42  60  86 123 165 208 258 314 368
#     4  10  22  42  66  93 127 165 201 249 307 363
#     4  11  22  38  63  91 122 161 208 258 309 367
#
# _framework density 19.757760000000001
#
# number of rings (size 3 to 8) (size 9 to 14) (size 15 to 20)
#    0.000    1.286    1.429    3.857    2.000    8.000 
#    0.000    0.000    0.000    0.000    0.000    0.000 
#    0.000    0.000    0.000    0.000    0.000    0.000 
#
# Total GULP energy -156569.253449 kJ/mol
# GULP energy per Si atom -5591.759052 kJ/mol
# Density = 1.971279 g / cm^3
# Si number density = 19.757760 Si / 1000 Ang^3
#
#
#
# Elastic Constant Matrix: (Units=GPa)
#
#
# Indices 1 2 3 4 5 6 
#
# 1 90.7739 34.5513 4.8152 0.0000 -15.2378 0.0000
# 2 34.5513 64.5378 37.2000 0.0000 -12.7877 0.0000
# 3 4.8152 37.2000 70.7135 0.0000 -15.7912 0.0000
# 4 0.0000 0.0000 0.0000 22.8474 0.0000 -4.8306
# 5 -15.2378 -12.7877 -15.7912 0.0000 37.4892 0.0000
# 6 0.0000 0.0000 0.0000 -4.8306 0.0000 24.9161
#
#
#
# Elastic Compliance Matrix: (Units=1/GPa)
#
#
# Indices 1 2 3 4 5 6 
#
# 1 0.015611 -0.010606 0.005658 0.000000 0.005111 0.000000
# 2 -0.010606 0.029740 -0.015035 0.000000 -0.000499 0.000000
# 3 0.005658 -0.015035 0.023218 0.000000 0.006951 0.000000
# 4 0.000000 0.000000 0.000000 0.045639 0.000000 0.008848
# 5 0.005111 -0.000499 0.006951 0.000000 0.031509 0.000000
# 6 0.000000 0.000000 0.000000 0.008848 0.000000 0.041850
#
#
# Mechanical properties :
#
#
# Convention : Reuss Voigt Hill
#
# Bulk Modulus (GPa) = 34.96130 42.12869 38.54500
# Shear Modulus (GPa) = 21.09099 27.01445 24.05272
#
# Velocity S-wave (km/s) = 3.27077 3.70169 3.49288
# Velocity P-wave (km/s) = 5.65662 6.29594 5.98482
#
# Compressibility (1/GPa) = 0.02860305
#
# Stress axis : x y z
#
# Youngs Moduli (GPa) = 64.05648 33.62470 43.07060
#
# Poissons Ratio (x) = 0.35663 -0.24369
# Poissons Ratio (y) = 0.67940 0.64755
# Poissons Ratio (z) = -0.36242 0.50553
#
# Static dielectric constant tensor:
#      x y z
#    x 1.770430 0.000000 -0.033830 
#    y 0.000000 1.672390 0.000000 
#    z -0.033830 0.000000 1.682110 
# 
# From -- ./inp_files/342206.got.cif
#   From: 2010.05.17/outbox.cif.g08.bks.cpg/sg12_172_cif.got.tgz:342206.got - 2010.06.03 13:09:07.
