data_PCOD9214841
_publ_section_title
;
Structure prediction by ZEFSAII (Michael W. Deem and Ramdas Pophale) SiO2 
 PCOD9214841
Probable space group: C 2/M
;
_chemical_formula_sum "Si O2"
_cell_formula_units_Z 56
_cell_length_a 9.582984
_cell_length_b 16.243404
_cell_length_c 29.993797
_cell_angle_alpha 90.000000
_cell_angle_beta 36.426273
_cell_angle_gamma 90.000000
_cell_volume 2772.302436
_symmetry_space_group_name_H-M "C 2/M"
_symmetry_group_IT_number 12
_symmetry_cell_setting 'monoclinic'
loop_
_space_group_symop_operation_xyz
x,y,z
-x,y,-z
-x,-y,-z
x,-y,z
1/2+x,1/2+y,z
1/2-x,1/2+y,-z
1/2-x,1/2-y,-z
1/2+x,1/2-y,z
loop_
_atom_site_type_symbol
_atom_site_label
_atom_site_fract_x
_atom_site_fract_y
_atom_site_fract_z
Si Si1 0.238380 0.162294 0.832402
Si Si2 0.392525 0.000000 0.906096
Si Si3 0.461128 0.912827 0.622191
Si Si4 0.860444 0.336360 0.338589
Si Si5 0.519672 0.500000 0.919771
Si Si6 0.085250 0.846843 0.662677
Si Si7 0.327196 0.341977 0.463569
Si Si8 0.925356 0.330211 0.173071
O O1 0.455585 0.132950 0.745231
O O2 0.129038 0.246036 0.839926
O O3 0.354261 0.181816 0.850602
O O4 0.064002 0.084898 0.881930
O O5 0.531826 0.086419 0.866313
O O6 0.219290 0.000000 0.907411
O O7 0.228927 0.000000 0.991541
O O8 0.514713 0.846104 0.645890
O O9 0.208811 0.909547 0.664071
O O10 0.644498 0.900074 0.535293
O O11 0.499875 0.000000 0.635259
O O12 0.832897 0.239577 0.337544
O O13 0.593306 0.366532 0.408601
O O14 0.177320 0.849655 0.588634
O O15 0.805727 0.847879 0.737553
O O16 0.250000 0.250000 0.500000
#
# Coordination Sequence:
#
# PCOD9214841 Si02
#       8
#     8   4   8   8   4   8   8   8
#     4  10  22  40  64  98 126 166 210 254 311 373
#     4   9  20  42  69  97 130 166 205 248 309 381
#     4  12  28  40  56  92 122 157 211 271 323 349
#     4  11  22  40  62  86 122 167 210 255 310 378
#     4   9  20  42  69  97 130 166 205 248 309 381
#     4  11  22  40  62  86 122 167 210 255 310 378
#     4  12  22  40  62  86 118 167 214 263 309 369
#     4  10  22  40  64  98 126 166 210 254 311 373
#
# _framework density 20.199816999999999
#
# number of rings (size 3 to 8) (size 9 to 14) (size 15 to 20)
#    0.000    1.286    4.286    0.857    8.000    2.857 
#    0.000    0.714    0.000    0.857    0.000    0.000 
#    0.000    0.000    0.000    0.000    0.000    0.000 
#
# Total GULP energy -156215.341818 kJ/mol
# GULP energy per Si atom -5579.119351 kJ/mol
# Density = 2.015384 g / cm^3
# Si number density = 20.199817 Si / 1000 Ang^3
#
#
#
# Elastic Constant Matrix: (Units=GPa)
#
#
# Indices 1 2 3 4 5 6 
#
# 1 67.9749 23.3164 14.8942 -0.0003 5.4750 0.0005
# 2 23.3164 105.8261 43.9885 0.0021 3.3553 0.0007
# 3 14.8942 43.9885 84.4966 0.0125 10.4685 0.0011
# 4 -0.0003 0.0021 0.0125 -2.8017 -0.0036 -5.0339
# 5 5.4750 3.3553 10.4685 -0.0036 16.5418 -0.0005
# 6 0.0005 0.0007 0.0011 -5.0339 -0.0005 10.7473
#
#
#
# Elastic Compliance Matrix: (Units=1/GPa)
#
#
# Indices 1 2 3 4 5 6 
#
# 1 0.016296 -0.003167 -0.000689 0.000000 -0.004315 -0.000001
# 2 -0.003167 0.012717 -0.006372 -0.000012 0.002501 -0.000006
# 3 -0.000689 -0.006372 0.016368 0.000045 -0.008838 0.000019
# 4 0.000000 -0.000012 0.000045 -0.193816 -0.000071 -0.090780
# 5 -0.004315 0.002501 -0.008838 -0.000071 0.066967 -0.000029
# 6 -0.000001 -0.000006 0.000019 -0.090780 -0.000029 0.050526
#
#
# Mechanical properties :
#
#
# Convention : Reuss Voigt Hill
#
# Bulk Modulus (GPa) = 40.12035 46.96618 43.54326
# Shear Modulus (GPa) = -2296.43087 16.63740 -1139.89673
#
# Velocity S-wave (km/s) = -33.75389 2.87303 -23.78099
# Velocity P-wave (km/s) = 38.71945 5.85722 27.06371
#
# Compressibility (1/GPa) = 0.02492501
#
# Stress axis : x y z
#
# Youngs Moduli (GPa) = 61.36369 78.63786 61.09364
#
# Poissons Ratio (x) = 0.24907 0.04210
# Poissons Ratio (y) = 0.19436 0.38927
# Poissons Ratio (z) = 0.04228 0.50106
#
# Static dielectric constant tensor:
#      x y z
#    x 1.715180 0.000000 -0.005720 
#    y 0.000000 1.686600 0.000000 
#    z -0.005720 0.000000 1.707390 
# 
# From -- ./inp_files/356706.got.cif
#   From: 2010.05.17/outbox.cif.g08.bks.cpg/sg12_179_cif.got.tgz:356706.got - 2010.06.03 13:09:07.
