data_PCOD9214552
_publ_section_title
;
Structure prediction by ZEFSAII (Michael W. Deem and Ramdas Pophale) SiO2 
 PCOD9214552
Probable space group: C 2/M
;
_chemical_formula_sum "Si O2"
_cell_formula_units_Z 64
_cell_length_a 20.818162
_cell_length_b 8.538163
_cell_length_c 18.991215
_cell_angle_alpha 90.000000
_cell_angle_beta 96.462636
_cell_angle_gamma 90.000000
_cell_volume 3354.216040
_symmetry_space_group_name_H-M "C 2/M"
_symmetry_group_IT_number 12
_symmetry_cell_setting 'monoclinic'
loop_
_space_group_symop_operation_xyz
x,y,z
-x,y,-z
-x,-y,-z
x,-y,z
1/2+x,1/2+y,z
1/2-x,1/2+y,-z
1/2-x,1/2-y,-z
1/2+x,1/2-y,z
loop_
_atom_site_type_symbol
_atom_site_label
_atom_site_fract_x
_atom_site_fract_y
_atom_site_fract_z
Si Si1 0.248596 0.812612 0.353317
Si Si2 0.435187 0.308810 0.030540
Si Si3 0.088730 0.809136 0.812843
Si Si4 0.006540 0.187513 0.668951
Si Si5 0.610407 0.810516 0.571265
Si Si6 0.263730 0.312090 0.200834
Si Si7 0.621808 0.812683 0.411024
Si Si8 0.799567 0.811873 0.947434
O O1 0.319259 0.763369 0.390276
O O2 0.241075 0.751402 0.273063
O O3 0.190759 0.750339 0.394288
O O4 0.246909 0.000000 0.353395
O O5 0.436157 0.500000 0.031792
O O6 0.429576 0.257055 0.110933
O O7 0.500000 0.255402 0.000000
O O8 0.371172 0.262561 0.980119
O O9 0.039394 0.758132 0.746043
O O10 0.161830 0.760568 0.803049
O O11 0.088649 0.000000 0.813023
O O12 0.054288 0.239701 0.612198
O O13 0.935795 0.254687 0.645888
O O14 0.002874 0.000000 0.669862
O O15 0.606461 0.762540 0.489246
O O16 0.605507 0.000000 0.574086
O O17 0.262718 0.500000 0.201562
O O18 0.221268 0.251781 0.130823
O O19 0.623863 0.000000 0.410517
O O20 0.797119 0.000000 0.946458
O O21 0.750000 0.750000 0.000000
#
# Coordination Sequence:
#
# PCOD9214552 Si02
#       8
#     8   8   8   8   8   8   8   8
#     4  11  23  40  62  90 118 152 204 254 298 359
#     4   9  18  34  57  85 116 151 193 238 288 345
#     4   9  18  34  56  84 116 154 195 241 294 353
#     4  11  22  37  61  89 119 158 206 251 296 358
#     4  10  22  40  62  87 118 156 201 251 303 363
#     4  11  21  38  61  87 121 157 196 245 303 363
#     4  11  24  41  59  85 124 162 194 244 312 365
#     4  11  21  35  59  90 118 153 199 247 296 350
#
# _framework density 19.080465
#
# number of rings (size 3 to 8) (size 9 to 14) (size 15 to 20)
#    0.000    1.625    2.500    2.625    0.000    4.000 
#    0.000    2.500    0.000    1.500    0.000    0.000 
#    0.000    0.000    0.000    0.000    0.000    0.000 
#
# Total GULP energy -178841.813613 kJ/mol
# GULP energy per Si atom -5588.806675 kJ/mol
# Density = 1.903704 g / cm^3
# Si number density = 19.080465 Si / 1000 Ang^3
#
#
#
# Elastic Constant Matrix: (Units=GPa)
#
#
# Indices 1 2 3 4 5 6 
#
# 1 71.3142 12.2482 -5.6531 0.0000 7.0643 0.0000
# 2 12.2482 30.2022 7.9628 0.0000 3.5563 0.0000
# 3 -5.6531 7.9628 75.2637 0.0000 16.9486 0.0000
# 4 0.0000 0.0000 0.0000 27.8250 0.0000 -0.7983
# 5 7.0643 3.5563 16.9486 0.0000 28.2300 0.0000
# 6 0.0000 0.0000 0.0000 -0.7983 0.0000 28.2063
#
#
#
# Elastic Compliance Matrix: (Units=1/GPa)
#
#
# Indices 1 2 3 4 5 6 
#
# 1 0.015895 -0.006658 0.003012 0.000000 -0.004947 0.000000
# 2 -0.006658 0.036997 -0.004325 0.000000 -0.000398 0.000000
# 3 0.003012 -0.004325 0.016209 0.000000 -0.009940 0.000000
# 4 0.000000 0.000000 0.000000 0.035968 0.000000 0.001018
# 5 -0.004947 -0.000398 -0.009940 0.000000 0.042679 0.000000
# 6 0.000000 0.000000 0.000000 0.001018 0.000000 0.035482
#
#
# Mechanical properties :
#
#
# Convention : Reuss Voigt Hill
#
# Bulk Modulus (GPa) = 18.81079 22.87733 20.84406
# Shear Modulus (GPa) = 23.05312 27.66706 25.36009
#
# Velocity S-wave (km/s) = 3.47970 3.81204 3.64965
# Velocity P-wave (km/s) = 5.10142 5.60281 5.35798
#
# Compressibility (1/GPa) = 0.05316097
#
# Stress axis : x y z
#
# Youngs Moduli (GPa) = 62.91391 27.02913 61.69454
#
# Poissons Ratio (x) = 0.17995 -0.18584
# Poissons Ratio (y) = 0.41885 0.26681
# Poissons Ratio (z) = -0.18952 0.11689
#
# Static dielectric constant tensor:
#      x y z
#    x 1.633080 0.000000 0.012820 
#    y 0.000000 1.656000 0.000000 
#    z 0.012820 0.000000 1.643070 
# 
# From -- ./inp_files/281304.got.cif
#   From: 2010.05.17/outbox.cif.g08.bks.cpg/sg12_141_cif.got.tgz:281304.got - 2010.06.03 13:09:07.
