data_PCOD9214374
_publ_section_title
;
Structure prediction by ZEFSAII (Michael W. Deem and Ramdas Pophale) SiO2 
 PCOD9214374
Probable space group: C 2/M
;
_chemical_formula_sum "Si O2"
_cell_formula_units_Z 42
_cell_length_a 13.638428
_cell_length_b 26.466782
_cell_length_c 5.473790
_cell_angle_alpha 90.000000
_cell_angle_beta 64.910895
_cell_angle_gamma 90.000000
_cell_volume 1789.425875
_symmetry_space_group_name_H-M "C 2/M"
_symmetry_group_IT_number 12
_symmetry_cell_setting 'monoclinic'
loop_
_space_group_symop_operation_xyz
x,y,z
-x,y,-z
-x,-y,-z
x,-y,z
1/2+x,1/2+y,z
1/2-x,1/2+y,-z
1/2-x,1/2-y,-z
1/2+x,1/2-y,z
loop_
_atom_site_type_symbol
_atom_site_label
_atom_site_fract_x
_atom_site_fract_y
_atom_site_fract_z
Si Si1 0.030995 0.603330 0.223848
Si Si2 0.191876 0.786306 0.251580
Si Si3 0.159828 0.056330 0.573593
Si Si4 0.412846 0.209962 0.291308
Si Si5 0.214027 0.111042 0.018652
Si Si6 0.500000 0.500000 0.000000
O O1 0.000000 0.573591 0.500000
O O2 0.961479 0.655360 0.306101
O O3 0.156449 0.617561 0.096889
O O4 0.000000 0.578429 0.000000
O O5 0.290777 0.800767 0.327671
O O6 0.106312 0.752628 0.486582
O O7 0.156333 0.836213 0.146094
O O8 0.250000 0.750000 0.000000
O O9 0.184278 0.074559 0.277126
O O10 0.209836 0.000000 0.564620
O O11 0.194399 0.091275 0.765002
O O12 0.035020 0.043635 0.763817
O O13 0.500000 0.229253 0.000000
#
# Coordination Sequence:
#
# PCOD9214374 Si02
#       6
#     8   8   8   8   8   2
#     4  11  21  38  65  97 134 191 238 268 349 410
#     4  11  24  39  65 100 145 187 250 283 336 412
#     4  10  25  47  78 103 136 173 229 299 371 427
#     4  10  22  40  59  90 141 201 226 286 342 400
#     4  12  23  42  75 106 135 187 239 289 347 435
#     4   8  24  54  80  98 144 170 220 294 400 418
#
# _framework density 23.471215999999998
#
# number of rings (size 3 to 8) (size 9 to 14) (size 15 to 20)
#    0.571    0.762    3.810    2.857    5.333    1.524 
#    1.714    1.905    0.000   11.429    0.000    0.000 
#    0.000    0.000    0.000    0.000    0.000    0.000 
#
# Total GULP energy -116941.001785 kJ/mol
# GULP energy per Si atom -5568.619133 kJ/mol
# Density = 2.341779 g / cm^3
# Si number density = 23.471216 Si / 1000 Ang^3
#
#
#
# Elastic Constant Matrix: (Units=GPa)
#
#
# Indices 1 2 3 4 5 6 
#
# 1 72.8598 3.6612 26.3671 0.0000 11.0288 0.0000
# 2 3.6612 80.2564 24.2145 0.0000 9.3703 0.0000
# 3 26.3671 24.2145 165.2734 0.0000 -1.7248 0.0000
# 4 0.0000 0.0000 0.0000 9.2355 0.0000 24.7040
# 5 11.0288 9.3703 -1.7248 0.0000 40.4332 0.0000
# 6 0.0000 0.0000 0.0000 24.7040 0.0000 -15.6876
#
#
#
# Elastic Compliance Matrix: (Units=1/GPa)
#
#
# Indices 1 2 3 4 5 6 
#
# 1 0.015295 0.000595 -0.002573 0.000000 -0.004420 0.000000
# 2 0.000595 0.013461 -0.002102 0.000000 -0.003371 0.000000
# 3 -0.002573 -0.002102 0.006785 0.000000 0.001479 0.000000
# 4 0.000000 0.000000 0.000000 0.020774 0.000000 0.032713
# 5 -0.004420 -0.003371 0.001479 0.000000 0.026782 0.000000
# 6 0.000000 0.000000 0.000000 0.032713 0.000000 -0.012230
#
#
# Mechanical properties :
#
#
# Convention : Reuss Voigt Hill
#
# Bulk Modulus (GPa) = 36.52451 47.43059 41.97755
# Shear Modulus (GPa) = 56.71834 24.40602 40.56218
#
# Velocity S-wave (km/s) = 4.92113 3.22813 4.16163
# Velocity P-wave (km/s) = 6.91991 5.84349 6.40436
#
# Compressibility (1/GPa) = 0.02737887
#
# Stress axis : x y z
#
# Youngs Moduli (GPa) = 65.37917 74.28958 147.39336
#
# Poissons Ratio (x) = -0.04418 0.37931
# Poissons Ratio (y) = -0.03888 0.30985
# Poissons Ratio (z) = 0.16825 0.15617
#
# Static dielectric constant tensor:
#      x y z
#    x 1.988820 0.000000 0.020480 
#    y 0.000000 1.891460 0.000000 
#    z 0.020480 0.000000 1.950910 
# 
# From -- ./inp_files/12053.got.cif
#   From: 2010.05.17/outbox.cif.g08.bks.cpg/sg12_7_cif.got.tgz:12053.got - 2010.06.03 13:09:07.
