data_PCOD9214457
_publ_section_title
;
Structure prediction by ZEFSAII (Michael W. Deem and Ramdas Pophale) SiO2 
 PCOD9214457
Probable space group: C 2/M
;
_chemical_formula_sum "Si O2"
_cell_formula_units_Z 64
_cell_length_a 32.304951
_cell_length_b 8.574603
_cell_length_c 16.282404
_cell_angle_alpha 90.000000
_cell_angle_beta 48.055535
_cell_angle_gamma 90.000000
_cell_volume 3354.700448
_symmetry_space_group_name_H-M "C 2/M"
_symmetry_group_IT_number 12
_symmetry_cell_setting 'monoclinic'
loop_
_space_group_symop_operation_xyz
x,y,z
-x,y,-z
-x,-y,-z
x,-y,z
1/2+x,1/2+y,z
1/2-x,1/2+y,-z
1/2-x,1/2-y,-z
1/2+x,1/2-y,z
loop_
_atom_site_type_symbol
_atom_site_label
_atom_site_fract_x
_atom_site_fract_y
_atom_site_fract_z
Si Si1 0.254181 0.681297 0.403723
Si Si2 0.925307 0.687720 0.364424
Si Si3 0.868366 0.679953 0.264954
Si Si4 0.833507 0.816359 0.605296
Si Si5 0.665285 0.314351 0.063093
Si Si6 0.218176 0.313289 0.159620
Si Si7 0.549817 0.186492 0.154575
Si Si8 0.940147 0.173567 0.038969
O O1 0.238848 0.500000 0.420267
O O2 0.250000 0.750000 0.500000
O O3 0.318531 0.710395 0.301806
O O4 0.214581 0.776183 0.396392
O O5 0.922641 0.500000 0.373832
O O6 0.895574 0.728627 0.316312
O O7 0.890052 0.757297 0.486429
O O8 0.990450 0.733514 0.273816
O O9 0.850058 0.500000 0.297777
O O10 0.911173 0.699236 0.134594
O O11 0.813559 0.734791 0.715602
O O12 0.837332 0.000000 0.614301
O O13 0.657099 0.500000 0.068495
O O14 0.689153 0.268425 0.120502
O O15 0.606431 0.231683 0.126222
O O16 0.715714 0.271048 0.932995
O O17 0.215246 0.500000 0.153226
O O18 0.547532 0.000000 0.146963
O O19 0.554434 0.269422 0.060748
O O20 0.913707 0.000000 0.076246
O O21 0.000000 0.158068 0.000000
#
# Coordination Sequence:
#
# PCOD9214457 Si02
#       8
#     8   8   8   8   8   8   8   8
#     4  12  24  39  58  84 120 160 206 253 302 361
#     4  10  22  40  61  85 121 165 208 254 305 360
#     4  11  22  38  58  81 116 161 207 256 306 358
#     4  12  25  40  63  92 123 162 206 254 306 363
#     4  10  22  42  68  97 126 155 195 248 307 366
#     4  10  22  43  69  94 125 160 196 245 305 367
#     4  11  23  40  63  90 122 163 208 252 305 367
#     4  11  23  37  56  84 121 162 206 254 303 357
#
# _framework density 19.077708999999999
#
# number of rings (size 3 to 8) (size 9 to 14) (size 15 to 20)
#    0.000    1.125    2.500    4.125    1.750    3.500 
#    0.000    0.625    0.000    3.750    0.000    0.000 
#    0.000    0.000    0.000    0.000    0.000    0.000 
#
# Total GULP energy -178667.699979 kJ/mol
# GULP energy per Si atom -5583.365624 kJ/mol
# Density = 1.903429 g / cm^3
# Si number density = 19.077709 Si / 1000 Ang^3
#
#
#
# Elastic Constant Matrix: (Units=GPa)
#
#
# Indices 1 2 3 4 5 6 
#
# 1 70.5130 4.0322 30.3326 0.0000 -15.5616 -0.0002
# 2 4.0322 51.6652 12.6587 0.0001 -7.9218 -0.0002
# 3 30.3326 12.6587 119.1582 0.0000 -7.1180 0.0000
# 4 0.0000 0.0001 0.0000 32.0103 0.0000 -1.4475
# 5 -15.5616 -7.9218 -7.1180 0.0000 28.7935 0.0000
# 6 -0.0002 -0.0002 0.0000 -1.4475 0.0000 35.2388
#
#
#
# Elastic Compliance Matrix: (Units=1/GPa)
#
#
# Indices 1 2 3 4 5 6 
#
# 1 0.017863 0.000981 -0.004119 0.000000 0.008906 0.000000
# 2 0.000981 0.020668 -0.002105 0.000000 0.005696 0.000000
# 3 -0.004119 -0.002105 0.009639 0.000000 -0.000423 0.000000
# 4 0.000000 0.000000 0.000000 0.031298 0.000000 0.001286
# 5 0.008906 0.005696 -0.000423 0.000000 0.041006 0.000000
# 6 0.000000 0.000000 0.000000 0.001286 0.000000 0.028431
#
#
# Mechanical properties :
#
#
# Convention : Reuss Voigt Hill
#
# Bulk Modulus (GPa) = 26.53730 37.26483 31.90107
# Shear Modulus (GPa) = 29.07765 32.16269 30.62017
#
# Velocity S-wave (km/s) = 3.90830 4.11040 4.01062
# Velocity P-wave (km/s) = 5.85719 6.48866 6.18100
#
# Compressibility (1/GPa) = 0.03768281
#
# Stress axis : x y z
#
# Youngs Moduli (GPa) = 55.98116 48.38402 103.74288
#
# Poissons Ratio (x) = -0.04745 0.42736
# Poissons Ratio (y) = -0.05490 0.21838
# Poissons Ratio (z) = 0.23061 0.10185
#
# Static dielectric constant tensor:
#      x y z
#    x 1.786380 0.000000 -0.655680 
#    y 0.000000 1.646180 0.000000 
#    z -0.655680 0.000000 4.459270 
# 
# From -- ./inp_files/249802.got.cif
#   From: 2010.05.17/outbox.cif.g08.bks.cpg/sg12_125_cif.got.tgz:249802.got - 2010.06.03 13:09:07.
