data_PCOD9214206
_publ_section_title
;
Structure prediction by ZEFSAII (Michael W. Deem and Ramdas Pophale) SiO2 
 PCOD9214206
Probable space group: C 2/M
;
_chemical_formula_sum "Si O2"
_cell_formula_units_Z 48
_cell_length_a 11.043006
_cell_length_b 14.478048
_cell_length_c 18.080305
_cell_angle_alpha 90.000000
_cell_angle_beta 131.217323
_cell_angle_gamma 90.000000
_cell_volume 2174.430245
_symmetry_space_group_name_H-M "C 2/M"
_symmetry_group_IT_number 12
_symmetry_cell_setting 'monoclinic'
loop_
_space_group_symop_operation_xyz
x,y,z
-x,y,-z
-x,-y,-z
x,-y,z
1/2+x,1/2+y,z
1/2-x,1/2+y,-z
1/2-x,1/2-y,-z
1/2+x,1/2-y,z
loop_
_atom_site_type_symbol
_atom_site_label
_atom_site_fract_x
_atom_site_fract_y
_atom_site_fract_z
Si Si1 0.598909 0.848021 0.230102
Si Si2 0.111456 0.692190 0.405474
Si Si3 0.645053 0.500000 0.325110
Si Si4 0.111455 0.192190 0.905475
Si Si5 0.901093 0.151978 0.269898
Si Si6 0.985087 0.000000 0.896625
Si Si7 0.514911 0.000000 0.603375
Si Si8 0.145050 0.500000 0.825110
O O1 0.649838 0.827051 0.334740
O O2 0.548388 0.755512 0.165939
O O3 0.750001 0.892082 0.250000
O O4 0.440754 0.911989 0.172122
O O5 0.250000 0.750000 0.500000
O O6 0.951614 0.755512 0.334059
O O7 0.080111 0.596318 0.434378
O O8 0.559248 0.588011 0.327878
O O9 0.586820 0.500000 0.216323
O O10 0.836948 0.500000 0.394382
O O11 0.149836 0.172949 0.834740
O O12 0.080109 0.096318 0.934378
O O13 0.250000 0.250000 0.000000
O O14 0.163054 0.000000 0.105618
O O15 0.586817 0.000000 0.716323
#
# Coordination Sequence:
#
# PCOD9214206 Si02
#       8
#     8   8   4   8   8   4   4   4
#     4  10  22  39  64  93 131 165 209 264 319 376
#     4  10  23  40  63  96 127 168 213 259 319 377
#     4   9  19  39  66  95 124 166 214 258 319 375
#     4  10  23  40  63  96 127 168 213 259 319 377
#     4  10  22  39  64  93 131 165 209 264 319 376
#     4   9  20  39  66  92 127 164 215 266 305 379
#     4   9  20  39  66  92 127 164 215 266 305 379
#     4   9  19  39  66  95 124 166 214 258 319 375
#
# _framework density 22.074749000000001
#
# number of rings (size 3 to 8) (size 9 to 14) (size 15 to 20)
#    0.000    2.333    0.000    0.500   14.000    2.667 
#    0.000    3.333    0.000    8.000    0.000    0.000 
#    0.000    0.000    0.000    0.000    0.000    0.000 
#
# Total GULP energy -134115.113709 kJ/mol
# GULP energy per Si atom -5588.129738 kJ/mol
# Density = 2.202451 g / cm^3
# Si number density = 22.074749 Si / 1000 Ang^3
#
#
#
# Elastic Constant Matrix: (Units=GPa)
#
#
# Indices 1 2 3 4 5 6 
#
# 1 130.4815 77.8200 56.2865 0.0000 35.0574 0.0000
# 2 77.8200 185.2618 72.4487 0.0000 12.9697 0.0000
# 3 56.2865 72.4487 118.2539 0.0000 7.7296 0.0000
# 4 0.0000 0.0000 0.0000 39.2578 0.0000 10.4047
# 5 35.0574 12.9697 7.7296 0.0000 25.2536 0.0000
# 6 0.0000 0.0000 0.0000 10.4047 0.0000 8.3483
#
#
#
# Elastic Compliance Matrix: (Units=1/GPa)
#
#
# Indices 1 2 3 4 5 6 
#
# 1 0.017834 -0.004247 -0.004501 0.000000 -0.021199 0.000000
# 2 -0.004247 0.008251 -0.003206 0.000000 0.002640 0.000000
# 3 -0.004501 -0.003206 0.012293 0.000000 0.004132 0.000000
# 4 0.000000 0.000000 0.000000 0.038037 0.000000 -0.047407
# 5 -0.021199 0.002640 0.004132 0.000000 0.066406 0.000000
# 6 0.000000 0.000000 0.000000 -0.047407 0.000000 0.178868
#
#
# Mechanical properties :
#
#
# Convention : Reuss Voigt Hill
#
# Bulk Modulus (GPa) = 69.11018 94.12306 81.61662
# Shear Modulus (GPa) = 14.26857 29.73473 22.00165
#
# Velocity S-wave (km/s) = 2.54515 3.67413 3.16046
# Velocity P-wave (km/s) = 6.32553 7.79294 7.09726
#
# Compressibility (1/GPa) = 0.01446965
#
# Stress axis : x y z
#
# Youngs Moduli (GPa) = 56.07206 121.20297 81.34869
#
# Poissons Ratio (x) = 0.51475 0.36616
# Poissons Ratio (y) = 0.23814 0.26079
# Poissons Ratio (z) = 0.25239 0.38855
#
# Static dielectric constant tensor:
#      x y z
#    x 1.774330 0.000000 -0.002470 
#    y 0.000000 1.851660 0.000000 
#    z -0.002470 0.000000 1.836550 
# 
# From -- ./inp_files/305731.got.cif
#   From: 2010.05.17/outbox.cif.g08.bks.cpg/sg12_153_cif.got.tgz:305731.got - 2010.06.03 13:09:07.
