data_PCOD9214278
_publ_section_title
;
Structure prediction by ZEFSAII (Michael W. Deem and Ramdas Pophale) SiO2 
 PCOD9214278
Probable space group: C 2/M
;
_chemical_formula_sum "Si O2"
_cell_formula_units_Z 42
_cell_length_a 8.307677
_cell_length_b 12.876217
_cell_length_c 16.856658
_cell_angle_alpha 90.000000
_cell_angle_beta 98.368420
_cell_angle_gamma 90.000000
_cell_volume 1783.982168
_symmetry_space_group_name_H-M "C 2/M"
_symmetry_group_IT_number 12
_symmetry_cell_setting 'monoclinic'
loop_
_space_group_symop_operation_xyz
x,y,z
-x,y,-z
-x,-y,-z
x,-y,z
1/2+x,1/2+y,z
1/2-x,1/2+y,-z
1/2-x,1/2-y,-z
1/2+x,1/2-y,z
loop_
_atom_site_type_symbol
_atom_site_label
_atom_site_fract_x
_atom_site_fract_y
_atom_site_fract_z
Si Si1 0.172480 0.375649 0.812317
Si Si2 0.106356 0.626518 0.081303
Si Si3 0.531553 0.617967 0.863048
Si Si4 0.088152 0.806208 0.694112
Si Si5 0.329044 0.187285 0.579102
Si Si6 0.000000 0.500000 0.500000
O O1 0.175353 0.500000 0.796362
O O2 0.345556 0.349373 0.867125
O O3 0.160354 0.301094 0.735922
O O4 0.007655 0.352267 0.850198
O O5 0.111137 0.500000 0.077525
O O6 0.294701 0.660593 0.094715
O O7 0.000000 0.664983 0.000000
O O8 0.532959 0.500000 0.890832
O O9 0.549381 0.626125 0.768593
O O10 0.207783 0.853844 0.638223
O O11 0.934683 0.772177 0.632649
O O12 0.250000 0.250000 0.500000
O O13 0.431052 0.091876 0.554002
#
# Coordination Sequence:
#
# PCOD9214278 Si02
#       6
#     8   8   8   8   8   2
#     4  10  22  39  66  98 133 180 232 287 357 421
#     4   9  19  38  64  96 135 181 233 290 352 423
#     4  10  22  40  63  98 133 176 234 286 352 418
#     4  12  23  44  69  94 140 174 227 299 343 422
#     4  12  26  47  70 104 139 183 232 292 359 440
#     4  12  28  48  74 102 148 184 236 284 380 438
#
# _framework density 23.542835
#
# number of rings (size 3 to 8) (size 9 to 14) (size 15 to 20)
#    0.000    1.333    3.810    1.143    2.667    0.762 
#    1.714    5.714    0.000    0.000    0.000    0.000 
#    0.000    0.000    0.000    0.000    0.000    0.000 
#
# Total GULP energy -117024.267576 kJ/mol
# GULP energy per Si atom -5572.584170 kJ/mol
# Density = 2.348925 g / cm^3
# Si number density = 23.542835 Si / 1000 Ang^3
#
#
#
# Elastic Constant Matrix: (Units=GPa)
#
#
# Indices 1 2 3 4 5 6 
#
# 1 83.5955 14.4042 10.0152 0.0000 22.7189 0.0000
# 2 14.4042 71.9489 0.6537 0.0000 -1.1248 0.0000
# 3 10.0152 0.6537 83.1337 0.0000 27.4602 0.0000
# 4 0.0000 0.0000 0.0000 20.6249 0.0000 -7.6716
# 5 22.7189 -1.1248 27.4602 0.0000 55.5388 0.0000
# 6 0.0000 0.0000 0.0000 -7.6716 0.0000 14.4802
#
#
#
# Elastic Compliance Matrix: (Units=1/GPa)
#
#
# Indices 1 2 3 4 5 6 
#
# 1 0.014045 -0.002908 0.000296 0.000000 -0.005951 0.000000
# 2 -0.002908 0.014509 -0.000303 0.000000 0.001633 0.000000
# 3 0.000296 -0.000303 0.014387 0.000000 -0.007241 0.000000
# 4 0.000000 0.000000 0.000000 0.060385 0.000000 0.031991
# 5 -0.005951 0.001633 -0.007241 0.000000 0.024053 0.000000
# 6 0.000000 0.000000 0.000000 0.031991 0.000000 0.086009
#
#
# Mechanical properties :
#
#
# Convention : Reuss Voigt Hill
#
# Bulk Modulus (GPa) = 26.94490 32.09160 29.51825
# Shear Modulus (GPa) = 21.59013 32.36911 26.97962
#
# Velocity S-wave (km/s) = 3.03158 3.71199 3.38891
# Velocity P-wave (km/s) = 4.87072 5.65973 5.27998
#
# Compressibility (1/GPa) = 0.03711278
#
# Stress axis : x y z
#
# Youngs Moduli (GPa) = 71.19923 68.92207 69.50587
#
# Poissons Ratio (x) = 0.20039 -0.02061
# Poissons Ratio (y) = 0.20702 0.02108
# Poissons Ratio (z) = -0.02111 0.02090
#
# Static dielectric constant tensor:
#      x y z
#    x 1.786380 0.000000 -0.092240 
#    y 0.000000 1.915490 0.000000 
#    z -0.092240 0.000000 1.854640 
# 
# From -- ./inp_files/255522.got.cif
#   From: 2010.05.17/outbox.cif.g08.bks.cpg/sg12_128_cif.got.tgz:255522.got - 2010.06.03 13:09:07.
