data_PCOD9214086
_publ_section_title
;
Structure prediction by ZEFSAII (Michael W. Deem and Ramdas Pophale) SiO2 
 PCOD9214086
Probable space group: C 2/M
;
_chemical_formula_sum "Si O2"
_cell_formula_units_Z 36
_cell_length_a 17.632871
_cell_length_b 17.381378
_cell_length_c 6.589796
_cell_angle_alpha 90.000000
_cell_angle_beta 120.685393
_cell_angle_gamma 90.000000
_cell_volume 1736.875820
_symmetry_space_group_name_H-M "C 2/M"
_symmetry_group_IT_number 12
_symmetry_cell_setting 'monoclinic'
loop_
_space_group_symop_operation_xyz
x,y,z
-x,y,-z
-x,-y,-z
x,-y,z
1/2+x,1/2+y,z
1/2-x,1/2+y,-z
1/2-x,1/2-y,-z
1/2+x,1/2-y,z
loop_
_atom_site_type_symbol
_atom_site_label
_atom_site_fract_x
_atom_site_fract_y
_atom_site_fract_z
Si Si1 0.547530 0.323703 0.866514
Si Si2 0.174531 0.590970 0.773102
Si Si3 0.797944 0.824714 0.641981
Si Si4 0.662690 0.409561 0.708276
Si Si5 0.000000 0.695262 0.500000
O O1 0.584393 0.382271 0.749917
O O2 0.497746 0.253251 0.690019
O O3 0.500000 0.358154 0.000000
O O4 0.637039 0.294942 0.094610
O O5 0.153731 0.500000 0.745056
O O6 0.231719 0.614565 0.654543
O O7 0.086731 0.642835 0.646943
O O8 0.242662 0.606179 0.052590
O O9 0.750000 0.750000 0.500000
O O10 0.842425 0.865094 0.509822
O O11 0.656572 0.500000 0.667227
#
# Coordination Sequence:
#
# PCOD9214086 Si02
#       5
#     8   8   8   8   4
#     4  11  23  38  59  89 120 156 201 245 295 353
#     4  10  22  39  62  91 121 157 198 243 298 355
#     4  11  21  38  63  88 119 159 202 245 291 351
#     4  10  22  41  63  88 120 157 199 247 298 352
#     4  12  23  40  61  88 126 158 196 246 297 354
#
# _framework density 20.726870999999999
#
# number of rings (size 3 to 8) (size 9 to 14) (size 15 to 20)
#    0.000    1.333    0.000    6.333    0.000    4.889 
#    0.000    3.889    0.000    6.667    0.000    0.000 
#    0.000    0.000    0.000    0.000    0.000    0.000 
#
# Total GULP energy -100514.451700 kJ/mol
# GULP energy per Si atom -5584.136206 kJ/mol
# Density = 2.067970 g / cm^3
# Si number density = 20.726871 Si / 1000 Ang^3
#
#
#
# Elastic Constant Matrix: (Units=GPa)
#
#
# Indices 1 2 3 4 5 6 
#
# 1 86.7306 38.5309 37.3357 0.0000 -7.7935 0.0000
# 2 38.5309 108.1587 68.9990 0.0000 5.3747 0.0000
# 3 37.3357 68.9990 124.6480 0.0000 2.0604 0.0000
# 4 0.0000 0.0000 0.0000 35.1170 0.0000 5.6000
# 5 -7.7935 5.3747 2.0604 0.0000 42.2206 0.0000
# 6 0.0000 0.0000 0.0000 5.6000 0.0000 36.0866
#
#
#
# Elastic Compliance Matrix: (Units=1/GPa)
#
#
# Indices 1 2 3 4 5 6 
#
# 1 0.014527 -0.003908 -0.002242 0.000000 0.003288 0.000000
# 2 -0.003908 0.015432 -0.007333 0.000000 -0.002328 0.000000
# 3 -0.002242 -0.007333 0.012755 0.000000 -0.000103 0.000000
# 4 0.000000 0.000000 0.000000 0.029199 0.000000 -0.004531
# 5 0.003288 -0.002328 -0.000103 0.000000 0.024594 0.000000
# 6 0.000000 0.000000 0.000000 -0.004531 0.000000 0.028414
#
#
# Mechanical properties :
#
#
# Convention : Reuss Voigt Hill
#
# Bulk Modulus (GPa) = 63.50510 67.69650 65.60080
# Shear Modulus (GPa) = 31.81948 34.32961 33.07455
#
# Velocity S-wave (km/s) = 3.92239 4.07416 3.99900
# Velocity P-wave (km/s) = 7.15675 7.40702 7.28296
#
# Compressibility (1/GPa) = 0.01574677
#
# Stress axis : x y z
#
# Youngs Moduli (GPa) = 68.83783 64.80155 78.39937
#
# Poissons Ratio (x) = 0.25325 0.17579
# Poissons Ratio (y) = 0.26902 0.57492
# Poissons Ratio (z) = 0.15435 0.47520
#
# Static dielectric constant tensor:
#      x y z
#    x 1.820470 0.000000 0.035160 
#    y 0.000000 1.673360 0.000000 
#    z 0.035160 0.000000 1.751400 
# 
# From -- ./inp_files/15940.got.cif
#   From: 2010.05.17/outbox.cif.g08.bks.cpg/sg12_8_cif.got.tgz:15940.got - 2010.06.03 13:09:07.
