data_PCOD9214772
_publ_section_title
;
Structure prediction by ZEFSAII (Michael W. Deem and Ramdas Pophale) SiO2 
 PCOD9214772
Probable space group: C 2/M
;
_chemical_formula_sum "Si O2"
_cell_formula_units_Z 40
_cell_length_a 25.005662
_cell_length_b 8.915343
_cell_length_c 19.201510
_cell_angle_alpha 90.000000
_cell_angle_beta 152.297720
_cell_angle_gamma 90.000000
_cell_volume 1989.986433
_symmetry_space_group_name_H-M "C 2/M"
_symmetry_group_IT_number 12
_symmetry_cell_setting 'monoclinic'
loop_
_space_group_symop_operation_xyz
x,y,z
-x,y,-z
-x,-y,-z
x,-y,z
1/2+x,1/2+y,z
1/2-x,1/2+y,-z
1/2-x,1/2-y,-z
1/2+x,1/2-y,z
loop_
_atom_site_type_symbol
_atom_site_label
_atom_site_fract_x
_atom_site_fract_y
_atom_site_fract_z
Si Si1 0.076780 0.676503 0.351593
Si Si2 0.162460 0.323978 0.844175
Si Si3 0.744563 0.821916 0.184668
Si Si4 0.763952 0.820359 0.680026
Si Si5 0.995737 0.821972 0.874381
O O1 0.086203 0.500000 0.342361
O O2 0.187247 0.718872 0.524577
O O3 0.965099 0.690861 0.272087
O O4 0.055950 0.776162 0.259934
O O5 0.189824 0.500000 0.869639
O O6 0.179315 0.247443 0.789141
O O7 0.250000 0.250000 0.000000
O O8 0.777345 0.761979 0.298521
O O9 0.749007 0.000000 0.186681
O O10 0.614057 0.765591 0.021136
O O11 0.896933 0.785895 0.816613
O O12 0.754142 0.000000 0.678695
O O13 0.018287 0.000000 0.903393
#
# Coordination Sequence:
#
# PCOD9214772 Si02
#       5
#     8   8   8   8   8
#     4  10  22  40  64  91 122 158 198 246 303 364
#     4  11  22  39  64  91 120 157 200 249 300 358
#     4  12  25  40  61  89 122 162 205 252 300 351
#     4  10  23  42  61  89 125 160 198 246 307 363
#     4  11  22  38  64  91 121 160 202 249 299 359
#
# _framework density 20.100639999999999
#
# number of rings (size 3 to 8) (size 9 to 14) (size 15 to 20)
#    0.000    1.200    2.000    4.200    0.000    6.400 
#    0.000    4.000    0.000    0.000    0.000    0.000 
#    0.000    0.000    0.000    0.000    0.000    0.000 
#
# Total GULP energy -111909.742950 kJ/mol
# GULP energy per Si atom -5595.487148 kJ/mol
# Density = 2.005489 g / cm^3
# Si number density = 20.100640 Si / 1000 Ang^3
#
#
#
# Elastic Constant Matrix: (Units=GPa)
#
#
# Indices 1 2 3 4 5 6 
#
# 1 66.3568 22.5575 -23.1152 0.0000 -13.7116 0.0000
# 2 22.5575 61.0327 -4.6932 0.0000 -3.2964 0.0000
# 3 -23.1152 -4.6932 37.9392 0.0000 -2.8399 0.0000
# 4 0.0000 0.0000 0.0000 29.7825 0.0000 -8.8679
# 5 -13.7116 -3.2964 -2.8399 0.0000 28.4908 0.0000
# 6 0.0000 0.0000 0.0000 -8.8679 0.0000 28.1932
#
#
#
# Elastic Compliance Matrix: (Units=1/GPa)
#
#
# Indices 1 2 3 4 5 6 
#
# 1 0.025897 -0.007645 0.015817 0.000000 0.013156 0.000000
# 2 -0.007645 0.018928 -0.002446 0.000000 -0.001733 0.000000
# 3 0.015817 -0.002446 0.036514 0.000000 0.010969 0.000000
# 4 0.000000 0.000000 0.000000 0.037046 0.000000 0.011653
# 5 0.013156 -0.001733 0.010969 0.000000 0.042323 0.000000
# 6 0.000000 0.000000 0.000000 0.011653 0.000000 0.039135
#
#
# Mechanical properties :
#
#
# Convention : Reuss Voigt Hill
#
# Bulk Modulus (GPa) = 10.77668 17.20299 13.98983
# Shear Modulus (GPa) = 22.79766 28.66526 25.73146
#
# Velocity S-wave (km/s) = 3.37141 3.78045 3.58177
# Velocity P-wave (km/s) = 4.53080 5.25669 4.90719
#
# Compressibility (1/GPa) = 0.09279294
#
# Stress axis : x y z
#
# Youngs Moduli (GPa) = 38.61429 52.83060 27.38708
#
# Poissons Ratio (x) = 0.40387 -0.43319
# Poissons Ratio (y) = 0.29519 0.06699
# Poissons Ratio (z) = -0.61078 0.12922
#
# Static dielectric constant tensor:
#      x y z
#    x 1.696500 0.000000 0.000360 
#    y 0.000000 1.670650 0.000000 
#    z 0.000360 0.000000 1.706160 
# 
# From -- ./inp_files/151698.got.cif
#   From: 2010.05.17/outbox.cif.g08.bks.cpg/sg12_76_cif.got.tgz:151698.got - 2010.06.03 13:09:07.
