data_PCOD9214509
_publ_section_title
;
Structure prediction by ZEFSAII (Michael W. Deem and Ramdas Pophale) SiO2 
 PCOD9214509
Probable space group: C 2/M
;
_chemical_formula_sum "Si O2"
_cell_formula_units_Z 56
_cell_length_a 8.528111
_cell_length_b 18.618433
_cell_length_c 18.658472
_cell_angle_alpha 90.000000
_cell_angle_beta 60.223119
_cell_angle_gamma 90.000000
_cell_volume 2571.430055
_symmetry_space_group_name_H-M "C 2/M"
_symmetry_group_IT_number 12
_symmetry_cell_setting 'monoclinic'
loop_
_space_group_symop_operation_xyz
x,y,z
-x,y,-z
-x,-y,-z
x,-y,z
1/2+x,1/2+y,z
1/2-x,1/2+y,-z
1/2-x,1/2-y,-z
1/2+x,1/2-y,z
loop_
_atom_site_type_symbol
_atom_site_label
_atom_site_fract_x
_atom_site_fract_y
_atom_site_fract_z
Si Si1 0.701943 0.417518 0.666525
Si Si2 0.707704 0.583404 0.035449
Si Si3 0.067815 0.416942 0.868583
Si Si4 0.585407 0.647549 0.551747
Si Si5 0.011713 0.694941 0.768852
Si Si6 0.899254 0.157926 0.172389
Si Si7 0.463484 0.808117 0.402007
O O1 0.760547 0.500000 0.647915
O O2 0.579264 0.397071 0.626213
O O3 0.608940 0.403288 0.764284
O O4 0.868314 0.361425 0.627813
O O5 0.656675 0.500000 0.037171
O O6 0.534243 0.633383 0.079728
O O7 0.804791 0.590509 0.091201
O O8 0.865034 0.599905 0.943055
O O9 0.072035 0.500000 0.844889
O O10 0.111811 0.363512 0.794828
O O11 0.500000 0.613539 0.500000
O O12 0.498878 0.726420 0.583114
O O13 0.794750 0.662869 0.485018
O O14 0.801654 0.673444 0.809526
O O15 0.033182 0.771001 0.802380
O O16 0.082238 0.696042 0.671838
#
# Coordination Sequence:
#
# PCOD9214509 Si02
#       7
#     8   8   8   8   8   8   8
#     4  11  24  42  63  92 128 164 206 263 320 371
#     4   9  19  39  63  87 124 167 204 253 318 377
#     4   9  20  39  63  91 123 163 208 256 314 376
#     4  11  22  38  66  90 121 162 210 250 309 375
#     4  11  23  37  61  89 122 161 208 261 309 374
#     4  11  23  39  61  90 124 164 211 258 315 377
#     4  10  22  40  61  89 122 166 206 252 312 380
#
# _framework density 21.777763
#
# number of rings (size 3 to 8) (size 9 to 14) (size 15 to 20)
#    0.000    1.714    1.429    4.286    2.000    6.571 
#    0.000    1.429    0.000    0.000    0.000    0.000 
#    0.000    0.000    0.000    0.000    0.000    0.000 
#
# Total GULP energy -156644.358570 kJ/mol
# GULP energy per Si atom -5594.441378 kJ/mol
# Density = 2.172820 g / cm^3
# Si number density = 21.777763 Si / 1000 Ang^3
#
#
#
# Elastic Constant Matrix: (Units=GPa)
#
#
# Indices 1 2 3 4 5 6 
#
# 1 52.5323 15.9245 15.8490 0.0000 8.1121 0.0000
# 2 15.9245 68.6782 29.8640 0.0000 7.4749 0.0000
# 3 15.8490 29.8640 60.2906 0.0000 9.1868 0.0000
# 4 0.0000 0.0000 0.0000 16.4147 0.0000 -3.2495
# 5 8.1121 7.4749 9.1868 0.0000 43.1264 0.0000
# 6 0.0000 0.0000 0.0000 -3.2495 0.0000 26.4943
#
#
#
# Elastic Compliance Matrix: (Units=1/GPa)
#
#
# Indices 1 2 3 4 5 6 
#
# 1 0.021510 -0.003075 -0.003716 0.000000 -0.002721 0.000000
# 2 -0.003075 0.019068 -0.008497 0.000000 -0.000917 0.000000
# 3 -0.003716 -0.008497 0.022161 0.000000 -0.002549 0.000000
# 4 0.000000 0.000000 0.000000 0.062437 0.000000 0.007658
# 5 -0.002721 -0.000917 -0.002549 0.000000 0.024401 0.000000
# 6 0.000000 0.000000 0.000000 0.007658 0.000000 0.038683
#
#
# Mechanical properties :
#
#
# Convention : Reuss Voigt Hill
#
# Bulk Modulus (GPa) = 31.09364 33.86402 32.47883
# Shear Modulus (GPa) = 21.78099 25.19798 23.48948
#
# Velocity S-wave (km/s) = 3.16594 3.40524 3.28777
# Velocity P-wave (km/s) = 5.26051 5.57175 5.41837
#
# Compressibility (1/GPa) = 0.03216092
#
# Stress axis : x y z
#
# Youngs Moduli (GPa) = 46.49085 52.44286 45.12512
#
# Poissons Ratio (x) = 0.16127 0.16771
# Poissons Ratio (y) = 0.14297 0.38344
# Poissons Ratio (z) = 0.17278 0.44562
#
# Static dielectric constant tensor:
#      x y z
#    x 1.822180 0.000000 -0.000850 
#    y 0.000000 1.742080 0.000000 
#    z -0.000850 0.000000 1.785500 
# 
# From -- ./inp_files/300660.got.cif
#   From: 2010.05.17/outbox.cif.g08.bks.cpg/sg12_151_cif.got.tgz:300660.got - 2010.06.03 13:09:07.
