data_PCOD9214168
_publ_section_title
;
Structure prediction by ZEFSAII (Michael W. Deem and Ramdas Pophale) SiO2 
 PCOD9214168
Probable space group: C 2/M
;
_chemical_formula_sum "Si O2"
_cell_formula_units_Z 50
_cell_length_a 27.368979
_cell_length_b 14.817713
_cell_length_c 17.545591
_cell_angle_alpha 90.000000
_cell_angle_beta 19.294741
_cell_angle_gamma 90.000000
_cell_volume 2351.171488
_symmetry_space_group_name_H-M "C 2/M"
_symmetry_group_IT_number 12
_symmetry_cell_setting 'monoclinic'
loop_
_space_group_symop_operation_xyz
x,y,z
-x,y,-z
-x,-y,-z
x,-y,z
1/2+x,1/2+y,z
1/2-x,1/2+y,-z
1/2-x,1/2-y,-z
1/2+x,1/2-y,z
loop_
_atom_site_type_symbol
_atom_site_label
_atom_site_fract_x
_atom_site_fract_y
_atom_site_fract_z
Si Si1 0.149010 0.733078 0.466540
Si Si2 0.745794 0.895840 0.794234
Si Si3 0.808969 0.256248 0.998639
Si Si4 0.000000 0.000000 0.000000
Si Si5 0.841568 0.603736 0.690351
Si Si6 0.948921 0.653827 0.163224
Si Si7 0.844984 0.841155 0.317098
O O1 0.188081 0.828418 0.368054
O O2 0.153218 0.654362 0.397466
O O3 0.256594 0.704520 0.376291
O O4 0.983337 0.734041 0.739915
O O5 0.799383 0.000000 0.716714
O O6 0.762703 0.839094 0.847852
O O7 0.570507 0.897247 0.033840
O O8 0.750000 0.250000 0.000000
O O9 0.768485 0.162560 0.097834
O O10 0.063427 0.077362 0.848941
O O11 0.799174 0.500000 0.743463
O O12 0.000000 0.607876 0.500000
O O13 0.955232 0.759985 0.176437
O O14 0.780008 0.631396 0.436738
O O15 0.000000 0.641339 0.000000
#
# Coordination Sequence:
#
# PCOD9214168 Si02
#       7
#     8   8   8   2   8   8   8
#     4  11  22  43  65  92 135 176 221 278 344 401
#     4  11  25  42  67 100 132 175 229 278 335 413
#     4  11  23  42  68  96 132 175 221 277 344 398
#     4  12  24  44  66 104 132 172 242 284 352 404
#     4  10  22  39  63  95 128 168 222 280 335 401
#     4  11  22  45  66  95 141 183 225 279 349 408
#     4  11  24  41  67 100 135 183 225 291 341 415
#
# _framework density 21.265993999999999
#
# number of rings (size 3 to 8) (size 9 to 14) (size 15 to 20)
#    0.000    1.120    5.600    0.000    2.240    2.240 
#    0.000    0.800    0.000    0.000    0.000    0.000 
#    0.000    0.000    0.000    0.000    0.000    0.000 
#
# Total GULP energy -139441.757134 kJ/mol
# GULP energy per Si atom -5577.670285 kJ/mol
# Density = 2.121759 g / cm^3
# Si number density = 21.265994 Si / 1000 Ang^3
#
#
#
# Elastic Constant Matrix: (Units=GPa)
#
#
# Indices 1 2 3 4 5 6 
#
# 1 103.6941 33.2569 10.7808 -0.0001 21.6304 0.0001
# 2 33.2569 176.0753 32.9991 0.0000 20.2261 0.0000
# 3 10.7808 32.9991 70.7808 -0.0002 36.4539 0.0001
# 4 -0.0001 0.0000 -0.0002 59.4163 0.0001 -11.6975
# 5 21.6304 20.2261 36.4539 0.0001 31.1525 -0.0001
# 6 0.0001 0.0000 0.0001 -11.6975 -0.0001 18.8855
#
#
#
# Elastic Compliance Matrix: (Units=1/GPa)
#
#
# Indices 1 2 3 4 5 6 
#
# 1 0.012894 -0.001939 0.007305 0.000000 -0.016243 0.000000
# 2 -0.001939 0.006547 -0.003174 0.000000 0.000809 0.000000
# 3 0.007305 -0.003174 0.040385 0.000000 -0.050269 0.000000
# 4 0.000000 0.000000 0.000000 0.019168 0.000000 0.011872
# 5 -0.016243 0.000809 -0.050269 0.000000 0.101676 0.000001
# 6 0.000000 0.000000 0.000000 0.011872 0.000001 0.060304
#
#
# Mechanical properties :
#
#
# Convention : Reuss Voigt Hill
#
# Bulk Modulus (GPa) = 15.57350 56.06932 35.82141
# Shear Modulus (GPa) = 19.38033 40.12510 29.75272
#
# Velocity S-wave (km/s) = 3.02210 4.34847 3.74448
# Velocity P-wave (km/s) = 4.41775 7.18576 5.96455
#
# Compressibility (1/GPa) = 0.06421165
#
# Stress axis : x y z
#
# Youngs Moduli (GPa) = 77.55406 152.73063 24.76170
#
# Poissons Ratio (x) = 0.29610 -0.18089
# Poissons Ratio (y) = 0.15036 0.07860
# Poissons Ratio (z) = -0.56656 0.48478
#
# Static dielectric constant tensor:
#      x y z
#    x 1.828600 0.000000 -0.009730 
#    y 0.000000 1.737310 0.000000 
#    z -0.009730 0.000000 1.781080 
# 
# From -- ./inp_files/296771.got.cif
#   From: 2010.05.17/outbox.cif.g08.bks.cpg/sg12_149_cif.got.tgz:296771.got - 2010.06.03 13:09:07.
