data_PCOD9214133
_publ_section_title
;
Structure prediction by ZEFSAII (Michael W. Deem and Ramdas Pophale) SiO2 
 PCOD9214133
Probable space group: C 2/M
;
_chemical_formula_sum "Si O2"
_cell_formula_units_Z 36
_cell_length_a 7.332742
_cell_length_b 14.732098
_cell_length_c 25.076341
_cell_angle_alpha 90.000000
_cell_angle_beta 35.261697
_cell_angle_gamma 90.000000
_cell_volume 1563.888110
_symmetry_space_group_name_H-M "C 2/M"
_symmetry_group_IT_number 12
_symmetry_cell_setting 'monoclinic'
loop_
_space_group_symop_operation_xyz
x,y,z
-x,y,-z
-x,-y,-z
x,-y,z
1/2+x,1/2+y,z
1/2-x,1/2+y,-z
1/2-x,1/2-y,-z
1/2+x,1/2-y,z
loop_
_atom_site_type_symbol
_atom_site_label
_atom_site_fract_x
_atom_site_fract_y
_atom_site_fract_z
Si Si1 0.138376 0.652273 0.737567
Si Si2 0.570635 0.000000 0.383505
Si Si3 0.183232 0.000000 0.873973
Si Si4 0.358645 0.646134 0.475641
Si Si5 0.486008 0.000000 0.921823
Si Si6 0.974130 0.137590 0.770317
O O1 0.371976 0.634319 0.632738
O O2 0.332246 0.628560 0.744443
O O3 0.832179 0.588400 0.810702
O O4 0.043091 0.757642 0.764094
O O5 0.434197 0.920761 0.456165
O O6 0.711472 0.921220 0.309229
O O7 0.322889 0.000000 0.901496
O O8 0.806651 0.000000 0.968214
O O9 0.500000 0.622711 0.500000
O O10 0.250000 0.750000 0.500000
O O11 0.713388 0.087937 0.869013
#
# Coordination Sequence:
#
# PCOD9214133 Si02
#       6
#     8   4   4   8   4   8
#     4  11  22  40  60  90 119 160 204 243 296 353
#     4  11  24  39  60  82 122 160 195 252 287 346
#     4   9  19  37  64  86 120 155 200 249 289 368
#     4  12  25  41  60  89 122 161 204 243 293 352
#     4   8  18  39  61  91 116 156 198 241 311 349
#     4  10  22  39  63  88 120 159 199 248 296 357
#
# _framework density 23.019549999999999
#
# number of rings (size 3 to 8) (size 9 to 14) (size 15 to 20)
#    0.000    1.556    2.222    3.000    0.000    1.778 
#    0.000    0.000    0.000    1.333    0.000    0.000 
#    0.000    0.000    0.000    0.000    0.000    0.000 
#
# Total GULP energy -100232.287619 kJ/mol
# GULP energy per Si atom -5568.460423 kJ/mol
# Density = 2.296716 g / cm^3
# Si number density = 23.019550 Si / 1000 Ang^3
#
#
#
# Elastic Constant Matrix: (Units=GPa)
#
#
# Indices 1 2 3 4 5 6 
#
# 1 50.8669 -28.3874 7.1814 0.0131 8.7600 0.3676
# 2 -28.3874 189.4352 93.0575 0.0030 -14.5552 0.0969
# 3 7.1814 93.0575 212.0639 0.0336 -15.5254 0.3149
# 4 0.0131 0.0030 0.0336 27.0206 -0.0227 -4.6191
# 5 8.7600 -14.5552 -15.5254 -0.0227 31.6509 -0.1828
# 6 0.3676 0.0969 0.3149 -4.6191 -0.1828 -221.9002
#
#
#
# Elastic Compliance Matrix: (Units=1/GPa)
#
#
# Indices 1 2 3 4 5 6 
#
# 1 0.023815 0.004740 -0.003329 -0.000006 -0.006044 0.000042
# 2 0.004740 0.007763 -0.003528 0.000003 0.000527 0.000006
# 3 -0.003329 -0.003528 0.006561 -0.000004 0.002517 0.000000
# 4 -0.000006 0.000003 -0.000004 0.036878 0.000023 -0.000768
# 5 -0.006044 0.000527 0.002517 0.000023 0.034745 -0.000035
# 6 0.000042 0.000006 0.000000 -0.000768 -0.000035 -0.004490
#
#
# Mechanical properties :
#
#
# Convention : Reuss Voigt Hill
#
# Bulk Modulus (GPa) = 29.49583 66.22989 47.86286
# Shear Modulus (GPa) = 41.38848 -7.27812 17.05518
#
# Velocity S-wave (km/s) = 4.24485 -1.78005 2.72490
# Velocity P-wave (km/s) = 6.07175 4.96073 5.54414
#
# Compressibility (1/GPa) = 0.03390310
#
# Stress axis : x y z
#
# Youngs Moduli (GPa) = 41.99082 128.81819 152.41858
#
# Poissons Ratio (x) = -0.61054 0.50737
# Poissons Ratio (y) = -0.19902 0.53779
# Poissons Ratio (z) = 0.13978 0.45452
#
# Static dielectric constant tensor:
#      x y z
#    x 2.014520 0.000020 -0.026970 
#    y 0.000020 1.869150 -0.000040 
#    z -0.026970 -0.000040 1.831960 
# 
# From -- ./inp_files/300099.got.cif
#   From: 2010.05.17/outbox.cif.g08.bks.cpg/sg12_151_cif.got.tgz:300099.got - 2010.06.03 13:09:07.
