data_PCOD9214824
_publ_section_title
;
Structure prediction by ZEFSAII (Michael W. Deem and Ramdas Pophale) SiO2 
 PCOD9214824
Probable space group: C 2/M
;
_chemical_formula_sum "Si O2"
_cell_formula_units_Z 56
_cell_length_a 18.659973
_cell_length_b 22.192204
_cell_length_c 8.642998
_cell_angle_alpha 90.000000
_cell_angle_beta 132.475505
_cell_angle_gamma 90.000000
_cell_volume 2639.835136
_symmetry_space_group_name_H-M "C 2/M"
_symmetry_group_IT_number 12
_symmetry_cell_setting 'monoclinic'
loop_
_space_group_symop_operation_xyz
x,y,z
-x,y,-z
-x,-y,-z
x,-y,z
1/2+x,1/2+y,z
1/2-x,1/2+y,-z
1/2-x,1/2-y,-z
1/2+x,1/2-y,z
loop_
_atom_site_type_symbol
_atom_site_label
_atom_site_fract_x
_atom_site_fract_y
_atom_site_fract_z
Si Si1 0.163619 0.380211 0.927293
Si Si2 0.467694 0.068057 0.774720
Si Si3 0.304923 0.431219 0.887250
Si Si4 0.211676 0.343545 0.529576
Si Si5 0.481871 0.429797 0.788521
Si Si6 0.818647 0.150661 0.386207
Si Si7 0.615818 0.231193 0.662195
O O1 0.056378 0.403265 0.808418
O O2 0.214318 0.418158 0.865956
O O3 0.156534 0.310302 0.860873
O O4 0.235730 0.386839 0.176985
O O5 0.372726 0.108531 0.628261
O O6 0.448638 0.000000 0.693293
O O7 0.500000 0.066351 0.000000
O O8 0.302959 0.500000 0.826597
O O9 0.293611 0.381775 0.738064
O O10 0.409079 0.422847 0.120881
O O11 0.259790 0.319509 0.443637
O O12 0.162131 0.297807 0.575583
O O13 0.452462 0.500000 0.731030
O O14 0.405399 0.387788 0.589008
O O15 0.500000 0.418804 0.000000
O O16 0.858048 0.198886 0.319403
O O17 0.500000 0.224859 0.500000
#
# Coordination Sequence:
#
# PCOD9214824 Si02
#       7
#     8   8   8   8   8   8   8
#     4  11  24  43  65  97 138 172 217 277 335 394
#     4  11  22  38  65 101 135 171 217 270 332 401
#     4  10  22  40  64  95 133 172 214 265 332 399
#     4  11  22  43  65  94 129 172 222 273 328 393
#     4  10  22  42  67 100 135 171 218 277 332 399
#     4  12  25  42  69  97 131 175 225 270 336 396
#     4  11  25  45  67  90 130 175 224 280 331 389
#
# _framework density 21.213448
#
# number of rings (size 3 to 8) (size 9 to 14) (size 15 to 20)
#    0.000    1.143    4.286    1.714    2.000    1.714 
#    0.000    4.286    0.000    0.000    0.000    0.000 
#    0.000    0.000    0.000    0.000    0.000    0.000 
#
# Total GULP energy -156367.227190 kJ/mol
# GULP energy per Si atom -5584.543828 kJ/mol
# Density = 2.116516 g / cm^3
# Si number density = 21.213448 Si / 1000 Ang^3
#
#
#
# Elastic Constant Matrix: (Units=GPa)
#
#
# Indices 1 2 3 4 5 6 
#
# 1 101.4911 24.7313 14.7177 0.0000 17.0104 0.0000
# 2 24.7313 81.1590 26.1633 0.0000 18.0063 0.0000
# 3 14.7177 26.1633 74.3599 0.0000 24.8196 0.0000
# 4 0.0000 0.0000 0.0000 12.5483 0.0000 8.5849
# 5 17.0104 18.0063 24.8196 0.0000 36.5150 0.0000
# 6 0.0000 0.0000 0.0000 8.5849 0.0000 21.7728
#
#
#
# Elastic Compliance Matrix: (Units=1/GPa)
#
#
# Indices 1 2 3 4 5 6 
#
# 1 0.011127 -0.002516 -0.000001 0.000000 -0.003942 0.000000
# 2 -0.002516 0.015081 -0.003515 0.000000 -0.003876 0.000000
# 3 -0.000001 -0.003515 0.018246 0.000000 -0.010668 0.000000
# 4 0.000000 0.000000 0.000000 0.109130 0.000000 -0.043029
# 5 -0.003942 -0.003876 -0.010668 0.000000 0.038385 0.000000
# 6 0.000000 0.000000 0.000000 -0.043029 0.000000 0.062895
#
#
# Mechanical properties :
#
#
# Convention : Reuss Voigt Hill
#
# Bulk Modulus (GPa) = 30.87334 43.13718 37.00526
# Shear Modulus (GPa) = 18.00348 26.92706 22.46527
#
# Velocity S-wave (km/s) = 2.91638 3.56664 3.25778
# Velocity P-wave (km/s) = 5.09172 6.11067 5.62431
#
# Compressibility (1/GPa) = 0.03239040
#
# Stress axis : x y z
#
# Youngs Moduli (GPa) = 89.87153 66.30849 54.80728
#
# Poissons Ratio (x) = 0.16681 0.00008
# Poissons Ratio (y) = 0.22608 0.19263
# Poissons Ratio (z) = 0.00013 0.23305
#
# Static dielectric constant tensor:
#      x y z
#    x 1.794650 0.000000 -0.025900 
#    y 0.000000 1.771770 0.000000 
#    z -0.025900 0.000000 1.752730 
# 
# From -- ./inp_files/79178.got.cif
#   From: 2010.05.17/outbox.cif.g08.bks.cpg/sg12_40_cif.got.tgz:79178.got - 2010.06.03 13:09:07.
