data_PCOD9214266
_publ_section_title
;
Structure prediction by ZEFSAII (Michael W. Deem and Ramdas Pophale) SiO2 
 PCOD9214266
Probable space group: C 2/M
;
_chemical_formula_sum "Si O2"
_cell_formula_units_Z 40
_cell_length_a 31.135751
_cell_length_b 10.729125
_cell_length_c 8.030445
_cell_angle_alpha 90.000000
_cell_angle_beta 137.444166
_cell_angle_gamma 90.000000
_cell_volume 1814.295463
_symmetry_space_group_name_H-M "C 2/M"
_symmetry_group_IT_number 12
_symmetry_cell_setting 'monoclinic'
loop_
_space_group_symop_operation_xyz
x,y,z
-x,y,-z
-x,-y,-z
x,-y,z
1/2+x,1/2+y,z
1/2-x,1/2+y,-z
1/2-x,1/2-y,-z
1/2+x,1/2-y,z
loop_
_atom_site_type_symbol
_atom_site_label
_atom_site_fract_x
_atom_site_fract_y
_atom_site_fract_z
Si Si1 0.186535 0.500000 0.308701
Si Si2 0.830548 0.000000 0.216914
Si Si3 0.576446 0.861772 0.849338
Si Si4 0.305301 0.000000 0.282236
Si Si5 0.935918 0.802540 0.880229
Si Si6 0.113444 0.723962 0.603452
Si Si7 0.674028 0.500000 0.417120
O O1 0.150755 0.384369 0.116883
O O2 0.170574 0.500000 0.458477
O O3 0.261784 0.500000 0.502665
O O4 0.867999 0.869079 0.311474
O O5 0.803966 0.000000 0.328744
O O6 0.770560 0.000000 0.926454
O O7 0.549807 0.769352 0.909722
O O8 0.574741 0.818633 0.654906
O O9 0.548584 0.000000 0.789354
O O10 0.329625 0.123661 0.255937
O O11 0.918608 0.719445 0.670005
O O12 0.874056 0.884973 0.740022
O O13 0.000000 0.868794 0.000000
#
# Coordination Sequence:
#
# PCOD9214266 Si02
#       7
#     4   4   8   4   8   8   4
#     4  10  22  39  66 104 125 166 219 267 329 404
#     4  10  24  37  61  98 129 176 211 257 332 402
#     4  10  22  42  65  98 128 165 216 270 330 390
#     4  12  20  40  66  96 138 171 203 277 330 397
#     4  11  25  44  66  94 129 175 225 268 317 388
#     4  11  22  43  64  94 134 171 219 267 330 385
#     4  10  23  44  65  93 133 173 212 270 333 388
#
# _framework density 22.047127
#
# number of rings (size 3 to 8) (size 9 to 14) (size 15 to 20)
#    0.600    0.800    3.000    2.100    2.800    3.600 
#    0.000    1.000    0.000    4.800    0.000    0.000 
#    0.000    0.000    0.000    0.000    0.000    0.000 
#
# Total GULP energy -111555.595100 kJ/mol
# GULP energy per Si atom -5577.779755 kJ/mol
# Density = 2.199695 g / cm^3
# Si number density = 22.047127 Si / 1000 Ang^3
#
#
#
# Elastic Constant Matrix: (Units=GPa)
#
#
# Indices 1 2 3 4 5 6 
#
# 1 118.5223 50.3629 26.3499 0.0000 -6.7664 0.0000
# 2 50.3629 74.2061 7.6626 0.0000 -14.1228 0.0000
# 3 26.3499 7.6626 79.9097 0.0000 -16.3424 0.0000
# 4 0.0000 0.0000 0.0000 -24.3941 0.0000 14.0106
# 5 -6.7664 -14.1228 -16.3424 0.0000 53.8227 0.0000
# 6 0.0000 0.0000 0.0000 14.0106 0.0000 22.7640
#
#
#
# Elastic Compliance Matrix: (Units=1/GPa)
#
#
# Indices 1 2 3 4 5 6 
#
# 1 0.012865 -0.008685 -0.003779 0.000000 -0.001809 0.000000
# 2 -0.008685 0.020078 0.001911 0.000000 0.004757 0.000000
# 3 -0.003779 0.001911 0.014482 0.000000 0.004424 0.000000
# 4 0.000000 0.000000 0.000000 -0.030287 0.000000 0.018641
# 5 -0.001809 0.004757 0.004424 0.000000 0.020943 0.000000
# 6 0.000000 0.000000 0.000000 0.018641 0.000000 0.032456
#
#
# Mechanical properties :
#
#
# Convention : Reuss Voigt Hill
#
# Bulk Modulus (GPa) = 37.99559 49.04320 43.51940
# Shear Modulus (GPa) = 49.79281 22.98936 36.39109
#
# Velocity S-wave (km/s) = 4.75749 3.23265 4.06717
# Velocity P-wave (km/s) = 6.88836 6.01883 6.46823
#
# Compressibility (1/GPa) = 0.02631884
#
# Stress axis : x y z
#
# Youngs Moduli (GPa) = 77.73217 49.80453 69.05267
#
# Poissons Ratio (x) = 0.43256 0.26097
# Poissons Ratio (y) = 0.67512 -0.13199
# Poissons Ratio (z) = 0.29377 -0.09520
#
# Static dielectric constant tensor:
#      x y z
#    x 1.762990 0.000000 0.051790 
#    y 0.000000 1.811660 0.000000 
#    z 0.051790 0.000000 1.855080 
# 
# From -- ./inp_files/102909.got.cif
#   From: 2010.05.17/outbox.cif.g08.bks.cpg/sg12_52_cif.got.tgz:102909.got - 2010.06.03 13:09:07.
