data_PCOD9214044
_publ_section_title
;
Structure prediction by ZEFSAII (Michael W. Deem and Ramdas Pophale) SiO2 
 PCOD9214044
Probable space group: C 2/M
;
_chemical_formula_sum "Si O2"
_cell_formula_units_Z 40
_cell_length_a 11.861981
_cell_length_b 29.493294
_cell_length_c 8.433795
_cell_angle_alpha 90.000000
_cell_angle_beta 143.542819
_cell_angle_gamma 90.000000
_cell_volume 1753.283630
_symmetry_space_group_name_H-M "C 2/M"
_symmetry_group_IT_number 12
_symmetry_cell_setting 'monoclinic'
loop_
_space_group_symop_operation_xyz
x,y,z
-x,y,-z
-x,-y,-z
x,-y,z
1/2+x,1/2+y,z
1/2-x,1/2+y,-z
1/2-x,1/2-y,-z
1/2+x,1/2-y,z
loop_
_atom_site_type_symbol
_atom_site_label
_atom_site_fract_x
_atom_site_fract_y
_atom_site_fract_z
Si Si1 0.532821 0.797678 0.717609
Si Si2 0.024628 0.794574 0.841717
Si Si3 0.053528 0.886584 0.734126
Si Si4 0.336739 0.553143 0.686145
Si Si5 0.506594 0.890755 0.820476
O O1 0.500000 0.811384 0.500000
O O2 0.445049 0.748620 0.656039
O O3 0.461825 0.837199 0.751553
O O4 0.759989 0.795611 0.980966
O O5 0.971767 0.846847 0.754084
O O6 0.000000 0.784631 0.000000
O O7 0.000000 0.869758 0.500000
O O8 0.941219 0.932450 0.642396
O O9 0.277631 0.895097 0.997630
O O10 0.299125 0.500000 0.659045
O O11 0.140209 0.580677 0.452064
O O12 0.500000 0.565585 0.000000
O O13 0.500000 0.903240 0.000000
#
# Coordination Sequence:
#
# PCOD9214044 Si02
#       5
#     8   8   8   8   8
#     4  10  23  38  61  97 133 178 228 270 326 400
#     4  10  22  39  61  93 137 180 222 273 327 394
#     4  11  23  42  70 102 137 177 229 279 334 407
#     4  11  27  48  71 100 133 175 227 284 350 409
#     4  11  24  44  69 100 138 180 222 282 340 402
#
# _framework density 22.814335
#
# number of rings (size 3 to 8) (size 9 to 14) (size 15 to 20)
#    0.000    1.400    2.000    1.800    8.400    2.400 
#    0.000    2.000    0.000    0.000    0.000    0.000 
#    0.000    0.000    0.000    0.000    0.000    0.000 
#
# Total GULP energy -111617.018664 kJ/mol
# GULP energy per Si atom -5580.850933 kJ/mol
# Density = 2.276241 g / cm^3
# Si number density = 22.814335 Si / 1000 Ang^3
#
#
#
# Elastic Constant Matrix: (Units=GPa)
#
#
# Indices 1 2 3 4 5 6 
#
# 1 57.2849 12.5908 18.3745 0.0000 16.6657 0.0000
# 2 12.5908 97.2163 50.3211 0.0000 7.9661 0.0000
# 3 18.3745 50.3211 110.6215 0.0000 26.5710 0.0000
# 4 0.0000 0.0000 0.0000 9.4288 0.0000 9.9965
# 5 16.6657 7.9661 26.5710 0.0000 57.0280 0.0000
# 6 0.0000 0.0000 0.0000 9.9965 0.0000 -11.7563
#
#
#
# Elastic Compliance Matrix: (Units=1/GPa)
#
#
# Indices 1 2 3 4 5 6 
#
# 1 0.019647 -0.001389 -0.001463 0.000000 -0.004866 0.000000
# 2 -0.001389 0.013613 -0.006309 0.000000 0.001444 0.000000
# 3 -0.001463 -0.006309 0.013330 0.000000 -0.004902 0.000000
# 4 0.000000 0.000000 0.000000 0.055776 0.000000 0.047427
# 5 -0.004866 0.001444 -0.004902 0.000000 0.021040 0.000000
# 6 0.000000 0.000000 0.000000 0.047427 0.000000 -0.044733
#
#
# Mechanical properties :
#
#
# Convention : Reuss Voigt Hill
#
# Bulk Modulus (GPa) = 35.37354 47.52173 41.44763
# Shear Modulus (GPa) = 46.98544 23.19586 35.09065
#
# Velocity S-wave (km/s) = 4.54306 3.19207 3.92611
# Velocity P-wave (km/s) = 6.56185 5.87033 6.22570
#
# Compressibility (1/GPa) = 0.02826972
#
# Stress axis : x y z
#
# Youngs Moduli (GPa) = 50.89922 73.45690 75.01803
#
# Poissons Ratio (x) = 0.10200 0.10975
# Poissons Ratio (y) = 0.07068 0.47327
# Poissons Ratio (z) = 0.07446 0.46342
#
# Static dielectric constant tensor:
#      x y z
#    x 1.934210 0.000000 0.113830 
#    y 0.000000 1.853890 0.000000 
#    z 0.113830 0.000000 2.078700 
# 
# From -- ./inp_files/54444.got.cif
#   From: 2010.05.17/outbox.cif.g08.bks.cpg/sg12_28_cif.got.tgz:54444.got - 2010.06.03 13:09:07.
