data_PCOD9214210
_publ_section_title
;
Structure prediction by ZEFSAII (Michael W. Deem and Ramdas Pophale) SiO2 
 PCOD9214210
Probable space group: C 2/M
;
_chemical_formula_sum "Si O2"
_cell_formula_units_Z 56
_cell_length_a 15.212654
_cell_length_b 19.113931
_cell_length_c 11.487961
_cell_angle_alpha 90.000000
_cell_angle_beta 124.453587
_cell_angle_gamma 90.000000
_cell_volume 2754.439565
_symmetry_space_group_name_H-M "C 2/M"
_symmetry_group_IT_number 12
_symmetry_cell_setting 'monoclinic'
loop_
_space_group_symop_operation_xyz
x,y,z
-x,y,-z
-x,-y,-z
x,-y,z
1/2+x,1/2+y,z
1/2-x,1/2+y,-z
1/2-x,1/2-y,-z
1/2+x,1/2-y,z
loop_
_atom_site_type_symbol
_atom_site_label
_atom_site_fract_x
_atom_site_fract_y
_atom_site_fract_z
Si Si1 0.552229 0.919118 0.165923
Si Si2 0.446787 0.421473 0.085997
Si Si3 0.036945 0.326065 0.712187
Si Si4 0.179961 0.675677 0.598279
Si Si5 0.340407 0.299802 0.119040
Si Si6 0.228349 0.166264 0.673528
Si Si7 0.649483 0.582081 0.404296
O O1 0.471942 0.886395 0.199452
O O2 0.658456 0.872301 0.248151
O O3 0.577048 0.000000 0.211093
O O4 0.500000 0.915344 0.000000
O O5 0.402386 0.500000 0.059721
O O6 0.362549 0.361796 0.047175
O O7 0.537945 0.413866 0.252724
O O8 0.500000 0.413233 0.000000
O O9 0.131987 0.337463 0.690825
O O10 0.058770 0.251311 0.787872
O O11 0.925091 0.323330 0.560878
O O12 0.232440 0.752678 0.637589
O O13 0.261333 0.618689 0.610128
O O14 0.311058 0.331134 0.223038
O O15 0.250000 0.250000 0.000000
O O16 0.152283 0.124224 0.527758
O O17 0.673549 0.500000 0.440909
#
# Coordination Sequence:
#
# PCOD9214210 Si02
#       7
#     8   8   8   8   8   8   8
#     4  11  24  41  60  90 131 173 213 260 324 390
#     4  10  25  45  67  95 133 175 218 271 334 400
#     4  10  22  40  62  94 127 166 215 270 328 383
#     4  10  22  39  64  95 129 164 211 272 327 384
#     4  11  25  42  66  97 130 172 225 269 329 391
#     4  11  23  40  64  96 128 169 217 270 325 388
#     4  11  23  41  68  98 129 174 218 272 336 396
#
# _framework density 20.330814
#
# number of rings (size 3 to 8) (size 9 to 14) (size 15 to 20)
#    0.000    1.429    1.429    2.571    6.000    4.000 
#    0.000    3.571    0.000    0.000    0.000    0.000 
#    0.000    0.000    0.000    0.000    0.000    0.000 
#
# Total GULP energy -156580.320677 kJ/mol
# GULP energy per Si atom -5592.154310 kJ/mol
# Density = 2.028454 g / cm^3
# Si number density = 20.330814 Si / 1000 Ang^3
#
#
#
# Elastic Constant Matrix: (Units=GPa)
#
#
# Indices 1 2 3 4 5 6 
#
# 1 59.7834 80.0983 24.1427 0.0000 -6.7047 0.0000
# 2 80.0983 159.1451 49.9293 0.0000 -16.1474 0.0000
# 3 24.1427 49.9293 79.3426 0.0000 -15.8121 0.0000
# 4 0.0000 0.0000 0.0000 22.3907 0.0000 0.3712
# 5 -6.7047 -16.1474 -15.8121 0.0000 22.0958 0.0000
# 6 0.0000 0.0000 0.0000 0.3712 0.0000 16.4713
#
#
#
# Elastic Compliance Matrix: (Units=1/GPa)
#
#
# Indices 1 2 3 4 5 6 
#
# 1 0.051627 -0.026404 0.000213 0.000000 -0.003477 0.000000
# 2 -0.026404 0.021459 -0.004597 0.000000 0.004381 0.000000
# 3 0.000213 -0.004597 0.017232 0.000000 0.009037 0.000000
# 4 0.000000 0.000000 0.000000 0.044678 0.000000 -0.001007
# 5 -0.003477 0.004381 0.009037 0.000000 0.053871 0.000000
# 6 0.000000 0.000000 0.000000 -0.001007 0.000000 0.060734
#
#
# Mechanical properties :
#
#
# Convention : Reuss Voigt Hill
#
# Bulk Modulus (GPa) = 34.78967 67.40129 51.09548
# Shear Modulus (GPa) = 15.58807 21.79827 18.69317
#
# Velocity S-wave (km/s) = 2.77198 3.27797 3.03553
# Velocity P-wave (km/s) = 5.23394 6.89572 6.12148
#
# Compressibility (1/GPa) = 0.02874416
#
# Stress axis : x y z
#
# Youngs Moduli (GPa) = 19.36973 46.59967 58.03022
#
# Poissons Ratio (x) = 1.23041 -0.01238
# Poissons Ratio (y) = 0.51143 0.26675
# Poissons Ratio (z) = -0.00413 0.21421
#
# Static dielectric constant tensor:
#      x y z
#    x 1.717480 0.000000 -0.001260 
#    y 0.000000 1.693830 0.000000 
#    z -0.001260 0.000000 1.744520 
# 
# From -- ./inp_files/146255.got.cif
#   From: 2010.05.17/outbox.cif.g08.bks.cpg/sg12_74_cif.got.tgz:146255.got - 2010.06.03 13:09:07.
