data_PCOD9214195
_publ_section_title
;
Structure prediction by ZEFSAII (Michael W. Deem and Ramdas Pophale) SiO2 
 PCOD9214195
Probable space group: C 2/M
;
_chemical_formula_sum "Si O2"
_cell_formula_units_Z 48
_cell_length_a 17.465024
_cell_length_b 15.170231
_cell_length_c 8.915782
_cell_angle_alpha 90.000000
_cell_angle_beta 100.937396
_cell_angle_gamma 90.000000
_cell_volume 2319.313033
_symmetry_space_group_name_H-M "C 2/M"
_symmetry_group_IT_number 12
_symmetry_cell_setting 'monoclinic'
loop_
_space_group_symop_operation_xyz
x,y,z
-x,y,-z
-x,-y,-z
x,-y,z
1/2+x,1/2+y,z
1/2-x,1/2+y,-z
1/2-x,1/2-y,-z
1/2+x,1/2-y,z
loop_
_atom_site_type_symbol
_atom_site_label
_atom_site_fract_x
_atom_site_fract_y
_atom_site_fract_z
Si Si1 0.912132 0.900569 0.153650
Si Si2 0.557260 0.100176 0.380182
Si Si3 0.880651 0.101583 0.492853
Si Si4 0.704191 0.312489 0.097242
Si Si5 0.051511 0.225820 0.230561
Si Si6 0.716902 0.896711 0.592968
O O1 0.888609 0.887107 0.318598
O O2 0.978592 0.829674 0.143714
O O3 0.942268 0.000000 0.147128
O O4 0.837809 0.886908 0.019204
O O5 0.500000 0.097690 0.500000
O O6 0.528644 0.174030 0.255721
O O7 0.640560 0.132155 0.475474
O O8 0.564785 0.000000 0.324158
O O9 0.927776 0.171764 0.608729
O O10 0.791583 0.110864 0.512935
O O11 0.905134 0.000000 0.538317
O O12 0.629874 0.273307 0.160007
O O13 0.762893 0.346960 0.246549
O O14 0.750000 0.250000 0.000000
O O15 0.705515 0.000000 0.624448
#
# Coordination Sequence:
#
# PCOD9214195 Si02
#       6
#     8   8   8   8   8   8
#     4  11  23  41  66  97 131 165 203 254 315 380
#     4  10  22  39  64  91 116 157 214 268 313 357
#     4   9  19  35  63  98 125 156 201 256 316 371
#     4  11  26  39  59  90 128 169 207 245 309 375
#     4  11  23  39  64  91 127 163 205 257 309 369
#     4   9  20  40  62  87 121 160 207 258 311 369
#
# _framework density 20.695782999999999
#
# number of rings (size 3 to 8) (size 9 to 14) (size 15 to 20)
#    0.000    1.833    0.000    3.000    7.000    5.333 
#    0.000    0.833    0.000    2.000    0.000    0.000 
#    0.000    0.000    0.000    0.000    0.000    0.000 
#
# Total GULP energy -134097.105454 kJ/mol
# GULP energy per Si atom -5587.379394 kJ/mol
# Density = 2.064868 g / cm^3
# Si number density = 20.695783 Si / 1000 Ang^3
#
#
#
# Elastic Constant Matrix: (Units=GPa)
#
#
# Indices 1 2 3 4 5 6 
#
# 1 50.4262 37.8623 13.7486 0.0000 1.0203 0.0000
# 2 37.8623 111.3375 51.1363 0.0000 -1.9609 0.0000
# 3 13.7486 51.1363 81.3842 0.0000 -20.0098 0.0000
# 4 0.0000 0.0000 0.0000 68.6887 0.0000 -0.3242
# 5 1.0203 -1.9609 -20.0098 0.0000 30.7135 0.0000
# 6 0.0000 0.0000 0.0000 -0.3242 0.0000 29.3350
#
#
#
# Elastic Compliance Matrix: (Units=1/GPa)
#
#
# Indices 1 2 3 4 5 6 
#
# 1 0.026801 -0.009817 0.001509 0.000000 -0.000534 0.000000
# 2 -0.009817 0.016957 -0.010300 0.000000 -0.005302 0.000000
# 3 0.001509 -0.010300 0.021826 0.000000 0.013512 0.000000
# 4 0.000000 0.000000 0.000000 0.014559 0.000000 0.000161
# 5 -0.000534 -0.005302 0.013512 0.000000 0.041041 0.000000
# 6 0.000000 0.000000 0.000000 0.000161 0.000000 0.034091
#
#
# Mechanical properties :
#
#
# Convention : Reuss Voigt Hill
#
# Bulk Modulus (GPa) = 35.24838 49.84915 42.54876
# Shear Modulus (GPa) = 24.75884 35.10750 29.93317
#
# Velocity S-wave (km/s) = 3.46254 4.12316 3.80721
# Velocity P-wave (km/s) = 5.74928 6.84150 6.31903
#
# Compressibility (1/GPa) = 0.02837010
#
# Stress axis : x y z
#
# Youngs Moduli (GPa) = 37.31184 58.97121 45.81587
#
# Poissons Ratio (x) = 0.57891 -0.06915
# Poissons Ratio (y) = 0.36628 0.47191
# Poissons Ratio (z) = -0.05632 0.60741
#
# Static dielectric constant tensor:
#      x y z
#    x 1.739370 0.000000 0.022360 
#    y 0.000000 1.753540 0.000000 
#    z 0.022360 0.000000 1.741880 
# 
# From -- ./inp_files/73589.got.cif
#   From: 2010.05.17/outbox.cif.g08.bks.cpg/sg12_37_cif.got.tgz:73589.got - 2010.06.03 13:09:07.
