data_PCOD9214730
_publ_section_title
;
Structure prediction by ZEFSAII (Michael W. Deem and Ramdas Pophale) SiO2 
 PCOD9214730
Probable space group: C 2/M
;
_chemical_formula_sum "Si O2"
_cell_formula_units_Z 64
_cell_length_a 8.761813
_cell_length_b 18.320160
_cell_length_c 30.704921
_cell_angle_alpha 90.000000
_cell_angle_beta 41.399756
_cell_angle_gamma 90.000000
_cell_volume 3259.383357
_symmetry_space_group_name_H-M "C 2/M"
_symmetry_group_IT_number 12
_symmetry_cell_setting 'monoclinic'
loop_
_space_group_symop_operation_xyz
x,y,z
-x,y,-z
-x,-y,-z
x,-y,z
1/2+x,1/2+y,z
1/2-x,1/2+y,-z
1/2-x,1/2-y,-z
1/2+x,1/2-y,z
loop_
_atom_site_type_symbol
_atom_site_label
_atom_site_fract_x
_atom_site_fract_y
_atom_site_fract_z
Si Si1 0.034903 0.585237 0.227222
Si Si2 0.163062 0.413639 0.634212
Si Si3 0.815218 0.693298 0.665665
Si Si4 0.991682 0.208048 0.450330
Si Si5 0.938477 0.293470 0.897512
Si Si6 0.946637 0.149315 0.085138
Si Si7 0.310494 0.690514 0.745758
Si Si8 0.910924 0.418479 0.969749
O O1 0.041915 0.500000 0.215931
O O2 0.977044 0.594607 0.290477
O O3 0.827010 0.623701 0.246084
O O4 0.272952 0.619846 0.159266
O O5 0.189350 0.500000 0.619432
O O6 0.409196 0.371394 0.585710
O O7 0.005093 0.369580 0.633204
O O8 0.552357 0.668211 0.715583
O O9 0.834156 0.749017 0.702489
O O10 0.858966 0.738093 0.611855
O O11 0.750000 0.250000 0.500000
O O12 0.000000 0.202379 0.500000
O O13 0.717486 0.321195 0.918098
O O14 0.004014 0.356376 0.917755
O O15 0.906167 0.217337 0.928589
O O16 0.144920 0.280887 0.819300
O O17 0.133658 0.090810 0.030128
O O18 0.973988 0.500000 0.941438
O O19 0.000000 0.409559 0.000000
#
# Coordination Sequence:
#
# PCOD9214730 Si02
#       8
#     8   8   8   8   8   8   8   8
#     4  10  22  40  63  94 130 169 210 264 328 381
#     4  11  24  42  65  97 135 170 215 273 326 377
#     4  12  21  41  66  96 130 169 220 259 317 386
#     4  12  23  41  68  97 126 173 218 257 309 389
#     4  11  23  37  62  94 121 158 216 263 316 370
#     4  11  22  40  63  90 124 165 209 262 320 386
#     4  11  21  37  66  93 128 170 215 269 312 383
#     4  11  25  43  61  85 123 167 210 262 322 385
#
# _framework density 19.635615000000001
#
# number of rings (size 3 to 8) (size 9 to 14) (size 15 to 20)
#    0.000    0.875    3.750    4.125    0.000    4.750 
#    0.000    1.250    0.000    0.750    0.000    0.000 
#    0.000    0.000    0.000    0.000    0.000    0.000 
#
# Total GULP energy -178497.625104 kJ/mol
# GULP energy per Si atom -5578.050784 kJ/mol
# Density = 1.959092 g / cm^3
# Si number density = 19.635615 Si / 1000 Ang^3
#
#
#
# Elastic Constant Matrix: (Units=GPa)
#
#
# Indices 1 2 3 4 5 6 
#
# 1 25.7419 19.5258 13.5716 -0.0042 -9.5284 0.0022
# 2 19.5258 120.3764 28.2471 0.0004 7.4066 0.0012
# 3 13.5716 28.2471 86.7183 -0.0002 0.4577 0.0051
# 4 -0.0042 0.0004 -0.0002 22.6474 0.0027 -1.5124
# 5 -9.5284 7.4066 0.4577 0.0027 35.7924 -0.0012
# 6 0.0022 0.0012 0.0051 -1.5124 -0.0012 25.9985
#
#
#
# Elastic Compliance Matrix: (Units=1/GPa)
#
#
# Indices 1 2 3 4 5 6 
#
# 1 0.054370 -0.008451 -0.005842 0.000008 0.016297 -0.000002
# 2 -0.008451 0.010429 -0.002051 -0.000001 -0.004382 0.000000
# 3 -0.005842 -0.002051 0.013121 -0.000001 -0.001299 -0.000002
# 4 0.000008 -0.000001 -0.000001 0.044327 -0.000001 0.002579
# 5 0.016297 -0.004382 -0.001299 -0.000001 0.033201 0.000001
# 6 -0.000002 0.000000 -0.000002 0.002579 0.000001 0.038614
#
#
# Mechanical properties :
#
#
# Convention : Reuss Voigt Hill
#
# Bulk Modulus (GPa) = 22.10878 39.50285 30.80582
# Shear Modulus (GPa) = 20.67581 28.32046 24.49814
#
# Velocity S-wave (km/s) = 3.24848 3.80188 3.53602
# Velocity P-wave (km/s) = 5.03529 6.27965 5.69158
#
# Compressibility (1/GPa) = 0.04523089
#
# Stress axis : x y z
#
# Youngs Moduli (GPa) = 18.39241 95.88604 76.21388
#
# Poissons Ratio (x) = 0.81034 0.44526
# Poissons Ratio (y) = 0.15544 0.15634
# Poissons Ratio (z) = 0.10745 0.19670
#
# Static dielectric constant tensor:
#      x y z
#    x 1.700170 0.000000 -0.014620 
#    y 0.000000 1.661090 0.000000 
#    z -0.014620 0.000000 1.747170 
# 
# From -- ./inp_files/372953.got.cif
#   From: 2010.05.17/outbox.cif.g08.bks.cpg/sg12_187_cif.got.tgz:372953.got - 2010.06.03 13:09:07.
