data_PCOD9214136
_publ_section_title
;
Structure prediction by ZEFSAII (Michael W. Deem and Ramdas Pophale) SiO2 
 PCOD9214136
Probable space group: C 2/M
;
_chemical_formula_sum "Si O2"
_cell_formula_units_Z 48
_cell_length_a 9.411079
_cell_length_b 19.569769
_cell_length_c 20.361836
_cell_angle_alpha 90.000000
_cell_angle_beta 139.945746
_cell_angle_gamma 90.000000
_cell_volume 2413.232547
_symmetry_space_group_name_H-M "C 2/M"
_symmetry_group_IT_number 12
_symmetry_cell_setting 'monoclinic'
loop_
_space_group_symop_operation_xyz
x,y,z
-x,y,-z
-x,-y,-z
x,-y,z
1/2+x,1/2+y,z
1/2-x,1/2+y,-z
1/2-x,1/2-y,-z
1/2+x,1/2-y,z
loop_
_atom_site_type_symbol
_atom_site_label
_atom_site_fract_x
_atom_site_fract_y
_atom_site_fract_z
Si Si1 0.380110 0.226686 0.224183
Si Si2 0.165539 0.078443 0.502489
Si Si3 0.257635 0.424320 0.935692
Si Si4 0.558918 0.798481 0.906525
Si Si5 0.872612 0.575760 0.256811
Si Si6 0.748263 0.801252 0.560409
O O1 0.453834 0.208636 0.176857
O O2 0.302528 0.156774 0.235477
O O3 0.580202 0.266646 0.329144
O O4 0.171234 0.276113 0.145554
O O5 0.402405 0.076916 0.622302
O O6 0.173780 0.126280 0.441945
O O7 0.000000 0.105711 0.500000
O O8 0.102023 0.000000 0.464525
O O9 0.297597 0.500000 0.975804
O O10 0.138493 0.375721 0.944392
O O11 0.117850 0.429733 0.818987
O O12 0.500000 0.396193 0.000000
O O13 0.750000 0.750000 0.000000
O O14 0.767007 0.500000 0.237722
O O15 0.500000 0.807414 0.500000
O O16 0.750000 0.750000 0.500000
#
# Coordination Sequence:
#
# PCOD9214136 Si02
#       6
#     8   8   8   8   8   8
#     4  11  23  36  61  89 118 159 198 246 307 363
#     4  10  22  39  63  89 119 160 206 258 311 366
#     4   9  18  34  59  88 114 149 197 250 296 348
#     4  11  22  39  60  88 121 153 196 251 304 361
#     4   9  18  34  57  83 113 147 197 246 292 351
#     4  12  24  39  60  87 125 163 205 254 304 370
#
# _framework density 19.890333999999999
#
# number of rings (size 3 to 8) (size 9 to 14) (size 15 to 20)
#    0.000    1.667    1.667    4.000    4.667    0.333 
#    0.000    0.000    0.000    4.000    0.000    0.000 
#    0.000    0.000    0.000    0.000    0.000    0.000 
#
# Total GULP energy -133626.953906 kJ/mol
# GULP energy per Si atom -5567.789746 kJ/mol
# Density = 1.984506 g / cm^3
# Si number density = 19.890334 Si / 1000 Ang^3
#
#
#
# Elastic Constant Matrix: (Units=GPa)
#
#
# Indices 1 2 3 4 5 6 
#
# 1 45.9554 19.5278 -13.9428 -0.0001 7.3921 0.0000
# 2 19.5278 110.6599 11.5465 -0.0003 7.6298 -0.0001
# 3 -13.9428 11.5465 65.2825 -0.0008 -9.8976 -0.0002
# 4 -0.0001 -0.0003 -0.0008 10.3408 -0.0003 2.7826
# 5 7.3921 7.6298 -9.8976 -0.0003 23.5947 -0.0001
# 6 0.0000 -0.0001 -0.0002 2.7826 -0.0001 29.2997
#
#
#
# Elastic Compliance Matrix: (Units=1/GPa)
#
#
# Indices 1 2 3 4 5 6 
#
# 1 0.026324 -0.004969 0.005868 0.000000 -0.004179 0.000000
# 2 -0.004969 0.010495 -0.003413 0.000000 -0.003269 0.000000
# 3 0.005868 -0.003413 0.018222 0.000002 0.006909 0.000000
# 4 0.000000 0.000000 0.000002 0.099241 0.000002 -0.009425
# 5 -0.004179 -0.003269 0.006909 0.000002 0.047647 0.000000
# 6 0.000000 0.000000 0.000000 -0.009425 0.000000 0.035025
#
#
# Mechanical properties :
#
#
# Convention : Reuss Voigt Hill
#
# Bulk Modulus (GPa) = 19.99526 28.46230 24.22878
# Shear Modulus (GPa) = 19.33071 26.29811 22.81441
#
# Velocity S-wave (km/s) = 3.12086 3.64009 3.39043
# Velocity P-wave (km/s) = 4.80218 5.65753 5.24731
#
# Compressibility (1/GPa) = 0.05001186
#
# Stress axis : x y z
#
# Youngs Moduli (GPa) = 37.98766 95.28204 54.87728
#
# Poissons Ratio (x) = 0.47350 -0.32200
# Poissons Ratio (y) = 0.18878 0.18731
# Poissons Ratio (z) = -0.22290 0.32522
#
# Static dielectric constant tensor:
#      x y z
#    x 1.679610 0.000000 0.005840 
#    y 0.000000 1.854410 0.000000 
#    z 0.005840 0.000000 1.684560 
# 
# From -- ./inp_files/247132.got.cif
#   From: 2010.05.17/outbox.cif.g08.bks.cpg/sg12_124_cif.got.tgz:247132.got - 2010.06.03 13:09:07.
