data_PCOD9214361
_publ_section_title
;
Structure prediction by ZEFSAII (Michael W. Deem and Ramdas Pophale) SiO2 
 PCOD9214361
Probable space group: C 2/M
;
_chemical_formula_sum "Si O2"
_cell_formula_units_Z 44
_cell_length_a 9.452387
_cell_length_b 29.137388
_cell_length_c 8.975787
_cell_angle_alpha 90.000000
_cell_angle_beta 73.896891
_cell_angle_gamma 90.000000
_cell_volume 2375.097368
_symmetry_space_group_name_H-M "C 2/M"
_symmetry_group_IT_number 12
_symmetry_cell_setting 'monoclinic'
loop_
_space_group_symop_operation_xyz
x,y,z
-x,y,-z
-x,-y,-z
x,-y,z
1/2+x,1/2+y,z
1/2-x,1/2+y,-z
1/2-x,1/2-y,-z
1/2+x,1/2-y,z
loop_
_atom_site_type_symbol
_atom_site_label
_atom_site_fract_x
_atom_site_fract_y
_atom_site_fract_z
Si Si1 0.000000 0.624271 0.000000
Si Si2 0.513355 0.713057 0.821321
Si Si3 0.964517 0.551176 0.762080
Si Si4 0.647009 0.650724 0.548626
Si Si5 0.240989 0.551073 0.469242
Si Si6 0.197148 0.694400 0.763471
O O1 0.123937 0.656520 0.891584
O O2 0.940713 0.590820 0.887929
O O3 0.622403 0.676782 0.710272
O O4 0.352161 0.710301 0.791614
O O5 0.586879 0.762923 0.781714
O O6 0.500000 0.703481 0.000000
O O7 0.949728 0.500000 0.832103
O O8 0.854190 0.553627 0.654594
O O9 0.126190 0.554730 0.640019
O O10 0.500000 0.660601 0.500000
O O11 0.661316 0.596225 0.558836
O O12 0.773884 0.672053 0.407392
O O13 0.309618 0.500000 0.455340
#
# Coordination Sequence:
#
# PCOD9214361 Si02
#       6
#     4   8   8   8   8   8
#     4  12  21  34  62  88 122 144 199 232 296 338
#     4  11  24  41  60  82 119 150 200 241 289 338
#     4   9  19  34  56  86 118 150 186 236 285 341
#     4  10  22  40  59  84 115 154 195 232 288 349
#     4   9  18  36  58  84 115 150 191 233 287 341
#     4  11  24  40  58  88 115 158 189 242 290 348
#
# _framework density 18.525556999999999
#
# number of rings (size 3 to 8) (size 9 to 14) (size 15 to 20)
#    0.000    1.818    2.727    2.455    2.545    0.364 
#    0.000    0.000    0.000    0.545    0.000    0.000 
#    0.000    0.000    0.000    0.000    0.000    0.000 
#
# Total GULP energy -122727.345069 kJ/mol
# GULP energy per Si atom -5578.515685 kJ/mol
# Density = 1.848339 g / cm^3
# Si number density = 18.525557 Si / 1000 Ang^3
#
#
#
# Elastic Constant Matrix: (Units=GPa)
#
#
# Indices 1 2 3 4 5 6 
#
# 1 35.8180 29.8888 21.5467 0.0000 -8.6115 0.0000
# 2 29.8888 156.0871 90.7621 0.0000 -9.2006 0.0000
# 3 21.5467 90.7621 121.5955 0.0000 -13.5491 0.0000
# 4 0.0000 0.0000 0.0000 40.3573 0.0000 -1.4561
# 5 -8.6115 -9.2006 -13.5491 0.0000 15.1456 0.0000
# 6 0.0000 0.0000 0.0000 -1.4561 0.0000 8.2525
#
#
#
# Elastic Compliance Matrix: (Units=1/GPa)
#
#
# Indices 1 2 3 4 5 6 
#
# 1 0.037202 -0.005993 -0.000186 0.000000 0.017345 0.000000
# 2 -0.005993 0.012293 -0.008510 0.000000 -0.003553 0.000000
# 3 -0.000186 -0.008510 0.015574 0.000000 0.008657 0.000000
# 4 0.000000 0.000000 0.000000 0.024937 0.000000 0.004400
# 5 0.017345 -0.003553 0.008657 0.000000 0.081474 0.000000
# 6 0.000000 0.000000 0.000000 0.004400 0.000000 0.121952
#
#
# Mechanical properties :
#
#
# Convention : Reuss Voigt Hill
#
# Bulk Modulus (GPa) = 28.01837 66.43284 47.22561
# Shear Modulus (GPa) = 14.93841 24.17127 19.55484
#
# Velocity S-wave (km/s) = 2.84274 3.61605 3.25246
# Velocity P-wave (km/s) = 5.09234 7.30564 6.29700
#
# Compressibility (1/GPa) = 0.03569087
#
# Stress axis : x y z
#
# Youngs Moduli (GPa) = 26.88015 81.34540 64.21149
#
# Poissons Ratio (x) = 0.48752 0.01194
# Poissons Ratio (y) = 0.16110 0.54643
# Poissons Ratio (z) = 0.00500 0.69224
#
# Static dielectric constant tensor:
#      x y z
#    x 1.629810 0.000000 -0.008080 
#    y 0.000000 1.635170 0.000000 
#    z -0.008080 0.000000 1.648620 
# 
# From -- ./inp_files/51189.got.cif
#   From: 2010.05.17/outbox.cif.g08.bks.cpg/sg12_26_cif.got.tgz:51189.got - 2010.06.03 13:09:07.
