data_PCOD9214064
_publ_section_title
;
Structure prediction by ZEFSAII (Michael W. Deem and Ramdas Pophale) SiO2 
 PCOD9214064
Probable space group: C 2/M
;
_chemical_formula_sum "Si O2"
_cell_formula_units_Z 60
_cell_length_a 26.484204
_cell_length_b 12.603932
_cell_length_c 11.133941
_cell_angle_alpha 90.000000
_cell_angle_beta 127.566313
_cell_angle_gamma 90.000000
_cell_volume 2945.929786
_symmetry_space_group_name_H-M "C 2/M"
_symmetry_group_IT_number 12
_symmetry_cell_setting 'monoclinic'
loop_
_space_group_symop_operation_xyz
x,y,z
-x,y,-z
-x,-y,-z
x,-y,z
1/2+x,1/2+y,z
1/2-x,1/2+y,-z
1/2-x,1/2-y,-z
1/2+x,1/2-y,z
loop_
_atom_site_type_symbol
_atom_site_label
_atom_site_fract_x
_atom_site_fract_y
_atom_site_fract_z
Si Si1 0.427848 0.124444 0.257710
Si Si2 0.254083 0.324368 0.321096
Si Si3 0.081320 0.000000 0.768874
Si Si4 0.138101 0.814220 0.716483
Si Si5 0.295883 0.388019 0.641162
Si Si6 0.975597 0.188961 0.634824
Si Si7 0.891339 0.384626 0.925203
Si Si8 0.436495 0.319487 0.851350
O O1 0.376163 0.196030 0.254385
O O2 0.490965 0.199223 0.351456
O O3 0.434589 0.000000 0.304454
O O4 0.407880 0.124282 0.089058
O O5 0.298445 0.325165 0.269607
O O6 0.287076 0.376510 0.485142
O O7 0.240364 0.205076 0.344726
O O8 0.184677 0.373562 0.199545
O O9 0.132793 0.095337 0.809510
O O10 0.026927 0.094282 0.710716
O O11 0.079134 0.838358 0.539924
O O12 0.269472 0.500000 0.642323
O O13 0.370861 0.380739 0.777038
O O14 0.946631 0.197260 0.725232
O O15 0.911529 0.500000 0.909580
O O16 0.925157 0.291970 0.901335
O O17 0.500000 0.369196 0.000000
#
# Coordination Sequence:
#
# PCOD9214064 Si02
#       8
#     8   8   4   8   8   8   8   8
#     4  10  22  40  60  85 124 159 198 258 307 359
#     4  10  22  39  62  88 118 161 211 250 294 363
#     4  10  23  38  61  92 125 158 207 253 296 364
#     4  11  22  38  64  89 119 161 206 251 307 362
#     4  10  22  40  59  89 126 158 199 256 305 361
#     4  11  21  39  60  91 123 156 202 256 303 370
#     4  10  22  40  61  87 121 163 209 249 298 369
#     4  11  22  38  62  90 123 159 198 247 318 373
#
# _framework density 20.367083999999998
#
# number of rings (size 3 to 8) (size 9 to 14) (size 15 to 20)
#    0.000    1.600    2.667    2.800    2.800    3.200 
#    0.000    0.000    0.000    0.000    0.000    0.000 
#    0.000    0.000    0.000    0.000    0.000    0.000 
#
# Total GULP energy -167016.854371 kJ/mol
# GULP energy per Si atom -5567.228479 kJ/mol
# Density = 2.032073 g / cm^3
# Si number density = 20.367084 Si / 1000 Ang^3
#
#
#
# Elastic Constant Matrix: (Units=GPa)
#
#
# Indices 1 2 3 4 5 6 
#
# 1 80.6240 23.5818 -11.5961 0.0000 -0.5774 0.0000
# 2 23.5818 140.1265 -12.1856 0.0000 -0.2413 0.0000
# 3 -11.5961 -12.1856 21.7808 0.0000 9.7111 0.0000
# 4 0.0000 0.0000 0.0000 -14.0608 0.0000 -3.3356
# 5 -0.5774 -0.2413 9.7111 0.0000 31.1547 0.0000
# 6 0.0000 0.0000 0.0000 -3.3356 0.0000 -49.9150
#
#
#
# Elastic Compliance Matrix: (Units=1/GPa)
#
#
# Indices 1 2 3 4 5 6 
#
# 1 0.013951 -0.001709 0.007389 0.000000 -0.002058 0.000000
# 2 -0.001709 0.007768 0.003976 0.000000 -0.001211 0.000000
# 3 0.007389 0.003976 0.060388 0.000000 -0.018655 0.000000
# 4 0.000000 0.000000 0.000000 -0.072265 0.000000 0.004829
# 5 -0.002058 -0.001211 -0.018655 0.000000 0.037865 0.000000
# 6 0.000000 0.000000 0.000000 0.004829 0.000000 -0.020357
#
#
# Mechanical properties :
#
#
# Convention : Reuss Voigt Hill
#
# Bulk Modulus (GPa) = 9.86012 26.90349 18.38181
# Shear Modulus (GPa) = 119.49216 9.61788 64.55502
#
# Velocity S-wave (km/s) = 7.66790 2.17543 5.63601
# Velocity P-wave (km/s) = 9.12399 4.42131 7.16921
#
# Compressibility (1/GPa) = 0.10141860
#
# Stress axis : x y z
#
# Youngs Moduli (GPa) = 71.67898 128.73934 16.55965
#
# Poissons Ratio (x) = 0.21999 -0.12236
# Poissons Ratio (y) = 0.12248 -0.06584
# Poissons Ratio (z) = -0.52964 -0.51184
#
# Static dielectric constant tensor:
#      x y z
#    x 1.701680 0.000000 0.002250 
#    y 0.000000 1.716300 0.000000 
#    z 0.002250 0.000000 1.750450 
# 
# From -- ./inp_files/182564.got.cif
#   From: 2010.05.17/outbox.cif.g08.bks.cpg/sg12_92_cif.got.tgz:182564.got - 2010.06.03 13:09:07.
