data_PCOD9214518
_publ_section_title
;
Structure prediction by ZEFSAII (Michael W. Deem and Ramdas Pophale) SiO2 
 PCOD9214518
Probable space group: C 2/M
;
_chemical_formula_sum "Si O2"
_cell_formula_units_Z 58
_cell_length_a 20.016661
_cell_length_b 7.559022
_cell_length_c 23.698965
_cell_angle_alpha 90.000000
_cell_angle_beta 40.406846
_cell_angle_gamma 90.000000
_cell_volume 2324.357603
_symmetry_space_group_name_H-M "C 2/M"
_symmetry_group_IT_number 12
_symmetry_cell_setting 'monoclinic'
loop_
_space_group_symop_operation_xyz
x,y,z
-x,y,-z
-x,-y,-z
x,-y,z
1/2+x,1/2+y,z
1/2-x,1/2+y,-z
1/2-x,1/2-y,-z
1/2+x,1/2-y,z
loop_
_atom_site_type_symbol
_atom_site_label
_atom_site_fract_x
_atom_site_fract_y
_atom_site_fract_z
Si Si1 0.767595 0.703420 0.581189
Si Si2 0.500000 0.500000 0.500000
Si Si3 0.998609 0.797246 0.853430
Si Si4 0.340182 0.214092 0.051982
Si Si5 0.124544 0.703077 0.376268
Si Si6 0.682733 0.797346 0.811065
Si Si7 0.601928 0.715754 0.197626
Si Si8 0.590507 0.714843 0.613834
O O1 0.747007 0.500000 0.609288
O O2 0.813607 0.782158 0.608503
O O3 0.663853 0.773564 0.619173
O O4 0.853522 0.712570 0.477201
O O5 0.533308 0.343180 0.432574
O O6 0.950688 0.723852 0.826841
O O7 0.100254 0.712150 0.814209
O O8 0.027136 0.000000 0.823600
O O9 0.911442 0.790093 0.957594
O O10 0.368656 0.265684 0.097690
O O11 0.220690 0.268290 0.123043
O O12 0.349109 0.000000 0.040839
O O13 0.091961 0.500000 0.405406
O O14 0.211160 0.704731 0.272767
O O15 0.712211 0.000000 0.802081
O O16 0.602681 0.500000 0.196951
O O17 0.525696 0.769027 0.297304
O O18 0.597011 0.500000 0.607120
#
# Coordination Sequence:
#
# PCOD9214518 Si02
#       8
#     8   2   8   8   8   8   8   8
#     4   9  19  35  55  86 124 159 207 266 327 379
#     4  12  26  44  64  94 126 168 222 256 332 392
#     4  11  22  38  64  92 124 167 217 269 329 395
#     4  10  22  40  61  89 128 167 211 272 334 394
#     4  11  24  44  67  93 131 173 219 275 325 387
#     4  11  23  41  64  95 129 169 220 273 322 391
#     4   9  19  37  59  87 120 163 212 265 328 392
#     4   9  17  32  57  87 118 161 210 263 322 387
#
# _framework density 24.953129000000001
#
# number of rings (size 3 to 8) (size 9 to 14) (size 15 to 20)
#    0.000    1.931    0.690    2.690    0.966    6.069 
#    2.483    2.759    0.000    0.000    0.000    0.000 
#    0.000    0.000    0.000    0.000    0.000    0.000 
#
# Total GULP energy -162047.725912 kJ/mol
# GULP energy per Si atom -5587.852618 kJ/mol
# Density = 2.489633 g / cm^3
# Si number density = 24.953129 Si / 1000 Ang^3
#
#
#
# Elastic Constant Matrix: (Units=GPa)
#
#
# Indices 1 2 3 4 5 6 
#
# 1 82.3353 -0.8088 -3.5774 0.0004 -9.1079 -0.0005
# 2 -0.8088 101.7607 10.6097 0.0001 -5.8268 0.0000
# 3 -3.5774 10.6097 126.0800 -0.0004 -23.4033 0.0001
# 4 0.0004 0.0001 -0.0004 26.2485 -0.0001 -3.8823
# 5 -9.1079 -5.8268 -23.4033 -0.0001 34.9188 0.0001
# 6 -0.0005 0.0000 0.0001 -3.8823 0.0001 1.4428
#
#
#
# Elastic Compliance Matrix: (Units=1/GPa)
#
#
# Indices 1 2 3 4 5 6 
#
# 1 0.012645 0.000219 0.001096 0.000001 0.004069 0.000005
# 2 0.000219 0.009966 -0.000586 0.000000 0.001327 0.000000
# 3 0.001096 -0.000586 0.009190 0.000000 0.006347 -0.000001
# 4 0.000001 0.000000 0.000000 0.063283 0.000000 0.170278
# 5 0.004069 0.001327 0.006347 0.000000 0.034175 -0.000003
# 6 0.000005 0.000000 -0.000001 0.170278 -0.000003 1.151249
#
#
# Mechanical properties :
#
#
# Convention : Reuss Voigt Hill
#
# Bulk Modulus (GPa) = 30.06687 35.84699 32.95693
# Shear Modulus (GPa) = 3.87556 32.78553 18.33054
#
# Velocity S-wave (km/s) = 1.24760 3.62869 2.71329
# Velocity P-wave (km/s) = 3.76176 5.65273 4.80126
#
# Compressibility (1/GPa) = 0.03325920
#
# Stress axis : x y z
#
# Youngs Moduli (GPa) = 79.08042 100.34293 108.81278
#
# Poissons Ratio (x) = -0.02200 -0.11923
# Poissons Ratio (y) = -0.01734 0.06377
# Poissons Ratio (z) = -0.08665 0.05880
#
# Static dielectric constant tensor:
#      x y z
#    x 2.048980 0.000000 -0.008180 
#    y 0.000000 1.953290 0.000000 
#    z -0.008180 0.000000 1.955310 
# 
# From -- ./inp_files/346455.got.cif
#   From: 2010.05.17/outbox.cif.g08.bks.cpg/sg12_174_cif.got.tgz:346455.got - 2010.06.03 13:09:07.
