data_PCOD9214637
_publ_section_title
;
Structure prediction by ZEFSAII (Michael W. Deem and Ramdas Pophale) SiO2 
 PCOD9214637
Probable space group: C 2/M
;
_chemical_formula_sum "Si O2"
_cell_formula_units_Z 48
_cell_length_a 13.968755
_cell_length_b 28.393529
_cell_length_c 11.712400
_cell_angle_alpha 90.000000
_cell_angle_beta 29.550735
_cell_angle_gamma 90.000000
_cell_volume 2291.082921
_symmetry_space_group_name_H-M "C 2/M"
_symmetry_group_IT_number 12
_symmetry_cell_setting 'monoclinic'
loop_
_space_group_symop_operation_xyz
x,y,z
-x,y,-z
-x,-y,-z
x,-y,z
1/2+x,1/2+y,z
1/2-x,1/2+y,-z
1/2-x,1/2-y,-z
1/2+x,1/2-y,z
loop_
_atom_site_type_symbol
_atom_site_label
_atom_site_fract_x
_atom_site_fract_y
_atom_site_fract_z
Si Si1 0.722138 0.695804 0.056171
Si Si2 0.766673 0.648675 0.241038
Si Si3 0.602417 0.628678 0.663435
Si Si4 0.691554 0.049741 0.878434
Si Si5 0.231683 0.053888 0.948041
Si Si6 0.495817 0.864197 0.383501
O O1 0.696125 0.686060 0.219076
O O2 0.545669 0.672271 0.168606
O O3 0.750000 0.750000 0.000000
O O4 0.905434 0.666004 0.819763
O O5 0.694516 0.641776 0.444678
O O6 0.707096 0.598623 0.248451
O O7 0.000000 0.653465 0.000000
O O8 0.778583 0.624975 0.568813
O O9 0.469235 0.581472 0.813493
O O10 0.791918 0.000000 0.749259
O O11 0.500000 0.050640 0.000000
O O12 0.650599 0.050029 0.054868
O O13 0.366389 0.090008 0.739241
O O14 0.202716 0.000000 0.936275
O O15 0.500000 0.837585 0.500000
#
# Coordination Sequence:
#
# PCOD9214637 Si02
#       6
#     8   8   8   8   8   8
#     4  11  25  44  64  98 127 164 220 270 329 398
#     4  11  19  40  67  94 135 171 203 265 335 391
#     4  11  23  42  68  94 128 173 215 265 335 391
#     4   9  16  29  55  89 128 164 197 245 306 376
#     4  10  22  40  62  96 134 171 222 265 315 392
#     4  11  24  45  65  91 129 171 219 277 326 382
#
# _framework density 20.950790999999999
#
# number of rings (size 3 to 8) (size 9 to 14) (size 15 to 20)
#    0.000    1.500    5.000    1.500    0.000    6.333 
#    3.000    2.500    0.000    0.000    0.000    0.000 
#    0.000    0.000    0.000    0.000    0.000    0.000 
#
# Total GULP energy -133666.856294 kJ/mol
# GULP energy per Si atom -5569.452346 kJ/mol
# Density = 2.090311 g / cm^3
# Si number density = 20.950791 Si / 1000 Ang^3
#
#
#
# Elastic Constant Matrix: (Units=GPa)
#
#
# Indices 1 2 3 4 5 6 
#
# 1 84.2624 11.5614 31.7445 0.0000 2.3807 0.0000
# 2 11.5614 150.5029 23.2017 0.0000 -2.1158 0.0000
# 3 31.7445 23.2017 72.7936 -0.0003 -13.4807 0.0000
# 4 0.0000 0.0000 -0.0003 4.2522 0.0001 6.6348
# 5 2.3807 -2.1158 -13.4807 0.0001 30.4084 0.0000
# 6 0.0000 0.0000 0.0000 6.6348 0.0000 17.0271
#
#
#
# Elastic Compliance Matrix: (Units=1/GPa)
#
#
# Indices 1 2 3 4 5 6 
#
# 1 0.014712 -0.000082 -0.007195 -0.000001 -0.004347 0.000000
# 2 -0.000082 0.006997 -0.002291 0.000000 -0.000522 0.000000
# 3 -0.007195 -0.002291 0.019261 0.000003 0.008943 -0.000001
# 4 -0.000001 0.000000 0.000003 0.599932 -0.000001 -0.233769
# 5 -0.004347 -0.000522 0.008943 -0.000001 0.037154 0.000000
# 6 0.000000 0.000000 -0.000001 -0.233769 0.000000 0.149820
#
#
# Mechanical properties :
#
#
# Convention : Reuss Voigt Hill
#
# Bulk Modulus (GPa) = 45.79902 48.95267 47.37585
# Shear Modulus (GPa) = 5.85281 26.40760 16.13021
#
# Velocity S-wave (km/s) = 1.67322 3.55415 2.77773
# Velocity P-wave (km/s) = 5.06366 6.34499 5.74019
#
# Compressibility (1/GPa) = 0.02183453
#
# Stress axis : x y z
#
# Youngs Moduli (GPa) = 67.97041 142.92792 51.91741
#
# Poissons Ratio (x) = 0.01174 0.37353
# Poissons Ratio (y) = 0.00558 0.11894
# Poissons Ratio (z) = 0.48903 0.32744
#
# Static dielectric constant tensor:
#      x y z
#    x 2.015190 0.000000 0.171800 
#    y 0.000000 1.783370 0.000000 
#    z 0.171800 0.000000 1.938410 
# 
# From -- ./inp_files/149633.got.cif
#   From: 2010.05.17/outbox.cif.g08.bks.cpg/sg12_75_cif.got.tgz:149633.got - 2010.06.03 13:09:07.
