data_PCOD9214370
_publ_section_title
;
Structure prediction by ZEFSAII (Michael W. Deem and Ramdas Pophale) SiO2 
 PCOD9214370
Probable space group: C 2/M
;
_chemical_formula_sum "Si O2"
_cell_formula_units_Z 58
_cell_length_a 18.030612
_cell_length_b 30.948549
_cell_length_c 5.379046
_cell_angle_alpha 90.000000
_cell_angle_beta 70.518516
_cell_angle_gamma 90.000000
_cell_volume 2829.777210
_symmetry_space_group_name_H-M "C 2/M"
_symmetry_group_IT_number 12
_symmetry_cell_setting 'monoclinic'
loop_
_space_group_symop_operation_xyz
x,y,z
-x,y,-z
-x,-y,-z
x,-y,z
1/2+x,1/2+y,z
1/2-x,1/2+y,-z
1/2-x,1/2-y,-z
1/2+x,1/2-y,z
loop_
_atom_site_type_symbol
_atom_site_label
_atom_site_fract_x
_atom_site_fract_y
_atom_site_fract_z
Si Si1 0.000000 0.500000 0.000000
Si Si2 0.068102 0.734523 0.631130
Si Si3 0.046500 0.833242 0.707966
Si Si4 0.221895 0.138958 0.560317
Si Si5 0.799201 0.549633 0.524768
Si Si6 0.289318 0.786972 0.797596
Si Si7 0.118536 0.337982 0.920165
Si Si8 0.899091 0.567694 0.908703
O O1 0.025603 0.537795 0.167950
O O2 0.055884 0.782131 0.754059
O O3 0.161949 0.736541 0.470080
O O4 0.068284 0.690122 0.785391
O O5 0.000000 0.731900 0.500000
O O6 0.133526 0.852710 0.572528
O O7 0.000000 0.837673 0.500000
O O8 0.000000 0.851838 0.000000
O O9 0.235761 0.088318 0.599309
O O10 0.236134 0.173219 0.768673
O O11 0.295723 0.150506 0.297446
O O12 0.771300 0.500000 0.579012
O O13 0.847548 0.552266 0.209114
O O14 0.853098 0.560417 0.703733
O O15 0.250000 0.750000 0.000000
O O16 0.359984 0.807637 0.875758
O O17 0.083997 0.382348 0.060076
#
# Coordination Sequence:
#
# PCOD9214370 Si02
#       8
#     2   8   8   8   8   8   8   8
#     4  12  24  42  60  90 132 174 208 266 320 370
#     4  10  24  38  56  88 127 174 213 265 316 373
#     4  11  26  42  63  93 128 165 206 257 324 394
#     4  10  23  40  64  92 122 166 209 267 319 376
#     4  11  21  43  66  91 122 154 218 258 312 375
#     4  11  21  35  64  89 122 167 219 263 312 377
#     4  10  22  40  59  89 124 168 221 264 306 380
#     4  11  24  39  61  90 125 169 210 262 314 365
#
# _framework density 20.496313000000001
#
# number of rings (size 3 to 8) (size 9 to 14) (size 15 to 20)
#    0.000    1.379    2.759    1.655    9.655    4.414 
#    0.000    0.000    0.000    0.828    0.000    0.000 
#    0.000    0.000    0.000    0.000    0.000    0.000 
#
# Total GULP energy -161561.023289 kJ/mol
# GULP energy per Si atom -5571.069769 kJ/mol
# Density = 2.044966 g / cm^3
# Si number density = 20.496313 Si / 1000 Ang^3
#
#
#
# Elastic Constant Matrix: (Units=GPa)
#
#
# Indices 1 2 3 4 5 6 
#
# 1 83.2325 44.7738 17.2135 0.0000 -3.4442 0.0000
# 2 44.7738 109.9080 19.0404 0.0000 0.8745 0.0000
# 3 17.2135 19.0404 69.1434 0.0000 -1.6662 0.0000
# 4 0.0000 0.0000 0.0000 35.1541 0.0000 52.1712
# 5 -3.4442 0.8745 -1.6662 0.0000 25.9349 0.0000
# 6 0.0000 0.0000 0.0000 52.1712 0.0000 127.4580
#
#
#
# Elastic Compliance Matrix: (Units=1/GPa)
#
#
# Indices 1 2 3 4 5 6 
#
# 1 0.015835 -0.006084 -0.002215 0.000000 0.002166 0.000000
# 2 -0.006084 0.011898 -0.001794 0.000000 -0.001324 0.000000
# 3 -0.002215 -0.001794 0.015526 0.000000 0.000764 0.000000
# 4 0.000000 0.000000 0.000000 0.072467 0.000000 -0.029662
# 5 0.002166 -0.001324 0.000764 0.000000 0.038939 0.000000
# 6 0.000000 0.000000 0.000000 -0.029662 0.000000 0.019987
#
#
# Mechanical properties :
#
#
# Convention : Reuss Voigt Hill
#
# Bulk Modulus (GPa) = 43.33766 47.14882 45.24324
# Shear Modulus (GPa) = 24.68763 49.79315 37.24039
#
# Velocity S-wave (km/s) = 3.47434 4.93421 4.26717
# Velocity P-wave (km/s) = 6.10613 7.45087 6.81176
#
# Compressibility (1/GPa) = 0.02307462
#
# Stress axis : x y z
#
# Youngs Moduli (GPa) = 63.15045 84.04452 64.40657
#
# Poissons Ratio (x) = 0.51137 0.14263
# Poissons Ratio (y) = 0.38424 0.11553
# Poissons Ratio (z) = 0.13985 0.15075
#
# Static dielectric constant tensor:
#      x y z
#    x 1.755890 0.000000 -0.039240 
#    y 0.000000 1.740470 0.000000 
#    z -0.039240 0.000000 2.345980 
# 
# From -- ./inp_files/18117.got.cif
#   From: 2010.05.17/outbox.cif.g08.bks.cpg/sg12_10_cif.got.tgz:18117.got - 2010.06.03 13:09:07.
