data_PCOD9214335
_publ_section_title
;
Structure prediction by ZEFSAII (Michael W. Deem and Ramdas Pophale) SiO2 
 PCOD9214335
Probable space group: C 2/M
;
_chemical_formula_sum "Si O2"
_cell_formula_units_Z 64
_cell_length_a 24.983687
_cell_length_b 8.827237
_cell_length_c 20.499109
_cell_angle_alpha 90.000000
_cell_angle_beta 126.039425
_cell_angle_gamma 90.000000
_cell_volume 3655.583195
_symmetry_space_group_name_H-M "C 2/M"
_symmetry_group_IT_number 12
_symmetry_cell_setting 'monoclinic'
loop_
_space_group_symop_operation_xyz
x,y,z
-x,y,-z
-x,-y,-z
x,-y,z
1/2+x,1/2+y,z
1/2-x,1/2+y,-z
1/2-x,1/2-y,-z
1/2+x,1/2-y,z
loop_
_atom_site_type_symbol
_atom_site_label
_atom_site_fract_x
_atom_site_fract_y
_atom_site_fract_z
Si Si1 0.925753 0.819272 0.702502
Si Si2 0.179861 0.680924 0.472648
Si Si3 0.334920 0.681218 0.756898
Si Si4 0.319832 0.180636 0.027816
Si Si5 0.693703 0.320210 0.620558
Si Si6 0.840937 0.681104 0.270074
Si Si7 0.690884 0.680035 0.117085
Si Si8 0.070046 0.317106 0.787688
O O1 0.876935 0.740748 0.615916
O O2 0.895616 0.787277 0.752668
O O3 0.999480 0.758316 0.747435
O O4 0.923594 0.000000 0.691248
O O5 0.250000 0.750000 0.500000
O O6 0.167669 0.738197 0.537310
O O7 0.316164 0.000000 0.526439
O O8 0.320321 0.500000 0.743527
O O9 0.269903 0.767473 0.685033
O O10 0.344466 0.718654 0.839877
O O11 0.377941 0.228184 0.118763
O O12 0.314453 0.000000 0.027723
O O13 0.250000 0.250000 0.000000
O O14 0.332806 0.232404 0.963299
O O15 0.690579 0.500000 0.610528
O O16 0.656985 0.266974 0.659955
O O17 0.843401 0.500000 0.283777
O O18 0.768913 0.711212 0.186026
O O19 0.896890 0.722297 0.258127
O O20 0.684427 0.500000 0.100933
O O21 0.063418 0.500000 0.784884
#
# Coordination Sequence:
#
# PCOD9214335 Si02
#       8
#     8   8   8   8   8   8   8   8
#     4  11  23  39  60  86 115 152 193 237 286 342
#     4  12  23  38  60  87 117 151 191 236 283 337
#     4   9  19  36  56  79 115 153 186 230 288 344
#     4  11  21  35  56  84 114 148 191 240 287 337
#     4  11  21  33  56  89 117 145 187 240 286 332
#     4   9  18  36  57  79 114 155 189 230 289 346
#     4   9  17  33  56  83 111 146 187 236 286 337
#     4  10  22  40  58  80 116 158 192 232 292 350
#
# _framework density 17.507465
#
# number of rings (size 3 to 8) (size 9 to 14) (size 15 to 20)
#    0.000    1.750    2.500    3.750    0.000    4.000 
#    0.000    1.250    0.000    7.500    0.000    0.000 
#    0.000    0.000    0.000    0.000    0.000    0.000 
#
# Total GULP energy -178706.769229 kJ/mol
# GULP energy per Si atom -5584.586538 kJ/mol
# Density = 1.746762 g / cm^3
# Si number density = 17.507465 Si / 1000 Ang^3
#
#
#
# Elastic Constant Matrix: (Units=GPa)
#
#
# Indices 1 2 3 4 5 6 
#
# 1 152.3741 67.4338 85.5383 0.0000 -11.3397 0.0000
# 2 67.4338 77.7271 59.5264 0.0000 -5.2652 0.0000
# 3 85.5383 59.5264 121.4234 0.0000 -9.5773 0.0000
# 4 0.0000 0.0000 0.0000 31.0991 0.0000 -2.5273
# 5 -11.3397 -5.2652 -9.5773 0.0000 27.5084 0.0000
# 6 0.0000 0.0000 0.0000 -2.5273 0.0000 30.8344
#
#
#
# Elastic Compliance Matrix: (Units=1/GPa)
#
#
# Indices 1 2 3 4 5 6 
#
# 1 0.012815 -0.006707 -0.005577 0.000000 0.002057 0.000000
# 2 -0.006707 0.024115 -0.007147 0.000000 -0.000638 0.000000
# 3 -0.005577 -0.007147 0.015814 0.000000 0.001838 0.000000
# 4 0.000000 0.000000 0.000000 0.032371 0.000000 0.002653
# 5 0.002057 -0.000638 0.001838 0.000000 0.037719 0.000000
# 6 0.000000 0.000000 0.000000 0.002653 0.000000 0.032649
#
#
# Mechanical properties :
#
#
# Convention : Reuss Voigt Hill
#
# Bulk Modulus (GPa) = 72.04735 86.28018 79.16377
# Shear Modulus (GPa) = 25.12900 27.15679 26.14290
#
# Velocity S-wave (km/s) = 3.79269 3.94274 3.86844
# Velocity P-wave (km/s) = 7.77309 8.37352 8.07889
#
# Compressibility (1/GPa) = 0.01387976
#
# Stress axis : x y z
#
# Youngs Moduli (GPa) = 78.03192 41.46759 63.23662
#
# Poissons Ratio (x) = 0.27814 0.35269
# Poissons Ratio (y) = 0.52339 0.45197
# Poissons Ratio (z) = 0.43521 0.29638
#
# Static dielectric constant tensor:
#      x y z
#    x 1.592970 0.000000 -0.026540 
#    y 0.000000 1.586870 0.000000 
#    z -0.026540 0.000000 1.577310 
# 
# From -- ./inp_files/326965.got.cif
#   From: 2010.05.17/outbox.cif.g08.bks.cpg/sg12_164_cif.got.tgz:326965.got - 2010.06.03 13:09:07.
