data_PCOD9214884
_publ_section_title
;
Structure prediction by ZEFSAII (Michael W. Deem and Ramdas Pophale) SiO2 
 PCOD9214884
Probable space group: C 2/M
;
_chemical_formula_sum "Si O2"
_cell_formula_units_Z 58
_cell_length_a 23.036145
_cell_length_b 12.526010
_cell_length_c 9.570546
_cell_angle_alpha 90.000000
_cell_angle_beta 80.568471
_cell_angle_gamma 90.000000
_cell_volume 2724.259650
_symmetry_space_group_name_H-M "C 2/M"
_symmetry_group_IT_number 12
_symmetry_cell_setting 'monoclinic'
loop_
_space_group_symop_operation_xyz
x,y,z
-x,y,-z
-x,-y,-z
x,-y,z
1/2+x,1/2+y,z
1/2-x,1/2+y,-z
1/2-x,1/2-y,-z
1/2+x,1/2-y,z
loop_
_atom_site_type_symbol
_atom_site_label
_atom_site_fract_x
_atom_site_fract_y
_atom_site_fract_z
Si Si1 0.309722 0.374579 0.790958
Si Si2 0.431542 0.378889 0.296167
Si Si3 0.296741 0.870861 0.968198
Si Si4 0.284315 0.875086 0.644326
Si Si5 0.939869 0.125278 0.816228
Si Si6 0.000000 0.500000 0.000000
Si Si7 0.416269 0.791493 0.061275
Si Si8 0.323757 0.315107 0.486860
O O1 0.312769 0.500000 0.807316
O O2 0.264176 0.343236 0.929328
O O3 0.377964 0.341579 0.773682
O O4 0.290512 0.354416 0.639846
O O5 0.423500 0.500000 0.240311
O O6 0.500899 0.367503 0.298087
O O7 0.413780 0.281715 0.200803
O O8 0.386790 0.367562 0.441714
O O9 0.203627 0.652503 0.198417
O O10 0.351460 0.819086 0.027740
O O11 0.303276 0.000000 0.974477
O O12 0.325478 0.809958 0.521294
O O13 0.217685 0.845373 0.626117
O O14 0.292208 0.000000 0.624948
O O15 0.936321 0.000000 0.863224
O O16 0.945837 0.209718 0.938652
O O17 0.951607 0.402967 0.056175
#
# Coordination Sequence:
#
# PCOD9214884 Si02
#       8
#     8   8   8   8   8   2   8   8
#     4  10  22  41  66 100 133 171 221 280 332 396
#     4  11  24  42  65  96 133 178 222 274 335 403
#     4  10  23  41  68  99 134 174 221 274 335 397
#     4  10  23  43  62  92 134 179 222 274 336 401
#     4  10  22  40  65  93 130 171 219 271 330 391
#     4  12  24  44  66 100 138 176 224 278 322 398
#     4  12  23  42  66  99 133 175 221 276 331 390
#     4  11  24  41  63  94 135 178 220 277 336 398
#
# _framework density 21.290187
#
# number of rings (size 3 to 8) (size 9 to 14) (size 15 to 20)
#    0.000    1.379    2.069    2.483    5.793    2.759 
#    1.241    2.069    0.000    0.828    0.000    4.828 
#    0.000    0.000    0.000    0.000    0.000    0.000 
#
# Total GULP energy -161533.693617 kJ/mol
# GULP energy per Si atom -5570.127366 kJ/mol
# Density = 2.124173 g / cm^3
# Si number density = 21.290187 Si / 1000 Ang^3
#
#
#
# Elastic Constant Matrix: (Units=GPa)
#
#
# Indices 1 2 3 4 5 6 
#
# 1 126.9242 47.3077 49.7538 0.0000 -3.5366 0.0000
# 2 47.3077 141.6731 32.2966 0.0000 -2.6948 0.0000
# 3 49.7538 32.2966 69.2192 0.0000 -5.9696 0.0000
# 4 0.0000 0.0000 0.0000 34.8805 0.0000 -4.9983
# 5 -3.5366 -2.6948 -5.9696 0.0000 25.4481 0.0000
# 6 0.0000 0.0000 0.0000 -4.9983 0.0000 32.9127
#
#
#
# Elastic Compliance Matrix: (Units=1/GPa)
#
#
# Indices 1 2 3 4 5 6 
#
# 1 0.011553 -0.002198 -0.007308 0.000000 -0.000342 0.000000
# 2 -0.002198 0.008317 -0.002297 0.000000 0.000036 0.000000
# 3 -0.007308 -0.002297 0.021090 0.000000 0.003688 0.000000
# 4 0.000000 0.000000 0.000000 0.029307 0.000000 0.004451
# 5 -0.000342 0.000036 0.003688 0.000000 0.040117 0.000000
# 6 0.000000 0.000000 0.000000 0.004451 0.000000 0.031059
#
#
# Mechanical properties :
#
#
# Convention : Reuss Voigt Hill
#
# Bulk Modulus (GPa) = 57.62833 66.28139 61.95486
# Shear Modulus (GPa) = 29.26792 32.54548 30.90670
#
# Velocity S-wave (km/s) = 3.71174 3.91405 3.81424
# Velocity P-wave (km/s) = 6.74508 7.18515 6.96859
#
# Compressibility (1/GPa) = 0.01735258
#
# Stress axis : x y z
#
# Youngs Moduli (GPa) = 86.55504 120.23586 47.41640
#
# Poissons Ratio (x) = 0.26433 0.34652
# Poissons Ratio (y) = 0.19028 0.10893
# Poissons Ratio (z) = 0.63255 0.27621
#
# Static dielectric constant tensor:
#      x y z
#    x 1.796840 0.000000 0.006060 
#    y 0.000000 1.845900 0.000000 
#    z 0.006060 0.000000 1.781730 
# 
# From -- ./inp_files/174539.got.cif
#   From: 2010.05.17/outbox.cif.g08.bks.cpg/sg12_88_cif.got.tgz:174539.got - 2010.06.03 13:09:07.
