data_PCOD9214803
_publ_section_title
;
Structure prediction by ZEFSAII (Michael W. Deem and Ramdas Pophale) SiO2 
 PCOD9214803
Probable space group: C 2/M
;
_chemical_formula_sum "Si O2"
_cell_formula_units_Z 48
_cell_length_a 23.109806
_cell_length_b 8.681838
_cell_length_c 12.241597
_cell_angle_alpha 90.000000
_cell_angle_beta 69.090530
_cell_angle_gamma 90.000000
_cell_volume 2294.354816
_symmetry_space_group_name_H-M "C 2/M"
_symmetry_group_IT_number 12
_symmetry_cell_setting 'monoclinic'
loop_
_space_group_symop_operation_xyz
x,y,z
-x,y,-z
-x,-y,-z
x,-y,z
1/2+x,1/2+y,z
1/2-x,1/2+y,-z
1/2-x,1/2-y,-z
1/2+x,1/2-y,z
loop_
_atom_site_type_symbol
_atom_site_label
_atom_site_fract_x
_atom_site_fract_y
_atom_site_fract_z
Si Si1 0.595417 0.320135 0.978242
Si Si2 0.741726 0.680059 0.885247
Si Si3 0.819065 0.317431 0.456099
Si Si4 0.053641 0.318499 0.233257
Si Si5 0.428196 0.684426 0.247545
Si Si6 0.847852 0.182038 0.666990
O O1 0.579992 0.500000 0.012431
O O2 0.669101 0.311974 0.907828
O O3 0.563841 0.274540 0.885726
O O4 0.579271 0.222296 0.095216
O O5 0.760400 0.500000 0.871944
O O6 0.785044 0.771518 0.772896
O O7 0.750000 0.750000 0.000000
O O8 0.816671 0.500000 0.444423
O O9 0.750000 0.250000 0.500000
O O10 0.862624 0.243491 0.335016
O O11 0.848190 0.271833 0.553019
O O12 0.056805 0.500000 0.250316
O O13 0.095981 0.231521 0.292484
O O14 0.983263 0.259397 0.279486
O O15 0.430537 0.500000 0.253929
O O16 0.849177 0.000000 0.645979
#
# Coordination Sequence:
#
# PCOD9214803 Si02
#       6
#     8   8   8   8   8   8
#     4  10  22  40  64  93 131 174 217 265 324 389
#     4  11  21  36  61  95 131 168 212 264 324 386
#     4  12  26  47  72 100 132 168 216 267 325 388
#     4  12  25  41  64  96 133 172 219 272 329 391
#     4  11  24  44  68  95 130 174 221 268 325 388
#     4  12  25  43  67  96 132 174 221 271 328 386
#
# _framework density 20.920914
#
# number of rings (size 3 to 8) (size 9 to 14) (size 15 to 20)
#    0.000    0.667    1.667    7.000    0.000    6.000 
#    0.000    3.333    0.000    0.000    0.000    0.000 
#    0.000    0.000    0.000    0.000    0.000    0.000 
#
# Total GULP energy -134428.038939 kJ/mol
# GULP energy per Si atom -5601.168289 kJ/mol
# Density = 2.087330 g / cm^3
# Si number density = 20.920914 Si / 1000 Ang^3
#
#
#
# Elastic Constant Matrix: (Units=GPa)
#
#
# Indices 1 2 3 4 5 6 
#
# 1 89.8138 11.2386 8.0143 0.0000 -6.3779 0.0000
# 2 11.2386 52.0222 -3.2340 0.0000 -8.3724 0.0000
# 3 8.0143 -3.2340 70.5440 0.0000 -0.8905 0.0000
# 4 0.0000 0.0000 0.0000 36.5798 0.0000 -1.6376
# 5 -6.3779 -8.3724 -0.8905 0.0000 31.4799 0.0000
# 6 0.0000 0.0000 0.0000 -1.6376 0.0000 30.4259
#
#
#
# Elastic Compliance Matrix: (Units=1/GPa)
#
#
# Indices 1 2 3 4 5 6 
#
# 1 0.011673 -0.002335 -0.001412 0.000000 0.001704 0.000000
# 2 -0.002335 0.020618 0.001274 0.000000 0.005047 0.000000
# 3 -0.001412 0.001274 0.014400 0.000000 0.000460 0.000000
# 4 0.000000 0.000000 0.000000 0.027404 0.000000 0.001475
# 5 0.001704 0.005047 0.000460 0.000000 0.033467 0.000000
# 6 0.000000 0.000000 0.000000 0.001475 0.000000 0.032946
#
#
# Mechanical properties :
#
#
# Convention : Reuss Voigt Hill
#
# Bulk Modulus (GPa) = 23.95422 27.15754 25.55588
# Shear Modulus (GPa) = 31.37364 32.78787 32.08076
#
# Velocity S-wave (km/s) = 3.87671 3.96312 3.92015
# Velocity P-wave (km/s) = 5.61366 5.82675 5.72120
#
# Compressibility (1/GPa) = 0.04174631
#
# Stress axis : x y z
#
# Youngs Moduli (GPa) = 85.66515 48.50015 69.44364
#
# Poissons Ratio (x) = 0.11327 0.09804
# Poissons Ratio (y) = 0.20006 -0.08849
# Poissons Ratio (z) = 0.12094 -0.06180
#
# Static dielectric constant tensor:
#      x y z
#    x 1.760090 0.000000 -0.009620 
#    y 0.000000 1.702110 0.000000 
#    z -0.009620 0.000000 1.737570 
# 
# From -- ./inp_files/172913.got.cif
#   From: 2010.05.17/outbox.cif.g08.bks.cpg/sg12_87_cif.got.tgz:172913.got - 2010.06.03 13:09:07.
