data_PCOD9214642
_publ_section_title
;
Structure prediction by ZEFSAII (Michael W. Deem and Ramdas Pophale) SiO2 
 PCOD9214642
Probable space group: C 2/M
;
_chemical_formula_sum "Si O2"
_cell_formula_units_Z 42
_cell_length_a 8.848360
_cell_length_b 16.091452
_cell_length_c 13.978418
_cell_angle_alpha 90.000000
_cell_angle_beta 119.157138
_cell_angle_gamma 90.000000
_cell_volume 1738.092690
_symmetry_space_group_name_H-M "C 2/M"
_symmetry_group_IT_number 12
_symmetry_cell_setting 'monoclinic'
loop_
_space_group_symop_operation_xyz
x,y,z
-x,y,-z
-x,-y,-z
x,-y,z
1/2+x,1/2+y,z
1/2-x,1/2+y,-z
1/2-x,1/2-y,-z
1/2+x,1/2-y,z
loop_
_atom_site_type_symbol
_atom_site_label
_atom_site_fract_x
_atom_site_fract_y
_atom_site_fract_z
Si Si1 0.869869 0.169971 0.069045
Si Si2 0.000000 0.000000 0.000000
Si Si3 0.175326 0.299228 0.612682
Si Si4 0.844591 0.303267 0.813444
Si Si5 0.519968 0.909235 0.724823
Si Si6 0.829434 0.910580 0.510029
O O1 0.783600 0.159393 0.147842
O O2 0.055707 0.218253 0.127484
O O3 0.750000 0.250000 0.000000
O O4 0.897302 0.078870 0.028747
O O5 0.239339 0.218551 0.685201
O O6 0.310309 0.337323 0.580012
O O7 0.000000 0.289624 0.500000
O O8 0.140838 0.360691 0.689681
O O9 0.987530 0.366163 0.816219
O O10 0.340875 0.914361 0.609148
O O11 0.593319 0.000000 0.763612
O O12 0.000000 0.905472 0.500000
O O13 0.832252 0.000000 0.563578
#
# Coordination Sequence:
#
# PCOD9214642 Si02
#       6
#     8   2   8   8   8   8
#     4  12  27  56  81 117 158 198 267 340 406 495
#     4  12  28  56  94 118 160 212 254 336 442 462
#     4  10  22  41  67  99 149 206 260 310 382 466
#     4  12  25  47  74 111 155 197 256 334 390 484
#     4  10  22  40  62  97 143 196 254 306 381 455
#     4   9  19  35  57  94 142 196 259 320 365 445
#
# _framework density 24.164418000000001
#
# number of rings (size 3 to 8) (size 9 to 14) (size 15 to 20)
#    0.000    1.333    3.810    0.571    4.000    6.095 
#    8.571    0.952    0.000    0.000    0.000    0.000 
#    0.000    0.000    0.000    0.000    0.000    0.000 
#
# Total GULP energy -116994.240728 kJ/mol
# GULP energy per Si atom -5571.154320 kJ/mol
# Density = 2.410942 g / cm^3
# Si number density = 24.164418 Si / 1000 Ang^3
#
#
#
# Elastic Constant Matrix: (Units=GPa)
#
#
# Indices 1 2 3 4 5 6 
#
# 1 133.6321 55.9996 33.1830 0.0000 -29.5738 0.0000
# 2 55.9996 189.3879 42.7536 0.0000 -30.1742 0.0000
# 3 33.1830 42.7536 53.9020 0.0000 -9.8235 0.0000
# 4 0.0000 0.0000 0.0000 29.9313 0.0000 -9.2898
# 5 -29.5738 -30.1742 -9.8235 0.0000 50.2967 0.0000
# 6 0.0000 0.0000 0.0000 -9.2898 0.0000 21.3842
#
#
#
# Elastic Compliance Matrix: (Units=1/GPa)
#
#
# Indices 1 2 3 4 5 6 
#
# 1 0.010065 -0.001305 -0.004381 0.000000 0.004279 0.000000
# 2 -0.001305 0.007059 -0.004317 0.000000 0.002624 0.000000
# 3 -0.004381 -0.004317 0.024608 0.000000 -0.000360 0.000000
# 4 0.000000 0.000000 0.000000 0.038617 0.000000 0.016776
# 5 0.004279 0.002624 -0.000360 0.000000 0.023902 0.000000
# 6 0.000000 0.000000 0.000000 0.016776 0.000000 0.054051
#
#
# Mechanical properties :
#
#
# Convention : Reuss Voigt Hill
#
# Bulk Modulus (GPa) = 46.02992 71.19938 58.61465
# Shear Modulus (GPa) = 26.94687 36.65482 31.80084
#
# Velocity S-wave (km/s) = 3.34300 3.89896 3.63163
# Velocity P-wave (km/s) = 5.83017 7.05675 6.47258
#
# Compressibility (1/GPa) = 0.02172500
#
# Stress axis : x y z
#
# Youngs Moduli (GPa) = 99.35224 141.66798 40.63755
#
# Poissons Ratio (x) = 0.18492 0.17803
# Poissons Ratio (y) = 0.12969 0.17543
# Poissons Ratio (z) = 0.43527 0.61158
#
# Static dielectric constant tensor:
#      x y z
#    x 2.117850 0.000000 0.029490 
#    y 0.000000 1.902060 0.000000 
#    z 0.029490 0.000000 1.991150 
# 
# From -- ./inp_files/195652.got.cif
#   From: 2010.05.17/outbox.cif.g08.bks.cpg/sg12_98_cif.got.tgz:195652.got - 2010.06.03 13:09:07.
