data_PCOD9214602
_publ_section_title
;
Structure prediction by ZEFSAII (Michael W. Deem and Ramdas Pophale) SiO2 
 PCOD9214602
Probable space group: C 2/M
;
_chemical_formula_sum "Si O2"
_cell_formula_units_Z 64
_cell_length_a 31.050603
_cell_length_b 7.976752
_cell_length_c 20.128650
_cell_angle_alpha 90.000000
_cell_angle_beta 143.898778
_cell_angle_gamma 90.000000
_cell_volume 2937.538261
_symmetry_space_group_name_H-M "C 2/M"
_symmetry_group_IT_number 12
_symmetry_cell_setting 'monoclinic'
loop_
_space_group_symop_operation_xyz
x,y,z
-x,y,-z
-x,-y,-z
x,-y,z
1/2+x,1/2+y,z
1/2-x,1/2+y,-z
1/2-x,1/2-y,-z
1/2+x,1/2-y,z
loop_
_atom_site_type_symbol
_atom_site_label
_atom_site_fract_x
_atom_site_fract_y
_atom_site_fract_z
Si Si1 0.450754 0.306694 0.583222
Si Si2 0.351673 0.803807 0.571960
Si Si3 0.866713 0.804135 0.997472
Si Si4 0.606377 0.293958 0.823219
Si Si5 0.916567 0.693272 0.406418
Si Si6 0.418168 0.296869 0.918230
Si Si7 0.710943 0.306912 0.842500
Si Si8 0.691963 0.799543 0.336145
O O1 0.453278 0.500000 0.565308
O O2 0.411612 0.293267 0.604907
O O3 0.533065 0.241577 0.694084
O O4 0.406151 0.207237 0.472353
O O5 0.344682 0.746287 0.639552
O O6 0.272738 0.778551 0.438960
O O7 0.370143 0.000000 0.594633
O O8 0.895269 0.733890 0.963218
O O9 0.779413 0.788840 0.897225
O O10 0.886949 0.000000 0.022261
O O11 0.895634 0.733431 0.103547
O O12 0.607371 0.500000 0.824595
O O13 0.677019 0.239872 0.869288
O O14 0.911513 0.500000 0.378732
O O15 0.856889 0.796504 0.292544
O O16 0.000000 0.752082 0.500000
O O17 0.418291 0.500000 0.919760
O O18 0.358609 0.244904 0.789059
O O19 0.500000 0.241586 0.000000
O O20 0.733010 0.500000 0.878895
O O21 0.701395 0.000000 0.350478
#
# Coordination Sequence:
#
# PCOD9214602 Si02
#       8
#     8   8   8   8   8   8   8   8
#     4  11  22  37  62  91 121 160 200 247 302 361
#     4  10  22  40  62  91 123 157 199 249 302 363
#     4  10  22  41  62  88 120 158 204 251 304 363
#     4   9  20  38  61  88 120 158 203 252 302 358
#     4  11  23  39  59  86 122 162 201 245 299 358
#     4  10  23  41  64  90 120 160 204 252 306 367
#     4  11  22  39  62  89 121 158 204 255 305 360
#     4  10  22  41  64  89 121 159 200 250 306 361
#
# _framework density 21.786950000000001
#
# number of rings (size 3 to 8) (size 9 to 14) (size 15 to 20)
#    0.000    1.750    1.250    2.250    3.500    2.750 
#    0.000    1.875    0.000    0.000    0.000    0.000 
#    0.000    0.000    0.000    0.000    0.000    0.000 
#
# Total GULP energy -178819.037074 kJ/mol
# GULP energy per Si atom -5588.094909 kJ/mol
# Density = 2.173736 g / cm^3
# Si number density = 21.786950 Si / 1000 Ang^3
#
#
#
# Elastic Constant Matrix: (Units=GPa)
#
#
# Indices 1 2 3 4 5 6 
#
# 1 126.6891 3.1457 33.2264 0.0000 -20.9199 0.0000
# 2 3.1457 35.2277 -4.4977 0.0000 -3.8856 0.0000
# 3 33.2264 -4.4977 99.7647 0.0000 -27.3621 0.0000
# 4 0.0000 0.0000 0.0000 20.0486 0.0000 -1.7391
# 5 -20.9199 -3.8856 -27.3621 0.0000 23.7391 0.0000
# 6 0.0000 0.0000 0.0000 -1.7391 0.0000 16.7576
#
#
#
# Elastic Compliance Matrix: (Units=1/GPa)
#
#
# Indices 1 2 3 4 5 6 
#
# 1 0.009345 -0.000257 -0.001282 0.000000 0.006715 0.000000
# 2 -0.000257 0.029938 0.003973 0.000000 0.009253 0.000000
# 3 -0.001282 0.003973 0.015351 0.000000 0.017214 0.000000
# 4 0.000000 0.000000 0.000000 0.050332 0.000000 0.005223
# 5 0.006715 0.009253 0.017214 0.000000 0.069398 0.000000
# 6 0.000000 0.000000 0.000000 0.005223 0.000000 0.060216
#
#
# Mechanical properties :
#
#
# Convention : Reuss Voigt Hill
#
# Bulk Modulus (GPa) = 16.80658 36.15893 26.48276
# Shear Modulus (GPa) = 20.03636 27.42955 23.73296
#
# Velocity S-wave (km/s) = 3.03586 3.55207 3.30407
# Velocity P-wave (km/s) = 4.47431 5.78408 5.17083
#
# Compressibility (1/GPa) = 0.05950049
#
# Stress axis : x y z
#
# Youngs Moduli (GPa) = 107.01090 33.40280 65.14221
#
# Poissons Ratio (x) = 0.00860 0.08352
# Poissons Ratio (y) = 0.02755 -0.25882
# Poissons Ratio (z) = 0.13721 -0.13272
#
# Static dielectric constant tensor:
#      x y z
#    x 1.816170 0.000000 -0.024000 
#    y 0.000000 1.783780 0.000000 
#    z -0.024000 0.000000 1.775620 
# 
# From -- ./inp_files/295795.got.cif
#   From: 2010.05.17/outbox.cif.g08.bks.cpg/sg12_148_cif.got.tgz:295795.got - 2010.06.03 13:09:07.
