data_PCOD9214331
_publ_section_title
;
Structure prediction by ZEFSAII (Michael W. Deem and Ramdas Pophale) SiO2 
 PCOD9214331
Probable space group: C 2/M
;
_chemical_formula_sum "Si O2"
_cell_formula_units_Z 40
_cell_length_a 8.602927
_cell_length_b 16.225575
_cell_length_c 12.735639
_cell_angle_alpha 90.000000
_cell_angle_beta 103.831902
_cell_angle_gamma 90.000000
_cell_volume 1726.183227
_symmetry_space_group_name_H-M "C 2/M"
_symmetry_group_IT_number 12
_symmetry_cell_setting 'monoclinic'
loop_
_space_group_symop_operation_xyz
x,y,z
-x,y,-z
-x,-y,-z
x,-y,z
1/2+x,1/2+y,z
1/2-x,1/2+y,-z
1/2-x,1/2-y,-z
1/2+x,1/2-y,z
loop_
_atom_site_type_symbol
_atom_site_label
_atom_site_fract_x
_atom_site_fract_y
_atom_site_fract_z
Si Si1 0.932380 0.234061 0.604932
Si Si2 0.781581 0.908355 0.697918
Si Si3 0.965412 0.192515 0.159697
Si Si4 0.123517 0.641117 0.100209
Si Si5 0.403921 0.088637 0.673725
O O1 0.060317 0.219561 0.721335
O O2 0.860865 0.324941 0.612946
O O3 0.000000 0.226853 0.500000
O O4 0.810293 0.160968 0.614613
O O5 0.597274 0.910555 0.699707
O O6 0.898385 0.877117 0.809476
O O7 0.829532 0.000000 0.671782
O O8 0.799852 0.161330 0.086066
O O9 0.038988 0.272520 0.118072
O O10 0.145029 0.593466 0.212789
O O11 0.000000 0.600486 0.000000
O O12 0.350008 0.000000 0.619230
#
# Coordination Sequence:
#
# PCOD9214331 Si02
#       5
#     8   8   8   8   8
#     4   9  20  36  64  88 118 159 205 241 295 354
#     4   9  20  39  61  84 123 162 194 242 298 349
#     4   9  20  36  56  90 118 151 197 247 295 351
#     4  11  21  37  62  87 117 157 201 249 302 353
#     4  10  22  40  57  86 125 160 199 247 295 352
#
# _framework density 23.172512000000001
#
# number of rings (size 3 to 8) (size 9 to 14) (size 15 to 20)
#    1.200    1.200    0.000    3.000    0.000    2.800 
#    0.000    0.000    0.000    3.000    0.000    0.000 
#    0.000    0.000    0.000    0.000    0.000    0.000 
#
# Total GULP energy -111641.865195 kJ/mol
# GULP energy per Si atom -5582.093260 kJ/mol
# Density = 2.311977 g / cm^3
# Si number density = 23.172512 Si / 1000 Ang^3
#
#
#
# Elastic Constant Matrix: (Units=GPa)
#
#
# Indices 1 2 3 4 5 6 
#
# 1 53.2988 27.7241 8.6522 0.0000 7.2632 0.0000
# 2 27.7241 172.5955 -3.7009 0.0000 -10.2339 0.0000
# 3 8.6522 -3.7009 48.1676 0.0000 9.4136 0.0000
# 4 0.0000 0.0000 0.0000 -14.6360 0.0000 -5.4748
# 5 7.2632 -10.2339 9.4136 0.0000 31.2624 0.0000
# 6 0.0000 0.0000 0.0000 -5.4748 0.0000 12.9735
#
#
#
# Elastic Compliance Matrix: (Units=1/GPa)
#
#
# Indices 1 2 3 4 5 6 
#
# 1 0.022073 -0.003938 -0.003202 0.000000 -0.005453 0.000000
# 2 -0.003938 0.006611 0.000652 0.000000 0.002883 0.000000
# 3 -0.003202 0.000652 0.022525 0.000000 -0.005825 0.000000
# 4 0.000000 0.000000 0.000000 -0.059010 0.000000 -0.024902
# 5 -0.005453 0.002883 -0.005825 0.000000 0.035952 0.000000
# 6 0.000000 0.000000 0.000000 -0.024902 0.000000 0.066572
#
#
# Mechanical properties :
#
#
# Convention : Reuss Voigt Hill
#
# Bulk Modulus (GPa) = 26.15472 37.71253 31.93362
# Shear Modulus (GPa) = 41.51359 22.01242 31.76301
#
# Velocity S-wave (km/s) = 4.23721 3.08545 3.70634
# Velocity P-wave (km/s) = 5.93717 5.38547 5.66804
#
# Compressibility (1/GPa) = 0.03823402
#
# Stress axis : x y z
#
# Youngs Moduli (GPa) = 45.30369 151.25596 44.39610
#
# Poissons Ratio (x) = 0.59559 0.14215
# Poissons Ratio (y) = 0.17839 -0.02894
# Poissons Ratio (z) = 0.14505 -0.09860
#
# Static dielectric constant tensor:
#      x y z
#    x 1.875290 0.000000 0.040180 
#    y 0.000000 1.883420 0.000000 
#    z 0.040180 0.000000 1.912090 
# 
# From -- ./inp_files/195059.got.cif
#   From: 2010.05.17/outbox.cif.g08.bks.cpg/sg12_98_cif.got.tgz:195059.got - 2010.06.03 13:09:07.
