data_PCOD9214931
_publ_section_title
;
Structure prediction by ZEFSAII (Michael W. Deem and Ramdas Pophale) SiO2 
 PCOD9214931
Probable space group: C 2/M
;
_chemical_formula_sum "Si O2"
_cell_formula_units_Z 44
_cell_length_a 9.489618
_cell_length_b 9.497200
_cell_length_c 22.107256
_cell_angle_alpha 90.000000
_cell_angle_beta 91.006017
_cell_angle_gamma 90.000000
_cell_volume 1992.104910
_symmetry_space_group_name_H-M "C 2/M"
_symmetry_group_IT_number 12
_symmetry_cell_setting 'monoclinic'
loop_
_space_group_symop_operation_xyz
x,y,z
-x,y,-z
-x,-y,-z
x,-y,z
1/2+x,1/2+y,z
1/2-x,1/2+y,-z
1/2-x,1/2-y,-z
1/2+x,1/2-y,z
loop_
_atom_site_type_symbol
_atom_site_label
_atom_site_fract_x
_atom_site_fract_y
_atom_site_fract_z
Si Si1 0.926572 0.338077 0.321635
Si Si2 0.184091 0.336734 0.860307
Si Si3 0.902476 0.286924 0.554740
Si Si4 0.707236 0.834619 0.253947
Si Si5 0.811056 0.000000 0.496234
Si Si6 0.465528 0.336830 0.931110
O O1 0.876109 0.500000 0.320741
O O2 0.010227 0.312881 0.384196
O O3 0.043576 0.319541 0.270008
O O4 0.800260 0.231633 0.308628
O O5 0.159391 0.500000 0.844425
O O6 0.248225 0.253604 0.804158
O O7 0.301098 0.330825 0.914180
O O8 0.046950 0.261397 0.884945
O O9 0.872994 0.123814 0.541802
O O10 0.760436 0.376746 0.547472
O O11 0.000000 0.339718 0.500000
O O12 0.737338 0.000000 0.246733
O O13 0.511346 0.500000 0.923390
O O14 0.500000 0.295693 0.000000
#
# Coordination Sequence:
#
# PCOD9214931 Si02
#       6
#     8   8   8   8   4   8
#     4  11  26  43  65  94 127 159 215 265 315 385
#     4  11  23  41  65  93 131 169 215 262 313 370
#     4  11  24  40  64  90 123 161 201 258 320 383
#     4  11  26  44  64  91 123 170 213 262 316 373
#     4  10  24  40  62  90 124 158 204 244 328 380
#     4  10  22  40  66 100 135 172 213 258 310 371
#
# _framework density 22.087191000000001
#
# number of rings (size 3 to 8) (size 9 to 14) (size 15 to 20)
#    0.000    1.273    0.909    3.273    6.364    6.182 
#    0.000    0.000    0.000    0.000    0.000    0.000 
#    0.000    0.000    0.000    0.000    0.000    0.000 
#
# Total GULP energy -122685.162125 kJ/mol
# GULP energy per Si atom -5576.598278 kJ/mol
# Density = 2.203692 g / cm^3
# Si number density = 22.087191 Si / 1000 Ang^3
#
#
#
# Elastic Constant Matrix: (Units=GPa)
#
#
# Indices 1 2 3 4 5 6 
#
# 1 51.9497 25.9116 1.7184 0.0000 2.7461 0.0000
# 2 25.9116 146.7013 12.6250 0.0000 -8.0870 0.0000
# 3 1.7184 12.6250 70.7706 0.0000 4.7953 0.0000
# 4 0.0000 0.0000 0.0000 31.8276 0.0000 3.7198
# 5 2.7461 -8.0870 4.7953 0.0000 32.0438 0.0000
# 6 0.0000 0.0000 0.0000 3.7198 0.0000 10.9069
#
#
#
# Elastic Compliance Matrix: (Units=1/GPa)
#
#
# Indices 1 2 3 4 5 6 
#
# 1 0.021368 -0.003967 0.000385 0.000000 -0.002890 0.000000
# 2 -0.003967 0.007782 -0.001463 0.000000 0.002523 0.000000
# 3 0.000385 -0.001463 0.014557 0.000000 -0.002581 0.000000
# 4 0.000000 0.000000 0.000000 0.032724 0.000000 -0.011160
# 5 -0.002890 0.002523 -0.002581 0.000000 0.032478 0.000000
# 6 0.000000 0.000000 0.000000 -0.011160 0.000000 0.095491
#
#
# Mechanical properties :
#
#
# Convention : Reuss Voigt Hill
#
# Bulk Modulus (GPa) = 29.74697 38.88130 34.31413
# Shear Modulus (GPa) = 22.15379 30.23342 26.19360
#
# Velocity S-wave (km/s) = 3.17048 3.70377 3.44745
# Velocity P-wave (km/s) = 5.18650 5.99436 5.60500
#
# Compressibility (1/GPa) = 0.03361687
#
# Stress axis : x y z
#
# Youngs Moduli (GPa) = 46.79920 128.49910 68.69714
#
# Poissons Ratio (x) = 0.50970 -0.02642
# Poissons Ratio (y) = 0.18563 0.10050
# Poissons Ratio (z) = -0.01800 0.18798
#
# Static dielectric constant tensor:
#      x y z
#    x 1.865400 0.000000 -0.009210 
#    y 0.000000 1.773680 0.000000 
#    z -0.009210 0.000000 1.818570 
# 
# From -- ./inp_files/303647.got.cif
#   From: 2010.05.17/outbox.cif.g08.bks.cpg/sg12_152_cif.got.tgz:303647.got - 2010.06.03 13:09:07.
