data_PCOD9214953
_publ_section_title
;
Structure prediction by ZEFSAII (Michael W. Deem and Ramdas Pophale) SiO2 
 PCOD9214953
Probable space group: C 2/M
;
_chemical_formula_sum "Si O2"
_cell_formula_units_Z 40
_cell_length_a 18.389361
_cell_length_b 12.970820
_cell_length_c 7.319670
_cell_angle_alpha 90.000000
_cell_angle_beta 79.579627
_cell_angle_gamma 90.000000
_cell_volume 1717.129801
_symmetry_space_group_name_H-M "C 2/M"
_symmetry_group_IT_number 12
_symmetry_cell_setting 'monoclinic'
loop_
_space_group_symop_operation_xyz
x,y,z
-x,y,-z
-x,-y,-z
x,-y,z
1/2+x,1/2+y,z
1/2-x,1/2+y,-z
1/2-x,1/2-y,-z
1/2+x,1/2-y,z
loop_
_atom_site_type_symbol
_atom_site_label
_atom_site_fract_x
_atom_site_fract_y
_atom_site_fract_z
Si Si1 0.603784 0.000000 0.104052
Si Si2 0.100075 0.728049 0.640615
Si Si3 0.330464 0.386929 0.653878
Si Si4 0.941997 0.500000 0.308105
Si Si5 0.306493 0.174568 0.068840
Si Si6 0.521064 0.615627 0.203065
O O1 0.530945 0.000000 0.258165
O O2 0.653359 0.898470 0.094847
O O3 0.580881 0.000000 0.897779
O O4 0.154779 0.792182 0.487282
O O5 0.086792 0.608182 0.599716
O O6 0.133118 0.727621 0.830397
O O7 0.024598 0.793385 0.681743
O O8 0.342917 0.500000 0.561696
O O9 0.248108 0.386197 0.769899
O O10 0.392534 0.375731 0.784974
O O11 0.250000 0.250000 0.000000
O O12 0.498683 0.500000 0.275692
O O13 0.500000 0.620604 0.000000
#
# Coordination Sequence:
#
# PCOD9214953 Si02
#       6
#     4   8   8   4   8   8
#     4   9  20  42  63  94 127 172 217 271 323 374
#     4  11  23  41  66  94 131 172 216 266 331 388
#     4  11  23  43  67  95 134 171 213 274 335 389
#     4   9  22  38  68  93 127 171 221 268 317 388
#     4  11  23  41  66  96 129 173 222 269 323 386
#     4  10  22  40  66  95 124 164 220 273 323 384
#
# _framework density 23.294688000000001
#
# number of rings (size 3 to 8) (size 9 to 14) (size 15 to 20)
#    0.000    1.600    1.000    3.000    8.400    1.600 
#    3.600    3.000    0.000    0.000    0.000    0.000 
#    0.000    0.000    0.000    0.000    0.000    0.000 
#
# Total GULP energy -111856.018781 kJ/mol
# GULP energy per Si atom -5592.800939 kJ/mol
# Density = 2.324167 g / cm^3
# Si number density = 23.294688 Si / 1000 Ang^3
#
#
#
# Elastic Constant Matrix: (Units=GPa)
#
#
# Indices 1 2 3 4 5 6 
#
# 1 103.2144 44.5936 0.3697 0.0000 -6.2213 0.0000
# 2 44.5936 192.7852 44.2373 0.0000 -5.6277 0.0000
# 3 0.3697 44.2373 45.3491 0.0000 1.4036 0.0000
# 4 0.0000 0.0000 0.0000 30.4336 0.0000 -4.1001
# 5 -6.2213 -5.6277 1.4036 0.0000 42.2979 0.0000
# 6 0.0000 0.0000 0.0000 -4.1001 0.0000 50.2485
#
#
#
# Elastic Compliance Matrix: (Units=1/GPa)
#
#
# Indices 1 2 3 4 5 6 
#
# 1 0.011146 -0.003243 0.003038 0.000000 0.001107 0.000000
# 2 -0.003243 0.007679 -0.007489 0.000000 0.000793 0.000000
# 3 0.003038 -0.007489 0.029379 0.000000 -0.001524 0.000000
# 4 0.000000 0.000000 0.000000 0.033224 0.000000 0.002711
# 5 0.001107 0.000793 -0.001524 0.000000 0.023961 0.000000
# 6 0.000000 0.000000 0.000000 0.002711 0.000000 0.020122
#
#
# Mechanical properties :
#
#
# Convention : Reuss Voigt Hill
#
# Bulk Modulus (GPa) = 30.47261 57.74999 44.11130
# Shear Modulus (GPa) = 32.93050 41.40588 37.16819
#
# Velocity S-wave (km/s) = 3.76393 4.22059 3.99879
# Velocity P-wave (km/s) = 5.65679 6.97109 6.34805
#
# Compressibility (1/GPa) = 0.03281635
#
# Stress axis : x y z
#
# Youngs Moduli (GPa) = 89.72212 130.22897 34.03839
#
# Poissons Ratio (x) = 0.42233 -0.10342
# Poissons Ratio (y) = 0.29097 0.25490
# Poissons Ratio (z) = -0.27260 0.97524
#
# Static dielectric constant tensor:
#      x y z
#    x 1.840050 0.000000 0.003760 
#    y 0.000000 1.909760 0.000000 
#    z 0.003760 0.000000 1.899390 
# 
# From -- ./inp_files/71280.got.cif
#   From: 2010.05.17/outbox.cif.g08.bks.cpg/sg12_36_cif.got.tgz:71280.got - 2010.06.03 13:09:07.
