data_PCOD9214876
_publ_section_title
;
Structure prediction by ZEFSAII (Michael W. Deem and Ramdas Pophale) SiO2 
 PCOD9214876
Probable space group: C 2/M
;
_chemical_formula_sum "Si O2"
_cell_formula_units_Z 64
_cell_length_a 27.753092
_cell_length_b 19.007410
_cell_length_c 9.734631
_cell_angle_alpha 90.000000
_cell_angle_beta 42.032643
_cell_angle_gamma 90.000000
_cell_volume 3438.265015
_symmetry_space_group_name_H-M "C 2/M"
_symmetry_group_IT_number 12
_symmetry_cell_setting 'monoclinic'
loop_
_space_group_symop_operation_xyz
x,y,z
-x,y,-z
-x,-y,-z
x,-y,z
1/2+x,1/2+y,z
1/2-x,1/2+y,-z
1/2-x,1/2-y,-z
1/2+x,1/2-y,z
loop_
_atom_site_type_symbol
_atom_site_label
_atom_site_fract_x
_atom_site_fract_y
_atom_site_fract_z
Si Si1 0.056603 0.917434 0.757077
Si Si2 0.280345 0.315427 0.848046
Si Si3 0.805772 0.827762 0.474767
Si Si4 0.069251 0.581363 0.036129
Si Si5 0.653146 0.918573 0.144396
Si Si6 0.051950 0.814143 0.518583
Si Si7 0.573001 0.844977 0.556776
Si Si8 0.159517 0.327930 0.637335
O O1 0.134728 0.887707 0.635256
O O2 0.034880 0.870622 0.672320
O O3 0.060571 0.000000 0.715492
O O4 0.000000 0.907773 0.000000
O O5 0.277272 0.307304 0.688212
O O6 0.364601 0.324324 0.700803
O O7 0.250000 0.250000 0.000000
O O8 0.230615 0.382003 0.986259
O O9 0.842552 0.756553 0.340603
O O10 0.739045 0.848399 0.520306
O O11 0.066046 0.500000 0.998348
O O12 0.121426 0.585538 0.058090
O O13 0.991586 0.608836 0.246880
O O14 0.102010 0.631533 0.851485
O O15 0.600023 0.876347 0.356606
O O16 0.655629 0.000000 0.180036
O O17 0.047923 0.735284 0.588576
O O18 0.000000 0.820340 0.500000
O O19 0.639015 0.844322 0.524205
#
# Coordination Sequence:
#
# PCOD9214876 Si02
#       8
#     8   8   8   8   8   8   8   8
#     4  10  23  45  67  93 125 161 208 263 323 376
#     4  11  20  41  63  94 125 160 210 261 308 366
#     4  10  22  40  65  93 122 165 207 260 309 374
#     4  11  25  40  62  93 130 171 209 254 310 385
#     4  11  23  42  65  89 127 173 209 253 317 376
#     4  11  24  41  66  97 126 169 212 263 316 374
#     4  12  23  40  62  97 132 169 206 257 310 374
#     4  11  22  40  63  93 124 166 212 254 308 368
#
# _framework density 18.614038000000001
#
# number of rings (size 3 to 8) (size 9 to 14) (size 15 to 20)
#    0.000    1.125    5.000    1.875    1.750    5.250 
#    4.500    0.000    0.000    0.000    0.000    0.000 
#    0.000    0.000    0.000    0.000    0.000    0.000 
#
# Total GULP energy -178795.115041 kJ/mol
# GULP energy per Si atom -5587.347345 kJ/mol
# Density = 1.857167 g / cm^3
# Si number density = 18.614038 Si / 1000 Ang^3
#
#
#
# Elastic Constant Matrix: (Units=GPa)
#
#
# Indices 1 2 3 4 5 6 
#
# 1 108.6546 32.3780 10.6729 0.0000 4.6197 0.0000
# 2 32.3780 119.8294 63.5961 0.0000 9.7271 0.0000
# 3 10.6729 63.5961 79.2225 0.0000 5.8737 0.0000
# 4 0.0000 0.0000 0.0000 20.4617 0.0000 4.0010
# 5 4.6197 9.7271 5.8737 0.0000 23.3778 0.0000
# 6 0.0000 0.0000 0.0000 4.0010 0.0000 25.1807
#
#
#
# Elastic Compliance Matrix: (Units=1/GPa)
#
#
# Indices 1 2 3 4 5 6 
#
# 1 0.010124 -0.003436 0.001464 0.000000 -0.000939 0.000000
# 2 -0.003436 0.015941 -0.012118 0.000000 -0.002909 0.000000
# 3 0.001464 -0.012118 0.022215 0.000000 -0.000829 0.000000
# 4 0.000000 0.000000 0.000000 0.050439 0.000000 -0.008014
# 5 -0.000939 -0.002909 -0.000829 0.000000 0.044380 0.000000
# 6 0.000000 0.000000 0.000000 -0.008014 0.000000 0.040986
#
#
# Mechanical properties :
#
#
# Convention : Reuss Voigt Hill
#
# Bulk Modulus (GPa) = 49.75380 57.88895 53.82138
# Shear Modulus (GPa) = 22.83470 27.20800 25.02135
#
# Velocity S-wave (km/s) = 3.50629 3.82736 3.67034
# Velocity P-wave (km/s) = 6.57110 7.12030 6.85120
#
# Compressibility (1/GPa) = 0.02009897
#
# Stress axis : x y z
#
# Youngs Moduli (GPa) = 98.77970 62.73024 45.01498
#
# Poissons Ratio (x) = 0.21556 -0.06591
# Poissons Ratio (y) = 0.33944 0.54550
# Poissons Ratio (z) = -0.14464 0.76018
#
# Static dielectric constant tensor:
#      x y z
#    x 1.643860 0.000000 0.005300 
#    y 0.000000 1.625590 0.000000 
#    z 0.005300 0.000000 1.626160 
# 
# From -- ./inp_files/112838.got.cif
#   From: 2010.05.17/outbox.cif.g08.bks.cpg/sg12_57_cif.got.tgz:112838.got - 2010.06.03 13:09:07.
