data_PCOD9214620
_publ_section_title
;
Structure prediction by ZEFSAII (Michael W. Deem and Ramdas Pophale) SiO2 
 PCOD9214620
Probable space group: C 2/M
;
_chemical_formula_sum "Si O2"
_cell_formula_units_Z 32
_cell_length_a 27.972483
_cell_length_b 10.858041
_cell_length_c 7.398111
_cell_angle_alpha 90.000000
_cell_angle_beta 137.408075
_cell_angle_gamma 90.000000
_cell_volume 1520.708113
_symmetry_space_group_name_H-M "C 2/M"
_symmetry_group_IT_number 12
_symmetry_cell_setting 'monoclinic'
loop_
_space_group_symop_operation_xyz
x,y,z
-x,y,-z
-x,-y,-z
x,-y,z
1/2+x,1/2+y,z
1/2-x,1/2+y,-z
1/2-x,1/2-y,-z
1/2+x,1/2-y,z
loop_
_atom_site_type_symbol
_atom_site_label
_atom_site_fract_x
_atom_site_fract_y
_atom_site_fract_z
Si Si1 0.899488 0.361143 0.372120
Si Si2 0.995540 0.864204 0.770417
Si Si3 0.644266 0.274155 0.084162
Si Si4 0.705343 0.139414 0.595275
O O1 0.927885 0.500000 0.477309
O O2 0.831738 0.347134 0.314599
O O3 0.952327 0.251610 0.574157
O O4 0.877118 0.338957 0.104028
O O5 0.965280 0.000000 0.643188
O O6 0.074743 0.855217 0.914633
O O7 0.000000 0.853113 0.000000
O O8 0.711086 0.337977 0.175692
O O9 0.669780 0.230259 0.351896
O O10 0.691794 0.000000 0.496031
#
# Coordination Sequence:
#
# PCOD9214620 Si02
#       4
#     8   8   8   8
#     4  11  24  42  66  96 127 164 210 259 313 375
#     4  11  24  43  65  93 127 167 212 260 313 372
#     4  11  22  40  65  92 124 169 210 256 307 378
#     4  10  22  40  62  92 128 165 206 259 312 367
#
# _framework density 21.042829000000001
#
# number of rings (size 3 to 8) (size 9 to 14) (size 15 to 20)
#    0.000    1.250    2.500    3.000    0.000    6.500 
#    0.000    1.250    0.000    0.000    0.000    0.000 
#    0.000    0.000    0.000    0.000    0.000    0.000 
#
# Total GULP energy -89410.215159 kJ/mol
# GULP energy per Si atom -5588.138447 kJ/mol
# Density = 2.099493 g / cm^3
# Si number density = 21.042829 Si / 1000 Ang^3
#
#
#
# Elastic Constant Matrix: (Units=GPa)
#
#
# Indices 1 2 3 4 5 6 
#
# 1 99.5514 40.3048 36.0184 0.0000 13.9840 0.0000
# 2 40.3048 106.8215 18.8878 0.0000 6.6705 0.0000
# 3 36.0184 18.8878 36.9576 0.0000 1.7056 0.0000
# 4 0.0000 0.0000 0.0000 25.5385 0.0000 3.4643
# 5 13.9840 6.6705 1.7056 0.0000 36.3088 0.0000
# 6 0.0000 0.0000 0.0000 3.4643 0.0000 19.0083
#
#
#
# Elastic Compliance Matrix: (Units=1/GPa)
#
#
# Indices 1 2 3 4 5 6 
#
# 1 0.017815 -0.003688 -0.015225 0.000000 -0.005468 0.000000
# 2 -0.003688 0.011154 -0.002082 0.000000 -0.000531 0.000000
# 3 -0.015225 -0.002082 0.042764 0.000000 0.004237 0.000000
# 4 0.000000 0.000000 0.000000 0.040149 0.000000 -0.007317
# 5 -0.005468 -0.000531 0.004237 0.000000 0.029546 0.000000
# 6 0.000000 0.000000 0.000000 -0.007317 0.000000 0.053942
#
#
# Mechanical properties :
#
#
# Convention : Reuss Voigt Hill
#
# Bulk Modulus (GPa) = 33.62012 48.19472 40.90742
# Shear Modulus (GPa) = 20.22042 26.04576 23.13309
#
# Velocity S-wave (km/s) = 3.10323 3.52198 3.31922
# Velocity P-wave (km/s) = 5.37138 6.28427 5.84567
#
# Compressibility (1/GPa) = 0.02974409
#
# Stress axis : x y z
#
# Youngs Moduli (GPa) = 56.13281 89.65207 23.38404
#
# Poissons Ratio (x) = 0.33066 0.35602
# Poissons Ratio (y) = 0.20703 0.04867
# Poissons Ratio (z) = 0.85461 0.18661
#
# Static dielectric constant tensor:
#      x y z
#    x 1.745840 0.000000 0.000740 
#    y 0.000000 1.753730 0.000000 
#    z 0.000740 0.000000 1.743430 
# 
# From -- ./inp_files/101706.got.cif
#   From: 2010.05.17/outbox.cif.g08.bks.cpg/sg12_51_cif.got.tgz:101706.got - 2010.06.03 13:09:07.
