data_PCOD9214018
_publ_section_title
;
Structure prediction by ZEFSAII (Michael W. Deem and Ramdas Pophale) SiO2 
 PCOD9214018
Probable space group: C 2/M
;
_chemical_formula_sum "Si O2"
_cell_formula_units_Z 64
_cell_length_a 29.351235
_cell_length_b 8.705530
_cell_length_c 19.323971
_cell_angle_alpha 90.000000
_cell_angle_beta 139.175660
_cell_angle_gamma 90.000000
_cell_volume 3227.932500
_symmetry_space_group_name_H-M "C 2/M"
_symmetry_group_IT_number 12
_symmetry_cell_setting 'monoclinic'
loop_
_space_group_symop_operation_xyz
x,y,z
-x,y,-z
-x,-y,-z
x,-y,z
1/2+x,1/2+y,z
1/2-x,1/2+y,-z
1/2-x,1/2-y,-z
1/2+x,1/2-y,z
loop_
_atom_site_type_symbol
_atom_site_label
_atom_site_fract_x
_atom_site_fract_y
_atom_site_fract_z
Si Si1 0.082166 0.316371 0.377330
Si Si2 0.705952 0.683679 0.599384
Si Si3 0.927586 0.818164 0.196740
Si Si4 0.900834 0.677809 0.021966
Si Si5 0.343128 0.815402 0.681162
Si Si6 0.790216 0.183066 0.113283
Si Si7 0.268753 0.681593 0.811821
Si Si8 0.969518 0.173457 0.888467
O O1 0.074123 0.500000 0.366825
O O2 0.133652 0.264023 0.497337
O O3 0.122575 0.270013 0.352713
O O4 0.006084 0.241230 0.296250
O O5 0.697534 0.500000 0.588236
O O6 0.763923 0.727406 0.607796
O O7 0.735892 0.734951 0.707825
O O8 0.894041 0.731384 0.092811
O O9 0.872960 0.793257 0.195900
O O10 0.928991 0.000000 0.183399
O O11 0.884345 0.500000 0.994415
O O12 0.980823 0.712544 0.096318
O O13 0.849988 0.775817 0.915304
O O14 0.391797 0.735076 0.793894
O O15 0.347880 0.000000 0.692354
O O16 0.765513 0.260580 0.155811
O O17 0.777113 0.000000 0.101502
O O18 0.750000 0.250000 0.000000
O O19 0.260768 0.500000 0.795044
O O20 0.973732 0.000000 0.865080
O O21 0.000000 0.172054 0.000000
#
# Coordination Sequence:
#
# PCOD9214018 Si02
#       8
#     8   8   8   8   8   8   8   8
#     4  11  23  41  65  94 127 167 214 262 313 370
#     4  11  24  43  65  91 126 169 215 263 316 372
#     4  11  23  40  64  95 126 161 205 254 310 371
#     4  12  23  37  60  88 124 165 205 254 313 375
#     4  10  22  39  61  90 123 165 213 260 311 372
#     4  11  23  40  66  97 130 165 206 256 313 381
#     4  12  25  42  64  93 129 166 210 262 318 380
#     4  11  23  36  54  84 123 166 209 256 312 373
#
# _framework density 19.826931999999999
#
# number of rings (size 3 to 8) (size 9 to 14) (size 15 to 20)
#    0.000    0.875    2.500    5.250    0.000    6.000 
#    0.000    0.625    0.000    3.750    0.000    0.000 
#    0.000    0.000    0.000    0.000    0.000    0.000 
#
# Total GULP energy -178937.902825 kJ/mol
# GULP energy per Si atom -5591.809463 kJ/mol
# Density = 1.978180 g / cm^3
# Si number density = 19.826932 Si / 1000 Ang^3
#
#
#
# Elastic Constant Matrix: (Units=GPa)
#
#
# Indices 1 2 3 4 5 6 
#
# 1 80.9602 17.7136 13.6140 0.0000 12.1888 0.0000
# 2 17.7136 47.2296 -7.7730 0.0000 8.7894 0.0000
# 3 13.6140 -7.7730 79.1505 0.0000 13.4714 0.0000
# 4 0.0000 0.0000 0.0000 31.9398 0.0000 2.0404
# 5 12.1888 8.7894 13.4714 0.0000 25.2838 0.0000
# 6 0.0000 0.0000 0.0000 2.0404 0.0000 24.5951
#
#
#
# Elastic Compliance Matrix: (Units=1/GPa)
#
#
# Indices 1 2 3 4 5 6 
#
# 1 0.014444 -0.005056 -0.002304 0.000000 -0.003978 0.000000
# 2 -0.005056 0.025569 0.004925 0.000000 -0.009075 0.000000
# 3 -0.002304 0.004925 0.014974 0.000000 -0.008580 0.000000
# 4 0.000000 0.000000 0.000000 0.031476 0.000000 -0.002611
# 5 -0.003978 -0.009075 -0.008580 0.000000 0.049195 0.000000
# 6 0.000000 0.000000 0.000000 -0.002611 0.000000 0.040875
#
#
# Mechanical properties :
#
#
# Convention : Reuss Voigt Hill
#
# Bulk Modulus (GPa) = 19.95286 28.27216 24.11251
# Shear Modulus (GPa) = 25.23855 28.61612 26.92734
#
# Velocity S-wave (km/s) = 3.57170 3.80319 3.68926
# Velocity P-wave (km/s) = 5.20526 5.79449 5.50776
#
# Compressibility (1/GPa) = 0.05011813
#
# Stress axis : x y z
#
# Youngs Moduli (GPa) = 69.23119 39.10981 66.78040
#
# Poissons Ratio (x) = 0.19775 0.15386
# Poissons Ratio (y) = 0.35005 -0.32891
# Poissons Ratio (z) = 0.15950 -0.19263
#
# Static dielectric constant tensor:
#      x y z
#    x 1.724220 0.000000 -0.000480 
#    y 0.000000 1.658790 0.000000 
#    z -0.000480 0.000000 1.673790 
# 
# From -- ./inp_files/295838.got.cif
#   From: 2010.05.17/outbox.cif.g08.bks.cpg/sg12_148_cif.got.tgz:295838.got - 2010.06.03 13:09:07.
