data_PCOD9214467
_publ_section_title
;
Structure prediction by ZEFSAII (Michael W. Deem and Ramdas Pophale) SiO2 
 PCOD9214467
Probable space group: C 2/M
;
_chemical_formula_sum "Si O2"
_cell_formula_units_Z 56
_cell_length_a 17.486465
_cell_length_b 17.512704
_cell_length_c 8.824719
_cell_angle_alpha 90.000000
_cell_angle_beta 97.368841
_cell_angle_gamma 90.000000
_cell_volume 2680.121046
_symmetry_space_group_name_H-M "C 2/M"
_symmetry_group_IT_number 12
_symmetry_cell_setting 'monoclinic'
loop_
_space_group_symop_operation_xyz
x,y,z
-x,y,-z
-x,-y,-z
x,-y,z
1/2+x,1/2+y,z
1/2-x,1/2+y,-z
1/2-x,1/2-y,-z
1/2+x,1/2-y,z
loop_
_atom_site_type_symbol
_atom_site_label
_atom_site_fract_x
_atom_site_fract_y
_atom_site_fract_z
Si Si1 0.650413 0.590507 0.843965
Si Si2 0.548183 0.172372 0.151562
Si Si3 0.297989 0.823632 0.965901
Si Si4 0.295212 0.092505 0.273865
Si Si5 0.081549 0.590603 0.455095
Si Si6 0.380163 0.410099 0.805556
Si Si7 0.513695 0.312798 0.682119
O O1 0.646427 0.500000 0.805935
O O2 0.738184 0.621326 0.861684
O O3 0.593988 0.643414 0.731568
O O4 0.622407 0.599413 0.012450
O O5 0.626939 0.205217 0.102144
O O6 0.579066 0.112794 0.280829
O O7 0.496480 0.234923 0.224936
O O8 0.500000 0.139135 0.000000
O O9 0.250000 0.750000 0.000000
O O10 0.321284 0.869741 0.123184
O O11 0.348367 0.120175 0.425004
O O12 0.205335 0.111898 0.272485
O O13 0.299458 0.000000 0.260176
O O14 0.084523 0.500000 0.470115
O O15 0.000000 0.617143 0.500000
O O16 0.391302 0.500000 0.780188
O O17 0.446683 0.365267 0.737680
O O18 0.500000 0.301360 0.500000
#
# Coordination Sequence:
#
# PCOD9214467 Si02
#       7
#     8   8   8   8   8   8   8
#     4  10  22  42  67  94 126 164 208 258 312 371
#     4  12  25  41  62  87 122 163 207 255 307 374
#     4  11  22  38  64  93 124 163 209 259 306 364
#     4   9  19  39  64  89 122 160 201 252 314 378
#     4  10  22  40  61  86 118 157 200 251 310 369
#     4   9  18  36  63  91 121 159 201 249 307 370
#     4  12  25  40  60  89 125 165 210 258 309 367
#
# _framework density 20.894579
#
# number of rings (size 3 to 8) (size 9 to 14) (size 15 to 20)
#    0.000    1.571    0.000    6.857    0.000    6.000 
#    0.000    3.571    0.000    0.000    0.000    0.000 
#    0.000    0.000    0.000    0.000    0.000    0.000 
#
# Total GULP energy -156476.474602 kJ/mol
# GULP energy per Si atom -5588.445522 kJ/mol
# Density = 2.084702 g / cm^3
# Si number density = 20.894579 Si / 1000 Ang^3
#
#
#
# Elastic Constant Matrix: (Units=GPa)
#
#
# Indices 1 2 3 4 5 6 
#
# 1 52.1170 12.7803 38.5250 0.0000 15.4193 0.0000
# 2 12.7803 32.5392 14.9121 0.0000 12.2656 0.0000
# 3 38.5250 14.9121 124.3659 0.0000 39.0686 0.0000
# 4 0.0000 0.0000 0.0000 29.9252 0.0000 -4.2427
# 5 15.4193 12.2656 39.0686 0.0000 31.3693 0.0000
# 6 0.0000 0.0000 0.0000 -4.2427 0.0000 26.3545
#
#
#
# Elastic Compliance Matrix: (Units=1/GPa)
#
#
# Indices 1 2 3 4 5 6 
#
# 1 0.026372 -0.006506 -0.006762 0.000000 -0.001998 0.000000
# 2 -0.006506 0.037652 0.001841 0.000000 -0.013817 0.000000
# 3 -0.006762 0.001841 0.014943 0.000000 -0.016007 0.000000
# 4 0.000000 0.000000 0.000000 0.034197 0.000000 0.005505
# 5 -0.001998 -0.013817 -0.016007 0.000000 0.058199 0.000000
# 6 0.000000 0.000000 0.000000 0.005505 0.000000 0.038830
#
#
# Mechanical properties :
#
#
# Convention : Reuss Voigt Hill
#
# Bulk Modulus (GPa) = 17.82071 37.93964 27.88018
# Shear Modulus (GPa) = 19.86080 27.05011 23.45546
#
# Velocity S-wave (km/s) = 3.08640 3.60196 3.35410
# Velocity P-wave (km/s) = 4.60962 5.95784 5.32656
#
# Compressibility (1/GPa) = 0.05611448
#
# Stress axis : x y z
#
# Youngs Moduli (GPa) = 37.91833 26.55891 66.92069
#
# Poissons Ratio (x) = 0.17280 0.45250
# Poissons Ratio (y) = 0.24671 -0.12323
# Poissons Ratio (z) = 0.25639 -0.04891
#
# Static dielectric constant tensor:
#      x y z
#    x 1.771760 0.000000 -0.023320 
#    y 0.000000 1.753880 0.000000 
#    z -0.023320 0.000000 1.794170 
# 
# From -- ./inp_files/75999.got.cif
#   From: 2010.05.17/outbox.cif.g08.bks.cpg/sg12_38_cif.got.tgz:75999.got - 2010.06.03 13:09:07.
