data_PCOD9214222
_publ_section_title
;
Structure prediction by ZEFSAII (Michael W. Deem and Ramdas Pophale) SiO2 
 PCOD9214222
Probable space group: C 2/M
;
_chemical_formula_sum "Si O2"
_cell_formula_units_Z 60
_cell_length_a 26.255921
_cell_length_b 13.667069
_cell_length_c 20.469774
_cell_angle_alpha 90.000000
_cell_angle_beta 21.739295
_cell_angle_gamma 90.000000
_cell_volume 2720.619370
_symmetry_space_group_name_H-M "C 2/M"
_symmetry_group_IT_number 12
_symmetry_cell_setting 'monoclinic'
loop_
_space_group_symop_operation_xyz
x,y,z
-x,y,-z
-x,-y,-z
x,-y,z
1/2+x,1/2+y,z
1/2-x,1/2+y,-z
1/2-x,1/2-y,-z
1/2+x,1/2-y,z
loop_
_atom_site_type_symbol
_atom_site_label
_atom_site_fract_x
_atom_site_fract_y
_atom_site_fract_z
Si Si1 0.237065 0.808065 0.162912
Si Si2 0.922355 0.390303 0.661624
Si Si3 0.636063 0.888235 0.524719
Si Si4 0.455419 0.611898 0.716649
Si Si5 0.005801 0.244006 0.213694
Si Si6 0.049619 0.112311 0.837809
Si Si7 0.243323 0.116228 0.302885
Si Si8 0.000000 0.255684 0.000000
O O1 0.186306 0.696505 0.213170
O O2 0.219245 0.844057 0.258091
O O3 0.142754 0.872849 0.228026
O O4 0.391294 0.809512 0.951715
O O5 0.865064 0.500000 0.741048
O O6 0.000000 0.390873 0.500000
O O7 0.034347 0.370196 0.584990
O O8 0.603011 0.813299 0.621491
O O9 0.796529 0.883007 0.315787
O O10 0.610826 0.000000 0.576586
O O11 0.448557 0.500000 0.747722
O O12 0.418078 0.687158 0.818143
O O13 0.610179 0.632443 0.506567
O O14 0.945533 0.160062 0.239122
O O15 0.004176 0.000000 0.891474
O O16 0.958220 0.182807 0.991491
O O17 0.268791 0.000000 0.269971
O O18 0.375572 0.175256 0.170199
#
# Coordination Sequence:
#
# PCOD9214222 Si02
#       8
#     8   8   8   8   8   8   8   4
#     4  12  24  42  65  99 135 174 222 269 329 388
#     4  10  22  39  64  97 131 172 218 267 324 393
#     4  10  23  42  66  95 131 175 221 268 329 397
#     4  11  24  42  69  96 134 180 220 272 328 399
#     4  12  24  44  64 100 134 173 219 276 338 391
#     4  11  25  45  69  97 130 169 219 274 334 403
#     4  11  25  46  70  99 132 175 227 274 328 394
#     4  12  24  46  70 100 128 170 214 280 338 392
#
# _framework density 22.053802000000001
#
# number of rings (size 3 to 8) (size 9 to 14) (size 15 to 20)
#    0.000    0.933    2.667    4.000    1.867    3.200 
#    0.000    1.333    0.000    0.000    0.000    0.000 
#    0.000    0.000    0.000    0.000    0.000    0.000 
#
# Total GULP energy -167860.419971 kJ/mol
# GULP energy per Si atom -5595.347332 kJ/mol
# Density = 2.200361 g / cm^3
# Si number density = 22.053802 Si / 1000 Ang^3
#
#
#
# Elastic Constant Matrix: (Units=GPa)
#
#
# Indices 1 2 3 4 5 6 
#
# 1 65.2994 22.6118 -2.2670 0.0000 8.6277 0.0000
# 2 22.6118 129.1721 24.1006 0.0000 5.9902 0.0000
# 3 -2.2670 24.1006 45.9158 0.0001 2.4972 0.0000
# 4 0.0000 0.0000 0.0001 20.8176 0.0000 1.9519
# 5 8.6277 5.9902 2.4972 0.0000 28.8699 0.0000
# 6 0.0000 0.0000 0.0000 1.9519 0.0000 36.3099
#
#
#
# Elastic Compliance Matrix: (Units=1/GPa)
#
#
# Indices 1 2 3 4 5 6 
#
# 1 0.017183 -0.003322 0.002847 0.000000 -0.004692 0.000000
# 2 -0.003322 0.009281 -0.005008 0.000000 -0.000500 0.000000
# 3 0.002847 -0.005008 0.024654 0.000000 -0.001944 0.000000
# 4 0.000000 0.000000 0.000000 0.048280 0.000000 -0.002595
# 5 -0.004692 -0.000500 -0.001944 0.000000 0.036312 0.000000
# 6 0.000000 0.000000 0.000000 -0.002595 0.000000 0.027680
#
#
# Mechanical properties :
#
#
# Convention : Reuss Voigt Hill
#
# Bulk Modulus (GPa) = 24.90509 36.58645 30.74577
# Shear Modulus (GPa) = 26.63270 30.26227 28.44749
#
# Velocity S-wave (km/s) = 3.47886 3.70834 3.59543
# Velocity P-wave (km/s) = 5.23966 5.91282 5.58639
#
# Compressibility (1/GPa) = 0.04015243
#
# Stress axis : x y z
#
# Youngs Moduli (GPa) = 58.19688 107.75141 40.56141
#
# Poissons Ratio (x) = 0.35790 -0.11548
# Poissons Ratio (y) = 0.19330 0.20314
# Poissons Ratio (z) = -0.16569 0.53963
#
# Static dielectric constant tensor:
#      x y z
#    x 1.808330 0.000000 -0.019990 
#    y 0.000000 1.804540 0.000000 
#    z -0.019990 0.000000 1.793310 
# 
# From -- ./inp_files/328380.got.cif
#   From: 2010.05.17/outbox.cif.g08.bks.cpg/sg12_165_cif.got.tgz:328380.got - 2010.06.03 13:09:07.
