data_PCOD9214385
_publ_section_title
;
Structure prediction by ZEFSAII (Michael W. Deem and Ramdas Pophale) SiO2 
 PCOD9214385
Probable space group: C 2/M
;
_chemical_formula_sum "Si O2"
_cell_formula_units_Z 48
_cell_length_a 29.126567
_cell_length_b 9.248615
_cell_length_c 8.189204
_cell_angle_alpha 90.000000
_cell_angle_beta 77.710275
_cell_angle_gamma 90.000000
_cell_volume 2155.457611
_symmetry_space_group_name_H-M "C 2/M"
_symmetry_group_IT_number 12
_symmetry_cell_setting 'monoclinic'
loop_
_space_group_symop_operation_xyz
x,y,z
-x,y,-z
-x,-y,-z
x,-y,z
1/2+x,1/2+y,z
1/2-x,1/2+y,-z
1/2-x,1/2-y,-z
1/2+x,1/2-y,z
loop_
_atom_site_type_symbol
_atom_site_label
_atom_site_fract_x
_atom_site_fract_y
_atom_site_fract_z
Si Si1 0.770449 0.830842 0.325804
Si Si2 0.801925 0.831161 0.813703
Si Si3 0.392605 0.673128 0.920166
Si Si4 0.636300 0.663626 0.565441
Si Si5 0.435528 0.830434 0.198626
Si Si6 0.971442 0.329788 0.686878
O O1 0.750000 0.750000 0.500000
O O2 0.744478 0.759766 0.191723
O O3 0.826090 0.821048 0.314396
O O4 0.758361 0.000000 0.340318
O O5 0.838982 0.781797 0.922278
O O6 0.833689 0.824324 0.623172
O O7 0.789932 0.000000 0.849523
O O8 0.392989 0.500000 0.925495
O O9 0.426708 0.730656 0.751117
O O10 0.415489 0.740450 0.063488
O O11 0.616920 0.500000 0.586370
O O12 0.596272 0.780660 0.623847
O O13 0.489732 0.804882 0.201289
O O14 0.429538 0.000000 0.172165
O O15 0.958195 0.500000 0.699875
O O16 0.000000 0.302170 0.500000
#
# Coordination Sequence:
#
# PCOD9214385 Si02
#       6
#     8   8   8   8   8   8
#     4   9  17  30  52  81 111 143 180 225 273 319
#     4   9  19  35  55  81 110 141 182 229 272 319
#     4  11  23  38  57  81 111 146 181 221 271 324
#     4   9  18  34  55  80 109 139 178 226 270 316
#     4  11  23  37  55  80 110 145 182 220 268 326
#     4  10  22  40  60  83 110 139 177 225 271 320
#
# _framework density 22.269051999999999
#
# number of rings (size 3 to 8) (size 9 to 14) (size 15 to 20)
#    0.000    2.167    0.000    4.000    0.000    8.333 
#    0.000    0.833    0.000    0.000    0.000    0.000 
#    0.000    0.000    0.000    0.000    0.000    0.000 
#
# Total GULP energy -134168.171373 kJ/mol
# GULP energy per Si atom -5590.340474 kJ/mol
# Density = 2.221837 g / cm^3
# Si number density = 22.269052 Si / 1000 Ang^3
#
#
#
# Elastic Constant Matrix: (Units=GPa)
#
#
# Indices 1 2 3 4 5 6 
#
# 1 95.4961 58.2916 15.0495 0.0000 11.3526 0.0000
# 2 58.2916 69.3177 13.0466 0.0000 8.1028 0.0000
# 3 15.0495 13.0466 74.8565 0.0000 19.2864 0.0000
# 4 0.0000 0.0000 0.0000 26.4633 0.0000 0.6622
# 5 11.3526 8.1028 19.2864 0.0000 36.4826 0.0000
# 6 0.0000 0.0000 0.0000 0.6622 0.0000 30.6792
#
#
#
# Elastic Compliance Matrix: (Units=1/GPa)
#
#
# Indices 1 2 3 4 5 6 
#
# 1 0.021812 -0.017936 -0.000621 0.000000 -0.002475 0.000000
# 2 -0.017936 0.029825 -0.001532 0.000000 -0.000233 0.000000
# 3 -0.000621 -0.001532 0.015760 0.000000 -0.007798 0.000000
# 4 0.000000 0.000000 0.000000 0.037809 0.000000 -0.000816
# 5 -0.002475 -0.000233 -0.007798 0.000000 0.032355 0.000000
# 6 0.000000 0.000000 0.000000 -0.000816 0.000000 0.032613
#
#
# Mechanical properties :
#
#
# Convention : Reuss Voigt Hill
#
# Bulk Modulus (GPa) = 36.74107 45.82733 41.28420
# Shear Modulus (GPa) = 22.78668 28.94386 25.86527
#
# Velocity S-wave (km/s) = 3.20229 3.60909 3.41176
# Velocity P-wave (km/s) = 5.49613 6.16369 5.83945
#
# Compressibility (1/GPa) = 0.02721750
#
# Stress axis : x y z
#
# Youngs Moduli (GPa) = 45.84550 33.52857 63.45210
#
# Poissons Ratio (x) = 0.60138 0.03943
# Poissons Ratio (y) = 0.82231 0.09722
# Poissons Ratio (z) = 0.02849 0.05137
#
# Static dielectric constant tensor:
#      x y z
#    x 1.817450 0.000000 0.003280 
#    y 0.000000 1.736520 0.000000 
#    z 0.003280 0.000000 1.938870 
# 
# From -- ./inp_files/108709.got.cif
#   From: 2010.05.17/outbox.cif.g08.bks.cpg/sg12_55_cif.got.tgz:108709.got - 2010.06.03 13:09:07.
