data_PCOD9214068
_publ_section_title
;
Structure prediction by ZEFSAII (Michael W. Deem and Ramdas Pophale) SiO2 
 PCOD9214068
Probable space group: C 2/M
;
_chemical_formula_sum "Si O2"
_cell_formula_units_Z 64
_cell_length_a 26.675514
_cell_length_b 7.717257
_cell_length_c 14.092498
_cell_angle_alpha 90.000000
_cell_angle_beta 69.038739
_cell_angle_gamma 90.000000
_cell_volume 2709.118999
_symmetry_space_group_name_H-M "C 2/M"
_symmetry_group_IT_number 12
_symmetry_cell_setting 'monoclinic'
loop_
_space_group_symop_operation_xyz
x,y,z
-x,y,-z
-x,-y,-z
x,-y,z
1/2+x,1/2+y,z
1/2-x,1/2+y,-z
1/2-x,1/2-y,-z
1/2+x,1/2-y,z
loop_
_atom_site_type_symbol
_atom_site_label
_atom_site_fract_x
_atom_site_fract_y
_atom_site_fract_z
Si Si1 0.604665 0.786760 0.680650
Si Si2 0.635507 0.807157 0.002958
Si Si3 0.912210 0.791820 0.758323
Si Si4 0.181445 0.807120 0.306745
Si Si5 0.544881 0.198038 0.906589
Si Si6 0.520944 0.204486 0.587259
Si Si7 0.254046 0.308680 0.104084
Si Si8 0.272061 0.207993 0.382483
O O1 0.567094 0.729318 0.793598
O O2 0.575426 0.730550 0.602422
O O3 0.665937 0.730946 0.660310
O O4 0.605552 0.000000 0.679950
O O5 0.610576 0.756153 0.121922
O O6 0.658426 0.000000 0.000093
O O7 0.591958 0.814798 0.950641
O O8 0.682553 0.694388 0.925747
O O9 0.872968 0.727494 0.699357
O O10 0.971842 0.727330 0.694725
O O11 0.911806 0.000000 0.754111
O O12 0.218993 0.818857 0.189039
O O13 0.224409 0.719358 0.347735
O O14 0.168157 0.000000 0.352900
O O15 0.525668 0.000000 0.896486
O O16 0.500000 0.290263 0.000000
O O17 0.500000 0.278045 0.500000
O O18 0.529981 0.000000 0.565916
O O19 0.232487 0.500000 0.135858
O O20 0.250000 0.250000 0.000000
O O21 0.250000 0.250000 0.500000
O O22 0.274178 0.000000 0.362312
#
# Coordination Sequence:
#
# PCOD9214068 Si02
#       8
#     8   8   8   8   8   8   8   8
#     4   9  18  36  59  86 119 153 194 245 298 356
#     4  11  21  35  59  88 119 158 200 245 294 350
#     4  11  23  38  58  86 121 159 196 245 300 359
#     4  10  22  40  60  85 120 160 202 247 298 359
#     4   9  17  31  57  88 116 153 198 239 285 350
#     4  10  22  39  62  89 115 149 196 251 303 356
#     4  12  23  36  56  85 120 159 198 241 296 355
#     4  10  22  40  63  88 117 157 203 253 306 360
#
# _framework density 23.623913999999999
#
# number of rings (size 3 to 8) (size 9 to 14) (size 15 to 20)
#    0.000    1.750    1.250    3.375    1.750    5.250 
#    0.000    0.625    0.000    8.250    0.000    0.000 
#    0.000    0.000    0.000    0.000    0.000    0.000 
#
# Total GULP energy -178491.585182 kJ/mol
# GULP energy per Si atom -5577.862037 kJ/mol
# Density = 2.357014 g / cm^3
# Si number density = 23.623914 Si / 1000 Ang^3
#
#
#
# Elastic Constant Matrix: (Units=GPa)
#
#
# Indices 1 2 3 4 5 6 
#
# 1 103.8516 0.6075 10.6667 0.0000 24.0178 0.0000
# 2 0.6075 65.7987 -11.9413 0.0000 3.9224 0.0000
# 3 10.6667 -11.9413 55.9376 0.0000 13.7448 0.0000
# 4 0.0000 0.0000 0.0000 9.9130 0.0000 -3.5513
# 5 24.0178 3.9224 13.7448 0.0000 43.6138 0.0000
# 6 0.0000 0.0000 0.0000 -3.5513 0.0000 10.3408
#
#
#
# Elastic Compliance Matrix: (Units=1/GPa)
#
#
# Indices 1 2 3 4 5 6 
#
# 1 0.011058 0.000136 -0.000629 0.000000 -0.005904 0.000000
# 2 0.000136 0.016110 0.004105 0.000000 -0.002817 0.000000
# 3 -0.000629 0.004105 0.020464 0.000000 -0.006472 0.000000
# 4 0.000000 0.000000 0.000000 0.115030 0.000000 0.039505
# 5 -0.005904 -0.002817 -0.006472 0.000000 0.028473 0.000000
# 6 0.000000 0.000000 0.000000 0.039505 0.000000 0.110271
#
#
# Mechanical properties :
#
#
# Convention : Reuss Voigt Hill
#
# Bulk Modulus (GPa) = 18.22970 24.91706 21.57338
# Shear Modulus (GPa) = 16.00172 27.85719 21.92945
#
# Velocity S-wave (km/s) = 2.60542 3.43767 3.05006
# Velocity P-wave (km/s) = 4.09687 5.13099 4.64281
#
# Compressibility (1/GPa) = 0.05485554
#
# Stress axis : x y z
#
# Youngs Moduli (GPa) = 90.42990 62.07468 48.86707
#
# Poissons Ratio (x) = -0.00842 0.03074
# Poissons Ratio (y) = -0.01227 -0.20062
# Poissons Ratio (z) = 0.05689 -0.25484
#
# Static dielectric constant tensor:
#      x y z
#    x 2.549080 0.000000 0.051030 
#    y 0.000000 2.441670 0.000000 
#    z 0.051030 0.000000 1.858560 
# 
# From -- ./inp_files/243842.got.cif
#   From: 2010.05.17/outbox.cif.g08.bks.cpg/sg12_122_cif.got.tgz:243842.got - 2010.06.03 13:09:07.
