data_PCOD9214897
_publ_section_title
;
Structure prediction by ZEFSAII (Michael W. Deem and Ramdas Pophale) SiO2 
 PCOD9214897
Probable space group: C 2/M
;
_chemical_formula_sum "Si O2"
_cell_formula_units_Z 24
_cell_length_a 4.699816
_cell_length_b 19.658223
_cell_length_c 10.735277
_cell_angle_alpha 90.000000
_cell_angle_beta 68.743024
_cell_angle_gamma 90.000000
_cell_volume 924.351990
_symmetry_space_group_name_H-M "C 2/M"
_symmetry_group_IT_number 12
_symmetry_cell_setting 'monoclinic'
loop_
_space_group_symop_operation_xyz
x,y,z
-x,y,-z
-x,-y,-z
x,-y,z
1/2+x,1/2+y,z
1/2-x,1/2+y,-z
1/2-x,1/2-y,-z
1/2+x,1/2-y,z
loop_
_atom_site_type_symbol
_atom_site_label
_atom_site_fract_x
_atom_site_fract_y
_atom_site_fract_z
Si Si1 0.165438 0.705038 0.290416
Si Si2 0.398424 0.424694 0.373257
Si Si3 0.842878 0.121798 0.910787
O O1 0.822065 0.726631 0.318537
O O2 0.184159 0.637858 0.369631
O O3 0.414594 0.683707 0.146390
O O4 0.500000 0.420429 0.500000
O O5 0.266038 0.500000 0.373711
O O6 0.656184 0.415459 0.223757
O O7 0.500000 0.140311 0.000000
O O8 0.000000 0.081726 0.000000
#
# Coordination Sequence:
#
# PCOD9214897 Si02
#       3
#     8   8   8
#     4  10  22  40  65  95 129 166 213 261 318 377
#     4   9  22  44  67  94 130 172 215 264 322 381
#     4  10  22  40  65  95 129 166 213 261 318 377
#
# _framework density 25.964137000000001
#
# number of rings (size 3 to 8) (size 9 to 14) (size 15 to 20)
#    2.000    0.333    0.000    2.000    0.000    6.667 
#    0.000   10.000    0.000   16.000    0.000    0.000 
#    0.000    0.000    0.000    0.000    0.000    0.000 
#
# Total GULP energy -66936.096501 kJ/mol
# GULP energy per Si atom -5578.008042 kJ/mol
# Density = 2.590504 g / cm^3
# Si number density = 25.964137 Si / 1000 Ang^3
#
#
#
# Elastic Constant Matrix: (Units=GPa)
#
#
# Indices 1 2 3 4 5 6 
#
# 1 106.1184 -1.7169 36.3982 0.0000 -11.7686 0.0000
# 2 -1.7169 142.6159 43.3681 0.0000 9.2236 0.0000
# 3 36.3982 43.3681 173.5633 0.0000 -5.6287 0.0000
# 4 0.0000 0.0000 0.0000 35.9408 0.0000 70.6677
# 5 -11.7686 9.2236 -5.6287 0.0000 49.1206 0.0000
# 6 0.0000 0.0000 0.0000 70.6677 0.0000 158.3824
#
#
#
# Elastic Compliance Matrix: (Units=1/GPa)
#
#
# Indices 1 2 3 4 5 6 
#
# 1 0.010456 0.000687 -0.002296 0.000000 0.002113 0.000000
# 2 0.000687 0.007769 -0.002135 0.000000 -0.001539 0.000000
# 3 -0.002296 -0.002135 0.006797 0.000000 0.000630 0.000000
# 4 0.000000 0.000000 0.000000 0.226757 0.000000 -0.101175
# 5 0.002113 -0.001539 0.000630 0.000000 0.021225 0.000000
# 6 0.000000 0.000000 0.000000 -0.101175 0.000000 0.051457
#
#
# Mechanical properties :
#
#
# Convention : Reuss Voigt Hill
#
# Bulk Modulus (GPa) = 57.03012 64.26628 60.64820
# Shear Modulus (GPa) = 14.80191 71.63863 43.22027
#
# Velocity S-wave (km/s) = 2.39025 5.25845 4.08439
# Velocity P-wave (km/s) = 5.44338 7.85328 6.75664
#
# Compressibility (1/GPa) = 0.01753460
#
# Stress axis : x y z
#
# Youngs Moduli (GPa) = 95.63485 128.71745 147.12231
#
# Poissons Ratio (x) = -0.08848 0.33780
# Poissons Ratio (y) = -0.06574 0.31415
# Poissons Ratio (z) = 0.21959 0.27485
#
# Static dielectric constant tensor:
#      x y z
#    x 1.995190 0.000000 0.004370 
#    y 0.000000 2.030240 0.000000 
#    z 0.004370 0.000000 2.243070 
# 
# From -- ./inp_files/114183.got.cif
#   From: 2010.05.17/outbox.cif.g08.bks.cpg/sg12_58_cif.got.tgz:114183.got - 2010.06.03 13:09:07.
