data_PCOD9214761
_publ_section_title
;
Structure prediction by ZEFSAII (Michael W. Deem and Ramdas Pophale) SiO2 
 PCOD9214761
Probable space group: C 2/M
;
_chemical_formula_sum "Si O2"
_cell_formula_units_Z 48
_cell_length_a 19.340563
_cell_length_b 9.063123
_cell_length_c 25.195955
_cell_angle_alpha 90.000000
_cell_angle_beta 29.673463
_cell_angle_gamma 90.000000
_cell_volume 2186.414019
_symmetry_space_group_name_H-M "C 2/M"
_symmetry_group_IT_number 12
_symmetry_cell_setting 'monoclinic'
loop_
_space_group_symop_operation_xyz
x,y,z
-x,y,-z
-x,-y,-z
x,-y,z
1/2+x,1/2+y,z
1/2-x,1/2+y,-z
1/2-x,1/2-y,-z
1/2+x,1/2-y,z
loop_
_atom_site_type_symbol
_atom_site_label
_atom_site_fract_x
_atom_site_fract_y
_atom_site_fract_z
Si Si1 0.408693 0.328853 0.838137
Si Si2 0.190275 0.329437 0.487824
Si Si3 0.089976 0.669566 0.267187
Si Si4 0.573945 0.171531 0.064670
Si Si5 0.832237 0.824860 0.607374
Si Si6 0.823088 0.176677 0.189442
O O1 0.442056 0.500000 0.824871
O O2 0.460505 0.269462 0.747473
O O3 0.456703 0.232973 0.855917
O O4 0.240035 0.312995 0.946964
O O5 0.235656 0.500000 0.454801
O O6 0.250000 0.250000 0.500000
O O7 0.217171 0.245861 0.415142
O O8 0.023659 0.328694 0.610291
O O9 0.102413 0.500000 0.239846
O O10 0.235710 0.719058 0.195484
O O11 0.480321 0.264673 0.086957
O O12 0.537716 0.000000 0.084816
O O13 0.755641 0.748093 0.707701
O O14 0.000000 0.803417 0.500000
O O15 0.805078 0.000000 0.625927
O O16 0.819331 0.000000 0.195948
#
# Coordination Sequence:
#
# PCOD9214761 Si02
#       6
#     8   8   8   8   8   8
#     4  10  22  40  64  90 120 159 200 246 300 358
#     4  11  24  42  62  88 123 162 205 250 299 353
#     4  10  23  41  61  87 122 160 199 249 300 353
#     4  10  22  41  63  90 122 156 199 249 300 357
#     4  11  23  40  63  90 122 160 200 247 300 354
#     4  11  23  40  63  90 120 160 204 244 298 360
#
# _framework density 21.953755999999998
#
# number of rings (size 3 to 8) (size 9 to 14) (size 15 to 20)
#    0.000    1.500    1.667    2.500    2.333    6.000 
#    0.000    3.333    0.000    0.000    0.000    0.000 
#    0.000    0.000    0.000    0.000    0.000    0.000 
#
# Total GULP energy -134317.930219 kJ/mol
# GULP energy per Si atom -5596.580426 kJ/mol
# Density = 2.190379 g / cm^3
# Si number density = 21.953756 Si / 1000 Ang^3
#
#
#
# Elastic Constant Matrix: (Units=GPa)
#
#
# Indices 1 2 3 4 5 6 
#
# 1 91.6377 35.5137 -4.5951 0.0000 -2.8632 0.0000
# 2 35.5137 81.2959 4.4263 -0.0001 0.2488 0.0001
# 3 -4.5951 4.4263 45.5130 0.0000 2.4629 0.0000
# 4 0.0000 -0.0001 0.0000 29.6281 0.0001 -3.5076
# 5 -2.8632 0.2488 2.4629 0.0001 37.3547 0.0000
# 6 0.0000 0.0001 0.0000 -3.5076 0.0000 33.1354
#
#
#
# Elastic Compliance Matrix: (Units=1/GPa)
#
#
# Indices 1 2 3 4 5 6 
#
# 1 0.013334 -0.005930 0.001872 0.000000 0.000938 0.000000
# 2 -0.005930 0.015003 -0.002035 0.000000 -0.000420 0.000000
# 3 0.001872 -0.002035 0.022430 0.000000 -0.001322 0.000000
# 4 0.000000 0.000000 0.000000 0.034180 0.000000 0.003618
# 5 0.000938 -0.000420 -0.001322 0.000000 0.026932 0.000000
# 6 0.000000 0.000000 0.000000 0.003618 0.000000 0.030562
#
#
# Mechanical properties :
#
#
# Convention : Reuss Voigt Hill
#
# Bulk Modulus (GPa) = 25.91878 32.12628 29.02253
# Shear Modulus (GPa) = 29.85303 32.23042 31.04172
#
# Velocity S-wave (km/s) = 3.69157 3.83574 3.76434
# Velocity P-wave (km/s) = 5.47740 5.85514 5.66942
#
# Compressibility (1/GPa) = 0.03858206
#
# Stress axis : x y z
#
# Youngs Moduli (GPa) = 74.99801 66.65278 44.58275
#
# Poissons Ratio (x) = 0.39522 -0.08346
# Poissons Ratio (y) = 0.44470 0.09073
# Poissons Ratio (z) = -0.14040 0.13564
#
# Static dielectric constant tensor:
#      x y z
#    x 1.763890 0.000000 -0.056810 
#    y 0.000000 1.733400 0.000000 
#    z -0.056810 0.000000 1.866740 
# 
# From -- ./inp_files/365368.got.cif
#   From: 2010.05.17/outbox.cif.g08.bks.cpg/sg12_183_cif.got.tgz:365368.got - 2010.06.03 13:09:07.
