data_PCOD9214085
_publ_section_title
;
Structure prediction by ZEFSAII (Michael W. Deem and Ramdas Pophale) SiO2 
 PCOD9214085
Probable space group: C 2/M
;
_chemical_formula_sum "Si O2"
_cell_formula_units_Z 64
_cell_length_a 9.755962
_cell_length_b 27.117984
_cell_length_c 15.177163
_cell_angle_alpha 90.000000
_cell_angle_beta 44.130317
_cell_angle_gamma 90.000000
_cell_volume 2795.824650
_symmetry_space_group_name_H-M "C 2/M"
_symmetry_group_IT_number 12
_symmetry_cell_setting 'monoclinic'
loop_
_space_group_symop_operation_xyz
x,y,z
-x,y,-z
-x,-y,-z
x,-y,z
1/2+x,1/2+y,z
1/2-x,1/2+y,-z
1/2-x,1/2-y,-z
1/2+x,1/2-y,z
loop_
_atom_site_type_symbol
_atom_site_label
_atom_site_fract_x
_atom_site_fract_y
_atom_site_fract_z
Si Si1 0.544237 0.441013 0.381919
Si Si2 0.800706 0.095047 0.150955
Si Si3 0.511800 0.944190 0.150555
Si Si4 0.726140 0.901107 0.389816
Si Si5 0.206994 0.219385 0.284927
Si Si6 0.939379 0.659220 0.930980
Si Si7 0.223370 0.207109 0.897040
Si Si8 0.809977 0.790999 0.400902
O O1 0.500000 0.420850 0.500000
O O2 0.519339 0.500000 0.396538
O O3 0.778102 0.433994 0.255972
O O4 0.386355 0.422911 0.383429
O O5 0.620624 0.063018 0.194416
O O6 0.809762 0.090118 0.251953
O O7 0.750806 0.152802 0.157080
O O8 0.000000 0.085150 0.000000
O O9 0.607356 0.898319 0.054462
O O10 0.547233 0.000000 0.102943
O O11 0.500000 0.920527 0.500000
O O12 0.713560 0.843092 0.420488
O O13 0.378743 0.178990 0.210385
O O14 0.178353 0.252251 0.208612
O O15 0.264731 0.259156 0.332248
O O16 0.005626 0.190387 0.364400
O O17 0.770346 0.695193 0.976482
O O18 0.000000 0.669567 0.000000
O O19 0.000000 0.221393 0.000000
O O20 0.750000 0.750000 0.500000
#
# Coordination Sequence:
#
# PCOD9214085 Si02
#       8
#     8   8   8   8   8   8   8   8
#     4  10  23  44  70 103 138 178 234 299 362 422
#     4  10  23  43  70 103 143 185 239 291 350 423
#     4  10  23  44  68  97 141 184 227 290 358 422
#     4  12  25  44  74 103 140 185 238 293 357 427
#     4  12  23  42  64  89 131 173 221 276 337 402
#     4  11  25  40  64  97 127 172 231 275 337 414
#     4  10  22  39  62  90 131 173 218 279 339 394
#     4  12  27  42  63  95 134 177 223 279 342 420
#
# _framework density 22.891276999999999
#
# number of rings (size 3 to 8) (size 9 to 14) (size 15 to 20)
#    0.000    1.125    2.500    3.000    1.750    8.250 
#    0.000    1.250    0.000    0.000    0.000    0.000 
#    0.000    0.000    0.000    0.000    0.000    0.000 
#
# Total GULP energy -178259.048094 kJ/mol
# GULP energy per Si atom -5570.595253 kJ/mol
# Density = 2.283918 g / cm^3
# Si number density = 22.891277 Si / 1000 Ang^3
#
#
#
# Elastic Constant Matrix: (Units=GPa)
#
#
# Indices 1 2 3 4 5 6 
#
# 1 177.8314 32.0270 38.7304 0.0000 12.8275 0.0000
# 2 32.0270 107.7046 11.7454 0.0000 5.6929 0.0000
# 3 38.7304 11.7454 49.8409 0.0000 9.1515 0.0000
# 4 0.0000 0.0000 0.0000 11.0938 0.0000 2.3625
# 5 12.8275 5.6929 9.1515 0.0000 43.0833 0.0000
# 6 0.0000 0.0000 0.0000 2.3625 0.0000 13.7004
#
#
#
# Elastic Compliance Matrix: (Units=1/GPa)
#
#
# Indices 1 2 3 4 5 6 
#
# 1 0.007035 -0.001507 -0.004957 0.000000 -0.000843 0.000000
# 2 -0.001507 0.009880 -0.001041 0.000000 -0.000636 0.000000
# 3 -0.004957 -0.001041 0.024833 0.000000 -0.003662 0.000000
# 4 0.000000 0.000000 0.000000 0.093577 0.000000 -0.016137
# 5 -0.000843 -0.000636 -0.003662 0.000000 0.024323 0.000000
# 6 0.000000 0.000000 0.000000 -0.016137 0.000000 0.075773
#
#
# Mechanical properties :
#
#
# Convention : Reuss Voigt Hill
#
# Bulk Modulus (GPa) = 37.39800 55.59806 46.49803
# Shear Modulus (GPa) = 19.27944 30.43377 24.85661
#
# Velocity S-wave (km/s) = 2.90525 3.65018 3.29881
# Velocity P-wave (km/s) = 5.25611 6.48889 5.90476
#
# Compressibility (1/GPa) = 0.02673940
#
# Stress axis : x y z
#
# Youngs Moduli (GPa) = 142.14522 101.21654 40.26835
#
# Poissons Ratio (x) = 0.15252 0.19961
# Poissons Ratio (y) = 0.21419 0.04190
# Poissons Ratio (z) = 0.70462 0.10532
#
# Static dielectric constant tensor:
#      x y z
#    x 1.947500 0.000000 -0.009030 
#    y 0.000000 1.832090 0.000000 
#    z -0.009030 0.000000 1.978230 
# 
# From -- ./inp_files/201298.got.cif
#   From: 2010.05.17/outbox.cif.g08.bks.cpg/sg12_101_cif.got.tgz:201298.got - 2010.06.03 13:09:07.
