data_PCOD9214995
_publ_section_title
;
Structure prediction by ZEFSAII (Michael W. Deem and Ramdas Pophale) SiO2 
 PCOD9214995
Probable space group: C 2/M
;
_chemical_formula_sum "Si O2"
_cell_formula_units_Z 40
_cell_length_a 20.562659
_cell_length_b 15.539266
_cell_length_c 14.639833
_cell_angle_alpha 90.000000
_cell_angle_beta 21.577495
_cell_angle_gamma 90.000000
_cell_volume 1720.321376
_symmetry_space_group_name_H-M "C 2/M"
_symmetry_group_IT_number 12
_symmetry_cell_setting 'monoclinic'
loop_
_space_group_symop_operation_xyz
x,y,z
-x,y,-z
-x,-y,-z
x,-y,z
1/2+x,1/2+y,z
1/2-x,1/2+y,-z
1/2-x,1/2-y,-z
1/2+x,1/2-y,z
loop_
_atom_site_type_symbol
_atom_site_label
_atom_site_fract_x
_atom_site_fract_y
_atom_site_fract_z
Si Si1 0.272374 0.603348 0.136879
Si Si2 0.103896 0.834589 0.611334
Si Si3 0.472748 0.901792 0.183808
Si Si4 0.151676 0.097874 0.362168
Si Si5 0.018479 0.346401 0.628982
O O1 0.269894 0.500000 0.130901
O O2 0.181075 0.627385 0.351652
O O3 0.152095 0.643781 0.212991
O O4 0.467754 0.640186 0.867776
O O5 0.304502 0.842754 0.382840
O O6 0.090508 0.902012 0.545613
O O7 0.051768 0.746974 0.628699
O O8 0.501049 0.903840 0.255406
O O9 0.439332 0.000000 0.194086
O O10 0.651938 0.865125 0.904809
O O11 0.000000 0.141822 0.500000
O O12 0.172681 0.000000 0.300130
#
# Coordination Sequence:
#
# PCOD9214995 Si02
#       5
#     8   8   8   8   8
#     4  11  24  46  72  98 134 182 230 276 339 412
#     4  12  25  40  67  99 139 172 226 283 339 393
#     4  11  23  43  67  96 138 179 221 275 340 410
#     4  10  22  40  67  96 130 176 226 275 334 407
#     4  11  25  42  68  98 135 176 227 282 338 396
#
# _framework density 23.251472
#
# number of rings (size 3 to 8) (size 9 to 14) (size 15 to 20)
#    0.000    1.000    0.000    7.200    5.600    4.000 
#    3.600    2.000    0.000    0.000    0.000    0.000 
#    0.000    0.000    0.000    0.000    0.000    0.000 
#
# Total GULP energy -111921.737725 kJ/mol
# GULP energy per Si atom -5596.086886 kJ/mol
# Density = 2.319855 g / cm^3
# Si number density = 23.251472 Si / 1000 Ang^3
#
#
#
# Elastic Constant Matrix: (Units=GPa)
#
#
# Indices 1 2 3 4 5 6 
#
# 1 27.6640 -4.1157 -18.4568 0.0009 16.3980 0.0002
# 2 -4.1157 116.8322 23.2455 0.0016 -7.0742 -0.0003
# 3 -18.4568 23.2455 127.9823 0.0012 -2.8103 0.0008
# 4 0.0009 0.0016 0.0012 29.7097 -0.0006 -0.0949
# 5 16.3980 -7.0742 -2.8103 -0.0006 34.2067 0.0005
# 6 0.0002 -0.0003 0.0008 -0.0949 0.0005 24.6044
#
#
#
# Elastic Compliance Matrix: (Units=1/GPa)
#
#
# Indices 1 2 3 4 5 6 
#
# 1 0.057261 -0.001188 0.007880 -0.000003 -0.027048 0.000000
# 2 -0.001188 0.009005 -0.001757 0.000000 0.002288 0.000000
# 3 0.007880 -0.001757 0.009195 -0.000001 -0.003385 0.000000
# 4 -0.000003 0.000000 -0.000001 0.033659 0.000002 0.000130
# 5 -0.027048 0.002288 -0.003385 0.000002 0.042395 -0.000001
# 6 0.000000 0.000000 0.000000 0.000130 -0.000001 0.040644
#
#
# Mechanical properties :
#
#
# Convention : Reuss Voigt Hill
#
# Bulk Modulus (GPa) = 11.71910 30.42496 21.07203
# Shear Modulus (GPa) = 23.72653 35.82454 29.77553
#
# Velocity S-wave (km/s) = 3.19788 3.92949 3.58241
# Velocity P-wave (km/s) = 4.32277 5.80529 5.11800
#
# Compressibility (1/GPa) = 0.08533078
#
# Stress axis : x y z
#
# Youngs Moduli (GPa) = 17.46375 111.04346 108.75832
#
# Poissons Ratio (x) = 0.13196 -0.85699
# Poissons Ratio (y) = 0.02075 0.19107
# Poissons Ratio (z) = -0.13761 0.19508
#
# Static dielectric constant tensor:
#      x y z
#    x 1.852580 0.000000 -0.035840 
#    y 0.000000 1.936220 0.000000 
#    z -0.035840 0.000000 1.859490 
# 
# From -- ./inp_files/46919.got.cif
#   From: 2010.05.17/outbox.cif.g08.bks.cpg/sg12_24_cif.got.tgz:46919.got - 2010.06.03 13:09:07.
