data_PCOD9214298
_publ_section_title
;
Structure prediction by ZEFSAII (Michael W. Deem and Ramdas Pophale) SiO2 
 PCOD9214298
Probable space group: C 2/M
;
_chemical_formula_sum "Si O2"
_cell_formula_units_Z 56
_cell_length_a 8.660082
_cell_length_b 33.544205
_cell_length_c 20.131303
_cell_angle_alpha 90.000000
_cell_angle_beta 28.616012
_cell_angle_gamma 90.000000
_cell_volume 2800.850745
_symmetry_space_group_name_H-M "C 2/M"
_symmetry_group_IT_number 12
_symmetry_cell_setting 'monoclinic'
loop_
_space_group_symop_operation_xyz
x,y,z
-x,y,-z
-x,-y,-z
x,-y,z
1/2+x,1/2+y,z
1/2-x,1/2+y,-z
1/2-x,1/2-y,-z
1/2+x,1/2-y,z
loop_
_atom_site_type_symbol
_atom_site_label
_atom_site_fract_x
_atom_site_fract_y
_atom_site_fract_z
Si Si1 0.121965 0.377975 0.651572
Si Si2 0.107371 0.291059 0.653042
Si Si3 0.784801 0.634891 0.146907
Si Si4 0.279617 0.707388 0.339396
Si Si5 0.931207 0.000000 0.224461
Si Si6 0.553863 0.000000 0.085330
Si Si7 0.376044 0.084919 0.870964
Si Si8 0.678530 0.082409 0.361461
O O1 0.500000 0.376171 0.500000
O O2 0.010015 0.334149 0.718153
O O3 0.041636 0.409876 0.737447
O O4 0.980385 0.389088 0.633443
O O5 0.500000 0.291415 0.500000
O O6 0.048377 0.249980 0.713495
O O7 0.919963 0.289995 0.653803
O O8 0.548675 0.672950 0.243706
O O9 0.540907 0.598061 0.231103
O O10 0.001833 0.620166 0.126336
O O11 0.000000 0.639894 0.000000
O O12 0.000000 0.700680 0.500000
O O13 0.710354 0.038345 0.320209
O O14 0.227261 0.000000 0.165242
O O15 0.124264 0.000000 0.082171
O O16 0.559196 0.958829 0.123876
O O17 0.000000 0.089335 0.000000
O O18 0.500000 0.083729 0.500000
#
# Coordination Sequence:
#
# PCOD9214298 Si02
#       8
#     8   8   8   8   4   4   8   8
#     4  11  25  42  66 101 136 174 219 282 339 394
#     4  10  22  39  68  99 135 170 230 274 340 395
#     4  12  25  43  67  97 135 178 227 271 336 407
#     4  11  23  41  70  99 132 177 228 280 334 401
#     4  11  23  42  72  98 135 169 235 273 330 396
#     4  11  23  44  70  97 131 184 219 277 330 404
#     4  12  26  43  69  96 134 174 229 271 337 399
#     4  12  24  45  71 100 132 177 228 276 334 397
#
# _framework density 19.993924
#
# number of rings (size 3 to 8) (size 9 to 14) (size 15 to 20)
#    0.000    0.714    2.857    6.000    6.000    0.571 
#    0.000    2.143    0.000    0.000    0.000    0.000 
#    0.000    0.000    0.000    0.000    0.000    0.000 
#
# Total GULP energy -156383.040562 kJ/mol
# GULP energy per Si atom -5585.108592 kJ/mol
# Density = 1.994842 g / cm^3
# Si number density = 19.993924 Si / 1000 Ang^3
#
#
#
# Elastic Constant Matrix: (Units=GPa)
#
#
# Indices 1 2 3 4 5 6 
#
# 1 114.1733 49.2754 24.6518 -0.0005 -0.7272 0.0001
# 2 49.2754 155.7680 42.8763 0.0002 3.2321 0.0000
# 3 24.6518 42.8763 83.2496 0.0005 15.8628 0.0000
# 4 -0.0005 0.0002 0.0005 -286.7567 0.0004 33.9044
# 5 -0.7272 3.2321 15.8628 0.0004 35.4599 -0.0001
# 6 0.0001 0.0000 0.0000 33.9044 -0.0001 33.4162
#
#
#
# Elastic Compliance Matrix: (Units=1/GPa)
#
#
# Indices 1 2 3 4 5 6 
#
# 1 0.010379 -0.002791 -0.001885 0.000000 0.001311 0.000000
# 2 -0.002791 0.008273 -0.003585 0.000000 0.000793 0.000000
# 3 -0.001885 -0.003585 0.015700 0.000000 -0.006735 0.000000
# 4 0.000000 0.000000 0.000000 -0.003114 0.000000 0.003159
# 5 0.001311 0.000793 -0.006735 0.000000 0.031168 0.000000
# 6 0.000000 0.000000 0.000000 0.003159 0.000000 0.026720
#
#
# Mechanical properties :
#
#
# Convention : Reuss Voigt Hill
#
# Bulk Modulus (GPa) = 56.09194 65.19976 60.64585
# Shear Modulus (GPa) = 44.80498 -27.81697 8.49400
#
# Velocity S-wave (km/s) = 4.73898 -3.73402 2.06337
# Velocity P-wave (km/s) = 7.61967 3.75367 6.00622
#
# Compressibility (1/GPa) = 0.01782787
#
# Stress axis : x y z
#
# Youngs Moduli (GPa) = 96.35027 120.87050 63.69267
#
# Poissons Ratio (x) = 0.33740 0.12009
# Poissons Ratio (y) = 0.26896 0.22837
# Poissons Ratio (z) = 0.18166 0.43338
#
# Static dielectric constant tensor:
#      x y z
#    x 1.898020 0.000000 -0.075560 
#    y 0.000000 1.733870 0.000000 
#    z -0.075560 0.000000 1.694860 
# 
# From -- ./inp_files/303018.got.cif
#   From: 2010.05.17/outbox.cif.g08.bks.cpg/sg12_152_cif.got.tgz:303018.got - 2010.06.03 13:09:07.
