data_PCOD9214843
_publ_section_title
;
Structure prediction by ZEFSAII (Michael W. Deem and Ramdas Pophale) SiO2 
 PCOD9214843
Probable space group: C 2/M
;
_chemical_formula_sum "Si O2"
_cell_formula_units_Z 36
_cell_length_a 25.559290
_cell_length_b 10.207688
_cell_length_c 13.216185
_cell_angle_alpha 90.000000
_cell_angle_beta 26.070749
_cell_angle_gamma 90.000000
_cell_volume 1515.381693
_symmetry_space_group_name_H-M "C 2/M"
_symmetry_group_IT_number 12
_symmetry_cell_setting 'monoclinic'
loop_
_space_group_symop_operation_xyz
x,y,z
-x,y,-z
-x,-y,-z
x,-y,z
1/2+x,1/2+y,z
1/2-x,1/2+y,-z
1/2-x,1/2-y,-z
1/2+x,1/2-y,z
loop_
_atom_site_type_symbol
_atom_site_label
_atom_site_fract_x
_atom_site_fract_y
_atom_site_fract_z
Si Si1 0.885045 0.778200 0.071378
Si Si2 0.089047 0.500000 0.440233
Si Si3 0.581278 0.500000 0.458383
Si Si4 0.811608 0.500000 0.531542
Si Si5 0.660133 0.000000 0.750163
Si Si6 0.444807 0.500000 0.270034
Si Si7 0.758173 0.246602 0.865770
O O1 0.775585 0.872937 0.299470
O O2 0.884584 0.637797 0.125900
O O3 0.860459 0.750680 0.994677
O O4 0.001043 0.870131 0.875529
O O5 0.076824 0.500000 0.583616
O O6 0.168297 0.374110 0.286817
O O7 0.000000 0.500000 0.500000
O O8 0.500000 0.500000 0.500000
O O9 0.515973 0.500000 0.679648
O O10 0.665936 0.624622 0.303705
O O11 0.858945 0.500000 0.336484
O O12 0.803448 0.000000 0.515355
O O13 0.750000 0.250000 0.000000
#
# Coordination Sequence:
#
# PCOD9214843 Si02
#       7
#     8   4   4   4   4   4   8
#     4  10  22  42  66 105 139 179 240 291 343 420
#     4  10  22  40  64  98 132 177 222 277 353 406
#     4  12  22  38  64  99 131 186 237 277 360 421
#     4   9  22  42  71  96 140 183 229 294 352 411
#     4  12  22  46  76  97 139 194 231 290 360 412
#     4  11  24  43  69 100 141 187 231 289 352 426
#     4  11  21  39  63  96 140 176 224 296 338 408
#
# _framework density 23.75639
#
# number of rings (size 3 to 8) (size 9 to 14) (size 15 to 20)
#    0.000    1.333    2.222    4.000    0.000    1.778 
#    0.000    3.333    4.889    2.667    0.000    0.000 
#    0.000    0.000    0.000    0.000    0.000    0.000 
#
# Total GULP energy -100707.749685 kJ/mol
# GULP energy per Si atom -5594.874982 kJ/mol
# Density = 2.370232 g / cm^3
# Si number density = 23.756390 Si / 1000 Ang^3
#
#
#
# Elastic Constant Matrix: (Units=GPa)
#
#
# Indices 1 2 3 4 5 6 
#
# 1 179.2347 41.1454 37.4367 0.0000 31.4232 0.0000
# 2 41.1454 228.9712 69.3097 0.0000 14.7535 0.0000
# 3 37.4367 69.3097 75.1560 0.0000 0.9129 0.0000
# 4 0.0000 0.0000 0.0000 32.1503 0.0000 6.9481
# 5 31.4232 14.7535 0.9129 0.0000 48.6286 0.0000
# 6 0.0000 0.0000 0.0000 6.9481 0.0000 27.0215
#
#
#
# Elastic Compliance Matrix: (Units=1/GPa)
#
#
# Indices 1 2 3 4 5 6 
#
# 1 0.007101 0.000099 -0.003573 0.000000 -0.004551 0.000000
# 2 0.000099 0.006210 -0.005754 0.000000 -0.001840 0.000000
# 3 -0.003573 -0.005754 0.020347 0.000000 0.003672 0.000000
# 4 0.000000 0.000000 0.000000 0.032934 0.000000 -0.008468
# 5 -0.004551 -0.001840 0.003672 0.000000 0.023994 0.000000
# 6 0.000000 0.000000 0.000000 -0.008468 0.000000 0.039185
#
#
# Mechanical properties :
#
#
# Convention : Reuss Voigt Hill
#
# Bulk Modulus (GPa) = 65.78069 86.57174 76.17622
# Shear Modulus (GPa) = 32.61718 43.92474 38.27096
#
# Velocity S-wave (km/s) = 3.70940 4.30462 4.01805
# Velocity P-wave (km/s) = 6.78940 7.82477 7.32540
#
# Compressibility (1/GPa) = 0.01520203
#
# Stress axis : x y z
#
# Youngs Moduli (GPa) = 140.82910 161.03662 49.14783
#
# Poissons Ratio (x) = -0.01591 0.17560
# Poissons Ratio (y) = -0.01391 0.28278
# Poissons Ratio (z) = 0.50316 0.92654
#
# Static dielectric constant tensor:
#      x y z
#    x 2.029750 0.000000 -0.004150 
#    y 0.000000 1.845130 0.000000 
#    z -0.004150 0.000000 1.881100 
# 
# From -- ./inp_files/244576.got.cif
#   From: 2010.05.17/outbox.cif.g08.bks.cpg/sg12_123_cif.got.tgz:244576.got - 2010.06.03 13:09:07.
