data_PCOD9214235
_publ_section_title
;
Structure prediction by ZEFSAII (Michael W. Deem and Ramdas Pophale) SiO2 
 PCOD9214235
Probable space group: C 2/M
;
_chemical_formula_sum "Si O2"
_cell_formula_units_Z 58
_cell_length_a 9.273232
_cell_length_b 16.896592
_cell_length_c 18.934512
_cell_angle_alpha 90.000000
_cell_angle_beta 94.236860
_cell_angle_gamma 90.000000
_cell_volume 2958.665548
_symmetry_space_group_name_H-M "C 2/M"
_symmetry_group_IT_number 12
_symmetry_cell_setting 'monoclinic'
loop_
_space_group_symop_operation_xyz
x,y,z
-x,y,-z
-x,-y,-z
x,-y,z
1/2+x,1/2+y,z
1/2-x,1/2+y,-z
1/2-x,1/2-y,-z
1/2+x,1/2-y,z
loop_
_atom_site_type_symbol
_atom_site_label
_atom_site_fract_x
_atom_site_fract_y
_atom_site_fract_z
Si Si1 0.790292 0.588812 0.250610
Si Si2 0.967338 0.706254 0.180270
Si Si3 0.770991 0.590760 0.841729
Si Si4 0.500000 0.000000 0.500000
Si Si5 0.954713 0.192849 0.575854
Si Si6 0.025292 0.860932 0.726931
Si Si7 0.632161 0.695224 0.955473
Si Si8 0.123932 0.353880 0.594517
O O1 0.832489 0.500000 0.232519
O O2 0.621759 0.593559 0.261574
O O3 0.871275 0.616600 0.324455
O O4 0.828709 0.653260 0.193551
O O5 0.100019 0.647271 0.177850
O O6 0.988782 0.772429 0.241099
O O7 0.942194 0.750479 0.106542
O O8 0.814163 0.500000 0.851596
O O9 0.653005 0.599131 0.775157
O O10 0.707535 0.625911 0.912664
O O11 0.588620 0.929618 0.546055
O O12 0.035848 0.148016 0.643035
O O13 0.006537 0.284064 0.582116
O O14 0.000000 0.163440 0.500000
O O15 0.783060 0.181553 0.581850
O O16 0.500000 0.667322 0.000000
O O17 0.750000 0.750000 0.000000
#
# Coordination Sequence:
#
# PCOD9214235 Si02
#       8
#     8   8   8   2   8   8   8   8
#     4  11  22  39  61  92 124 166 208 262 316 374
#     4  11  22  40  66  92 125 168 213 255 309 379
#     4  11  24  42  64  98 131 164 205 266 315 367
#     4  12  24  44  62  92 128 174 196 282 338 374
#     4  11  23  41  67  92 121 172 224 269 313 390
#     4  10  22  39  65  88 126 166 220 259 311 381
#     4  11  23  44  69  94 128 169 210 252 304 377
#     4  11  24  41  65  88 129 162 220 265 326 384
#
# _framework density 19.603432999999999
#
# number of rings (size 3 to 8) (size 9 to 14) (size 15 to 20)
#    0.000    1.103    4.138    2.897    3.862    0.276 
#    0.000    2.414    0.000    0.000    0.000    0.000 
#    0.000    0.000    0.000    0.000    0.000    0.000 
#
# Total GULP energy -161750.524052 kJ/mol
# GULP energy per Si atom -5577.604278 kJ/mol
# Density = 1.955881 g / cm^3
# Si number density = 19.603433 Si / 1000 Ang^3
#
#
#
# Elastic Constant Matrix: (Units=GPa)
#
#
# Indices 1 2 3 4 5 6 
#
# 1 27.0106 8.6636 3.4353 0.0000 7.3380 0.0000
# 2 8.6636 84.6647 10.0131 0.0000 -2.2755 0.0000
# 3 3.4353 10.0131 84.1243 0.0000 4.6625 0.0000
# 4 0.0000 0.0000 0.0000 -2.9175 0.0000 8.8866
# 5 7.3380 -2.2755 4.6625 0.0000 29.2211 0.0000
# 6 0.0000 0.0000 0.0000 8.8866 0.0000 10.6232
#
#
#
# Elastic Compliance Matrix: (Units=1/GPa)
#
#
# Indices 1 2 3 4 5 6 
#
# 1 0.041420 -0.004457 -0.000570 0.000000 -0.010657 0.000000
# 2 -0.004457 0.012499 -0.001434 0.000000 0.002322 0.000000
# 3 -0.000570 -0.001434 0.012187 0.000000 -0.001913 0.000000
# 4 0.000000 0.000000 0.000000 -0.096605 0.000000 0.080813
# 5 -0.010657 0.002322 -0.001913 0.000000 0.037384 0.000000
# 6 0.000000 0.000000 0.000000 0.080813 0.000000 0.026531
#
#
# Mechanical properties :
#
#
# Convention : Reuss Voigt Hill
#
# Bulk Modulus (GPa) = 18.80314 26.66928 22.73621
# Shear Modulus (GPa) = 78.04142 18.96453 48.50297
#
# Velocity S-wave (km/s) = 6.31637 3.11369 4.97954
# Velocity P-wave (km/s) = 7.92514 5.15371 6.68463
#
# Compressibility (1/GPa) = 0.05318261
#
# Stress axis : x y z
#
# Youngs Moduli (GPa) = 24.14291 80.00336 82.05312
#
# Poissons Ratio (x) = 0.35661 0.04678
# Poissons Ratio (y) = 0.10762 0.11770
# Poissons Ratio (z) = 0.01377 0.11476
#
# Static dielectric constant tensor:
#      x y z
#    x 1.694310 0.000000 -0.007300 
#    y 0.000000 1.655220 0.000000 
#    z -0.007300 0.000000 1.707920 
# 
# From -- ./inp_files/257094.got.cif
#   From: 2010.05.17/outbox.cif.g08.bks.cpg/sg12_129_cif.got.tgz:257094.got - 2010.06.03 13:09:07.
