data_PCOD9214114
_publ_section_title
;
Structure prediction by ZEFSAII (Michael W. Deem and Ramdas Pophale) SiO2 
 PCOD9214114
Probable space group: C 2/M
;
_chemical_formula_sum "Si O2"
_cell_formula_units_Z 60
_cell_length_a 11.413127
_cell_length_b 24.087700
_cell_length_c 16.807409
_cell_angle_alpha 90.000000
_cell_angle_beta 137.271513
_cell_angle_gamma 90.000000
_cell_volume 3135.209690
_symmetry_space_group_name_H-M "C 2/M"
_symmetry_group_IT_number 12
_symmetry_cell_setting 'monoclinic'
loop_
_space_group_symop_operation_xyz
x,y,z
-x,y,-z
-x,-y,-z
x,-y,z
1/2+x,1/2+y,z
1/2-x,1/2+y,-z
1/2-x,1/2-y,-z
1/2+x,1/2-y,z
loop_
_atom_site_type_symbol
_atom_site_label
_atom_site_fract_x
_atom_site_fract_y
_atom_site_fract_z
Si Si1 0.665870 0.634628 0.132054
Si Si2 0.892749 0.000000 0.699392
Si Si3 0.515466 0.098440 0.132226
Si Si4 0.676126 0.892078 0.541962
Si Si5 0.045449 0.180696 0.241860
Si Si6 0.622702 0.212109 0.883133
Si Si7 0.288913 0.586685 0.132465
Si Si8 0.501848 0.935271 0.696112
O O1 0.606979 0.662844 0.184254
O O2 0.763640 0.678521 0.124254
O O3 0.802758 0.586417 0.218762
O O4 0.500000 0.614096 0.000000
O O5 0.751633 0.950105 0.612581
O O6 0.046196 0.952443 0.785880
O O7 0.481397 0.164751 0.120756
O O8 0.672193 0.082558 0.152972
O O9 0.540418 0.075697 0.232903
O O10 0.339347 0.075631 0.004910
O O11 0.500000 0.878586 0.500000
O O12 0.815038 0.844035 0.627815
O O13 0.624904 0.901755 0.424874
O O14 0.008992 0.245730 0.224462
O O15 0.865562 0.148572 0.165837
O O16 0.750000 0.250000 0.000000
O O17 0.490179 0.000000 0.671751
#
# Coordination Sequence:
#
# PCOD9214114 Si02
#       8
#     8   4   8   8   8   8   8   8
#     4  11  22  38  61  98 132 158 212 262 318 384
#     4  10  23  37  63  95 117 167 223 254 313 376
#     4  10  23  40  61  93 135 165 210 253 327 385
#     4  11  22  43  66  88 123 170 216 263 316 377
#     4  11  22  38  64  96 123 161 218 266 307 380
#     4  11  21  37  63  94 126 169 204 260 322 382
#     4  10  22  39  62  94 130 169 205 260 315 396
#     4  11  24  41  64  92 125 170 214 264 322 375
#
# _framework density 19.137477000000001
#
# number of rings (size 3 to 8) (size 9 to 14) (size 15 to 20)
#    0.000    1.333    4.667    1.000    3.733    0.800 
#    0.000    6.000    0.000    0.000    0.000    0.000 
#    0.000    0.000    0.000    0.000    0.000    0.000 
#
# Total GULP energy -167083.048328 kJ/mol
# GULP energy per Si atom -5569.434944 kJ/mol
# Density = 1.909392 g / cm^3
# Si number density = 19.137477 Si / 1000 Ang^3
#
#
#
# Elastic Constant Matrix: (Units=GPa)
#
#
# Indices 1 2 3 4 5 6 
#
# 1 46.1899 -12.3540 31.5210 0.0000 -15.1871 0.0000
# 2 -12.3540 60.3716 28.9348 0.0000 5.5995 0.0000
# 3 31.5210 28.9348 122.8678 0.0000 -7.6996 0.0000
# 4 0.0000 0.0000 0.0000 31.4135 0.0000 6.5939
# 5 -15.1871 5.5995 -7.6996 0.0000 22.4667 0.0000
# 6 0.0000 0.0000 0.0000 6.5939 0.0000 3.4019
#
#
#
# Elastic Compliance Matrix: (Units=1/GPa)
#
#
# Indices 1 2 3 4 5 6 
#
# 1 0.039115 0.011738 -0.011574 0.000000 0.019549 0.000000
# 2 0.011738 0.023108 -0.008499 0.000000 -0.000737 0.000000
# 3 -0.011574 -0.008499 0.013032 0.000000 -0.001239 0.000000
# 4 0.000000 0.000000 0.000000 0.053669 0.000000 -0.104026
# 5 0.019549 -0.000737 -0.001239 0.000000 0.057484 0.000000
# 6 0.000000 0.000000 0.000000 -0.104026 0.000000 0.495586
#
#
# Mechanical properties :
#
#
# Convention : Reuss Voigt Hill
#
# Bulk Modulus (GPa) = 17.06921 36.18142 26.62532
# Shear Modulus (GPa) = 6.96191 23.54492 15.25341
#
# Velocity S-wave (km/s) = 1.90938 3.51137 2.82626
# Velocity P-wave (km/s) = 3.71478 5.94868 4.95915
#
# Compressibility (1/GPa) = 0.05858503
#
# Stress axis : x y z
#
# Youngs Moduli (GPa) = 25.56540 43.27492 76.73430
#
# Poissons Ratio (x) = -0.50797 0.88812
# Poissons Ratio (y) = -0.30009 0.65220
# Poissons Ratio (z) = 0.29589 0.36781
#
# Static dielectric constant tensor:
#      x y z
#    x 1.667860 0.000000 -0.019900 
#    y 0.000000 1.698930 0.000000 
#    z -0.019900 0.000000 1.672010 
# 
# From -- ./inp_files/265705.got.cif
#   From: 2010.05.17/outbox.cif.g08.bks.cpg/sg12_133_cif.got.tgz:265705.got - 2010.06.03 13:09:07.
