data_PCOD9214616
_publ_section_title
;
Structure prediction by ZEFSAII (Michael W. Deem and Ramdas Pophale) SiO2 
 PCOD9214616
Probable space group: C 2/M
;
_chemical_formula_sum "Si O2"
_cell_formula_units_Z 48
_cell_length_a 19.112161
_cell_length_b 8.620815
_cell_length_c 30.349220
_cell_angle_alpha 90.000000
_cell_angle_beta 29.704559
_cell_angle_gamma 90.000000
_cell_volume 2477.842309
_symmetry_space_group_name_H-M "C 2/M"
_symmetry_group_IT_number 12
_symmetry_cell_setting 'monoclinic'
loop_
_space_group_symop_operation_xyz
x,y,z
-x,y,-z
-x,-y,-z
x,-y,z
1/2+x,1/2+y,z
1/2-x,1/2+y,-z
1/2-x,1/2-y,-z
1/2+x,1/2-y,z
loop_
_atom_site_type_symbol
_atom_site_label
_atom_site_fract_x
_atom_site_fract_y
_atom_site_fract_z
Si Si1 0.848279 0.674787 0.560089
Si Si2 0.680227 0.812974 0.082527
Si Si3 0.889598 0.180799 0.445232
Si Si4 0.336573 0.310931 0.086410
Si Si5 0.148836 0.686042 0.743541
Si Si6 0.305148 0.186105 0.743887
O O1 0.811704 0.500000 0.564687
O O2 0.866765 0.789254 0.509361
O O3 0.737260 0.734556 0.656366
O O4 0.000000 0.666864 0.500000
O O5 0.760223 0.758940 0.083165
O O6 0.515127 0.771130 0.172188
O O7 0.688935 0.000000 0.077183
O O8 0.750000 0.750000 0.000000
O O9 0.750000 0.250000 0.500000
O O10 0.032705 0.264972 0.351663
O O11 0.903455 0.000000 0.427980
O O12 0.336532 0.500000 0.085611
O O13 0.253380 0.265196 0.176217
O O14 0.500000 0.260938 0.000000
O O15 0.162466 0.500000 0.733015
O O16 0.212301 0.740904 0.755469
O O17 0.294621 0.000000 0.746340
#
# Coordination Sequence:
#
# PCOD9214616 Si02
#       6
#     8   8   8   8   8   8
#     4  11  23  41  65  93 124 163 214 259 308 371
#     4  10  22  40  62  92 122 157 203 253 312 376
#     4  12  26  43  64  91 128 167 210 259 313 371
#     4   9  19  37  62  89 119 158 203 250 306 368
#     4  11  23  38  61  91 126 165 206 257 316 374
#     4  11  22  39  64  91 122 163 210 257 310 371
#
# _framework density 19.371691999999999
#
# number of rings (size 3 to 8) (size 9 to 14) (size 15 to 20)
#    0.000    1.333    1.667    4.000    2.333    3.333 
#    0.000    1.667    0.000    4.500    0.000    0.000 
#    0.000    0.000    0.000    0.000    0.000    0.000 
#
# Total GULP energy -134152.216047 kJ/mol
# GULP energy per Si atom -5589.675669 kJ/mol
# Density = 1.932760 g / cm^3
# Si number density = 19.371692 Si / 1000 Ang^3
#
#
#
# Elastic Constant Matrix: (Units=GPa)
#
#
# Indices 1 2 3 4 5 6 
#
# 1 123.7123 2.4854 86.2845 0.0001 -11.9151 -0.0003
# 2 2.4854 39.5123 24.3724 0.0002 -9.7244 -0.0005
# 3 86.2845 24.3724 187.1602 0.0001 -1.9103 0.0001
# 4 0.0001 0.0002 0.0001 -2.0136 0.0000 0.7967
# 5 -11.9151 -9.7244 -1.9103 0.0000 38.9141 0.0000
# 6 -0.0003 -0.0005 0.0001 0.7967 0.0000 31.6893
#
#
#
# Elastic Compliance Matrix: (Units=1/GPa)
#
#
# Indices 1 2 3 4 5 6 
#
# 1 0.012994 0.004368 -0.006511 0.000001 0.004751 0.000000
# 2 0.004368 0.030854 -0.005942 0.000003 0.008756 0.000000
# 3 -0.006511 -0.005942 0.009088 0.000000 -0.003032 0.000000
# 4 0.000001 0.000003 0.000000 -0.491739 0.000002 0.012363
# 5 0.004751 0.008756 -0.003032 0.000002 0.029191 0.000000
# 6 0.000000 0.000000 0.000000 0.012363 0.000000 0.031246
#
#
# Mechanical properties :
#
#
# Convention : Reuss Voigt Hill
#
# Bulk Modulus (GPa) = 27.19946 64.07439 45.63692
# Shear Modulus (GPa) = -14.28814 29.53413 7.62299
#
# Velocity S-wave (km/s) = -2.71879 3.90885 1.98587
# Velocity P-wave (km/s) = 2.05319 7.31575 5.37289
#
# Compressibility (1/GPa) = 0.03676544
#
# Stress axis : x y z
#
# Youngs Moduli (GPa) = 76.95781 32.41057 110.04118
#
# Poissons Ratio (x) = -0.14157 0.71646
# Poissons Ratio (y) = -0.33615 0.65389
# Poissons Ratio (z) = 0.50106 0.19259
#
# Static dielectric constant tensor:
#      x y z
#    x 1.613810 0.000000 0.003920 
#    y 0.000000 1.673610 0.000000 
#    z 0.003920 0.000000 1.645180 
# 
# From -- ./inp_files/377898.got.cif
#   From: 2010.05.17/outbox.cif.g08.bks.cpg/sg12_189_cif.got.tgz:377898.got - 2010.06.03 13:09:07.
