data_PCOD9214529
_publ_section_title
;
Structure prediction by ZEFSAII (Michael W. Deem and Ramdas Pophale) SiO2 
 PCOD9214529
Probable space group: C 2/M
;
_chemical_formula_sum "Si O2"
_cell_formula_units_Z 40
_cell_length_a 34.234847
_cell_length_b 7.627889
_cell_length_c 13.430051
_cell_angle_alpha 90.000000
_cell_angle_beta 143.935529
_cell_angle_gamma 90.000000
_cell_volume 2064.623759
_symmetry_space_group_name_H-M "C 2/M"
_symmetry_group_IT_number 12
_symmetry_cell_setting 'monoclinic'
loop_
_space_group_symop_operation_xyz
x,y,z
-x,y,-z
-x,-y,-z
x,-y,z
1/2+x,1/2+y,z
1/2-x,1/2+y,-z
1/2-x,1/2-y,-z
1/2+x,1/2-y,z
loop_
_atom_site_type_symbol
_atom_site_label
_atom_site_fract_x
_atom_site_fract_y
_atom_site_fract_z
Si Si1 0.134590 0.296728 0.028704
Si Si2 0.084438 0.000000 0.785219
Si Si3 0.075150 0.000000 0.530156
Si Si4 0.763007 0.291520 0.410861
Si Si5 0.389691 0.202232 0.545771
Si Si6 0.023955 0.296119 0.946893
O O1 0.116948 0.500000 0.970635
O O2 0.207958 0.289425 0.224759
O O3 0.119400 0.170109 0.905491
O O4 0.087235 0.225644 0.019894
O O5 0.089405 0.000000 0.676539
O O6 0.005400 0.000000 0.647918
O O7 0.105901 0.168069 0.537882
O O8 0.757305 0.500000 0.390248
O O9 0.750000 0.250000 0.500000
O O10 0.835176 0.242983 0.515923
O O11 0.461576 0.206747 0.745336
O O12 0.375963 0.000000 0.488866
O O13 0.041918 0.500000 0.006838
O O14 0.000000 0.212897 0.000000
#
# Coordination Sequence:
#
# PCOD9214529 Si02
#       6
#     8   4   4   8   8   8
#     4  11  22  40  63  89 128 166 204 261 316 372
#     4  11  24  44  64  98 118 157 218 273 323 373
#     4  11  24  42  70  90 122 159 214 275 323 373
#     4  11  23  39  63  95 134 170 208 250 309 384
#     4  10  22  40  61  90 126 164 206 259 313 374
#     4   9  17  33  57  86 121 159 200 245 307 376
#
# _framework density 19.373989999999999
#
# number of rings (size 3 to 8) (size 9 to 14) (size 15 to 20)
#    0.000    1.600    3.000    1.800    2.800    4.000 
#    0.000    4.000    0.000    0.000    0.000    0.000 
#    0.000    0.000    0.000    0.000    0.000    0.000 
#
# Total GULP energy -111647.698116 kJ/mol
# GULP energy per Si atom -5582.384906 kJ/mol
# Density = 1.932989 g / cm^3
# Si number density = 19.373990 Si / 1000 Ang^3
#
#
#
# Elastic Constant Matrix: (Units=GPa)
#
#
# Indices 1 2 3 4 5 6 
#
# 1 82.1866 37.1793 -8.4280 0.0000 -9.9040 0.0000
# 2 37.1793 100.6054 17.6652 0.0000 -20.2378 0.0000
# 3 -8.4280 17.6652 26.8525 0.0000 -6.8047 0.0000
# 4 0.0000 0.0000 0.0000 22.7729 0.0000 -3.8870
# 5 -9.9040 -20.2378 -6.8047 0.0000 39.9092 0.0000
# 6 0.0000 0.0000 0.0000 -3.8870 0.0000 28.7791
#
#
#
# Elastic Compliance Matrix: (Units=1/GPa)
#
#
# Indices 1 2 3 4 5 6 
#
# 1 0.017105 -0.007830 0.011067 0.000000 0.002161 0.000000
# 2 -0.007830 0.015708 -0.011774 0.000000 0.004015 0.000000
# 3 0.011067 -0.011774 0.049794 0.000000 0.005266 0.000000
# 4 0.000000 0.000000 0.000000 0.044948 0.000000 0.006071
# 5 0.002161 0.004015 0.005266 0.000000 0.028527 0.000000
# 6 0.000000 0.000000 0.000000 0.006071 0.000000 0.035567
#
#
# Mechanical properties :
#
#
# Convention : Reuss Voigt Hill
#
# Bulk Modulus (GPa) = 15.25919 33.60863 24.43391
# Shear Modulus (GPa) = 21.68563 29.17411 25.42987
#
# Velocity S-wave (km/s) = 3.34925 3.88472 3.62688
# Velocity P-wave (km/s) = 4.78015 6.12425 5.49346
#
# Compressibility (1/GPa) = 0.06553427
#
# Stress axis : x y z
#
# Youngs Moduli (GPa) = 58.46335 63.66039 20.08271
#
# Poissons Ratio (x) = 0.49844 -0.22226
# Poissons Ratio (y) = 0.45775 0.23645
# Poissons Ratio (z) = -0.64702 0.74953
#
# Static dielectric constant tensor:
#      x y z
#    x 1.682860 0.000000 0.015050 
#    y 0.000000 1.705180 0.000000 
#    z 0.015050 0.000000 1.650180 
# 
# From -- ./inp_files/151779.got.cif
#   From: 2010.05.17/outbox.cif.g08.bks.cpg/sg12_76_cif.got.tgz:151779.got - 2010.06.03 13:09:07.
