data_PCOD9214933
_publ_section_title
;
Structure prediction by ZEFSAII (Michael W. Deem and Ramdas Pophale) SiO2 
 PCOD9214933
Probable space group: C 2/M
;
_chemical_formula_sum "Si O2"
_cell_formula_units_Z 56
_cell_length_a 19.276109
_cell_length_b 15.234290
_cell_length_c 21.205353
_cell_angle_alpha 90.000000
_cell_angle_beta 153.056401
_cell_angle_gamma 90.000000
_cell_volume 2821.589309
_symmetry_space_group_name_H-M "C 2/M"
_symmetry_group_IT_number 12
_symmetry_cell_setting 'monoclinic'
loop_
_space_group_symop_operation_xyz
x,y,z
-x,y,-z
-x,-y,-z
x,-y,z
1/2+x,1/2+y,z
1/2-x,1/2+y,-z
1/2-x,1/2-y,-z
1/2+x,1/2-y,z
loop_
_atom_site_type_symbol
_atom_site_label
_atom_site_fract_x
_atom_site_fract_y
_atom_site_fract_z
Si Si1 0.894207 0.600722 0.540205
Si Si2 0.752277 0.899320 0.440882
Si Si3 0.853063 0.835866 0.071856
Si Si4 0.887316 0.900046 0.241466
Si Si5 0.832487 0.272434 0.859866
Si Si6 0.247730 0.902295 0.139779
Si Si7 0.684996 0.735705 0.300212
O O1 0.859626 0.500000 0.492868
O O2 0.821299 0.615018 0.550099
O O3 0.817184 0.670291 0.431624
O O4 0.076016 0.608836 0.696124
O O5 0.693021 0.826232 0.345407
O O6 0.934580 0.889833 0.596554
O O7 0.718365 0.000000 0.394219
O O8 0.870004 0.882857 0.152800
O O9 0.021038 0.808501 0.182740
O O10 0.750000 0.750000 0.000000
O O11 0.771621 0.891607 0.951068
O O12 0.788530 0.831188 0.200839
O O13 0.841342 0.000000 0.218463
O O14 0.840200 0.178161 0.900286
O O15 0.794225 0.256370 0.756223
O O16 0.000000 0.314732 0.000000
O O17 0.196937 0.000000 0.117196
#
# Coordination Sequence:
#
# PCOD9214933 Si02
#       7
#     8   8   8   8   8   8   8
#     4  10  22  40  66 101 132 163 218 281 334 388
#     4  10  22  40  66 102 131 165 220 278 334 387
#     4  12  22  41  69  98 130 171 229 273 327 389
#     4  11  24  43  70  98 133 175 224 278 328 389
#     4  12  26  46  60  96 137 178 224 267 332 399
#     4  11  24  42  66  95 134 174 216 273 332 394
#     4  12  24  40  70  93 131 181 216 274 331 393
#
# _framework density 19.846971
#
# number of rings (size 3 to 8) (size 9 to 14) (size 15 to 20)
#    0.000    0.857    4.286    2.571    0.000    4.571 
#    0.000    6.429    0.000    0.000    0.000    0.000 
#    0.000    0.000    0.000    0.000    0.000    0.000 
#
# Total GULP energy -156615.401873 kJ/mol
# GULP energy per Si atom -5593.407210 kJ/mol
# Density = 1.980180 g / cm^3
# Si number density = 19.846971 Si / 1000 Ang^3
#
#
#
# Elastic Constant Matrix: (Units=GPa)
#
#
# Indices 1 2 3 4 5 6 
#
# 1 82.8479 31.8340 23.3573 0.0011 -13.6097 -0.0014
# 2 31.8340 75.6575 20.6900 0.0007 -15.3547 -0.0017
# 3 23.3573 20.6900 59.1472 -0.0017 -14.8789 -0.0001
# 4 0.0011 0.0007 -0.0017 -31.6791 -0.0002 21.8366
# 5 -13.6097 -15.3547 -14.8789 -0.0002 34.8704 -0.0005
# 6 -0.0014 -0.0017 -0.0001 21.8366 -0.0005 -24.0757
#
#
#
# Elastic Compliance Matrix: (Units=1/GPa)
#
#
# Indices 1 2 3 4 5 6 
#
# 1 0.015423 -0.005008 -0.003786 0.000001 0.002199 0.000000
# 2 -0.005008 0.016985 -0.002883 -0.000001 0.004294 -0.000002
# 3 -0.003786 -0.002883 0.020970 -0.000003 0.006201 -0.000003
# 4 0.000001 -0.000001 -0.000003 -0.084223 -0.000003 -0.076390
# 5 0.002199 0.004294 0.006201 -0.000003 0.034072 -0.000004
# 6 0.000000 -0.000002 -0.000003 -0.076390 -0.000004 -0.110821
#
#
# Mechanical properties :
#
#
# Convention : Reuss Voigt Hill
#
# Bulk Modulus (GPa) = 33.30663 41.04615 37.17639
# Shear Modulus (GPa) = -67.35746 5.27455 -31.04146
#
# Velocity S-wave (km/s) = -5.83199 1.63199 -3.95909
# Velocity P-wave (km/s) = 5.34147 4.92721 1.45841
#
# Compressibility (1/GPa) = 0.03002406
#
# Stress axis : x y z
#
# Youngs Moduli (GPa) = 64.83772 58.87669 47.68624
#
# Poissons Ratio (x) = 0.29485 0.18052
# Poissons Ratio (y) = 0.32470 0.13750
# Poissons Ratio (z) = 0.24545 0.16977
#
# Static dielectric constant tensor:
#      x y z
#    x 1.668770 0.000000 0.007820 
#    y 0.000000 1.695950 0.000000 
#    z 0.007820 0.000000 1.695440 
# 
# From -- ./inp_files/96967.got.cif
#   From: 2010.05.17/outbox.cif.g08.bks.cpg/sg12_49_cif.got.tgz:96967.got - 2010.06.03 13:09:07.
