data_PCOD9214260
_publ_section_title
;
Structure prediction by ZEFSAII (Michael W. Deem and Ramdas Pophale) SiO2 
 PCOD9214260
Probable space group: C 2/M
;
_chemical_formula_sum "Si O2"
_cell_formula_units_Z 28
_cell_length_a 10.543499
_cell_length_b 19.008919
_cell_length_c 5.780181
_cell_angle_alpha 90.000000
_cell_angle_beta 86.658970
_cell_angle_gamma 90.000000
_cell_volume 1156.497871
_symmetry_space_group_name_H-M "C 2/M"
_symmetry_group_IT_number 12
_symmetry_cell_setting 'monoclinic'
loop_
_space_group_symop_operation_xyz
x,y,z
-x,y,-z
-x,-y,-z
x,-y,z
1/2+x,1/2+y,z
1/2-x,1/2+y,-z
1/2-x,1/2-y,-z
1/2+x,1/2-y,z
loop_
_atom_site_type_symbol
_atom_site_label
_atom_site_fract_x
_atom_site_fract_y
_atom_site_fract_z
Si Si1 0.670033 0.419515 0.644966
Si Si2 0.500000 0.671848 0.000000
Si Si3 0.957029 0.417843 0.755984
Si Si4 0.360596 0.709698 0.622262
O O1 0.638025 0.500000 0.603300
O O2 0.805258 0.416963 0.757077
O O3 0.675006 0.372257 0.414776
O O4 0.569076 0.379001 0.812152
O O5 0.391336 0.718097 0.888398
O O6 0.002471 0.500000 0.750107
O O7 0.000000 0.388012 0.500000
O O8 0.000000 0.387691 0.000000
O O9 0.500000 0.725606 0.500000
O O10 0.250000 0.750000 0.500000
#
# Coordination Sequence:
#
# PCOD9214260 Si02
#       4
#     8   4   8   8
#     4  10  22  39  65  99 137 175 222 287 351 416
#     4  10  23  42  68  96 133 174 232 282 355 418
#     4   9  19  35  56  89 134 180 224 274 340 415
#     4  10  24  45  66  96 133 179 232 285 344 420
#
# _framework density 24.211024999999999
#
# number of rings (size 3 to 8) (size 9 to 14) (size 15 to 20)
#    0.000    2.286    0.000    0.429    4.000   12.000 
#    2.571    0.000    0.000    0.000    0.000    0.000 
#    0.000    0.000    0.000    0.000    0.000    0.000 
#
# Total GULP energy -78155.076403 kJ/mol
# GULP energy per Si atom -5582.505457 kJ/mol
# Density = 2.415592 g / cm^3
# Si number density = 24.211025 Si / 1000 Ang^3
#
#
#
# Elastic Constant Matrix: (Units=GPa)
#
#
# Indices 1 2 3 4 5 6 
#
# 1 113.1932 41.9603 50.7087 0.0000 43.9803 0.0000
# 2 41.9603 100.4789 54.9821 0.0000 24.9945 0.0000
# 3 50.7087 54.9821 174.3304 0.0000 49.4332 0.0000
# 4 0.0000 0.0000 0.0000 14.2018 0.0000 15.4810
# 5 43.9803 24.9945 49.4332 0.0000 52.0587 0.0000
# 6 0.0000 0.0000 0.0000 15.4810 0.0000 14.1453
#
#
#
# Elastic Compliance Matrix: (Units=1/GPa)
#
#
# Indices 1 2 3 4 5 6 
#
# 1 0.014064 -0.003246 -0.000192 0.000000 -0.010141 0.000000
# 2 -0.003246 0.013123 -0.002991 0.000000 -0.000719 0.000000
# 3 -0.000192 -0.002991 0.008597 0.000000 -0.006566 0.000000
# 4 0.000000 0.000000 0.000000 -0.364844 0.000000 0.399293
# 5 -0.010141 -0.000719 -0.006566 0.000000 0.034356 0.000000
# 6 0.000000 0.000000 0.000000 0.399293 0.000000 -0.366300
#
#
# Mechanical properties :
#
#
# Convention : Reuss Voigt Hill
#
# Bulk Modulus (GPa) = 43.61597 75.92273 59.76935
# Shear Modulus (GPa) = -7.80633 32.10459 12.14913
#
# Velocity S-wave (km/s) = -1.79758 3.64542 2.24252
# Velocity P-wave (km/s) = 3.70751 7.01039 5.60764
#
# Compressibility (1/GPa) = 0.02292738
#
# Stress axis : x y z
#
# Youngs Moduli (GPa) = 71.10546 76.20109 116.31904
#
# Poissons Ratio (x) = 0.24732 0.02228
# Poissons Ratio (y) = 0.23078 0.34792
# Poissons Ratio (z) = 0.01362 0.22793
#
# Static dielectric constant tensor:
#      x y z
#    x 1.955910 0.000000 -0.025070 
#    y 0.000000 1.952980 0.000000 
#    z -0.025070 0.000000 2.110800 
# 
# From -- ./inp_files/6139.got.cif
#   From: 2010.05.17/outbox.cif.g08.bks.cpg/sg12_4_cif.got.tgz:6139.got - 2010.06.03 13:09:07.
