data_PCOD9214479
_publ_section_title
;
Structure prediction by ZEFSAII (Michael W. Deem and Ramdas Pophale) SiO2 
 PCOD9214479
Probable space group: C 2/M
;
_chemical_formula_sum "Si O2"
_cell_formula_units_Z 40
_cell_length_a 15.664269
_cell_length_b 23.853842
_cell_length_c 4.814768
_cell_angle_alpha 90.000000
_cell_angle_beta 99.294765
_cell_angle_gamma 90.000000
_cell_volume 1775.431797
_symmetry_space_group_name_H-M "C 2/M"
_symmetry_group_IT_number 12
_symmetry_cell_setting 'monoclinic'
loop_
_space_group_symop_operation_xyz
x,y,z
-x,y,-z
-x,-y,-z
x,-y,z
1/2+x,1/2+y,z
1/2-x,1/2+y,-z
1/2-x,1/2-y,-z
1/2+x,1/2-y,z
loop_
_atom_site_type_symbol
_atom_site_label
_atom_site_fract_x
_atom_site_fract_y
_atom_site_fract_z
Si Si1 0.723060 0.865651 0.085182
Si Si2 0.937536 0.115842 0.717804
Si Si3 0.234023 0.063238 0.382998
Si Si4 0.555265 0.183766 0.297999
Si Si5 0.333394 0.280233 0.414962
O O1 0.759750 0.915310 0.298476
O O2 0.634847 0.846527 0.184642
O O3 0.790905 0.813410 0.131140
O O4 0.715016 0.891842 0.778602
O O5 0.866459 0.069531 0.755203
O O6 0.880285 0.169198 0.599160
O O7 0.000000 0.098864 0.500000
O O8 0.000000 0.131101 0.000000
O O9 0.264495 0.000000 0.367043
O O10 0.500000 0.149581 0.500000
O O11 0.595575 0.231645 0.522004
O O12 0.500000 0.203903 0.000000
O O13 0.250000 0.250000 0.500000
#
# Coordination Sequence:
#
# PCOD9214479 Si02
#       5
#     8   8   8   8   8
#     4  10  22  40  61  87 120 155 197 245 288 348
#     4  11  22  37  57  86 122 151 188 244 293 337
#     4  11  23  41  64  85 112 158 204 243 294 353
#     4  11  22  37  61  91 123 155 192 239 294 352
#     4   9  20  37  58  86 120 160 196 228 281 353
#
# _framework density 22.529731000000002
#
# number of rings (size 3 to 8) (size 9 to 14) (size 15 to 20)
#    0.000    1.600    0.000    5.400    0.000    4.000 
#    0.000   17.000    0.000   12.000    0.000    0.000 
#    0.000    0.000    0.000    0.000    0.000    0.000 
#
# Total GULP energy -111610.306390 kJ/mol
# GULP energy per Si atom -5580.515319 kJ/mol
# Density = 2.247845 g / cm^3
# Si number density = 22.529731 Si / 1000 Ang^3
#
#
#
# Elastic Constant Matrix: (Units=GPa)
#
#
# Indices 1 2 3 4 5 6 
#
# 1 109.5724 12.4537 28.7987 0.0000 -6.0527 0.0000
# 2 12.4537 78.3569 8.5168 0.0000 -0.1063 0.0000
# 3 28.7987 8.5168 87.5652 0.0000 -14.3181 0.0000
# 4 0.0000 0.0000 0.0000 15.1872 0.0000 -6.4422
# 5 -6.0527 -0.1063 -14.3181 0.0000 40.0711 0.0000
# 6 0.0000 0.0000 0.0000 -6.4422 0.0000 -0.4188
#
#
#
# Elastic Compliance Matrix: (Units=1/GPa)
#
#
# Indices 1 2 3 4 5 6 
#
# 1 0.010117 -0.001266 -0.003138 0.000000 0.000403 0.000000
# 2 -0.001266 0.013064 -0.000934 0.000000 -0.000490 0.000000
# 3 -0.003138 -0.000934 0.013239 0.000000 0.004254 0.000000
# 4 0.000000 0.000000 0.000000 0.008750 0.000000 -0.134597
# 5 0.000403 -0.000490 0.004254 0.000000 0.026535 0.000000
# 6 0.000000 0.000000 0.000000 -0.134597 0.000000 -0.317304
#
#
# Mechanical properties :
#
#
# Convention : Reuss Voigt Hill
#
# Bulk Modulus (GPa) = 38.84662 41.67034 40.25848
# Shear Modulus (GPa) = -22.09077 26.01623 1.96273
#
# Velocity S-wave (km/s) = -3.13472 3.40185 0.93438
# Velocity P-wave (km/s) = 2.04399 5.82803 4.36714
#
# Compressibility (1/GPa) = 0.02574226
#
# Stress axis : x y z
#
# Youngs Moduli (GPa) = 98.83921 76.54458 75.53633
#
# Poissons Ratio (x) = 0.09693 0.23706
# Poissons Ratio (y) = 0.12517 0.07058
# Poissons Ratio (z) = 0.31019 0.07152
#
# Static dielectric constant tensor:
#      x y z
#    x 0.779560 0.000000 1.001310 
#    y 0.000000 1.834040 0.000000 
#    z 1.001310 0.000000 0.973320 
# 
# From -- ./inp_files/11410.got.cif
#   From: 2010.05.17/outbox.cif.g08.bks.cpg/sg12_6_cif.got.tgz:11410.got - 2010.06.03 13:09:07.
