data_PCOD9214591
_publ_section_title
;
Structure prediction by ZEFSAII (Michael W. Deem and Ramdas Pophale) SiO2 
 PCOD9214591
Probable space group: C 2/M
;
_chemical_formula_sum "Si O2"
_cell_formula_units_Z 58
_cell_length_a 19.959024
_cell_length_b 22.977501
_cell_length_c 9.451744
_cell_angle_alpha 90.000000
_cell_angle_beta 38.604212
_cell_angle_gamma 90.000000
_cell_volume 2704.548772
_symmetry_space_group_name_H-M "C 2/M"
_symmetry_group_IT_number 12
_symmetry_cell_setting 'monoclinic'
loop_
_space_group_symop_operation_xyz
x,y,z
-x,y,-z
-x,-y,-z
x,-y,z
1/2+x,1/2+y,z
1/2-x,1/2+y,-z
1/2-x,1/2-y,-z
1/2+x,1/2-y,z
loop_
_atom_site_type_symbol
_atom_site_label
_atom_site_fract_x
_atom_site_fract_y
_atom_site_fract_z
Si Si1 0.415164 0.112239 0.530688
Si Si2 0.880416 0.170813 0.149596
Si Si3 0.687518 0.566782 0.919938
Si Si4 0.500000 0.000000 0.000000
Si Si5 0.698291 0.661978 0.407287
Si Si6 0.875719 0.934817 0.665736
Si Si7 0.064693 0.378915 0.016451
Si Si8 0.214885 0.728507 0.212053
O O1 0.500000 0.086057 0.500000
O O2 0.312208 0.072381 0.669413
O O3 0.487073 0.123703 0.276703
O O4 0.362630 0.172663 0.670040
O O5 0.879746 0.108318 0.071489
O O6 0.812387 0.167540 0.407014
O O7 0.817291 0.210314 0.140220
O O8 0.000000 0.187667 0.000000
O O9 0.651671 0.500000 0.974752
O O10 0.681286 0.586388 0.095058
O O11 0.571124 0.946877 0.957698
O O12 0.635913 0.607108 0.447376
O O13 0.659519 0.719525 0.390542
O O14 0.820036 0.649166 0.158985
O O15 0.000000 0.937602 0.500000
O O16 0.835942 0.000000 0.700836
O O17 0.000000 0.346635 0.000000
O O18 0.250000 0.750000 0.000000
#
# Coordination Sequence:
#
# PCOD9214591 Si02
#       8
#     8   8   8   2   8   8   8   8
#     4  11  23  40  63  95 128 163 219 271 325 388
#     4  11  25  43  65  95 129 167 221 277 333 396
#     4  10  22  40  62  91 131 171 212 268 331 397
#     4   8  24  40  66  88 136 172 204 240 340 396
#     4  12  24  40  66  93 125 167 218 271 331 396
#     4  10  22  40  62  90 126 168 218 268 320 390
#     4  10  22  40  63  92 127 167 206 255 319 397
#     4  11  25  45  66  92 129 174 220 273 335 403
#
# _framework density 21.445350999999999
#
# number of rings (size 3 to 8) (size 9 to 14) (size 15 to 20)
#    0.414    0.966    0.000    6.207    1.931    4.414 
#    0.000    0.000    0.000    0.000    0.000    0.000 
#    0.000    0.000    0.000    0.000    0.000    0.000 
#
# Total GULP energy -161709.928746 kJ/mol
# GULP energy per Si atom -5576.204440 kJ/mol
# Density = 2.139654 g / cm^3
# Si number density = 21.445351 Si / 1000 Ang^3
#
#
#
# Elastic Constant Matrix: (Units=GPa)
#
#
# Indices 1 2 3 4 5 6 
#
# 1 89.1449 7.6272 24.1425 0.0000 12.7189 0.0000
# 2 7.6272 86.6752 0.5937 0.0000 15.6754 0.0000
# 3 24.1425 0.5937 98.8486 -0.0001 14.4993 0.0000
# 4 0.0000 0.0000 -0.0001 -16.7734 0.0000 6.9257
# 5 12.7189 15.6754 14.4993 0.0000 46.5487 0.0000
# 6 0.0000 0.0000 0.0000 6.9257 0.0000 23.5431
#
#
#
# Elastic Compliance Matrix: (Units=1/GPa)
#
#
# Indices 1 2 3 4 5 6 
#
# 1 0.012326 -0.000647 -0.002666 0.000000 -0.002320 0.000000
# 2 -0.000647 0.012349 0.000700 0.000000 -0.004200 0.000000
# 3 -0.002666 0.000700 0.011203 0.000000 -0.002997 0.000000
# 4 0.000000 0.000000 0.000000 -0.053161 0.000000 0.015638
# 5 -0.002320 -0.004200 -0.002997 0.000000 0.024464 0.000000
# 6 0.000000 0.000000 0.000000 0.015638 0.000000 0.037875
#
#
# Mechanical properties :
#
#
# Convention : Reuss Voigt Hill
#
# Bulk Modulus (GPa) = 32.62499 37.71062 35.16780
# Shear Modulus (GPa) = 82.64432 26.81738 54.73085
#
# Velocity S-wave (km/s) = 6.21457 3.54008 5.05732
# Velocity P-wave (km/s) = 8.16949 5.85937 7.10889
#
# Compressibility (1/GPa) = 0.03065135
#
# Stress axis : x y z
#
# Youngs Moduli (GPa) = 81.12863 80.97822 89.26126
#
# Poissons Ratio (x) = 0.05239 0.23800
# Poissons Ratio (y) = 0.05248 -0.06247
# Poissons Ratio (z) = 0.21632 -0.05667
#
# Static dielectric constant tensor:
#      x y z
#    x 1.801500 0.000000 -0.028090 
#    y 0.000000 1.818130 0.000000 
#    z -0.028090 0.000000 1.762430 
# 
# From -- ./inp_files/90794.got.cif
#   From: 2010.05.17/outbox.cif.g08.bks.cpg/sg12_46_cif.got.tgz:90794.got - 2010.06.03 13:09:07.
