data_PCOD9214663
_publ_section_title
;
Structure prediction by ZEFSAII (Michael W. Deem and Ramdas Pophale) SiO2 
 PCOD9214663
Probable space group: C 2/M
;
_chemical_formula_sum "Si O2"
_cell_formula_units_Z 64
_cell_length_a 31.324612
_cell_length_b 8.822109
_cell_length_c 19.947360
_cell_angle_alpha 90.000000
_cell_angle_beta 141.802236
_cell_angle_gamma 90.000000
_cell_volume 3408.767523
_symmetry_space_group_name_H-M "C 2/M"
_symmetry_group_IT_number 12
_symmetry_cell_setting 'monoclinic'
loop_
_space_group_symop_operation_xyz
x,y,z
-x,y,-z
-x,-y,-z
x,-y,z
1/2+x,1/2+y,z
1/2-x,1/2+y,-z
1/2-x,1/2-y,-z
1/2+x,1/2-y,z
loop_
_atom_site_type_symbol
_atom_site_label
_atom_site_fract_x
_atom_site_fract_y
_atom_site_fract_z
Si Si1 0.697411 0.819773 0.488449
Si Si2 0.474054 0.181650 0.042274
Si Si3 0.440485 0.672619 0.734071
Si Si4 0.457999 0.326572 0.265839
Si Si5 0.309816 0.683029 0.027795
Si Si6 0.957360 0.681751 0.511811
Si Si7 0.682989 0.817416 0.112628
Si Si8 0.301520 0.184195 0.354317
O O1 0.750000 0.750000 0.500000
O O2 0.621991 0.772113 0.370307
O O3 0.706636 0.770035 0.577461
O O4 0.704503 0.000000 0.496502
O O5 0.524217 0.262134 0.156463
O O6 0.479063 0.000000 0.057734
O O7 0.500000 0.218170 0.000000
O O8 0.394126 0.223603 0.956743
O O9 0.416262 0.500000 0.714757
O O10 0.498635 0.672068 0.748817
O O11 0.454213 0.500000 0.286499
O O12 0.381810 0.274310 0.152386
O O13 0.498442 0.227295 0.369135
O O14 0.306297 0.500000 0.019836
O O15 0.192381 0.750006 0.049789
O O16 0.250000 0.750000 0.000000
O O17 0.953965 0.500000 0.502873
O O18 0.877892 0.733336 0.422818
O O19 0.000000 0.739117 0.500000
O O20 0.741432 0.752781 0.234271
O O21 0.687764 0.000000 0.116128
O O22 0.298546 0.000000 0.347514
#
# Coordination Sequence:
#
# PCOD9214663 Si02
#       8
#     8   8   8   8   8   8   8   8
#     4  11  24  42  64  92 125 164 208 256 310 370
#     4  10  23  42  63  91 124 163 208 255 308 367
#     4  11  22  40  65  93 122 161 206 256 313 365
#     4  10  22  40  63  90 122 157 200 253 305 359
#     4  11  24  43  64  92 126 163 208 256 309 369
#     4  10  22  40  63  91 120 158 204 246 300 363
#     4  11  24  41  63  91 125 166 207 252 310 368
#     4  10  23  42  61  87 125 164 202 251 306 363
#
# _framework density 18.775115
#
# number of rings (size 3 to 8) (size 9 to 14) (size 15 to 20)
#    0.000    1.500    2.500    1.500    3.500    4.000 
#    0.000    0.000    0.000    0.000    0.000    0.000 
#    0.000    0.000    0.000    0.000    0.000    0.000 
#
# Total GULP energy -178763.906517 kJ/mol
# GULP energy per Si atom -5586.372079 kJ/mol
# Density = 1.873238 g / cm^3
# Si number density = 18.775115 Si / 1000 Ang^3
#
#
#
# Elastic Constant Matrix: (Units=GPa)
#
#
# Indices 1 2 3 4 5 6 
#
# 1 103.2664 22.7299 23.2374 0.0000 -4.2544 0.0000
# 2 22.7299 20.7829 17.7699 0.0000 -3.9606 0.0000
# 3 23.2374 17.7699 88.3878 0.0000 -2.3897 0.0000
# 4 0.0000 0.0000 0.0000 30.4715 0.0000 -2.0762
# 5 -4.2544 -3.9606 -2.3897 0.0000 34.7821 0.0000
# 6 0.0000 0.0000 0.0000 -2.0762 0.0000 28.9287
#
#
#
# Elastic Compliance Matrix: (Units=1/GPa)
#
#
# Indices 1 2 3 4 5 6 
#
# 1 0.012786 -0.013418 -0.000664 0.000000 -0.000010 0.000000
# 2 -0.013418 0.073388 -0.011066 0.000000 0.005955 0.000000
# 3 -0.000664 -0.011066 0.013702 0.000000 -0.000400 0.000000
# 4 0.000000 0.000000 0.000000 0.032979 0.000000 0.002367
# 5 -0.000010 0.005955 -0.000400 0.000000 0.029400 0.000000
# 6 0.000000 0.000000 0.000000 0.002367 0.000000 0.034738
#
#
# Mechanical properties :
#
#
# Convention : Reuss Voigt Hill
#
# Bulk Modulus (GPa) = 20.16915 37.76795 28.96855
# Shear Modulus (GPa) = 18.95271 28.74977 23.85124
#
# Velocity S-wave (km/s) = 3.18065 3.91739 3.56808
# Velocity P-wave (km/s) = 4.92488 6.37345 5.69541
#
# Compressibility (1/GPa) = 0.04958066
#
# Stress axis : x y z
#
# Youngs Moduli (GPa) = 78.20947 13.62629 72.98073
#
# Poissons Ratio (x) = 0.18284 0.04847
# Poissons Ratio (y) = 1.04941 0.80757
# Poissons Ratio (z) = 0.05195 0.15078
#
# Static dielectric constant tensor:
#      x y z
#    x 1.664060 0.000000 -0.001820 
#    y 0.000000 1.642960 0.000000 
#    z -0.001820 0.000000 1.589800 
# 
# From -- ./inp_files/295777.got.cif
#   From: 2010.05.17/outbox.cif.g08.bks.cpg/sg12_148_cif.got.tgz:295777.got - 2010.06.03 13:09:07.
