data_PCOD9214918
_publ_section_title
;
Structure prediction by ZEFSAII (Michael W. Deem and Ramdas Pophale) SiO2 
 PCOD9214918
Probable space group: C 2/M
;
_chemical_formula_sum "Si O2"
_cell_formula_units_Z 44
_cell_length_a 9.580881
_cell_length_b 9.505202
_cell_length_c 21.804035
_cell_angle_alpha 90.000000
_cell_angle_beta 89.433097
_cell_angle_gamma 90.000000
_cell_volume 1985.557227
_symmetry_space_group_name_H-M "C 2/M"
_symmetry_group_IT_number 12
_symmetry_cell_setting 'monoclinic'
loop_
_space_group_symop_operation_xyz
x,y,z
-x,y,-z
-x,-y,-z
x,-y,z
1/2+x,1/2+y,z
1/2-x,1/2+y,-z
1/2-x,1/2-y,-z
1/2+x,1/2-y,z
loop_
_atom_site_type_symbol
_atom_site_label
_atom_site_fract_x
_atom_site_fract_y
_atom_site_fract_z
Si Si1 0.818370 0.164385 0.750020
Si Si2 0.958056 0.661197 0.185462
Si Si3 0.038156 0.337040 0.430034
Si Si4 0.900940 0.712681 0.945032
Si Si5 0.316982 0.336262 0.360489
Si Si6 0.311776 0.500000 0.003705
O O1 0.962114 0.233403 0.769998
O O2 0.707606 0.178270 0.806603
O O3 0.749224 0.249747 0.695018
O O4 0.832672 0.000000 0.735215
O O5 0.990002 0.500000 0.203788
O O6 0.016702 0.685574 0.117626
O O7 0.995667 0.500000 0.418945
O O8 0.201878 0.328093 0.415219
O O9 0.000000 0.302252 0.500000
O O10 0.956157 0.236113 0.384373
O O11 0.873701 0.876144 0.957960
O O12 0.759815 0.623373 0.952363
O O13 0.000000 0.660117 0.000000
O O14 0.336685 0.500000 0.344468
#
# Coordination Sequence:
#
# PCOD9214918 Si02
#       6
#     8   8   8   8   8   4
#     4  11  26  45  66  92 123 172 214 258 315 373
#     4  11  26  43  65  92 126 160 212 263 312 378
#     4  10  22  40  65  97 133 172 212 258 311 370
#     4  11  24  41  64  90 123 159 200 256 317 379
#     4  11  23  41  65  94 132 167 213 263 312 368
#     4  10  24  40  64  90 122 158 202 242 326 376
#
# _framework density 22.160026999999999
#
# number of rings (size 3 to 8) (size 9 to 14) (size 15 to 20)
#    0.000    1.273    0.909    3.273    6.364    7.636 
#    0.000    0.000    0.000    0.000    0.000    0.000 
#    0.000    0.000    0.000    0.000    0.000    0.000 
#
# Total GULP energy -122662.917912 kJ/mol
# GULP energy per Si atom -5575.587178 kJ/mol
# Density = 2.210959 g / cm^3
# Si number density = 22.160027 Si / 1000 Ang^3
#
#
#
# Elastic Constant Matrix: (Units=GPa)
#
#
# Indices 1 2 3 4 5 6 
#
# 1 62.0875 24.3036 1.1221 0.0000 -5.6706 0.0000
# 2 24.3036 153.1059 18.3783 0.0000 7.3915 0.0000
# 3 1.1221 18.3783 61.2132 0.0000 -12.0385 0.0000
# 4 0.0000 0.0000 0.0000 31.6461 0.0000 0.8148
# 5 -5.6706 7.3915 -12.0385 0.0000 38.9840 0.0000
# 6 0.0000 0.0000 0.0000 0.8148 0.0000 17.4057
#
#
#
# Elastic Compliance Matrix: (Units=1/GPa)
#
#
# Indices 1 2 3 4 5 6 
#
# 1 0.017633 -0.003129 0.001317 0.000000 0.003565 0.000000
# 2 -0.003129 0.007486 -0.002724 0.000000 -0.002716 0.000000
# 3 0.001317 -0.002724 0.018386 0.000000 0.006386 0.000000
# 4 0.000000 0.000000 0.000000 0.031638 0.000000 -0.001481
# 5 0.003565 -0.002716 0.006386 0.000000 0.028657 0.000000
# 6 0.000000 0.000000 0.000000 -0.001481 0.000000 0.057522
#
#
# Mechanical properties :
#
#
# Convention : Reuss Voigt Hill
#
# Bulk Modulus (GPa) = 29.04210 40.44607 34.74409
# Shear Modulus (GPa) = 27.49189 33.11401 30.30295
#
# Velocity S-wave (km/s) = 3.52605 3.86983 3.70193
# Velocity P-wave (km/s) = 5.45082 6.18537 5.82968
#
# Compressibility (1/GPa) = 0.03443277
#
# Stress axis : x y z
#
# Youngs Moduli (GPa) = 56.71186 133.57735 54.38910
#
# Poissons Ratio (x) = 0.41800 -0.07165
# Poissons Ratio (y) = 0.17747 0.14818
# Poissons Ratio (z) = -0.07471 0.36392
#
# Static dielectric constant tensor:
#      x y z
#    x 1.861100 0.000000 -0.015260 
#    y 0.000000 1.778410 0.000000 
#    z -0.015260 0.000000 1.805880 
# 
# From -- ./inp_files/303616.got.cif
#   From: 2010.05.17/outbox.cif.g08.bks.cpg/sg12_152_cif.got.tgz:303616.got - 2010.06.03 13:09:07.
