data_PCOD9214179
_publ_section_title
;
Structure prediction by ZEFSAII (Michael W. Deem and Ramdas Pophale) SiO2 
 PCOD9214179
Probable space group: C 2/M
;
_chemical_formula_sum "Si O2"
_cell_formula_units_Z 34
_cell_length_a 9.339880
_cell_length_b 15.769395
_cell_length_c 11.812616
_cell_angle_alpha 90.000000
_cell_angle_beta 67.697583
_cell_angle_gamma 90.000000
_cell_volume 1609.663462
_symmetry_space_group_name_H-M "C 2/M"
_symmetry_group_IT_number 12
_symmetry_cell_setting 'monoclinic'
loop_
_space_group_symop_operation_xyz
x,y,z
-x,y,-z
-x,-y,-z
x,-y,z
1/2+x,1/2+y,z
1/2-x,1/2+y,-z
1/2-x,1/2-y,-z
1/2+x,1/2-y,z
loop_
_atom_site_type_symbol
_atom_site_label
_atom_site_fract_x
_atom_site_fract_y
_atom_site_fract_z
Si Si1 0.909831 0.320065 0.382578
Si Si2 0.000000 0.000000 0.500000
Si Si3 0.508548 0.601098 0.125104
Si Si4 0.628221 0.657177 0.309170
Si Si5 0.796444 0.596279 0.636820
O O1 0.794293 0.322693 0.312930
O O2 0.689556 0.157680 0.475353
O O3 0.010216 0.235165 0.362098
O O4 0.042298 0.392720 0.345402
O O5 0.938587 0.074815 0.606790
O O6 0.535870 0.500000 0.111328
O O7 0.631806 0.640850 0.173783
O O8 0.344867 0.614001 0.238129
O O9 0.500000 0.634076 0.000000
O O10 0.777600 0.500000 0.598159
#
# Coordination Sequence:
#
# PCOD9214179 Si02
#       5
#     8   2   8   8   8
#     4  11  24  41  64  97 140 165 209 282 337 380
#     4  12  24  36  66  98 124 168 220 262 320 400
#     4  10  22  43  67  93 130 177 223 265 316 390
#     4  12  25  41  64  98 134 172 217 267 332 386
#     4  10  22  39  63  98 132 172 214 269 334 391
#
# _framework density 21.122429
#
# number of rings (size 3 to 8) (size 9 to 14) (size 15 to 20)
#    0.000    1.176    1.176    5.647    6.588    7.529 
#    0.000    5.882    0.000    4.235    0.000    0.000 
#    0.000    0.000    0.000    0.000    0.000    0.000 
#
# Total GULP energy -94853.110424 kJ/mol
# GULP energy per Si atom -5579.594731 kJ/mol
# Density = 2.107435 g / cm^3
# Si number density = 21.122429 Si / 1000 Ang^3
#
#
#
# Elastic Constant Matrix: (Units=GPa)
#
#
# Indices 1 2 3 4 5 6 
#
# 1 136.0459 1.2214 40.2636 0.0000 41.1257 0.0000
# 2 1.2214 85.8817 19.3221 0.0000 11.4174 0.0000
# 3 40.2636 19.3221 111.9102 0.0000 43.5100 0.0000
# 4 0.0000 0.0000 0.0000 24.5924 0.0000 5.5432
# 5 41.1257 11.4174 43.5100 0.0000 37.9239 0.0000
# 6 0.0000 0.0000 0.0000 5.5432 0.0000 24.8275
#
#
#
# Elastic Compliance Matrix: (Units=1/GPa)
#
#
# Indices 1 2 3 4 5 6 
#
# 1 0.011194 0.001432 0.001106 0.000000 -0.013838 0.000000
# 2 0.001432 0.012405 -0.001085 0.000000 -0.004042 0.000000
# 3 0.001106 -0.001085 0.016364 0.000000 -0.019646 0.000000
# 4 0.000000 0.000000 0.000000 0.042818 0.000000 -0.009560
# 5 -0.013838 -0.004042 -0.019646 0.000000 0.065132 0.000000
# 6 0.000000 0.000000 0.000000 -0.009560 0.000000 0.042412
#
#
# Mechanical properties :
#
#
# Convention : Reuss Voigt Hill
#
# Bulk Modulus (GPa) = 23.32830 50.60577 36.96704
# Shear Modulus (GPa) = 24.78814 35.67080 30.22947
#
# Velocity S-wave (km/s) = 3.42942 4.11392 3.78717
# Velocity P-wave (km/s) = 5.17200 6.82467 6.05498
#
# Compressibility (1/GPa) = 0.04286638
#
# Stress axis : x y z
#
# Youngs Moduli (GPa) = 89.33719 80.61182 61.11095
#
# Poissons Ratio (x) = -0.11541 -0.06757
# Poissons Ratio (y) = -0.12791 0.06633
# Poissons Ratio (z) = -0.09878 0.08750
#
# Static dielectric constant tensor:
#      x y z
#    x 1.846160 0.000000 0.038980 
#    y 0.000000 1.804440 0.000000 
#    z 0.038980 0.000000 1.750870 
# 
# From -- ./inp_files/118475.got.cif
#   From: 2010.05.17/outbox.cif.g08.bks.cpg/sg12_60_cif.got.tgz:118475.got - 2010.06.03 13:09:07.
