data_PCOD9214274
_publ_section_title
;
Structure prediction by ZEFSAII (Michael W. Deem and Ramdas Pophale) SiO2 
 PCOD9214274
Probable space group: C 2/M
;
_chemical_formula_sum "Si O2"
_cell_formula_units_Z 50
_cell_length_a 17.617093
_cell_length_b 19.822743
_cell_length_c 8.859916
_cell_angle_alpha 90.000000
_cell_angle_beta 123.683298
_cell_angle_gamma 90.000000
_cell_volume 2574.609599
_symmetry_space_group_name_H-M "C 2/M"
_symmetry_group_IT_number 12
_symmetry_cell_setting 'monoclinic'
loop_
_space_group_symop_operation_xyz
x,y,z
-x,y,-z
-x,-y,-z
x,-y,z
1/2+x,1/2+y,z
1/2-x,1/2+y,-z
1/2-x,1/2-y,-z
1/2+x,1/2-y,z
loop_
_atom_site_type_symbol
_atom_site_label
_atom_site_fract_x
_atom_site_fract_y
_atom_site_fract_z
Si Si1 0.139100 0.078364 0.479645
Si Si2 0.798408 0.319363 0.600714
Si Si3 0.986803 0.698748 0.662946
Si Si4 0.370218 0.120275 0.976806
Si Si5 0.673281 0.421400 0.865897
Si Si6 0.000000 0.500000 0.000000
Si Si7 0.978917 0.155830 0.152335
O O1 0.222515 0.122670 0.509675
O O2 0.132097 0.090130 0.652186
O O3 0.047427 0.100673 0.297118
O O4 0.158355 0.000000 0.479056
O O5 0.750000 0.250000 0.500000
O O6 0.886195 0.327518 0.592659
O O7 0.837662 0.325389 0.814797
O O8 0.000000 0.698428 0.500000
O O9 0.999245 0.774250 0.740207
O O10 0.060571 0.653456 0.829950
O O11 0.280022 0.093925 0.961694
O O12 0.423026 0.059432 0.952522
O O13 0.659992 0.500000 0.891652
O O14 0.622002 0.371485 0.922897
O O15 0.000000 0.164057 0.000000
#
# Coordination Sequence:
#
# PCOD9214274 Si02
#       7
#     8   8   8   8   8   2   8
#     4  10  22  39  66  96 128 175 219 268 331 402
#     4  11  22  41  69  98 132 172 224 276 330 401
#     4  12  26  44  65  96 132 175 222 280 339 393
#     4  11  24  43  74 101 132 175 224 279 336 412
#     4  10  22  41  66  97 130 170 219 269 333 401
#     4  12  20  44  82 100 132 176 230 272 348 412
#     4  12  25  41  64  91 133 177 222 275 331 399
#
# _framework density 19.420418999999999
#
# number of rings (size 3 to 8) (size 9 to 14) (size 15 to 20)
#    0.000    0.960    4.000    2.880    3.360    4.480 
#    0.000    0.400    0.000    0.000    0.000    0.000 
#    0.000    0.000    0.000    0.000    0.000    0.000 
#
# Total GULP energy -139506.501471 kJ/mol
# GULP energy per Si atom -5580.260059 kJ/mol
# Density = 1.937622 g / cm^3
# Si number density = 19.420419 Si / 1000 Ang^3
#
#
#
# Elastic Constant Matrix: (Units=GPa)
#
#
# Indices 1 2 3 4 5 6 
#
# 1 133.7055 32.7246 38.3173 0.0000 2.3261 0.0000
# 2 32.7246 98.3874 45.1913 0.0000 -15.4208 0.0000
# 3 38.3173 45.1913 85.9555 0.0000 0.8841 0.0000
# 4 0.0000 0.0000 0.0000 13.8560 0.0000 11.9023
# 5 2.3261 -15.4208 0.8841 0.0000 25.1020 0.0000
# 6 0.0000 0.0000 0.0000 11.9023 0.0000 6.0102
#
#
#
# Elastic Compliance Matrix: (Units=1/GPa)
#
#
# Indices 1 2 3 4 5 6 
#
# 1 0.008809 -0.001883 -0.002918 0.000000 -0.001870 0.000000
# 2 -0.001883 0.015889 -0.007619 0.000000 0.010204 0.000000
# 3 -0.002918 -0.007619 0.016992 0.000000 -0.005009 0.000000
# 4 0.000000 0.000000 0.000000 -0.102938 0.000000 0.203853
# 5 -0.001870 0.010204 -0.005009 0.000000 0.046456 0.000000
# 6 0.000000 0.000000 0.000000 0.203853 0.000000 -0.237316
#
#
# Mechanical properties :
#
#
# Convention : Reuss Voigt Hill
#
# Bulk Modulus (GPa) = 59.34664 61.16829 60.25746
# Shear Modulus (GPa) = -22.55788 22.44800 -0.05494
#
# Velocity S-wave (km/s) = -3.41186 3.40354 -0.16838
# Velocity P-wave (km/s) = 3.88641 6.85643 5.57292
#
# Compressibility (1/GPa) = 0.01685015
#
# Stress axis : x y z
#
# Youngs Moduli (GPa) = 113.52540 62.93569 58.85139
#
# Poissons Ratio (x) = 0.11850 0.17170
# Poissons Ratio (y) = 0.21375 0.44841
# Poissons Ratio (z) = 0.33122 0.47953
#
# Static dielectric constant tensor:
#      x y z
#    x 1.675430 0.000000 0.005730 
#    y 0.000000 1.656580 0.000000 
#    z 0.005730 0.000000 1.677370 
# 
# From -- ./inp_files/76076.got.cif
#   From: 2010.05.17/outbox.cif.g08.bks.cpg/sg12_39_cif.got.tgz:76076.got - 2010.06.03 13:09:07.
