data_PCOD9214691
_publ_section_title
;
Structure prediction by ZEFSAII (Michael W. Deem and Ramdas Pophale) SiO2 
 PCOD9214691
Probable space group: C 2/M
;
_chemical_formula_sum "Si O2"
_cell_formula_units_Z 42
_cell_length_a 10.139162
_cell_length_b 7.625132
_cell_length_c 23.226825
_cell_angle_alpha 90.000000
_cell_angle_beta 102.756768
_cell_angle_gamma 90.000000
_cell_volume 1751.397533
_symmetry_space_group_name_H-M "C 2/M"
_symmetry_group_IT_number 12
_symmetry_cell_setting 'monoclinic'
loop_
_space_group_symop_operation_xyz
x,y,z
-x,y,-z
-x,-y,-z
x,-y,z
1/2+x,1/2+y,z
1/2-x,1/2+y,-z
1/2-x,1/2-y,-z
1/2+x,1/2-y,z
loop_
_atom_site_type_symbol
_atom_site_label
_atom_site_fract_x
_atom_site_fract_y
_atom_site_fract_z
Si Si1 0.691214 0.788570 0.813355
Si Si2 0.500000 0.000000 0.000000
Si Si3 0.947969 0.796412 0.555275
Si Si4 0.815490 0.792108 0.944222
Si Si5 0.726351 0.203411 0.618130
Si Si6 0.593693 0.797963 0.257778
O O1 0.710865 0.754167 0.882743
O O2 0.552903 0.722584 0.771510
O O3 0.817702 0.713790 0.791176
O O4 0.693010 0.000000 0.807080
O O5 0.437688 0.844108 0.952174
O O6 0.079899 0.789725 0.608825
O O7 0.000000 0.718473 0.500000
O O8 0.817709 0.720018 0.574860
O O9 0.915359 0.000000 0.541278
O O10 0.849642 0.000000 0.945294
O O11 0.750000 0.750000 0.000000
O O12 0.818302 0.213435 0.683438
O O13 0.698979 0.000000 0.604083
O O14 0.575561 0.000000 0.273520
#
# Coordination Sequence:
#
# PCOD9214691 Si02
#       6
#     8   2   8   8   8   8
#     4  10  25  44  66  97 129 167 219 272 324 392
#     4  12  26  44  72  96 140 180 222 272 348 406
#     4  10  22  40  63  92 125 163 210 260 313 374
#     4  11  25  45  70 101 135 177 224 282 340 409
#     4  11  23  39  61  91 127 166 209 258 315 378
#     4  11  24  42  66  93 126 168 215 264 323 384
#
# _framework density 23.980848000000002
#
# number of rings (size 3 to 8) (size 9 to 14) (size 15 to 20)
#    0.000    1.333    0.952    3.143    4.000    6.476 
#    0.000    0.000    0.000    0.000    0.000    0.000 
#    0.000    0.000    0.000    0.000    0.000    0.000 
#
# Total GULP energy -117192.405771 kJ/mol
# GULP energy per Si atom -5580.590751 kJ/mol
# Density = 2.392627 g / cm^3
# Si number density = 23.980848 Si / 1000 Ang^3
#
#
#
# Elastic Constant Matrix: (Units=GPa)
#
#
# Indices 1 2 3 4 5 6 
#
# 1 57.5023 0.6471 -18.6524 0.0000 8.3421 0.0000
# 2 0.6471 100.8764 15.8370 0.0000 14.1329 0.0000
# 3 -18.6524 15.8370 74.8897 0.0000 11.5574 0.0000
# 4 0.0000 0.0000 0.0000 22.3899 0.0000 3.0912
# 5 8.3421 14.1329 11.5574 0.0000 47.3843 0.0000
# 6 0.0000 0.0000 0.0000 3.0912 0.0000 15.8930
#
#
#
# Elastic Compliance Matrix: (Units=1/GPa)
#
#
# Indices 1 2 3 4 5 6 
#
# 1 0.019974 -0.000362 0.005796 0.000000 -0.004822 0.000000
# 2 -0.000362 0.010585 -0.001924 0.000000 -0.002624 0.000000
# 3 0.005796 -0.001924 0.015870 0.000000 -0.004317 0.000000
# 4 0.000000 0.000000 0.000000 0.045895 0.000000 -0.008927
# 5 -0.004822 -0.002624 -0.004317 0.000000 0.023789 0.000000
# 6 0.000000 0.000000 0.000000 -0.008927 0.000000 0.064657
#
#
# Mechanical properties :
#
#
# Convention : Reuss Voigt Hill
#
# Bulk Modulus (GPa) = 18.70986 25.43688 22.07337
# Shear Modulus (GPa) = 26.10056 32.82923 29.46490
#
# Velocity S-wave (km/s) = 3.30266 3.70398 3.50906
# Velocity P-wave (km/s) = 4.72888 5.37800 5.06385
#
# Compressibility (1/GPa) = 0.05344776
#
# Stress axis : x y z
#
# Youngs Moduli (GPa) = 50.06460 94.47235 63.01383
#
# Poissons Ratio (x) = 0.03424 -0.36521
# Poissons Ratio (y) = 0.01815 0.12122
# Poissons Ratio (z) = -0.29016 0.18174
#
# Static dielectric constant tensor:
#      x y z
#    x 1.973230 0.000000 -0.019360 
#    y 0.000000 1.909350 0.000000 
#    z -0.019360 0.000000 1.937340 
# 
# From -- ./inp_files/303679.got.cif
#   From: 2010.05.17/outbox.cif.g08.bks.cpg/sg12_152_cif.got.tgz:303679.got - 2010.06.03 13:09:07.
