data_PCOD9214371
_publ_section_title
;
Structure prediction by ZEFSAII (Michael W. Deem and Ramdas Pophale) SiO2 
 PCOD9214371
Probable space group: C 2/M
;
_chemical_formula_sum "Si O2"
_cell_formula_units_Z 42
_cell_length_a 13.045155
_cell_length_b 12.922141
_cell_length_c 10.905175
_cell_angle_alpha 90.000000
_cell_angle_beta 75.223265
_cell_angle_gamma 90.000000
_cell_volume 1777.501847
_symmetry_space_group_name_H-M "C 2/M"
_symmetry_group_IT_number 12
_symmetry_cell_setting 'monoclinic'
loop_
_space_group_symop_operation_xyz
x,y,z
-x,y,-z
-x,-y,-z
x,-y,z
1/2+x,1/2+y,z
1/2-x,1/2+y,-z
1/2-x,1/2-y,-z
1/2+x,1/2-y,z
loop_
_atom_site_type_symbol
_atom_site_label
_atom_site_fract_x
_atom_site_fract_y
_atom_site_fract_z
Si Si1 0.536789 0.890703 0.743234
Si Si2 0.927893 0.117040 0.905112
Si Si3 0.321428 0.221342 0.782185
Si Si4 0.500000 0.000000 0.000000
Si Si5 0.626899 0.614213 0.440978
Si Si6 0.130113 0.828708 0.702058
O O1 0.414827 0.862271 0.755204
O O2 0.603682 0.791850 0.687403
O O3 0.567335 0.000000 0.674484
O O4 0.540228 0.911922 0.888110
O O5 0.017888 0.120249 0.771139
O O6 0.842058 0.201868 0.890575
O O7 0.886191 0.000000 0.930907
O O8 0.000000 0.144195 0.000000
O O9 0.336555 0.296438 0.660492
O O10 0.210119 0.166346 0.791864
O O11 0.500000 0.623227 0.500000
O O12 0.651175 0.500000 0.383044
O O13 0.673735 0.625249 0.563224
#
# Coordination Sequence:
#
# PCOD9214371 Si02
#       6
#     8   8   8   2   8   8
#     4   9  21  39  60  80 122 161 198 234 297 355
#     4  10  22  40  59  89 127 161 202 255 307 362
#     4  11  23  39  63  93 119 156 208 252 300 360
#     4   8  20  44  60  74 126 178 192 228 314 356
#     4  11  21  40  68  89 121 159 196 252 318 369
#     4  11  23  39  63  93 119 156 208 252 300 360
#
# _framework density 23.628668000000001
#
# number of rings (size 3 to 8) (size 9 to 14) (size 15 to 20)
#    0.571    1.143    3.810    1.714    5.333    3.810 
#    0.000    1.905    0.000    0.000    0.000    0.000 
#    0.000    0.000    0.000    0.000    0.000    0.000 
#
# Total GULP energy -117064.072302 kJ/mol
# GULP energy per Si atom -5574.479633 kJ/mol
# Density = 2.357489 g / cm^3
# Si number density = 23.628668 Si / 1000 Ang^3
#
#
#
# Elastic Constant Matrix: (Units=GPa)
#
#
# Indices 1 2 3 4 5 6 
#
# 1 80.9140 -0.7063 -11.2541 0.0000 21.4533 0.0000
# 2 -0.7063 94.2304 2.1412 0.0000 -1.4744 0.0000
# 3 -11.2541 2.1412 82.8728 0.0000 11.9702 0.0000
# 4 0.0000 0.0000 0.0000 61.9180 0.0000 8.0671
# 5 21.4533 -1.4744 11.9702 0.0000 32.8714 0.0000
# 6 0.0000 0.0000 0.0000 8.0671 0.0000 -4.1874
#
#
#
# Elastic Compliance Matrix: (Units=1/GPa)
#
#
# Indices 1 2 3 4 5 6 
#
# 1 0.016058 -0.000155 0.003905 0.000000 -0.011909 0.000000
# 2 -0.000155 0.010632 -0.000400 0.000000 0.000724 0.000000
# 3 0.003905 -0.000400 0.013699 0.000000 -0.007555 0.000000
# 4 0.000000 0.000000 0.000000 0.012910 0.000000 0.024871
# 5 -0.011909 0.000724 -0.007555 0.000000 0.040978 0.000000
# 6 0.000000 0.000000 0.000000 0.024871 0.000000 -0.190897
#
#
# Mechanical properties :
#
#
# Convention : Reuss Voigt Hill
#
# Bulk Modulus (GPa) = 21.23679 26.48650 23.86165
# Shear Modulus (GPa) = -57.06159 35.97617 -10.54271
#
# Velocity S-wave (km/s) = -4.91953 3.90624 -2.11460
# Velocity P-wave (km/s) = 4.82304 5.61950 2.03924
#
# Compressibility (1/GPa) = 0.04708809
#
# Stress axis : x y z
#
# Youngs Moduli (GPa) = 62.27381 94.05969 73.00050
#
# Poissons Ratio (x) = 0.01455 -0.28506
# Poissons Ratio (y) = 0.00963 0.02922
# Poissons Ratio (z) = -0.24317 0.03764
#
# Static dielectric constant tensor:
#      x y z
#    x 1.929510 0.000000 0.033560 
#    y 0.000000 1.879000 0.000000 
#    z 0.033560 0.000000 1.925570 
# 
# From -- ./inp_files/142089.got.cif
#   From: 2010.05.17/outbox.cif.g08.bks.cpg/sg12_72_cif.got.tgz:142089.got - 2010.06.03 13:09:07.
