data_PCOD9214922
_publ_section_title
;
Structure prediction by ZEFSAII (Michael W. Deem and Ramdas Pophale) SiO2 
 PCOD9214922
Probable space group: C 2/M
;
_chemical_formula_sum "Si O2"
_cell_formula_units_Z 64
_cell_length_a 8.953465
_cell_length_b 30.894295
_cell_length_c 14.310456
_cell_angle_alpha 90.000000
_cell_angle_beta 53.985711
_cell_angle_gamma 90.000000
_cell_volume 3201.856288
_symmetry_space_group_name_H-M "C 2/M"
_symmetry_group_IT_number 12
_symmetry_cell_setting 'monoclinic'
loop_
_space_group_symop_operation_xyz
x,y,z
-x,y,-z
-x,-y,-z
x,-y,z
1/2+x,1/2+y,z
1/2-x,1/2+y,-z
1/2-x,1/2-y,-z
1/2+x,1/2-y,z
loop_
_atom_site_type_symbol
_atom_site_label
_atom_site_fract_x
_atom_site_fract_y
_atom_site_fract_z
Si Si1 0.850408 0.450520 0.320773
Si Si2 0.809736 0.132473 0.525037
Si Si3 0.567454 0.377959 0.727097
Si Si4 0.852094 0.450885 0.632281
Si Si5 0.680788 0.261840 0.182786
Si Si6 0.125472 0.309871 0.735917
Si Si7 0.016561 0.809590 0.895417
Si Si8 0.874306 0.610233 0.137046
O O1 0.780164 0.500000 0.342311
O O2 0.726071 0.416453 0.425038
O O3 0.880742 0.429114 0.208669
O O4 0.038861 0.451276 0.310604
O O5 0.841034 0.135392 0.404444
O O6 0.663015 0.163568 0.627829
O O7 0.000000 0.146887 0.500000
O O8 0.670385 0.422708 0.709382
O O9 0.610639 0.341578 0.787436
O O10 0.345393 0.383431 0.802698
O O11 0.807789 0.500000 0.619500
O O12 0.000000 0.434091 0.500000
O O13 0.700421 0.289973 0.270086
O O14 0.509037 0.229379 0.239235
O O15 0.659851 0.291606 0.097868
O O16 0.858005 0.231181 0.121892
O O17 0.055809 0.346396 0.834734
O O18 0.000000 0.833766 0.000000
O O19 0.000000 0.603486 0.000000
#
# Coordination Sequence:
#
# PCOD9214922 Si02
#       8
#     8   8   8   8   8   8   8   8
#     4  10  22  41  67  96 127 167 209 256 315 377
#     4  11  20  40  63  93 133 163 206 263 314 387
#     4  12  24  40  64 100 129 168 213 260 321 380
#     4  10  22  40  65  98 131 161 206 259 310 378
#     4  10  22  42  62  91 119 165 219 264 317 373
#     4  10  22  41  65  90 125 164 211 267 324 372
#     4  11  24  39  61  89 124 167 218 263 310 375
#     4  11  25  43  66  91 131 171 216 264 313 373
#
# _framework density 19.988403999999999
#
# number of rings (size 3 to 8) (size 9 to 14) (size 15 to 20)
#    0.000    1.375    5.000    0.375    5.250    3.000 
#    0.000    6.875    0.000    1.875    0.000    0.000 
#    0.000    0.000    0.000    0.000    0.000    0.000 
#
# Total GULP energy -178449.129892 kJ/mol
# GULP energy per Si atom -5576.535309 kJ/mol
# Density = 1.994291 g / cm^3
# Si number density = 19.988404 Si / 1000 Ang^3
#
#
#
# Elastic Constant Matrix: (Units=GPa)
#
#
# Indices 1 2 3 4 5 6 
#
# 1 79.8748 32.3904 45.6370 0.0000 12.1863 0.0000
# 2 32.3904 98.7354 59.1039 0.0000 11.1224 0.0000
# 3 45.6370 59.1039 146.0562 0.0000 29.4083 0.0000
# 4 0.0000 0.0000 0.0000 10.1830 0.0000 9.0309
# 5 12.1863 11.1224 29.4083 0.0000 28.3650 0.0000
# 6 0.0000 0.0000 0.0000 9.0309 0.0000 48.0455
#
#
#
# Elastic Compliance Matrix: (Units=1/GPa)
#
#
# Indices 1 2 3 4 5 6 
#
# 1 0.015979 -0.002997 -0.003329 0.000000 -0.002238 0.000000
# 2 -0.002997 0.013933 -0.004880 0.000000 0.000883 0.000000
# 3 -0.003329 -0.004880 0.011612 0.000000 -0.008696 0.000000
# 4 0.000000 0.000000 0.000000 0.117848 0.000000 -0.022151
# 5 -0.002238 0.000883 -0.008696 0.000000 0.044885 0.000000
# 6 0.000000 0.000000 0.000000 -0.022151 0.000000 0.024977
#
#
# Mechanical properties :
#
#
# Convention : Reuss Voigt Hill
#
# Bulk Modulus (GPa) = 52.32234 66.54766 59.43500
# Shear Modulus (GPa) = 19.37859 29.82104 24.59981
#
# Velocity S-wave (km/s) = 3.11704 3.86672 3.51195
# Velocity P-wave (km/s) = 6.26002 7.30074 6.80032
#
# Compressibility (1/GPa) = 0.01911230
#
# Stress axis : x y z
#
# Youngs Moduli (GPa) = 62.58406 71.77420 86.11418
#
# Poissons Ratio (x) = 0.21508 0.28671
# Poissons Ratio (y) = 0.18754 0.42020
# Poissons Ratio (z) = 0.20837 0.35022
#
# Static dielectric constant tensor:
#      x y z
#    x 1.739590 0.000000 0.023520 
#    y 0.000000 1.726440 0.000000 
#    z 0.023520 0.000000 1.804490 
# 
# From -- ./inp_files/201240.got.cif
#   From: 2010.05.17/outbox.cif.g08.bks.cpg/sg12_101_cif.got.tgz:201240.got - 2010.06.03 13:09:07.
