data_PCOD9214971
_publ_section_title
;
Structure prediction by ZEFSAII (Michael W. Deem and Ramdas Pophale) SiO2 
 PCOD9214971
Probable space group: C 2/M
;
_chemical_formula_sum "Si O2"
_cell_formula_units_Z 56
_cell_length_a 11.479437
_cell_length_b 27.090226
_cell_length_c 8.766438
_cell_angle_alpha 90.000000
_cell_angle_beta 78.601662
_cell_angle_gamma 90.000000
_cell_volume 2672.422717
_symmetry_space_group_name_H-M "C 2/M"
_symmetry_group_IT_number 12
_symmetry_cell_setting 'monoclinic'
loop_
_space_group_symop_operation_xyz
x,y,z
-x,y,-z
-x,-y,-z
x,-y,z
1/2+x,1/2+y,z
1/2-x,1/2+y,-z
1/2-x,1/2-y,-z
1/2+x,1/2-y,z
loop_
_atom_site_type_symbol
_atom_site_label
_atom_site_fract_x
_atom_site_fract_y
_atom_site_fract_z
Si Si1 0.680407 0.443599 0.299099
Si Si2 0.938532 0.057635 0.172173
Si Si3 0.821063 0.871897 0.415327
Si Si4 0.690417 0.302562 0.006374
Si Si5 0.899997 0.683614 0.404396
Si Si6 0.129850 0.621861 0.901155
Si Si7 0.962049 0.792777 0.262129
O O1 0.704084 0.500000 0.334285
O O2 0.549230 0.441399 0.260420
O O3 0.683978 0.409280 0.444553
O O4 0.782850 0.423417 0.160418
O O5 0.834591 0.092486 0.263292
O O6 0.902213 0.000000 0.161088
O O7 0.000000 0.075782 0.000000
O O8 0.718104 0.831344 0.471171
O O9 0.934896 0.837509 0.379096
O O10 0.791280 0.343230 0.008772
O O11 0.594808 0.300403 0.167510
O O12 0.750000 0.250000 0.000000
O O13 0.621018 0.303201 0.864474
O O14 0.894054 0.652615 0.249029
O O15 0.927753 0.740036 0.344454
O O16 0.000000 0.669100 0.500000
O O17 0.000000 0.609357 0.000000
#
# Coordination Sequence:
#
# PCOD9214971 Si02
#       7
#     8   8   8   8   8   8   8
#     4  10  23  44  67  95 132 170 215 271 334 393
#     4  10  22  40  66  98 128 162 213 277 337 390
#     4  11  24  40  64  93 127 170 217 265 328 388
#     4  11  23  41  67  95 133 167 222 269 331 378
#     4  11  26  42  60  94 137 176 218 268 328 384
#     4  11  24  43  70  98 131 178 220 270 324 397
#     4  11  25  41  65  96 128 178 217 275 317 391
#
# _framework density 20.954768999999999
#
# number of rings (size 3 to 8) (size 9 to 14) (size 15 to 20)
#    0.000    1.286    1.429    3.000    8.000    6.000 
#    0.000    0.000    0.000   10.714    0.000    0.000 
#    0.000    0.000    0.000    0.000    0.000    0.000 
#
# Total GULP energy -156381.000439 kJ/mol
# GULP energy per Si atom -5585.035730 kJ/mol
# Density = 2.090707 g / cm^3
# Si number density = 20.954769 Si / 1000 Ang^3
#
#
#
# Elastic Constant Matrix: (Units=GPa)
#
#
# Indices 1 2 3 4 5 6 
#
# 1 76.3099 13.0544 23.3556 0.0000 -15.3784 0.0000
# 2 13.0544 70.9640 5.2181 0.0000 -18.9447 0.0000
# 3 23.3556 5.2181 70.5717 0.0000 -28.1773 0.0000
# 4 0.0000 0.0000 0.0000 32.0071 0.0000 -19.5856
# 5 -15.3784 -18.9447 -28.1773 0.0000 41.1987 0.0000
# 6 0.0000 0.0000 0.0000 -19.5856 0.0000 -7.2179
#
#
#
# Elastic Compliance Matrix: (Units=1/GPa)
#
#
# Indices 1 2 3 4 5 6 
#
# 1 0.015076 -0.001955 -0.004068 0.000000 0.001947 0.000000
# 2 -0.001955 0.016624 0.002997 0.000000 0.008964 0.000000
# 3 -0.004068 0.002997 0.020963 0.000000 0.014197 0.000000
# 4 0.000000 0.000000 0.000000 0.011744 0.000000 -0.031866
# 5 0.001947 0.008964 0.014197 0.000000 0.038831 0.000000
# 6 0.000000 0.000000 0.000000 -0.031866 0.000000 -0.052076
#
#
# Mechanical properties :
#
#
# Convention : Reuss Voigt Hill
#
# Bulk Modulus (GPa) = 21.45338 33.45574 27.45456
# Shear Modulus (GPa) = 68.72846 24.94542 46.83694
#
# Velocity S-wave (km/s) = 5.73321 3.45402 4.73286
# Velocity P-wave (km/s) = 7.35435 5.64866 6.55720
#
# Compressibility (1/GPa) = 0.04661270
#
# Stress axis : x y z
#
# Youngs Moduli (GPa) = 66.33018 60.15396 47.70295
#
# Poissons Ratio (x) = 0.11757 0.19404
# Poissons Ratio (y) = 0.12965 -0.14296
# Poissons Ratio (z) = 0.26980 -0.18028
#
# Static dielectric constant tensor:
#      x y z
#    x 1.577460 0.000000 -0.447120 
#    y 0.000000 1.746530 0.000000 
#    z -0.447120 0.000000 -20.446800 
# 
# From -- ./inp_files/53173.got.cif
#   From: 2010.05.17/outbox.cif.g08.bks.cpg/sg12_27_cif.got.tgz:53173.got - 2010.06.03 13:09:07.
