data_PCOD9214048
_publ_section_title
;
Structure prediction by ZEFSAII (Michael W. Deem and Ramdas Pophale) SiO2 
 PCOD9214048
Probable space group: C 2/M
;
_chemical_formula_sum "Si O2"
_cell_formula_units_Z 32
_cell_length_a 8.055922
_cell_length_b 13.587128
_cell_length_c 14.233787
_cell_angle_alpha 90.000000
_cell_angle_beta 107.011442
_cell_angle_gamma 90.000000
_cell_volume 1489.817847
_symmetry_space_group_name_H-M "C 2/M"
_symmetry_group_IT_number 12
_symmetry_cell_setting 'monoclinic'
loop_
_space_group_symop_operation_xyz
x,y,z
-x,y,-z
-x,-y,-z
x,-y,z
1/2+x,1/2+y,z
1/2-x,1/2+y,-z
1/2-x,1/2-y,-z
1/2+x,1/2-y,z
loop_
_atom_site_type_symbol
_atom_site_label
_atom_site_fract_x
_atom_site_fract_y
_atom_site_fract_z
Si Si1 0.610450 0.382915 0.107647
Si Si2 0.901460 0.752962 0.727346
Si Si3 0.603696 0.115981 0.614568
Si Si4 0.494083 0.115668 0.887503
O O1 0.598518 0.500000 0.111117
O O2 0.535101 0.337584 0.190358
O O3 0.813721 0.359945 0.122109
O O4 0.500000 0.350071 0.000000
O O5 0.999836 0.678638 0.674976
O O6 0.853403 0.676438 0.804188
O O7 0.776488 0.817824 0.640469
O O8 0.500000 0.116548 0.500000
O O9 0.631416 0.000000 0.645063
O O10 0.464259 0.000000 0.869723
O O11 0.500000 0.133793 0.000000
#
# Coordination Sequence:
#
# PCOD9214048 Si02
#       4
#     8   8   8   8
#     4  10  22  39  61  96 138 176 217 265 320 389
#     4  12  22  40  72  96 128 178 220 264 338 392
#     4  11  26  48  70  97 133 169 220 286 340 395
#     4  10  22  39  61  96 138 176 217 265 320 389
#
# _framework density 21.479137000000001
#
# number of rings (size 3 to 8) (size 9 to 14) (size 15 to 20)
#    0.000    1.250    2.500    3.000    3.500    2.000 
#    0.000    3.750    0.000    9.000    0.000    0.000 
#    0.000    0.000    0.000    0.000    0.000    0.000 
#
# Total GULP energy -89070.074144 kJ/mol
# GULP energy per Si atom -5566.879634 kJ/mol
# Density = 2.143025 g / cm^3
# Si number density = 21.479137 Si / 1000 Ang^3
#
#
#
# Elastic Constant Matrix: (Units=GPa)
#
#
# Indices 1 2 3 4 5 6 
#
# 1 37.8152 36.2493 10.4239 0.0000 -6.5313 0.0000
# 2 36.2493 133.0136 9.5858 0.0000 -1.9118 0.0000
# 3 10.4239 9.5858 92.0171 0.0000 11.9904 0.0000
# 4 0.0000 0.0000 0.0000 -282.7105 0.0000 769.0403
# 5 -6.5313 -1.9118 11.9904 0.0000 29.6652 0.0000
# 6 0.0000 0.0000 0.0000 769.0403 0.0000-1720.4192
#
#
#
# Elastic Compliance Matrix: (Units=1/GPa)
#
#
# Indices 1 2 3 4 5 6 
#
# 1 0.039222 -0.010211 -0.004665 0.000000 0.009863 0.000000
# 2 -0.010211 0.010254 0.000312 0.000000 -0.001713 0.000000
# 3 -0.004665 0.000312 0.012134 0.000000 -0.005911 0.000000
# 4 0.000000 0.000000 0.000000 0.016378 0.000000 0.007321
# 5 0.009863 -0.001713 -0.005911 0.000000 0.038160 0.000000
# 6 0.000000 0.000000 0.000000 0.007321 0.000000 0.002691
#
#
# Mechanical properties :
#
#
# Convention : Reuss Voigt Hill
#
# Bulk Modulus (GPa) = 30.78652 41.70710 36.24681
# Shear Modulus (GPa) = 31.48746 -380.92046 -174.71650
#
# Velocity S-wave (km/s) = 3.83293 -13.33152 -9.02879
# Velocity P-wave (km/s) = 5.82691 14.74832 9.58019
#
# Compressibility (1/GPa) = 0.03248175
#
# Stress axis : x y z
#
# Youngs Moduli (GPa) = 25.49606 97.52624 82.41476
#
# Poissons Ratio (x) = 0.99583 0.38443
# Poissons Ratio (y) = 0.26034 -0.02570
# Poissons Ratio (z) = 0.11893 -0.03041
#
# Static dielectric constant tensor:
#      x y z
#    x 1.916140 0.000000 0.023030 
#    y 0.000000 1.802070 0.000000 
#    z 0.023030 0.000000 1.777640 
# 
# From -- ./inp_files/117458.got.cif
#   From: 2010.05.17/outbox.cif.g08.bks.cpg/sg12_59_cif.got.tgz:117458.got - 2010.06.03 13:09:07.
