data_PCOD9214406
_publ_section_title
;
Structure prediction by ZEFSAII (Michael W. Deem and Ramdas Pophale) SiO2 
 PCOD9214406
Probable space group: C 2/M
;
_chemical_formula_sum "Si O2"
_cell_formula_units_Z 48
_cell_length_a 9.788767
_cell_length_b 9.142840
_cell_length_c 26.148013
_cell_angle_alpha 90.000000
_cell_angle_beta 101.293685
_cell_angle_gamma 90.000000
_cell_volume 2294.857621
_symmetry_space_group_name_H-M "C 2/M"
_symmetry_group_IT_number 12
_symmetry_cell_setting 'monoclinic'
loop_
_space_group_symop_operation_xyz
x,y,z
-x,y,-z
-x,-y,-z
x,-y,z
1/2+x,1/2+y,z
1/2-x,1/2+y,-z
1/2-x,1/2-y,-z
1/2+x,1/2-y,z
loop_
_atom_site_type_symbol
_atom_site_label
_atom_site_fract_x
_atom_site_fract_y
_atom_site_fract_z
Si Si1 0.237934 0.326959 0.384934
Si Si2 0.098752 0.827687 0.278169
Si Si3 0.958500 0.173171 0.555165
Si Si4 0.358931 0.173041 0.114474
Si Si5 0.899174 0.327114 0.944939
Si Si6 0.796403 0.172218 0.216569
O O1 0.216446 0.500000 0.378358
O O2 0.165889 0.245221 0.332725
O O3 0.402855 0.300760 0.401039
O O4 0.165312 0.268184 0.431058
O O5 0.169043 0.753283 0.234083
O O6 0.932635 0.809355 0.262348
O O7 0.128415 0.000000 0.280204
O O8 0.000000 0.206734 0.500000
O O9 0.924078 0.000000 0.555377
O O10 0.237680 0.229299 0.067771
O O11 0.507653 0.199313 0.098853
O O12 0.335785 0.260035 0.164994
O O13 0.345139 0.000000 0.122068
O O14 0.862729 0.500000 0.944115
O O15 0.000000 0.296286 0.000000
O O16 0.767085 0.000000 0.209095
#
# Coordination Sequence:
#
# PCOD9214406 Si02
#       6
#     8   8   8   8   8   8
#     4  11  23  38  60  89 118 153 196 240 291 349
#     4  11  24  41  62  88 118 154 195 240 292 348
#     4  10  22  40  60  85 119 156 196 243 292 345
#     4  11  23  38  60  89 118 153 196 240 291 348
#     4  10  22  40  61  87 120 157 197 242 291 344
#     4  11  24  41  61  86 117 153 194 240 290 346
#
# _framework density 20.916329999999999
#
# number of rings (size 3 to 8) (size 9 to 14) (size 15 to 20)
#    0.000    1.333    0.000    5.000    0.000   12.667 
#    0.000    0.000    0.000    0.000    0.000    0.000 
#    0.000    0.000    0.000    0.000    0.000    0.000 
#
# Total GULP energy -134350.288472 kJ/mol
# GULP energy per Si atom -5597.928686 kJ/mol
# Density = 2.086872 g / cm^3
# Si number density = 20.916330 Si / 1000 Ang^3
#
#
#
# Elastic Constant Matrix: (Units=GPa)
#
#
# Indices 1 2 3 4 5 6 
#
# 1 59.9473 40.3021 -10.4945 0.0000 -4.7348 0.0000
# 2 40.3021 60.0268 2.7925 0.0000 3.5440 0.0000
# 3 -10.4945 2.7925 56.1079 0.0000 3.9661 0.0000
# 4 0.0000 0.0000 0.0000 37.8986 0.0000 -0.3419
# 5 -4.7348 3.5440 3.9661 0.0000 29.0291 0.0000
# 6 0.0000 0.0000 0.0000 -0.3419 0.0000 26.5961
#
#
#
# Elastic Compliance Matrix: (Units=1/GPa)
#
#
# Indices 1 2 3 4 5 6 
#
# 1 0.034750 -0.024115 0.007160 0.000000 0.007634 0.000000
# 2 -0.024115 0.033542 -0.005667 0.000000 -0.007254 0.000000
# 3 0.007160 -0.005667 0.019501 0.000000 -0.000805 0.000000
# 4 0.000000 0.000000 0.000000 0.026389 0.000000 0.000339
# 5 0.007634 -0.007254 -0.000805 0.000000 0.036689 0.000000
# 6 0.000000 0.000000 0.000000 0.000339 0.000000 0.037604
#
#
# Mechanical properties :
#
#
# Convention : Reuss Voigt Hill
#
# Bulk Modulus (GPa) = 23.50212 26.80913 25.15563
# Shear Modulus (GPa) = 20.16927 28.27022 24.21974
#
# Velocity S-wave (km/s) = 3.10866 3.68038 3.40654
# Velocity P-wave (km/s) = 4.91382 5.55926 5.24648
#
# Compressibility (1/GPa) = 0.04254935
#
# Stress axis : x y z
#
# Youngs Moduli (GPa) = 28.77693 29.81339 51.27938
#
# Poissons Ratio (x) = 0.71895 -0.36718
# Poissons Ratio (y) = 0.69396 0.29061
# Poissons Ratio (z) = -0.20605 0.16896
#
# Static dielectric constant tensor:
#      x y z
#    x 1.732530 0.000000 0.015410 
#    y 0.000000 1.684590 0.000000 
#    z 0.015410 0.000000 1.777100 
# 
# From -- ./inp_files/371855.got.cif
#   From: 2010.05.17/outbox.cif.g08.bks.cpg/sg12_186_cif.got.tgz:371855.got - 2010.06.03 13:09:07.
