data_PCOD9214727
_publ_section_title
;
Structure prediction by ZEFSAII (Michael W. Deem and Ramdas Pophale) SiO2 
 PCOD9214727
Probable space group: C 2/M
;
_chemical_formula_sum "Si O2"
_cell_formula_units_Z 40
_cell_length_a 11.216801
_cell_length_b 17.890613
_cell_length_c 10.894013
_cell_angle_alpha 90.000000
_cell_angle_beta 110.719330
_cell_angle_gamma 90.000000
_cell_volume 2044.770357
_symmetry_space_group_name_H-M "C 2/M"
_symmetry_group_IT_number 12
_symmetry_cell_setting 'monoclinic'
loop_
_space_group_symop_operation_xyz
x,y,z
-x,y,-z
-x,-y,-z
x,-y,z
1/2+x,1/2+y,z
1/2-x,1/2+y,-z
1/2-x,1/2-y,-z
1/2+x,1/2-y,z
loop_
_atom_site_type_symbol
_atom_site_label
_atom_site_fract_x
_atom_site_fract_y
_atom_site_fract_z
Si Si1 0.525275 0.796772 0.867980
Si Si2 0.624709 0.655171 0.795796
Si Si3 0.762963 0.246344 0.649968
Si Si4 0.144374 0.086476 0.247874
Si Si5 0.225127 0.584113 0.948647
O O1 0.604989 0.720874 0.887533
O O2 0.397858 0.780120 0.745913
O O3 0.614605 0.863211 0.857515
O O4 0.500000 0.811480 0.000000
O O5 0.661442 0.701628 0.686750
O O6 0.494729 0.607470 0.748860
O O7 0.733764 0.606044 0.898762
O O8 0.750000 0.250000 0.500000
O O9 0.768336 0.157313 0.681073
O O10 0.156354 0.088786 0.103565
O O11 0.177083 0.000000 0.294106
O O12 0.179030 0.500000 0.931030
#
# Coordination Sequence:
#
# PCOD9214727 Si02
#       5
#     8   8   8   8   8
#     4  11  21  37  63  90 120 161 210 264 316 385
#     4  11  20  38  63  91 123 167 211 263 318 380
#     4  11  24  42  64  90 126 173 221 262 316 385
#     4  10  22  40  63  94 128 166 212 268 325 379
#     4  11  21  37  62  97 132 162 205 270 331 381
#
# _framework density 19.562097999999999
#
# number of rings (size 3 to 8) (size 9 to 14) (size 15 to 20)
#    0.000    1.200    4.000    4.200    0.000    5.200 
#    0.000    4.000    0.000    2.400    0.000    0.000 
#    0.000    0.000    0.000    0.000    0.000    0.000 
#
# Total GULP energy -111416.907255 kJ/mol
# GULP energy per Si atom -5570.845363 kJ/mol
# Density = 1.951757 g / cm^3
# Si number density = 19.562098 Si / 1000 Ang^3
#
#
#
# Elastic Constant Matrix: (Units=GPa)
#
#
# Indices 1 2 3 4 5 6 
#
# 1 61.1573 35.2583 40.5546 0.0000 -17.8699 0.0000
# 2 35.2583 145.4806 40.0347 0.0000 -10.0124 0.0000
# 3 40.5546 40.0347 99.0239 0.0000 -6.1581 0.0000
# 4 0.0000 0.0000 0.0000 16.0058 0.0000 -7.0886
# 5 -17.8699 -10.0124 -6.1581 0.0000 16.4176 0.0000
# 6 0.0000 0.0000 0.0000 -7.0886 0.0000 30.0530
#
#
#
# Elastic Compliance Matrix: (Units=1/GPa)
#
#
# Indices 1 2 3 4 5 6 
#
# 1 0.034751 -0.003222 -0.010955 0.000000 0.031751 0.000000
# 2 -0.003222 0.008250 -0.001967 0.000000 0.000786 0.000000
# 3 -0.010955 -0.001967 0.014912 0.000000 -0.007530 0.000000
# 4 0.000000 0.000000 0.000000 0.069765 0.000000 0.016455
# 5 0.031751 0.000786 -0.007530 0.000000 0.093125 0.000000
# 6 0.000000 0.000000 0.000000 0.016455 0.000000 0.037156
#
#
# Mechanical properties :
#
#
# Convention : Reuss Voigt Hill
#
# Bulk Modulus (GPa) = 39.02441 59.70632 49.36537
# Shear Modulus (GPa) = 16.73428 25.14955 20.94192
#
# Velocity S-wave (km/s) = 2.92797 3.58945 3.27545
# Velocity P-wave (km/s) = 5.60562 6.91134 6.29244
#
# Compressibility (1/GPa) = 0.02562499
#
# Stress axis : x y z
#
# Youngs Moduli (GPa) = 28.77645 121.21062 67.06055
#
# Poissons Ratio (x) = 0.39058 0.73462
# Poissons Ratio (y) = 0.09273 0.13190
# Poissons Ratio (z) = 0.31523 0.23841
#
# Static dielectric constant tensor:
#      x y z
#    x 1.795540 0.000000 -0.039360 
#    y 0.000000 1.701040 0.000000 
#    z -0.039360 0.000000 1.661530 
# 
# From -- ./inp_files/47074.got.cif
#   From: 2010.05.17/outbox.cif.g08.bks.cpg/sg12_24_cif.got.tgz:47074.got - 2010.06.03 13:09:07.
