data_PCOD9214178
_publ_section_title
;
Structure prediction by ZEFSAII (Michael W. Deem and Ramdas Pophale) SiO2 
 PCOD9214178
Probable space group: C 2/M
;
_chemical_formula_sum "Si O2"
_cell_formula_units_Z 40
_cell_length_a 9.677019
_cell_length_b 17.404676
_cell_length_c 13.695722
_cell_angle_alpha 90.000000
_cell_angle_beta 137.324533
_cell_angle_gamma 90.000000
_cell_volume 1563.589773
_symmetry_space_group_name_H-M "C 2/M"
_symmetry_group_IT_number 12
_symmetry_cell_setting 'monoclinic'
loop_
_space_group_symop_operation_xyz
x,y,z
-x,y,-z
-x,-y,-z
x,-y,z
1/2+x,1/2+y,z
1/2-x,1/2+y,-z
1/2-x,1/2-y,-z
1/2+x,1/2-y,z
loop_
_atom_site_type_symbol
_atom_site_label
_atom_site_fract_x
_atom_site_fract_y
_atom_site_fract_z
Si Si1 0.052862 0.697522 0.414676
Si Si2 0.960685 0.745449 0.167153
Si Si3 0.381322 0.412115 0.530587
Si Si4 0.494373 0.585572 0.186080
Si Si5 0.971309 0.415958 0.100734
O O1 0.500000 0.801825 0.500000
O O2 0.250000 0.750000 0.500000
O O3 0.154412 0.616731 0.439080
O O4 0.912014 0.731422 0.256333
O O5 0.073511 0.827273 0.206155
O O6 0.058291 0.663765 0.187141
O O7 0.750000 0.750000 0.000000
O O8 0.500000 0.374883 0.500000
O O9 0.357569 0.500000 0.494270
O O10 0.512877 0.409736 0.699318
O O11 0.589767 0.500000 0.214870
O O12 0.275582 0.583875 0.019137
O O13 0.046359 0.500000 0.174053
O O14 0.000000 0.413729 0.000000
#
# Coordination Sequence:
#
# PCOD9214178 Si02
#       5
#     8   8   8   8   8
#     4  12  26  43  67  98 139 180 230 290 349 419
#     4  10  22  39  63  97 132 178 227 287 347 415
#     4  10  22  41  69  97 131 181 236 288 350 421
#     4   9  18  36  58  86 126 170 222 281 341 405
#     4   9  19  34  59  94 131 170 223 289 345 405
#
# _framework density 25.582156000000001
#
# number of rings (size 3 to 8) (size 9 to 14) (size 15 to 20)
#    0.000    2.000    2.000    0.600    2.800    2.800 
#    0.000    0.000    0.000    0.600    0.000    0.000 
#    0.000    0.000    0.000    0.000    0.000    0.000 
#
# Total GULP energy -111452.277793 kJ/mol
# GULP energy per Si atom -5572.613890 kJ/mol
# Density = 2.552393 g / cm^3
# Si number density = 25.582156 Si / 1000 Ang^3
#
#
#
# Elastic Constant Matrix: (Units=GPa)
#
#
# Indices 1 2 3 4 5 6 
#
# 1 82.0512 48.4911 26.7598 0.0001 -20.8852 0.0000
# 2 48.4911 277.6630 18.1085 -0.0001 -18.0399 0.0000
# 3 26.7598 18.1085 140.0879 0.0006 -18.2998 0.0003
# 4 0.0001 -0.0001 0.0006 30.3255 0.0002 -6.6754
# 5 -20.8852 -18.0399 -18.2998 0.0002 20.9097 0.0001
# 6 0.0000 0.0000 0.0003 -6.6754 0.0001 30.5983
#
#
#
# Elastic Compliance Matrix: (Units=1/GPa)
#
#
# Indices 1 2 3 4 5 6 
#
# 1 0.017512 -0.002026 -0.001159 0.000000 0.014729 0.000000
# 2 -0.002026 0.004050 0.000063 0.000000 0.001526 0.000000
# 3 -0.001159 0.000063 0.008138 0.000000 0.006018 0.000000
# 4 0.000000 0.000000 0.000000 0.034639 -0.000001 0.007557
# 5 0.014729 0.001526 0.006018 -0.000001 0.069120 0.000000
# 6 0.000000 0.000000 0.000000 0.007557 0.000000 0.034330
#
#
# Mechanical properties :
#
#
# Convention : Reuss Voigt Hill
#
# Bulk Modulus (GPa) = 42.63361 76.28012 59.45687
# Shear Modulus (GPa) = 27.49481 43.46287 35.47884
#
# Velocity S-wave (km/s) = 3.28192 4.12631 3.72810
# Velocity P-wave (km/s) = 5.57341 7.25150 6.46712
#
# Compressibility (1/GPa) = 0.02345567
#
# Stress axis : x y z
#
# Youngs Moduli (GPa) = 57.10407 246.89452 122.88201
#
# Poissons Ratio (x) = 0.50014 0.14245
# Poissons Ratio (y) = 0.11568 -0.00771
# Poissons Ratio (z) = 0.06620 -0.01549
#
# Static dielectric constant tensor:
#      x y z
#    x 1.908530 0.000000 0.005300 
#    y 0.000000 1.744280 0.000000 
#    z 0.005300 0.000000 2.078960 
# 
# From -- ./inp_files/47042.got.cif
#   From: 2010.05.17/outbox.cif.g08.bks.cpg/sg12_24_cif.got.tgz:47042.got - 2010.06.03 13:09:07.
