data_PCOD9214770
_publ_section_title
;
Structure prediction by ZEFSAII (Michael W. Deem and Ramdas Pophale) SiO2 
 PCOD9214770
Probable space group: C 2/M
;
_chemical_formula_sum "Si O2"
_cell_formula_units_Z 52
_cell_length_a 11.174166
_cell_length_b 14.533755
_cell_length_c 18.500744
_cell_angle_alpha 90.000000
_cell_angle_beta 50.126601
_cell_angle_gamma 90.000000
_cell_volume 2305.894989
_symmetry_space_group_name_H-M "C 2/M"
_symmetry_group_IT_number 12
_symmetry_cell_setting 'monoclinic'
loop_
_space_group_symop_operation_xyz
x,y,z
-x,y,-z
-x,-y,-z
x,-y,z
1/2+x,1/2+y,z
1/2-x,1/2+y,-z
1/2-x,1/2-y,-z
1/2+x,1/2-y,z
loop_
_atom_site_type_symbol
_atom_site_label
_atom_site_fract_x
_atom_site_fract_y
_atom_site_fract_z
Si Si1 0.202846 0.202187 0.700452
Si Si2 0.000000 0.762461 0.000000
Si Si3 0.668279 0.604665 0.340658
Si Si4 0.492253 0.902286 0.589989
Si Si5 0.818583 0.150945 0.454652
Si Si6 0.197138 0.399348 0.868382
Si Si7 0.443305 0.393205 0.899948
O O1 0.218922 0.311505 0.678716
O O2 0.376862 0.176028 0.661522
O O3 0.171922 0.150205 0.636345
O O4 0.079484 0.161318 0.804270
O O5 0.908298 0.690724 0.086275
O O6 0.094437 0.832203 0.014944
O O7 0.702179 0.500000 0.351867
O O8 0.485194 0.626767 0.423175
O O9 0.694732 0.605499 0.243730
O O10 0.500000 0.890473 0.500000
O O11 0.672309 0.906011 0.540526
O O12 0.415965 0.000000 0.636300
O O13 0.750000 0.250000 0.500000
O O14 0.116691 0.500000 0.894483
O O15 0.298899 0.396809 0.901287
O O16 0.486287 0.500000 0.899711
#
# Coordination Sequence:
#
# PCOD9214770 Si02
#       7
#     8   4   8   8   8   8   8
#     4  11  21  38  60  84 120 157 195 245 297 354
#     4  12  22  40  64  94 124 152 192 254 306 350
#     4  11  22  39  62  87 117 160 203 245 296 357
#     4   9  18  31  53  82 106 139 192 241 280 332
#     4  11  21  36  60  84 118 155 200 248 296 346
#     4  10  22  40  64  91 116 155 206 243 291 364
#     4  11  23  39  62  91 124 159 196 242 302 364
#
# _framework density 22.550896000000002
#
# number of rings (size 3 to 8) (size 9 to 14) (size 15 to 20)
#    0.000    1.385    4.615    1.846    0.000    1.231 
#    0.000    2.308    0.000    0.923    0.000    0.000 
#    0.000    0.000    0.000    0.000    0.000    0.000 
#
# Total GULP energy -144998.482130 kJ/mol
# GULP energy per Si atom -5576.864697 kJ/mol
# Density = 2.249957 g / cm^3
# Si number density = 22.550896 Si / 1000 Ang^3
#
#
#
# Elastic Constant Matrix: (Units=GPa)
#
#
# Indices 1 2 3 4 5 6 
#
# 1 27.8880 15.5785 1.0986 0.0000 12.2123 0.0000
# 2 15.5785 166.0976 12.9793 0.0000 -8.1650 0.0000
# 3 1.0986 12.9793 35.2993 0.0000 -0.5656 0.0000
# 4 0.0000 0.0000 0.0000 30.5651 0.0000 -0.1670
# 5 12.2123 -8.1650 -0.5656 0.0000 29.8880 0.0000
# 6 0.0000 0.0000 0.0000 -0.1670 0.0000 16.7452
#
#
#
# Elastic Compliance Matrix: (Units=1/GPa)
#
#
# Indices 1 2 3 4 5 6 
#
# 1 0.048276 -0.005589 0.000212 0.000000 -0.021249 0.000000
# 2 -0.005589 0.006928 -0.002307 0.000000 0.004133 0.000000
# 3 0.000212 -0.002307 0.029168 0.000000 -0.000165 0.000000
# 4 0.000000 0.000000 0.000000 0.032719 0.000000 0.000326
# 5 -0.021249 0.004133 -0.000165 0.000000 0.043266 0.000000
# 6 0.000000 0.000000 0.000000 0.000326 0.000000 0.059722
#
#
# Mechanical properties :
#
#
# Convention : Reuss Voigt Hill
#
# Bulk Modulus (GPa) = 14.49181 32.06642 23.27911
# Shear Modulus (GPa) = 19.34612 28.74822 24.04717
#
# Velocity S-wave (km/s) = 2.93215 3.57433 3.26905
# Velocity P-wave (km/s) = 4.23126 5.59329 4.95925
#
# Compressibility (1/GPa) = 0.06900449
#
# Stress axis : x y z
#
# Youngs Moduli (GPa) = 20.71409 144.33734 34.28383
#
# Poissons Ratio (x) = 0.80670 -0.00727
# Poissons Ratio (y) = 0.11577 0.07910
# Poissons Ratio (z) = -0.00439 0.33303
#
# Static dielectric constant tensor:
#      x y z
#    x 1.871490 0.000000 0.004770 
#    y 0.000000 5.750650 0.000000 
#    z 0.004770 0.000000 1.850340 
# 
# From -- ./inp_files/305351.got.cif
#   From: 2010.05.17/outbox.cif.g08.bks.cpg/sg12_153_cif.got.tgz:305351.got - 2010.06.03 13:09:07.
