data_PCOD9214226
_publ_section_title
;
Structure prediction by ZEFSAII (Michael W. Deem and Ramdas Pophale) SiO2 
 PCOD9214226
Probable space group: C 2/M
;
_chemical_formula_sum "Si O2"
_cell_formula_units_Z 48
_cell_length_a 23.419687
_cell_length_b 19.733124
_cell_length_c 5.190441
_cell_angle_alpha 90.000000
_cell_angle_beta 59.922427
_cell_angle_gamma 90.000000
_cell_volume 2075.734544
_symmetry_space_group_name_H-M "C 2/M"
_symmetry_group_IT_number 12
_symmetry_cell_setting 'monoclinic'
loop_
_space_group_symop_operation_xyz
x,y,z
-x,y,-z
-x,-y,-z
x,-y,z
1/2+x,1/2+y,z
1/2-x,1/2+y,-z
1/2-x,1/2-y,-z
1/2+x,1/2-y,z
loop_
_atom_site_type_symbol
_atom_site_label
_atom_site_fract_x
_atom_site_fract_y
_atom_site_fract_z
Si Si1 0.546782 0.279587 0.641526
Si Si2 0.952832 0.072394 0.356769
Si Si3 0.301437 0.077672 0.879105
Si Si4 0.726324 0.208739 0.805654
Si Si5 0.053406 0.576745 0.187914
Si Si6 0.126740 0.335200 0.675181
O O1 0.500000 0.274165 0.500000
O O2 0.580757 0.354166 0.564859
O O3 0.600880 0.221661 0.543360
O O4 0.500000 0.274681 0.000000
O O5 0.000000 0.072146 0.500000
O O6 0.915656 0.000000 0.440102
O O7 0.000000 0.072516 0.000000
O O8 0.375020 0.073182 0.834826
O O9 0.316184 0.118509 0.580637
O O10 0.277702 0.000000 0.903021
O O11 0.259318 0.129678 0.151110
O O12 0.750000 0.250000 0.500000
O O13 0.650467 0.201514 0.883277
O O14 0.750000 0.250000 0.000000
O O15 0.967606 0.500000 0.815142
O O16 0.000000 0.608499 0.500000
O O17 0.068776 0.615537 0.892190
#
# Coordination Sequence:
#
# PCOD9214226 Si02
#       6
#     8   8   8   8   8   8
#     4  10  23  34  53  87 126 169 212 252 305 371
#     4   8  14  29  49  71 100 142 195 243 288 346
#     4  10  22  39  64  98 128 169 225 275 326 407
#     4  11  23  45  69  93 119 164 218 285 349 400
#     4   9  20  36  55  86 132 186 227 261 308 369
#     4  11  23  36  63  91 133 172 222 275 324 390
#
# _framework density 23.124343
#
# number of rings (size 3 to 8) (size 9 to 14) (size 15 to 20)
#    0.000    2.167    1.667    0.500    7.000    0.667 
#    0.000    2.500    0.000    3.500    0.000    0.000 
#    0.000    0.000    0.000    0.000    0.000    1.333 
#
# Total GULP energy -133800.114608 kJ/mol
# GULP energy per Si atom -5575.004775 kJ/mol
# Density = 2.307171 g / cm^3
# Si number density = 23.124343 Si / 1000 Ang^3
#
#
#
# Elastic Constant Matrix: (Units=GPa)
#
#
# Indices 1 2 3 4 5 6 
#
# 1 59.7180 32.0661 28.5966 0.0000 30.1566 0.0000
# 2 32.0661 232.2164 64.7865 0.0000 9.9311 0.0000
# 3 28.5966 64.7865 136.0655 0.0000 33.0854 0.0000
# 4 0.0000 0.0000 0.0000 32.4726 0.0000 2.8548
# 5 30.1566 9.9311 33.0854 0.0000 40.0252 0.0000
# 6 0.0000 0.0000 0.0000 2.8548 0.0000 16.1609
#
#
#
# Elastic Compliance Matrix: (Units=1/GPa)
#
#
# Indices 1 2 3 4 5 6 
#
# 1 0.029149 -0.003300 0.000733 0.000000 -0.021750 0.000000
# 2 -0.003300 0.005366 -0.002681 0.000000 0.003371 0.000000
# 3 0.000733 -0.002681 0.010569 0.000000 -0.008624 0.000000
# 4 0.000000 0.000000 0.000000 0.031281 0.000000 -0.005526
# 5 -0.021750 0.003371 -0.008624 0.000000 0.047663 0.000000
# 6 0.000000 0.000000 0.000000 -0.005526 0.000000 0.062854
#
#
# Mechanical properties :
#
#
# Convention : Reuss Voigt Hill
#
# Bulk Modulus (GPa) = 28.91068 75.43314 52.17191
# Shear Modulus (GPa) = 23.93420 37.90178 30.91799
#
# Velocity S-wave (km/s) = 3.22067 4.05290 3.66051
# Velocity P-wave (km/s) = 5.13417 7.38870 6.36209
#
# Compressibility (1/GPa) = 0.03458930
#
# Stress axis : x y z
#
# Youngs Moduli (GPa) = 34.30632 186.36570 94.61881
#
# Poissons Ratio (x) = 0.61493 -0.06940
# Poissons Ratio (y) = 0.11320 0.25368
# Poissons Ratio (z) = -0.02516 0.49966
#
# Static dielectric constant tensor:
#      x y z
#    x 1.927580 0.000000 -0.005250 
#    y 0.000000 1.998400 0.000000 
#    z -0.005250 0.000000 1.960080 
# 
# From -- ./inp_files/29010.got.cif
#   From: 2010.05.17/outbox.cif.g08.bks.cpg/sg12_15_cif.got.tgz:29010.got - 2010.06.03 13:09:07.
