data_PCOD9214743
_publ_section_title
;
Structure prediction by ZEFSAII (Michael W. Deem and Ramdas Pophale) SiO2 
 PCOD9214743
Probable space group: C 2/M
;
_chemical_formula_sum "Si O2"
_cell_formula_units_Z 30
_cell_length_a 8.470368
_cell_length_b 23.356925
_cell_length_c 7.424990
_cell_angle_alpha 90.000000
_cell_angle_beta 55.977534
_cell_angle_gamma 90.000000
_cell_volume 1217.511639
_symmetry_space_group_name_H-M "C 2/M"
_symmetry_group_IT_number 12
_symmetry_cell_setting 'monoclinic'
loop_
_space_group_symop_operation_xyz
x,y,z
-x,y,-z
-x,-y,-z
x,-y,z
1/2+x,1/2+y,z
1/2-x,1/2+y,-z
1/2-x,1/2-y,-z
1/2+x,1/2-y,z
loop_
_atom_site_type_symbol
_atom_site_label
_atom_site_fract_x
_atom_site_fract_y
_atom_site_fract_z
Si Si1 0.800373 0.171897 0.614386
Si Si2 0.500000 0.000000 0.500000
Si Si3 0.208901 0.789872 0.792302
Si Si4 0.270684 0.417569 0.130015
Si Si5 0.000000 0.405553 0.000000
O O1 0.776944 0.191276 0.424679
O O2 0.817062 0.229371 0.727443
O O3 0.630911 0.133395 0.789512
O O4 0.000000 0.139544 0.500000
O O5 0.663268 0.949884 0.358597
O O6 0.262021 0.848818 0.855276
O O7 0.000000 0.775826 0.000000
O O8 0.152413 0.437944 0.029298
O O9 0.500000 0.425815 0.000000
#
# Coordination Sequence:
#
# PCOD9214743 Si02
#       5
#     8   2   8   8   4
#     4  11  23  36  64 102 146 191 236 279 342 425
#     4  12  26  50  82 100 136 192 236 304 376 410
#     4  10  22  40  63  96 144 190 232 288 347 417
#     4  11  26  48  72 102 142 183 240 300 355 422
#     4  12  26  45  74 110 146 189 238 286 356 438
#
# _framework density 24.640421
#
# number of rings (size 3 to 8) (size 9 to 14) (size 15 to 20)
#    0.000    1.067    1.333    5.200    9.333    2.667 
#    0.000    1.333    0.000    0.000    0.000    0.000 
#    0.000    0.000    0.000    0.000    0.000    0.000 
#
# Total GULP energy -83573.925250 kJ/mol
# GULP energy per Si atom -5571.595017 kJ/mol
# Density = 2.458434 g / cm^3
# Si number density = 24.640421 Si / 1000 Ang^3
#
#
#
# Elastic Constant Matrix: (Units=GPa)
#
#
# Indices 1 2 3 4 5 6 
#
# 1 156.5070 39.2745 54.8205 0.0000 -33.9674 0.0000
# 2 39.2745 97.1616 44.8322 0.0000 -16.5875 0.0000
# 3 54.8205 44.8322 154.1718 0.0000 -49.4980 0.0000
# 4 0.0000 0.0000 0.0000 51.3200 0.0000 9.7452
# 5 -33.9674 -16.5875 -49.4980 0.0000 54.8975 0.0000
# 6 0.0000 0.0000 0.0000 9.7452 0.0000 -34.5983
#
#
#
# Elastic Compliance Matrix: (Units=1/GPa)
#
#
# Indices 1 2 3 4 5 6 
#
# 1 0.008054 -0.002149 -0.001193 0.000000 0.003258 0.000000
# 2 -0.002149 0.012478 -0.002929 0.000000 -0.000200 0.000000
# 3 -0.001193 -0.002929 0.010191 0.000000 0.007566 0.000000
# 4 0.000000 0.000000 0.000000 0.018496 0.000000 0.005210
# 5 0.003258 -0.000200 0.007566 0.000000 0.026993 0.000000
# 6 0.000000 0.000000 0.000000 0.005210 0.000000 -0.027436
#
#
# Mechanical properties :
#
#
# Convention : Reuss Voigt Hill
#
# Bulk Modulus (GPa) = 54.99814 76.18832 65.59323
# Shear Modulus (GPa) = 74.20875 32.25140 53.23008
#
# Velocity S-wave (km/s) = 5.49382 3.62177 4.65292
# Velocity P-wave (km/s) = 7.91274 6.96253 7.45280
#
# Compressibility (1/GPa) = 0.01818243
#
# Stress axis : x y z
#
# Youngs Moduli (GPa) = 124.16640 80.14168 98.12522
#
# Poissons Ratio (x) = 0.17221 0.11704
# Poissons Ratio (y) = 0.26681 0.28737
# Poissons Ratio (z) = 0.14810 0.23470
#
# Static dielectric constant tensor:
#      x y z
#    x 2.036200 0.000000 0.080860 
#    y 0.000000 1.910430 0.000000 
#    z 0.080860 0.000000 1.937470 
# 
# From -- ./inp_files/40115.got.cif
#   From: 2010.05.17/outbox.cif.g08.bks.cpg/sg12_21_cif.got.tgz:40115.got - 2010.06.03 13:09:07.
