data_PCOD9214724
_publ_section_title
;
Structure prediction by ZEFSAII (Michael W. Deem and Ramdas Pophale) SiO2 
 PCOD9214724
Probable space group: C 2/M
;
_chemical_formula_sum "Si O2"
_cell_formula_units_Z 48
_cell_length_a 22.178117
_cell_length_b 26.522824
_cell_length_c 12.871350
_cell_angle_alpha 90.000000
_cell_angle_beta 160.948944
_cell_angle_gamma 90.000000
_cell_volume 2471.341433
_symmetry_space_group_name_H-M "C 2/M"
_symmetry_group_IT_number 12
_symmetry_cell_setting 'monoclinic'
loop_
_space_group_symop_operation_xyz
x,y,z
-x,y,-z
-x,-y,-z
x,-y,z
1/2+x,1/2+y,z
1/2-x,1/2+y,-z
1/2-x,1/2-y,-z
1/2+x,1/2-y,z
loop_
_atom_site_type_symbol
_atom_site_label
_atom_site_fract_x
_atom_site_fract_y
_atom_site_fract_z
Si Si1 0.779324 0.720561 0.234369
Si Si2 0.617429 0.184149 0.923469
Si Si3 0.397414 0.704221 0.725601
Si Si4 0.460830 0.440534 0.560624
Si Si5 0.172305 0.373095 0.216136
Si Si6 0.310608 0.121222 0.149095
O O1 0.788208 0.675764 0.166599
O O2 0.936806 0.708082 0.574569
O O3 0.786275 0.776039 0.196753
O O4 0.575158 0.721045 0.949268
O O5 0.667327 0.135657 0.935141
O O6 0.592105 0.165997 0.999867
O O7 0.250000 0.750000 0.500000
O O8 0.298097 0.659224 0.500996
O O9 0.500000 0.689080 0.000000
O O10 0.500000 0.434308 0.500000
O O11 0.447610 0.500000 0.558008
O O12 0.292781 0.412208 0.344865
O O13 0.642620 0.414215 0.902816
O O14 0.000000 0.394949 0.000000
O O15 0.500000 0.098675 0.500000
#
# Coordination Sequence:
#
# PCOD9214724 Si02
#       6
#     8   8   8   8   8   8
#     4  11  21  35  56  89 130 173 210 261 307 386
#     4  11  22  36  58  92 131 169 213 249 322 382
#     4  12  23  37  57  87 130 179 219 250 311 385
#     4  11  24  46  73  96 123 166 219 279 334 377
#     4  12  24  41  65  93 132 171 212 271 313 387
#     4  10  22  40  63  94 125 164 211 265 327 386
#
# _framework density 19.422650999999998
#
# number of rings (size 3 to 8) (size 9 to 14) (size 15 to 20)
#    0.000    0.833    3.333    6.000    0.000    0.667 
#    0.000    0.000    0.000    0.500    0.000    0.000 
#    0.000    0.000    0.000    0.000    0.000    0.000 
#
# Total GULP energy -133975.386644 kJ/mol
# GULP energy per Si atom -5582.307777 kJ/mol
# Density = 1.937844 g / cm^3
# Si number density = 19.422651 Si / 1000 Ang^3
#
#
#
# Elastic Constant Matrix: (Units=GPa)
#
#
# Indices 1 2 3 4 5 6 
#
# 1 114.6753 46.2657 69.6888 0.0000 3.5544 0.0000
# 2 46.2657 87.5938 57.9939 0.0000 9.2462 0.0000
# 3 69.6888 57.9939 118.0323 0.0001 13.4958 0.0001
# 4 0.0000 0.0000 0.0001 6.6379 0.0001 4.5071
# 5 3.5544 9.2462 13.4958 0.0001 46.4457 0.0000
# 6 0.0000 0.0000 0.0001 4.5071 0.0000 26.5963
#
#
#
# Elastic Compliance Matrix: (Units=1/GPa)
#
#
# Indices 1 2 3 4 5 6 
#
# 1 0.014177 -0.002954 -0.007098 0.000000 0.001566 0.000000
# 2 -0.002954 0.017580 -0.006743 0.000000 -0.001314 0.000000
# 3 -0.007098 -0.006743 0.016302 0.000000 -0.002851 0.000000
# 4 0.000000 0.000000 0.000000 0.170240 0.000000 -0.028850
# 5 0.001566 -0.001314 -0.002851 0.000000 0.022501 0.000000
# 6 0.000000 0.000000 0.000000 -0.028850 0.000000 0.042488
#
#
# Mechanical properties :
#
#
# Convention : Reuss Voigt Hill
#
# Bulk Modulus (GPa) = 69.11486 74.24424 71.67955
# Shear Modulus (GPa) = 15.54235 25.69286 20.61761
#
# Velocity S-wave (km/s) = 2.83188 3.64102 3.26164
# Velocity P-wave (km/s) = 6.80843 7.48229 7.15329
#
# Compressibility (1/GPa) = 0.01446867
#
# Stress axis : x y z
#
# Youngs Moduli (GPa) = 70.53664 56.88316 61.34049
#
# Poissons Ratio (x) = 0.16803 0.43540
# Poissons Ratio (y) = 0.20836 0.41364
# Poissons Ratio (z) = 0.50067 0.38359
#
# Static dielectric constant tensor:
#      x y z
#    x 1.768600 0.000000 -0.011080 
#    y 0.000000 1.663220 0.000000 
#    z -0.011080 0.000000 1.697790 
# 
# From -- ./inp_files/122051.got.cif
#   From: 2010.05.17/outbox.cif.g08.bks.cpg/sg12_62_cif.got.tgz:122051.got - 2010.06.03 13:09:07.
