data_PCOD9214088
_publ_section_title
;
Structure prediction by ZEFSAII (Michael W. Deem and Ramdas Pophale) SiO2 
 PCOD9214088
Probable space group: C 2/M
;
_chemical_formula_sum "Si O2"
_cell_formula_units_Z 40
_cell_length_a 14.177058
_cell_length_b 19.817794
_cell_length_c 8.667392
_cell_angle_alpha 90.000000
_cell_angle_beta 49.032142
_cell_angle_gamma 90.000000
_cell_volume 1838.744530
_symmetry_space_group_name_H-M "C 2/M"
_symmetry_group_IT_number 12
_symmetry_cell_setting 'monoclinic'
loop_
_space_group_symop_operation_xyz
x,y,z
-x,y,-z
-x,-y,-z
x,-y,z
1/2+x,1/2+y,z
1/2-x,1/2+y,-z
1/2-x,1/2-y,-z
1/2+x,1/2-y,z
loop_
_atom_site_type_symbol
_atom_site_label
_atom_site_fract_x
_atom_site_fract_y
_atom_site_fract_z
Si Si1 0.237405 0.575893 0.962445
Si Si2 0.467369 0.338029 0.717863
Si Si3 0.122691 0.306847 0.263218
Si Si4 0.771697 0.177799 0.400698
Si Si5 0.621904 0.077322 0.768576
O O1 0.211616 0.500000 0.042962
O O2 0.373172 0.602550 0.860602
O O3 0.227726 0.576992 0.787680
O O4 0.140561 0.630223 0.132175
O O5 0.500000 0.343769 0.500000
O O6 0.396909 0.265086 0.799509
O O7 0.588653 0.340622 0.696022
O O8 0.238546 0.311105 0.257914
O O9 0.000000 0.314300 0.500000
O O10 0.750000 0.250000 0.500000
O O11 0.672710 0.125455 0.581200
O O12 0.600807 0.000000 0.738221
O O13 0.500000 0.097313 0.000000
#
# Coordination Sequence:
#
# PCOD9214088 Si02
#       5
#     8   8   8   8   8
#     4  11  24  42  63  90 126 167 203 250 310 367
#     4  11  22  41  65  91 125 158 209 254 304 362
#     4  11  23  41  65  93 126 159 205 257 309 361
#     4  12  22  40  64  95 121 162 204 254 308 360
#     4  10  22  39  62  91 123 162 209 250 299 365
#
# _framework density 21.753973999999999
#
# number of rings (size 3 to 8) (size 9 to 14) (size 15 to 20)
#    0.000    1.000    6.000    1.800    0.000    3.200 
#    0.000    1.000    0.000    0.000    0.000    0.000 
#    0.000    0.000    0.000    0.000    0.000    0.000 
#
# Total GULP energy -111753.500630 kJ/mol
# GULP energy per Si atom -5587.675031 kJ/mol
# Density = 2.170446 g / cm^3
# Si number density = 21.753974 Si / 1000 Ang^3
#
#
#
# Elastic Constant Matrix: (Units=GPa)
#
#
# Indices 1 2 3 4 5 6 
#
# 1 140.7251 15.7733 17.4936 0.0000 -12.4673 0.0000
# 2 15.7733 112.2611 37.5312 0.0000 8.5169 0.0000
# 3 17.4936 37.5312 56.6364 0.0000 2.2642 0.0000
# 4 0.0000 0.0000 0.0000 35.6091 0.0000 6.9440
# 5 -12.4673 8.5169 2.2642 0.0000 32.8406 0.0000
# 6 0.0000 0.0000 0.0000 6.9440 0.0000 14.4029
#
#
#
# Elastic Compliance Matrix: (Units=1/GPa)
#
#
# Indices 1 2 3 4 5 6 
#
# 1 0.007725 -0.000630 -0.002098 0.000000 0.003240 0.000000
# 2 -0.000630 0.011695 -0.007445 0.000000 -0.002759 0.000000
# 3 -0.002098 -0.007445 0.023257 0.000000 -0.000469 0.000000
# 4 0.000000 0.000000 0.000000 0.030997 0.000000 -0.014944
# 5 0.003240 -0.002759 -0.000469 0.000000 0.032428 0.000000
# 6 0.000000 0.000000 0.000000 -0.014944 0.000000 0.076635
#
#
# Mechanical properties :
#
#
# Convention : Reuss Voigt Hill
#
# Bulk Modulus (GPa) = 44.78195 50.13542 47.45868
# Shear Modulus (GPa) = 23.75012 32.49214 28.12113
#
# Velocity S-wave (km/s) = 3.30776 3.86893 3.59930
# Velocity P-wave (km/s) = 5.93454 6.56161 6.25594
#
# Compressibility (1/GPa) = 0.02233043
#
# Stress axis : x y z
#
# Youngs Moduli (GPa) = 129.45744 85.51010 42.99826
#
# Poissons Ratio (x) = 0.05385 0.09022
# Poissons Ratio (y) = 0.08152 0.32011
# Poissons Ratio (z) = 0.27162 0.63661
#
# Static dielectric constant tensor:
#      x y z
#    x 2.047530 0.000000 0.073140 
#    y 0.000000 1.771090 0.000000 
#    z 0.073140 0.000000 1.855620 
# 
# From -- ./inp_files/63145.got.cif
#   From: 2010.05.17/outbox.cif.g08.bks.cpg/sg12_32_cif.got.tgz:63145.got - 2010.06.03 13:09:07.
