data_PCOD9214908
_publ_section_title
;
Structure prediction by ZEFSAII (Michael W. Deem and Ramdas Pophale) SiO2 
 PCOD9214908
Probable space group: C 2/M
;
_chemical_formula_sum "Si O2"
_cell_formula_units_Z 56
_cell_length_a 14.312734
_cell_length_b 12.432233
_cell_length_c 18.843237
_cell_angle_alpha 90.000000
_cell_angle_beta 59.847137
_cell_angle_gamma 90.000000
_cell_volume 2899.257939
_symmetry_space_group_name_H-M "C 2/M"
_symmetry_group_IT_number 12
_symmetry_cell_setting 'monoclinic'
loop_
_space_group_symop_operation_xyz
x,y,z
-x,y,-z
-x,-y,-z
x,-y,z
1/2+x,1/2+y,z
1/2-x,1/2+y,-z
1/2-x,1/2-y,-z
1/2+x,1/2-y,z
loop_
_atom_site_type_symbol
_atom_site_label
_atom_site_fract_x
_atom_site_fract_y
_atom_site_fract_z
Si Si1 0.720175 0.618734 0.559128
Si Si2 0.595130 0.171306 0.610389
Si Si3 0.171752 0.222716 0.095311
Si Si4 0.719844 0.267255 0.801605
Si Si5 0.966271 0.627232 0.203508
Si Si6 0.129093 0.625683 0.363345
Si Si7 0.853758 0.000000 0.115543
Si Si8 0.896958 0.000000 0.941366
O O1 0.678055 0.500000 0.587266
O O2 0.623749 0.702886 0.598616
O O3 0.791037 0.623527 0.460344
O O4 0.807971 0.642985 0.587145
O O5 0.558597 0.136094 0.702614
O O6 0.499124 0.141371 0.593222
O O7 0.239707 0.215167 0.141332
O O8 0.121960 0.107504 0.095555
O O9 0.079075 0.312868 0.142495
O O10 0.250000 0.250000 0.000000
O O11 0.626729 0.195536 0.801316
O O12 0.817976 0.289433 0.710573
O O13 0.684833 0.388725 0.835474
O O14 0.968464 0.500000 0.184122
O O15 0.148649 0.500000 0.336213
O O16 0.980815 0.000000 0.079720
O O17 0.828174 0.000000 0.041042
#
# Coordination Sequence:
#
# PCOD9214908 Si02
#       8
#     8   8   8   8   8   8   4   4
#     4  10  22  40  65  96 132 169 217 271 317 376
#     4  11  22  40  67  95 131 173 219 260 326 382
#     4  12  27  44  69  95 127 170 218 264 332 384
#     4  12  24  42  65  98 127 170 212 270 321 388
#     4  12  27  45  64  96 136 174 215 265 327 395
#     4  11  21  37  66  97 124 164 217 268 312 371
#     4  11  22  42  70  91 123 162 218 273 317 380
#     4  11  24  44  66  94 127 164 214 274 321 388
#
# _framework density 19.315287000000001
#
# number of rings (size 3 to 8) (size 9 to 14) (size 15 to 20)
#    0.000    0.714    6.429    1.714    3.000    1.714 
#    1.286    1.429    0.000    1.714    0.000    0.000 
#    0.000    0.000    0.000    0.000    0.000    0.000 
#
# Total GULP energy -156342.252044 kJ/mol
# GULP energy per Si atom -5583.651859 kJ/mol
# Density = 1.927132 g / cm^3
# Si number density = 19.315287 Si / 1000 Ang^3
#
#
#
# Elastic Constant Matrix: (Units=GPa)
#
#
# Indices 1 2 3 4 5 6 
#
# 1 69.4052 30.6296 11.1259 0.0000 6.0051 0.0000
# 2 30.6296 127.2163 23.2842 0.0000 5.8730 0.0000
# 3 11.1259 23.2842 83.2449 0.0000 1.0172 0.0000
# 4 0.0000 0.0000 0.0000 -18.3301 0.0000 -2.6555
# 5 6.0051 5.8730 1.0172 0.0000 27.8774 0.0000
# 6 0.0000 0.0000 0.0000 -2.6555 0.0000 36.6175
#
#
#
# Elastic Compliance Matrix: (Units=1/GPa)
#
#
# Indices 1 2 3 4 5 6 
#
# 1 0.016426 -0.003618 -0.001150 0.000000 -0.002734 0.000000
# 2 -0.003618 0.009159 -0.002065 0.000000 -0.001075 0.000000
# 3 -0.001150 -0.002065 0.012741 0.000000 0.000218 0.000000
# 4 0.000000 0.000000 0.000000 -0.053988 0.000000 -0.003915
# 5 -0.002734 -0.001075 0.000218 0.000000 0.036679 0.000000
# 6 0.000000 0.000000 0.000000 -0.003915 0.000000 0.027025
#
#
# Mechanical properties :
#
#
# Convention : Reuss Voigt Hill
#
# Bulk Modulus (GPa) = 40.55144 45.54953 43.05048
# Shear Modulus (GPa) = 71.50066 23.55474 47.52770
#
# Velocity S-wave (km/s) = 6.09081 3.49590 4.96585
# Velocity P-wave (km/s) = 8.39667 6.31889 7.43076
#
# Compressibility (1/GPa) = 0.02466004
#
# Stress axis : x y z
#
# Youngs Moduli (GPa) = 60.87992 109.17774 78.48407
#
# Poissons Ratio (x) = 0.39502 0.09025
# Poissons Ratio (y) = 0.22027 0.16209
# Poissons Ratio (z) = 0.07001 0.22548
#
# Static dielectric constant tensor:
#      x y z
#    x 1.650720 0.000000 0.002280 
#    y 0.000000 1.650820 0.000000 
#    z 0.002280 0.000000 1.715030 
# 
# From -- ./inp_files/269238.got.cif
#   From: 2010.05.17/outbox.cif.g08.bks.cpg/sg12_135_cif.got.tgz:269238.got - 2010.06.03 13:09:07.
