data_PCOD9214932
_publ_section_title
;
Structure prediction by ZEFSAII (Michael W. Deem and Ramdas Pophale) SiO2 
 PCOD9214932
Probable space group: C 2/M
;
_chemical_formula_sum "Si O2"
_cell_formula_units_Z 48
_cell_length_a 25.230157
_cell_length_b 14.243475
_cell_length_c 8.083269
_cell_angle_alpha 90.000000
_cell_angle_beta 46.579706
_cell_angle_gamma 90.000000
_cell_volume 2109.879628
_symmetry_space_group_name_H-M "C 2/M"
_symmetry_group_IT_number 12
_symmetry_cell_setting 'monoclinic'
loop_
_space_group_symop_operation_xyz
x,y,z
-x,y,-z
-x,-y,-z
x,-y,z
1/2+x,1/2+y,z
1/2-x,1/2+y,-z
1/2-x,1/2-y,-z
1/2+x,1/2-y,z
loop_
_atom_site_type_symbol
_atom_site_label
_atom_site_fract_x
_atom_site_fract_y
_atom_site_fract_z
Si Si1 0.842146 0.296106 0.950955
Si Si2 0.387512 0.893220 0.539983
Si Si3 0.921494 0.107445 0.136231
Si Si4 0.800135 0.765616 0.550818
Si Si5 0.459853 0.889532 0.910028
Si Si6 0.917351 0.894327 0.746659
O O1 0.855398 0.376668 0.789257
O O2 0.893285 0.323524 0.998783
O O3 0.870489 0.198448 0.807949
O O4 0.758641 0.289880 0.182653
O O5 0.344333 0.825956 0.509955
O O6 0.473487 0.871324 0.358768
O O7 0.380418 0.000000 0.499340
O O8 0.858640 0.157288 0.372757
O O9 0.924557 0.000000 0.188930
O O10 0.912912 0.105576 0.956624
O O11 0.000000 0.153058 0.000000
O O12 0.750000 0.750000 0.500000
O O13 0.438553 0.000000 0.948589
O O14 0.500000 0.874888 0.000000
O O15 0.000000 0.882888 0.500000
O O16 0.893307 0.000000 0.744251
#
# Coordination Sequence:
#
# PCOD9214932 Si02
#       6
#     8   8   8   8   8   8
#     4  12  24  42  69 105 139 184 227 286 353 418
#     4  11  26  46  67  98 140 185 231 283 341 414
#     4  10  24  45  70 100 133 174 231 289 340 410
#     4  12  26  44  70 100 136 182 230 284 357 419
#     4  10  22  41  69 101 133 178 230 280 335 403
#     4  10  22  40  66 100 135 177 226 278 341 406
#
# _framework density 22.750112000000001
#
# number of rings (size 3 to 8) (size 9 to 14) (size 15 to 20)
#    0.000    1.167    1.667    3.500    4.667    4.000 
#    0.000    0.000    0.000    0.000    0.000    0.000 
#    0.000    0.000    0.000    0.000    0.000    0.000 
#
# Total GULP energy -134293.918470 kJ/mol
# GULP energy per Si atom -5595.579936 kJ/mol
# Density = 2.269833 g / cm^3
# Si number density = 22.750112 Si / 1000 Ang^3
#
#
#
# Elastic Constant Matrix: (Units=GPa)
#
#
# Indices 1 2 3 4 5 6 
#
# 1 80.2752 43.8615 15.0639 0.0000 -15.0460 0.0000
# 2 43.8615 121.7807 65.7938 0.0000 -31.5429 0.0000
# 3 15.0639 65.7938 167.6529 0.0000 -29.1725 0.0000
# 4 0.0000 0.0000 0.0000 22.0963 0.0000 15.9180
# 5 -15.0460 -31.5429 -29.1725 0.0000 38.9137 0.0000
# 6 0.0000 0.0000 0.0000 15.9180 0.0000 -23.5856
#
#
#
# Elastic Compliance Matrix: (Units=1/GPa)
#
#
# Indices 1 2 3 4 5 6 
#
# 1 0.015814 -0.005753 0.001253 0.000000 0.002390 0.000000
# 2 -0.005753 0.013994 -0.003896 0.000000 0.006198 0.000000
# 3 0.001253 -0.003896 0.007953 0.000000 0.003288 0.000000
# 4 0.000000 0.000000 0.000000 0.030451 0.000000 0.020552
# 5 0.002390 0.006198 0.003288 0.000000 0.034111 0.000000
# 6 0.000000 0.000000 0.000000 0.020552 0.000000 -0.028528
#
#
# Mechanical properties :
#
#
# Convention : Reuss Voigt Hill
#
# Bulk Modulus (GPa) = 47.69363 68.79414 58.24388
# Shear Modulus (GPa) = 51.24098 23.81751 37.52924
#
# Velocity S-wave (km/s) = 4.75103 3.23912 4.06597
# Velocity P-wave (km/s) = 7.14885 6.65537 6.90652
#
# Compressibility (1/GPa) = 0.02096716
#
# Stress axis : x y z
#
# Youngs Moduli (GPa) = 63.23681 71.45867 125.73117
#
# Poissons Ratio (x) = 0.41113 -0.15752
# Poissons Ratio (y) = 0.36383 0.48991
# Poissons Ratio (z) = -0.07923 0.27844
#
# Static dielectric constant tensor:
#      x y z
#    x 1.871930 0.000000 -0.002190 
#    y 0.000000 1.834200 0.000000 
#    z -0.002190 0.000000 1.889550 
# 
# From -- ./inp_files/104951.got.cif
#   From: 2010.05.17/outbox.cif.g08.bks.cpg/sg12_53_cif.got.tgz:104951.got - 2010.06.03 13:09:07.
