data_PCOD9214815
_publ_section_title
;
Structure prediction by ZEFSAII (Michael W. Deem and Ramdas Pophale) SiO2 
 PCOD9214815
Probable space group: C 2/M
;
_chemical_formula_sum "Si O2"
_cell_formula_units_Z 32
_cell_length_a 13.947360
_cell_length_b 10.195452
_cell_length_c 9.847493
_cell_angle_alpha 90.000000
_cell_angle_beta 110.064778
_cell_angle_gamma 90.000000
_cell_volume 1315.318611
_symmetry_space_group_name_H-M "C 2/M"
_symmetry_group_IT_number 12
_symmetry_cell_setting 'monoclinic'
loop_
_space_group_symop_operation_xyz
x,y,z
-x,y,-z
-x,-y,-z
x,-y,z
1/2+x,1/2+y,z
1/2-x,1/2+y,-z
1/2-x,1/2-y,-z
1/2+x,1/2-y,z
loop_
_atom_site_type_symbol
_atom_site_label
_atom_site_fract_x
_atom_site_fract_y
_atom_site_fract_z
Si Si1 0.993995 0.861247 0.660010
Si Si2 0.818908 0.283969 0.212004
Si Si3 0.657274 0.850472 0.472965
Si Si4 0.117040 0.351531 0.051122
O O1 0.933483 0.725251 0.649197
O O2 0.000000 0.870534 0.500000
O O3 0.109058 0.844272 0.765619
O O4 0.948183 0.000000 0.687537
O O5 0.855260 0.351035 0.369070
O O6 0.844120 0.357528 0.085857
O O7 0.701172 0.241565 0.161131
O O8 0.750000 0.750000 0.500000
O O9 0.673960 0.000000 0.437722
O O10 0.117842 0.500000 0.106582
O O11 0.000000 0.303045 0.000000
#
# Coordination Sequence:
#
# PCOD9214815 Si02
#       4
#     8   8   8   8
#     4   9  19  37  61  90 127 169 209 256 321 386
#     4  10  22  40  64  94 133 171 213 271 322 387
#     4  11  24  40  63  96 131 171 217 267 327 390
#     4  10  22  40  65  94 127 171 219 267 322 385
#
# _framework density 24.328707000000001
#
# number of rings (size 3 to 8) (size 9 to 14) (size 15 to 20)
#    0.000    2.000    0.000    2.250    3.500    8.500 
#    0.000    0.000    0.000    4.500    0.000    0.000 
#    0.000    0.000    0.000    0.000    0.000    0.000 
#
# Total GULP energy -89325.894515 kJ/mol
# GULP energy per Si atom -5582.868407 kJ/mol
# Density = 2.427333 g / cm^3
# Si number density = 24.328707 Si / 1000 Ang^3
#
#
#
# Elastic Constant Matrix: (Units=GPa)
#
#
# Indices 1 2 3 4 5 6 
#
# 1 139.8200 50.4166 24.6987 0.0000 30.5335 0.0000
# 2 50.4166 188.3239 14.2312 0.0000 23.1094 0.0000
# 3 24.6987 14.2312 99.3183 0.0000 5.0997 0.0000
# 4 0.0000 0.0000 0.0000 -75.9747 0.0000 50.4269
# 5 30.5335 23.1094 5.0997 0.0000 47.5702 0.0000
# 6 0.0000 0.0000 0.0000 50.4269 0.0000 -20.7097
#
#
#
# Elastic Compliance Matrix: (Units=1/GPa)
#
#
# Indices 1 2 3 4 5 6 
#
# 1 0.009144 -0.001719 -0.001779 0.000000 -0.004843 0.000000
# 2 -0.001719 0.006015 -0.000343 0.000000 -0.001782 0.000000
# 3 -0.001779 -0.000343 0.010551 0.000000 0.000177 0.000000
# 4 0.000000 0.000000 0.000000 0.021362 0.000000 0.052015
# 5 -0.004843 -0.001782 0.000177 0.000000 0.024977 0.000000
# 6 0.000000 0.000000 0.000000 0.052015 0.000000 0.078368
#
#
# Mechanical properties :
#
#
# Convention : Reuss Voigt Hill
#
# Bulk Modulus (GPa) = 55.46964 67.35056 61.41010
# Shear Modulus (GPa) = 30.46784 12.71821 21.59302
#
# Velocity S-wave (km/s) = 3.54268 2.28889 2.98242
# Velocity P-wave (km/s) = 6.29156 5.89313 6.09560
#
# Compressibility (1/GPa) = 0.01802788
#
# Stress axis : x y z
#
# Youngs Moduli (GPa) = 109.36325 166.25688 94.77734
#
# Poissons Ratio (x) = 0.28582 0.16860
# Poissons Ratio (y) = 0.18801 0.03249
# Poissons Ratio (z) = 0.19455 0.05700
#
# Static dielectric constant tensor:
#      x y z
#    x 2.003680 0.000000 -0.037050 
#    y 0.000000 1.944770 0.000000 
#    z -0.037050 0.000000 1.960240 
# 
# From -- ./inp_files/138803.got.cif
#   From: 2010.05.17/outbox.cif.g08.bks.cpg/sg12_70_cif.got.tgz:138803.got - 2010.06.03 13:09:07.
