data_PCOD9214950
_publ_section_title
;
Structure prediction by ZEFSAII (Michael W. Deem and Ramdas Pophale) SiO2 
 PCOD9214950
Probable space group: C 2/M
;
_chemical_formula_sum "Si O2"
_cell_formula_units_Z 56
_cell_length_a 18.445949
_cell_length_b 27.334858
_cell_length_c 8.498047
_cell_angle_alpha 90.000000
_cell_angle_beta 140.490090
_cell_angle_gamma 90.000000
_cell_volume 2726.079942
_symmetry_space_group_name_H-M "C 2/M"
_symmetry_group_IT_number 12
_symmetry_cell_setting 'monoclinic'
loop_
_space_group_symop_operation_xyz
x,y,z
-x,y,-z
-x,-y,-z
x,-y,z
1/2+x,1/2+y,z
1/2-x,1/2+y,-z
1/2-x,1/2-y,-z
1/2+x,1/2-y,z
loop_
_atom_site_type_symbol
_atom_site_label
_atom_site_fract_x
_atom_site_fract_y
_atom_site_fract_z
Si Si1 0.311428 0.128380 0.012500
Si Si2 0.909860 0.445727 0.963335
Si Si3 0.954679 0.195005 0.100326
Si Si4 0.181513 0.944714 0.372768
Si Si5 0.001434 0.695685 0.190980
Si Si6 0.770151 0.355260 0.305034
Si Si7 0.565217 0.605103 0.457743
O O1 0.384609 0.082031 0.079341
O O2 0.189187 0.123438 0.723359
O O3 0.386999 0.172843 0.073516
O O4 0.294970 0.128630 0.169540
O O5 0.953126 0.500000 0.070265
O O6 0.794753 0.448056 0.670228
O O7 0.000000 0.420095 0.000000
O O8 0.000690 0.247083 0.235127
O O9 0.995322 0.151888 0.281872
O O10 0.819121 0.189496 0.856051
O O11 0.000000 0.186406 0.000000
O O12 0.210811 0.900334 0.301348
O O13 0.084630 0.928855 0.336618
O O14 0.161332 0.000000 0.274862
O O15 0.112361 0.665177 0.427870
O O16 0.000000 0.695190 0.000000
O O17 0.500000 0.582878 0.500000
#
# Coordination Sequence:
#
# PCOD9214950 Si02
#       7
#     8   8   8   8   8   8   8
#     4  11  23  39  64  94 131 168 214 268 322 386
#     4   9  18  36  63  92 125 168 213 264 326 385
#     4  11  25  43  67  92 128 171 221 265 326 379
#     4  10  22  40  66  94 129 171 214 264 323 385
#     4  11  26  42  66  95 127 173 217 270 327 380
#     4  12  24  43  65  95 137 168 218 269 320 386
#     4  11  22  42  66  92 132 170 214 266 323 379
#
# _framework density 20.542317000000001
#
# number of rings (size 3 to 8) (size 9 to 14) (size 15 to 20)
#    0.000    1.286    2.857    3.429    2.000    3.714 
#    0.000    1.429    0.000    4.286    0.000    0.000 
#    0.000    0.000    0.000    0.000    0.000    0.000 
#
# Total GULP energy -156312.596425 kJ/mol
# GULP energy per Si atom -5582.592729 kJ/mol
# Density = 2.049556 g / cm^3
# Si number density = 20.542317 Si / 1000 Ang^3
#
#
#
# Elastic Constant Matrix: (Units=GPa)
#
#
# Indices 1 2 3 4 5 6 
#
# 1 140.8984 25.8165 9.6453 0.0000 -0.7280 0.0000
# 2 25.8165 81.6081 7.5025 0.0000 -0.8794 0.0000
# 3 9.6453 7.5025 58.1221 0.0000 8.8386 0.0000
# 4 0.0000 0.0000 0.0000 15.9543 0.0000 -0.1283
# 5 -0.7280 -0.8794 8.8386 0.0000 34.7038 0.0000
# 6 0.0000 0.0000 0.0000 -0.1283 0.0000 4.2148
#
#
#
# Elastic Compliance Matrix: (Units=1/GPa)
#
#
# Indices 1 2 3 4 5 6 
#
# 1 0.007591 -0.002304 -0.001017 0.000000 0.000360 0.000000
# 2 -0.002304 0.013119 -0.001409 0.000000 0.000643 0.000000
# 3 -0.001017 -0.001409 0.018272 0.000000 -0.004711 0.000000
# 4 0.000000 0.000000 0.000000 0.062694 0.000000 0.001908
# 5 0.000360 0.000643 -0.004711 0.000000 0.030039 0.000000
# 6 0.000000 0.000000 0.000000 0.001908 0.000000 0.237317
#
#
# Mechanical properties :
#
#
# Convention : Reuss Voigt Hill
#
# Bulk Modulus (GPa) = 33.87262 40.72856 37.30059
# Shear Modulus (GPa) = 12.87555 26.81887 19.84721
#
# Velocity S-wave (km/s) = 2.50628 3.61715 3.11169
# Velocity P-wave (km/s) = 4.99001 6.10858 5.57741
#
# Compressibility (1/GPa) = 0.02952237
#
# Stress axis : x y z
#
# Youngs Moduli (GPa) = 131.73576 76.22531 54.72810
#
# Poissons Ratio (x) = 0.17562 0.05566
# Poissons Ratio (y) = 0.30352 0.07710
# Poissons Ratio (z) = 0.13398 0.10739
#
# Static dielectric constant tensor:
#      x y z
#    x 1.778890 0.000000 0.056010 
#    y 0.000000 1.767920 0.000000 
#    z 0.056010 0.000000 1.757790 
# 
# From -- ./inp_files/80090.got.cif
#   From: 2010.05.17/outbox.cif.g08.bks.cpg/sg12_41_cif.got.tgz:80090.got - 2010.06.03 13:09:07.
