data_PCOD9214556
_publ_section_title
;
Structure prediction by ZEFSAII (Michael W. Deem and Ramdas Pophale) SiO2 
 PCOD9214556
Probable space group: C 2/M
;
_chemical_formula_sum "Si O2"
_cell_formula_units_Z 56
_cell_length_a 21.052415
_cell_length_b 14.839387
_cell_length_c 9.186978
_cell_angle_alpha 90.000000
_cell_angle_beta 72.038679
_cell_angle_gamma 90.000000
_cell_volume 2730.184751
_symmetry_space_group_name_H-M "C 2/M"
_symmetry_group_IT_number 12
_symmetry_cell_setting 'monoclinic'
loop_
_space_group_symop_operation_xyz
x,y,z
-x,y,-z
-x,-y,-z
x,-y,z
1/2+x,1/2+y,z
1/2-x,1/2+y,-z
1/2-x,1/2-y,-z
1/2+x,1/2-y,z
loop_
_atom_site_type_symbol
_atom_site_label
_atom_site_fract_x
_atom_site_fract_y
_atom_site_fract_z
Si Si1 0.054488 0.250626 0.089612
Si Si2 0.798687 0.606568 0.713937
Si Si3 0.745071 0.103309 0.593425
Si Si4 0.980600 0.898135 0.671775
Si Si5 0.546282 0.893756 0.329125
Si Si6 0.869084 0.901047 0.340057
Si Si7 0.310982 0.257755 0.163368
O O1 0.027418 0.332589 0.206154
O O2 0.060533 0.165192 0.193459
O O3 0.129863 0.271488 0.985145
O O4 0.000000 0.234075 0.000000
O O5 0.787398 0.500000 0.754973
O O6 0.782755 0.620231 0.551763
O O7 0.876446 0.624651 0.686079
O O8 0.750559 0.675675 0.835247
O O9 0.825179 0.112133 0.516377
O O10 0.717963 0.173530 0.727767
O O11 0.728958 0.000000 0.642381
O O12 0.053099 0.904234 0.693122
O O13 0.000000 0.860051 0.500000
O O14 0.953447 0.000000 0.672360
O O15 0.500000 0.873427 0.500000
O O16 0.539359 0.000000 0.301828
O O17 0.850900 0.822015 0.246324
O O18 0.847703 0.000000 0.298477
#
# Coordination Sequence:
#
# PCOD9214556 Si02
#       7
#     8   8   8   8   8   8   8
#     4  12  26  39  58  93 129 164 202 245 307 372
#     4   9  19  38  63  89 114 153 207 251 298 360
#     4   9  19  33  56  87 117 153 199 248 296 356
#     4  10  22  40  62  87 121 162 204 250 297 358
#     4  10  24  45  67  87 116 162 211 259 304 355
#     4   9  17  34  58  85 116 151 198 247 296 356
#     4  11  21  34  58  88 124 158 192 242 312 358
#
# _framework density 20.511431999999999
#
# number of rings (size 3 to 8) (size 9 to 14) (size 15 to 20)
#    0.000    2.000    1.429    3.429    2.000    6.286 
#    0.000    0.000    0.000    3.429    0.000    0.000 
#    0.000    0.000    0.000    0.000    0.000    0.000 
#
# Total GULP energy -156200.641119 kJ/mol
# GULP energy per Si atom -5578.594326 kJ/mol
# Density = 2.046475 g / cm^3
# Si number density = 20.511432 Si / 1000 Ang^3
#
#
#
# Elastic Constant Matrix: (Units=GPa)
#
#
# Indices 1 2 3 4 5 6 
#
# 1 29.4256 -1.9818 -0.7630 0.0000 -8.2190 0.0000
# 2 -1.9818 77.7339 44.2379 0.0000 -3.5295 0.0000
# 3 -0.7630 44.2379 79.5131 0.0000 -11.7027 0.0000
# 4 0.0000 0.0000 0.0000 188.1007 0.0000 -120.4619
# 5 -8.2190 -3.5295 -11.7027 0.0000 18.8877 0.0000
# 6 0.0000 0.0000 0.0000 -120.4619 0.0000 57.3064
#
#
#
# Elastic Compliance Matrix: (Units=1/GPa)
#
#
# Indices 1 2 3 4 5 6 
#
# 1 0.039410 0.000083 0.003145 0.000000 0.019114 0.000000
# 2 0.000083 0.019010 -0.011056 0.000000 -0.003262 0.000000
# 3 0.003145 -0.011056 0.020527 0.000000 0.012021 0.000000
# 4 0.000000 0.000000 0.000000 -0.015357 0.000000 -0.032281
# 5 0.019114 -0.003262 0.012021 0.000000 0.068101 0.000000
# 6 0.000000 0.000000 0.000000 -0.032281 0.000000 -0.050406
#
#
# Mechanical properties :
#
#
# Convention : Reuss Voigt Hill
#
# Bulk Modulus (GPa) = 15.79993 29.96209 22.88101
# Shear Modulus (GPa) = 42.35930 62.53758 52.44844
#
# Velocity S-wave (km/s) = 4.54933 5.52769 5.06220
# Velocity P-wave (km/s) = 5.94263 7.44175 6.73404
#
# Compressibility (1/GPa) = 0.06329142
#
# Stress axis : x y z
#
# Youngs Moduli (GPa) = 25.37433 52.60339 48.71632
#
# Poissons Ratio (x) = -0.00434 -0.15323
# Poissons Ratio (y) = -0.00210 0.53860
# Poissons Ratio (z) = -0.07981 0.58157
#
# Static dielectric constant tensor:
#      x y z
#    x 1.769140 0.000000 0.005530 
#    y 0.000000 1.745410 0.000000 
#    z 0.005530 0.000000 1.746180 
# 
# From -- ./inp_files/96756.got.cif
#   From: 2010.05.17/outbox.cif.g08.bks.cpg/sg12_49_cif.got.tgz:96756.got - 2010.06.03 13:09:07.
