data_PCOD9214008
_publ_section_title
;
Structure prediction by ZEFSAII (Michael W. Deem and Ramdas Pophale) SiO2 
 PCOD9214008
Probable space group: C 2/M
;
_chemical_formula_sum "Si O2"
_cell_formula_units_Z 48
_cell_length_a 9.546626
_cell_length_b 23.270187
_cell_length_c 11.914999
_cell_angle_alpha 90.000000
_cell_angle_beta 74.445414
_cell_angle_gamma 90.000000
_cell_volume 2549.995137
_symmetry_space_group_name_H-M "C 2/M"
_symmetry_group_IT_number 12
_symmetry_cell_setting 'monoclinic'
loop_
_space_group_symop_operation_xyz
x,y,z
-x,y,-z
-x,-y,-z
x,-y,z
1/2+x,1/2+y,z
1/2-x,1/2+y,-z
1/2-x,1/2-y,-z
1/2+x,1/2-y,z
loop_
_atom_site_type_symbol
_atom_site_label
_atom_site_fract_x
_atom_site_fract_y
_atom_site_fract_z
Si Si1 0.435505 0.857363 0.738142
Si Si2 0.738940 0.352122 0.244419
Si Si3 0.651403 0.933130 0.410793
Si Si4 0.023526 0.934078 0.627041
Si Si5 0.838480 0.308076 0.992572
Si Si6 0.854206 0.252714 0.587383
O O1 0.607256 0.864152 0.726377
O O2 0.376772 0.918788 0.712063
O O3 0.357914 0.836866 0.867673
O O4 0.394524 0.812009 0.645942
O O5 0.607244 0.395839 0.296144
O O6 0.697639 0.290329 0.305032
O O7 0.768571 0.346557 0.105601
O O8 0.500000 0.912161 0.500000
O O9 0.812562 0.908816 0.398572
O O10 0.661476 0.000000 0.438132
O O11 0.000000 0.937627 0.500000
O O12 0.020290 0.000000 0.673183
O O13 0.750000 0.250000 0.000000
O O14 0.000000 0.293631 0.000000
O O15 0.750000 0.250000 0.500000
O O16 0.000000 0.229666 0.500000
#
# Coordination Sequence:
#
# PCOD9214008 Si02
#       6
#     8   8   8   8   8   8
#     4  11  23  39  59  85 121 159 202 244 294 356
#     4  11  23  39  60  86 120 159 201 246 295 352
#     4  10  22  39  62  90 121 155 193 243 302 359
#     4  10  22  39  61  90 120 155 197 244 301 357
#     4  10  22  40  59  83 116 162 206 243 290 347
#     4  12  24  35  55  89 122 154 192 243 302 359
#
# _framework density 18.823564999999999
#
# number of rings (size 3 to 8) (size 9 to 14) (size 15 to 20)
#    0.000    1.333    3.333    2.000    4.667    3.333 
#    0.000    0.833    0.000    5.000    0.000    0.000 
#    0.000    0.000    0.000    0.000    0.000    0.000 
#
# Total GULP energy -133676.857831 kJ/mol
# GULP energy per Si atom -5569.869076 kJ/mol
# Density = 1.878072 g / cm^3
# Si number density = 18.823565 Si / 1000 Ang^3
#
#
#
# Elastic Constant Matrix: (Units=GPa)
#
#
# Indices 1 2 3 4 5 6 
#
# 1 151.3958 43.5959 65.0811 0.0000 -15.3379 0.0000
# 2 43.5959 40.0318 23.4447 0.0000 -8.2353 0.0000
# 3 65.0811 23.4447 103.9718 0.0000 -4.8839 0.0000
# 4 0.0000 0.0000 0.0000 17.9099 0.0000 -3.5644
# 5 -15.3379 -8.2353 -4.8839 0.0000 29.2296 0.0000
# 6 0.0000 0.0000 0.0000 -3.5644 0.0000 23.2108
#
#
#
# Elastic Compliance Matrix: (Units=1/GPa)
#
#
# Indices 1 2 3 4 5 6 
#
# 1 0.011747 -0.009223 -0.005147 0.000000 0.002706 0.000000
# 2 -0.009223 0.037552 -0.002444 0.000000 0.005332 0.000000
# 3 -0.005147 -0.002444 0.013336 0.000000 -0.001161 0.000000
# 4 0.000000 0.000000 0.000000 0.057595 0.000000 0.008845
# 5 0.002706 0.005332 -0.001161 0.000000 0.036940 0.000000
# 6 0.000000 0.000000 0.000000 0.008845 0.000000 0.044442
#
#
# Mechanical properties :
#
#
# Convention : Reuss Voigt Hill
#
# Bulk Modulus (GPa) = 34.47224 62.18254 48.32739
# Shear Modulus (GPa) = 20.41569 24.95525 22.68547
#
# Velocity S-wave (km/s) = 3.29687 3.64503 3.47531
# Velocity P-wave (km/s) = 5.73111 7.12889 6.46787
#
# Compressibility (1/GPa) = 0.02900885
#
# Stress axis : x y z
#
# Youngs Moduli (GPa) = 85.12465 26.62950 74.98412
#
# Poissons Ratio (x) = 0.24559 0.38591
# Poissons Ratio (y) = 0.78507 0.18329
# Poissons Ratio (z) = 0.43810 0.06509
#
# Static dielectric constant tensor:
#      x y z
#    x 1.763090 0.000000 0.037300 
#    y 0.000000 1.833850 0.000000 
#    z 0.037300 0.000000 1.678030 
# 
# From -- ./inp_files/121888.got.cif
#   From: 2010.05.17/outbox.cif.g08.bks.cpg/sg12_61_cif.got.tgz:121888.got - 2010.06.03 13:09:07.
