data_PCOD9214270
_publ_section_title
;
Structure prediction by ZEFSAII (Michael W. Deem and Ramdas Pophale) SiO2 
 PCOD9214270
Probable space group: C 2/M
;
_chemical_formula_sum "Si O2"
_cell_formula_units_Z 40
_cell_length_a 11.012433
_cell_length_b 20.431776
_cell_length_c 17.421442
_cell_angle_alpha 90.000000
_cell_angle_beta 154.762915
_cell_angle_gamma 90.000000
_cell_volume 1671.301864
_symmetry_space_group_name_H-M "C 2/M"
_symmetry_group_IT_number 12
_symmetry_cell_setting 'monoclinic'
loop_
_space_group_symop_operation_xyz
x,y,z
-x,y,-z
-x,-y,-z
x,-y,z
1/2+x,1/2+y,z
1/2-x,1/2+y,-z
1/2-x,1/2-y,-z
1/2+x,1/2-y,z
loop_
_atom_site_type_symbol
_atom_site_label
_atom_site_fract_x
_atom_site_fract_y
_atom_site_fract_z
Si Si1 0.199303 0.500000 0.688061
Si Si2 0.581169 0.254699 0.325315
Si Si3 0.023874 0.630879 0.820886
Si Si4 0.000000 0.802435 0.000000
Si Si5 0.059957 0.110018 0.822758
Si Si6 0.693685 0.000000 0.385655
Si Si7 0.680568 0.500000 0.778296
O O1 0.395431 0.563571 0.789035
O O2 0.000000 0.500000 0.500000
O O3 0.012585 0.500000 0.657345
O O4 0.750000 0.250000 0.500000
O O5 0.647427 0.194635 0.305023
O O6 0.588591 0.321785 0.282401
O O7 0.257563 0.243978 0.170491
O O8 0.334387 0.651752 0.964402
O O9 0.895734 0.565927 0.710680
O O10 0.116419 0.620532 0.961478
O O11 0.057612 0.066102 0.745371
O O12 0.022218 0.000000 0.604216
O O13 0.000000 0.500000 0.000000
#
# Coordination Sequence:
#
# PCOD9214270 Si02
#       7
#     4   8   8   4   8   4   4
#     4  11  23  36  67 105 128 162 211 278 330 384
#     4  10  22  41  61  89 130 175 221 255 328 396
#     4  10  22  39  66  92 130 167 219 273 330 387
#     4   8  22  37  62  95 122 180 204 264 338 371
#     4  11  22  41  62  95 133 166 216 276 323 392
#     4  12  21  44  68 102 130 169 221 271 348 398
#     4  11  26  41  66  89 125 179 214 269 328 395
#
# _framework density 23.933437999999999
#
# number of rings (size 3 to 8) (size 9 to 14) (size 15 to 20)
#    1.200    0.400    2.000    4.200    1.400    1.200 
#    0.000    2.000    0.000    0.000    0.000    0.000 
#    0.000    0.000    0.000    0.000    0.000    0.000 
#
# Total GULP energy -111504.189029 kJ/mol
# GULP energy per Si atom -5575.209451 kJ/mol
# Density = 2.387896 g / cm^3
# Si number density = 23.933438 Si / 1000 Ang^3
#
#
#
# Elastic Constant Matrix: (Units=GPa)
#
#
# Indices 1 2 3 4 5 6 
#
# 1 57.5749 40.1423 15.3018 0.1644 5.0843 -0.1029
# 2 40.1423 231.8880 68.9847 1.1067 -26.1183 -0.7177
# 3 15.3018 68.9847 165.3316 2.0348 -20.9587 -1.2572
# 4 0.1644 1.1067 2.0348-2190.9509 0.1767 1396.6295
# 5 5.0843 -26.1183 -20.9587 0.1767 47.6528 -0.0960
# 6 -0.1029 -0.7177 -1.2572 1396.6295 -0.0960 -899.0774
#
#
#
# Elastic Compliance Matrix: (Units=1/GPa)
#
#
# Indices 1 2 3 4 5 6 
#
# 1 0.020708 -0.003845 -0.000910 -0.000004 -0.004717 -0.000003
# 2 -0.003845 0.005806 -0.001706 -0.000006 0.002842 -0.000011
# 3 -0.000910 -0.001706 0.007136 0.000031 0.002300 0.000039
# 4 -0.000004 -0.000006 0.000031 -0.046679 0.000038 -0.072512
# 5 -0.004717 0.002842 0.002300 0.000038 0.024058 0.000051
# 6 -0.000003 -0.000011 0.000039 -0.072512 0.000051 -0.113752
#
#
# Mechanical properties :
#
#
# Convention : Reuss Voigt Hill
#
# Bulk Modulus (GPa) = 48.24716 78.18357 63.21537
# Shear Modulus (GPa) = -60.32037 -586.45073 -323.38555
#
# Velocity S-wave (km/s) = -5.02574 -15.67055 -11.63667
# Velocity P-wave (km/s) = 3.67080 17.16634 12.41286
#
# Compressibility (1/GPa) = 0.02072661
#
# Stress axis : x y z
#
# Youngs Moduli (GPa) = 48.29000 172.24119 140.13078
#
# Poissons Ratio (x) = 0.66234 0.12753
# Poissons Ratio (y) = 0.18569 0.23911
# Poissons Ratio (z) = 0.04395 0.29390
#
# Static dielectric constant tensor:
#      x y z
#    x 2.172420 0.000210 -0.074720 
#    y 0.000210 1.738830 -0.000290 
#    z -0.074720 -0.000290 1.998540 
# 
# From -- ./inp_files/312223.got.cif
#   From: 2010.05.17/outbox.cif.g08.bks.cpg/sg12_157_cif.got.tgz:312223.got - 2010.06.03 13:09:07.
