data_PCOD9214409
_publ_section_title
;
Structure prediction by ZEFSAII (Michael W. Deem and Ramdas Pophale) SiO2 
 PCOD9214409
Probable space group: C 2/M
;
_chemical_formula_sum "Si O2"
_cell_formula_units_Z 56
_cell_length_a 16.323518
_cell_length_b 8.708527
_cell_length_c 23.298370
_cell_angle_alpha 90.000000
_cell_angle_beta 122.047446
_cell_angle_gamma 90.000000
_cell_volume 2807.240074
_symmetry_space_group_name_H-M "C 2/M"
_symmetry_group_IT_number 12
_symmetry_cell_setting 'monoclinic'
loop_
_space_group_symop_operation_xyz
x,y,z
-x,y,-z
-x,-y,-z
x,-y,z
1/2+x,1/2+y,z
1/2-x,1/2+y,-z
1/2-x,1/2-y,-z
1/2+x,1/2-y,z
loop_
_atom_site_type_symbol
_atom_site_label
_atom_site_fract_x
_atom_site_fract_y
_atom_site_fract_z
Si Si1 0.218177 0.685693 0.838062
Si Si2 0.332808 0.179693 0.570867
Si Si3 0.797161 0.180591 0.288362
Si Si4 0.376968 0.680540 0.709922
Si Si5 0.458580 0.817452 0.155344
Si Si6 0.492954 0.679627 0.429467
Si Si7 0.443181 0.685167 0.922017
O O1 0.214245 0.500000 0.830457
O O2 0.176468 0.764207 0.765381
O O3 0.330600 0.732533 0.883654
O O4 0.150313 0.727034 0.866747
O O5 0.250000 0.250000 0.500000
O O6 0.340002 0.261311 0.634885
O O7 0.433201 0.212044 0.576029
O O8 0.315017 0.000000 0.572801
O O9 0.706454 0.279113 0.275594
O O10 0.885962 0.202116 0.364906
O O11 0.771691 0.000000 0.278681
O O12 0.395792 0.500000 0.715432
O O13 0.472095 0.768022 0.766483
O O14 0.502612 0.743258 0.114586
O O15 0.462162 0.000000 0.149967
O O16 0.500000 0.705181 0.500000
O O17 0.519342 0.500000 0.428370
O O18 0.443934 0.500000 0.920592
O O19 0.500000 0.735950 0.000000
#
# Coordination Sequence:
#
# PCOD9214409 Si02
#       7
#     8   8   8   8   8   8   8
#     4  10  22  40  62  91 129 170 211 264 321 381
#     4  12  25  41  61  87 121 161 209 262 318 378
#     4  11  22  37  62  93 123 161 209 261 316 378
#     4  12  24  40  63  90 124 165 209 261 321 378
#     4  11  23  40  64  96 130 167 216 266 320 380
#     4  10  22  40  60  85 120 160 205 257 315 379
#     4  10  22  42  66  93 129 174 218 264 323 387
#
# _framework density 19.948419000000001
#
# number of rings (size 3 to 8) (size 9 to 14) (size 15 to 20)
#    0.000    1.143    1.429    5.143    0.000    6.857 
#    0.000    0.000    0.000    0.000    0.000    0.000 
#    0.000    0.000    0.000    0.000    0.000    0.000 
#
# Total GULP energy -156594.202453 kJ/mol
# GULP energy per Si atom -5592.650088 kJ/mol
# Density = 1.990302 g / cm^3
# Si number density = 19.948419 Si / 1000 Ang^3
#
#
#
# Elastic Constant Matrix: (Units=GPa)
#
#
# Indices 1 2 3 4 5 6 
#
# 1 115.3327 15.6219 41.3812 0.0000 -4.4289 0.0000
# 2 15.6219 21.2651 8.2865 0.0000 1.3245 0.0000
# 3 41.3812 8.2865 113.2696 0.0000 -3.9144 0.0000
# 4 0.0000 0.0000 0.0000 24.5246 0.0000 -6.0698
# 5 -4.4289 1.3245 -3.9144 0.0000 20.6657 0.0000
# 6 0.0000 0.0000 0.0000 -6.0698 0.0000 39.4895
#
#
#
# Elastic Compliance Matrix: (Units=1/GPa)
#
#
# Indices 1 2 3 4 5 6 
#
# 1 0.010898 -0.006810 -0.003410 0.000000 0.002126 0.000000
# 2 -0.006810 0.052958 -0.001564 0.000000 -0.005150 0.000000
# 3 -0.003410 -0.001564 0.010234 0.000000 0.001308 0.000000
# 4 0.000000 0.000000 0.000000 0.042388 0.000000 0.006515
# 5 0.002126 -0.005150 0.001308 0.000000 0.049423 0.000000
# 6 0.000000 0.000000 0.000000 0.006515 0.000000 0.026325
#
#
# Mechanical properties :
#
#
# Convention : Reuss Voigt Hill
#
# Bulk Modulus (GPa) = 19.79318 42.27186 31.03252
# Shear Modulus (GPa) = 21.49295 29.24114 25.36704
#
# Velocity S-wave (km/s) = 3.28598 3.83278 3.56986
# Velocity P-wave (km/s) = 4.93362 6.38933 5.70807
#
# Compressibility (1/GPa) = 0.05052244
#
# Stress axis : x y z
#
# Youngs Moduli (GPa) = 91.75986 18.88272 97.71501
#
# Poissons Ratio (x) = 0.12859 0.33318
# Poissons Ratio (y) = 0.62486 0.15287
# Poissons Ratio (z) = 0.31288 0.02954
#
# Static dielectric constant tensor:
#      x y z
#    x 1.713880 0.000000 0.006170 
#    y 0.000000 1.610430 0.000000 
#    z 0.006170 0.000000 1.704260 
# 
# From -- ./inp_files/339082.got.cif
#   From: 2010.05.17/outbox.cif.g08.bks.cpg/sg12_170_cif.got.tgz:339082.got - 2010.06.03 13:09:07.
