data_PCOD9214135
_publ_section_title
;
Structure prediction by ZEFSAII (Michael W. Deem and Ramdas Pophale) SiO2 
 PCOD9214135
Probable space group: C 2/M
;
_chemical_formula_sum "Si O2"
_cell_formula_units_Z 64
_cell_length_a 15.190667
_cell_length_b 29.115329
_cell_length_c 9.492456
_cell_angle_alpha 90.000000
_cell_angle_beta 132.077485
_cell_angle_gamma 90.000000
_cell_volume 3116.169309
_symmetry_space_group_name_H-M "C 2/M"
_symmetry_group_IT_number 12
_symmetry_cell_setting 'monoclinic'
loop_
_space_group_symop_operation_xyz
x,y,z
-x,y,-z
-x,-y,-z
x,-y,z
1/2+x,1/2+y,z
1/2-x,1/2+y,-z
1/2-x,1/2-y,-z
1/2+x,1/2-y,z
loop_
_atom_site_type_symbol
_atom_site_label
_atom_site_fract_x
_atom_site_fract_y
_atom_site_fract_z
Si Si1 0.864566 0.781763 0.615676
Si Si2 0.501208 0.874685 0.671372
Si Si3 0.365783 0.612249 0.303770
Si Si4 0.285156 0.945115 0.072475
Si Si5 0.370389 0.554401 0.819157
Si Si6 0.919095 0.721922 0.115543
Si Si7 0.236298 0.879408 0.501878
Si Si8 0.671236 0.287693 0.743532
O O1 0.750000 0.750000 0.500000
O O2 0.825522 0.832520 0.620049
O O3 0.888067 0.785090 0.472726
O O4 0.972964 0.755852 0.805246
O O5 0.500000 0.868711 0.500000
O O6 0.539968 0.828031 0.790781
O O7 0.369926 0.883278 0.590480
O O8 0.594201 0.915482 0.805209
O O9 0.500000 0.602847 0.500000
O O10 0.307994 0.574282 0.142003
O O11 0.281778 0.619235 0.350157
O O12 0.362336 0.662670 0.227184
O O13 0.303953 0.000000 0.077435
O O14 0.224108 0.936297 0.158736
O O15 0.376840 0.500000 0.808383
O O16 0.332868 0.578071 0.636378
O O17 0.500000 0.571657 0.000000
O O18 0.864838 0.746171 0.195742
O O19 0.814381 0.715828 0.890491
#
# Coordination Sequence:
#
# PCOD9214135 Si02
#       8
#     8   8   8   8   8   8   8   8
#     4  11  22  39  56  91 130 160 213 265 316 384
#     4  12  23  42  68  94 137 175 223 277 331 399
#     4  11  23  44  69  95 136 173 221 278 336 400
#     4  11  25  44  69 101 134 175 227 281 341 402
#     4  10  22  43  68  98 134 170 222 282 336 395
#     4  11  22  40  65  90 126 175 215 267 326 392
#     4  11  24  41  67  98 130 179 220 272 334 401
#     4  10  22  39  63  88 123 171 212 262 327 386
#
# _framework density 20.538036999999999
#
# number of rings (size 3 to 8) (size 9 to 14) (size 15 to 20)
#    0.000    1.125    3.750    3.375    0.000    2.500 
#    2.250    0.625    0.000    0.000    0.000    0.000 
#    0.000    0.000    0.000    0.000    0.000    0.000 
#
# Total GULP energy -178812.634811 kJ/mol
# GULP energy per Si atom -5587.894838 kJ/mol
# Density = 2.049129 g / cm^3
# Si number density = 20.538037 Si / 1000 Ang^3
#
#
#
# Elastic Constant Matrix: (Units=GPa)
#
#
# Indices 1 2 3 4 5 6 
#
# 1 62.8492 20.7215 9.7889 0.0000 17.1563 0.0000
# 2 20.7215 71.9049 27.2277 0.0000 6.3447 0.0000
# 3 9.7889 27.2277 82.9554 0.0000 22.3424 0.0000
# 4 0.0000 0.0000 0.0000 37.7355 0.0000 7.7686
# 5 17.1563 6.3447 22.3424 0.0000 35.4424 0.0000
# 6 0.0000 0.0000 0.0000 7.7686 0.0000 26.7947
#
#
#
# Elastic Compliance Matrix: (Units=1/GPa)
#
#
# Indices 1 2 3 4 5 6 
#
# 1 0.020250 -0.005790 0.002255 0.000000 -0.010187 0.000000
# 2 -0.005790 0.017545 -0.006004 0.000000 0.003447 0.000000
# 3 0.002255 -0.006004 0.016578 0.000000 -0.010467 0.000000
# 4 0.000000 0.000000 0.000000 0.028182 0.000000 -0.008171
# 5 -0.010187 0.003447 -0.010467 0.000000 0.039127 0.000000
# 6 0.000000 0.000000 0.000000 -0.008171 0.000000 0.039690
#
#
# Mechanical properties :
#
#
# Convention : Reuss Voigt Hill
#
# Bulk Modulus (GPa) = 28.33317 37.02064 32.67690
# Shear Modulus (GPa) = 26.01230 30.65928 28.33579
#
# Velocity S-wave (km/s) = 3.56271 3.86787 3.71843
# Velocity P-wave (km/s) = 5.54521 6.16537 5.86349
#
# Compressibility (1/GPa) = 0.03529432
#
# Stress axis : x y z
#
# Youngs Moduli (GPa) = 49.38318 56.99563 60.31965
#
# Poissons Ratio (x) = 0.33003 -0.13600
# Poissons Ratio (y) = 0.28595 0.36214
# Poissons Ratio (z) = -0.11134 0.34219
#
# Static dielectric constant tensor:
#      x y z
#    x 1.798440 0.000000 0.025460 
#    y 0.000000 1.704350 0.000000 
#    z 0.025460 0.000000 1.736980 
# 
# From -- ./inp_files/68654.got.cif
#   From: 2010.05.17/outbox.cif.g08.bks.cpg/sg12_35_cif.got.tgz:68654.got - 2010.06.03 13:09:07.
