data_PCOD9214896
_publ_section_title
;
Structure prediction by ZEFSAII (Michael W. Deem and Ramdas Pophale) SiO2 
 PCOD9214896
Probable space group: C 2/M
;
_chemical_formula_sum "Si O2"
_cell_formula_units_Z 48
_cell_length_a 29.455251
_cell_length_b 8.755125
_cell_length_c 9.706012
_cell_angle_alpha 90.000000
_cell_angle_beta 81.635297
_cell_angle_gamma 90.000000
_cell_volume 2476.402249
_symmetry_space_group_name_H-M "C 2/M"
_symmetry_group_IT_number 12
_symmetry_cell_setting 'monoclinic'
loop_
_space_group_symop_operation_xyz
x,y,z
-x,y,-z
-x,-y,-z
x,-y,z
1/2+x,1/2+y,z
1/2-x,1/2+y,-z
1/2-x,1/2-y,-z
1/2+x,1/2-y,z
loop_
_atom_site_type_symbol
_atom_site_label
_atom_site_fract_x
_atom_site_fract_y
_atom_site_fract_z
Si Si1 0.545110 0.816751 0.068686
Si Si2 0.781443 0.320367 0.603747
Si Si3 0.038542 0.180130 0.377659
Si Si4 0.771668 0.318806 0.126979
Si Si5 0.373260 0.321807 0.467085
Si Si6 0.627774 0.317506 0.852266
O O1 0.541248 0.758760 0.227747
O O2 0.547731 0.000000 0.068082
O O3 0.500000 0.771235 0.000000
O O4 0.590011 0.751408 0.971882
O O5 0.773241 0.500000 0.625492
O O6 0.750000 0.250000 0.500000
O O7 0.765438 0.228339 0.743131
O O8 0.833088 0.286432 0.537153
O O9 0.085058 0.191038 0.445209
O O10 0.000000 0.240983 0.500000
O O11 0.028720 0.000000 0.357132
O O12 0.776768 0.500000 0.115798
O O13 0.821379 0.247896 0.141417
O O14 0.750000 0.250000 0.000000
O O15 0.357584 0.500000 0.474619
O O16 0.384956 0.285588 0.302536
O O17 0.628870 0.500000 0.869468
#
# Coordination Sequence:
#
# PCOD9214896 Si02
#       6
#     8   8   8   8   8   8
#     4  11  25  43  64  93 131 171 212 262 320 384
#     4  12  24  41  65  94 129 173 220 266 320 380
#     4  10  22  42  68  97 126 163 211 264 318 382
#     4  12  26  44  66  94 131 172 218 268 323 386
#     4  10  22  40  65  95 128 164 213 267 322 383
#     4  11  23  42  68  95 127 169 215 265 323 382
#
# _framework density 19.382957000000001
#
# number of rings (size 3 to 8) (size 9 to 14) (size 15 to 20)
#    0.000    1.000    1.667    5.000    2.333    4.333 
#    0.000    0.000    0.000    0.000    0.000    0.000 
#    0.000    0.000    0.000    0.000    0.000    0.000 
#
# Total GULP energy -134163.353712 kJ/mol
# GULP energy per Si atom -5590.139738 kJ/mol
# Density = 1.933884 g / cm^3
# Si number density = 19.382957 Si / 1000 Ang^3
#
#
#
# Elastic Constant Matrix: (Units=GPa)
#
#
# Indices 1 2 3 4 5 6 
#
# 1 58.6622 40.9626 42.5929 0.0000 -12.7500 0.0000
# 2 40.9626 91.6014 55.6756 0.0000 0.1451 0.0000
# 3 42.5929 55.6756 180.6460 0.0000 -3.6142 0.0000
# 4 0.0000 0.0000 0.0000 28.1724 0.0000 1.0802
# 5 -12.7500 0.1451 -3.6142 0.0000 36.2285 0.0000
# 6 0.0000 0.0000 0.0000 1.0802 0.0000 29.6429
#
#
#
# Elastic Compliance Matrix: (Units=1/GPa)
#
#
# Indices 1 2 3 4 5 6 
#
# 1 0.029431 -0.011175 -0.003293 0.000000 0.010074 0.000000
# 2 -0.011175 0.017685 -0.002901 0.000000 -0.004293 0.000000
# 3 -0.003293 -0.002901 0.007198 0.000000 -0.000429 0.000000
# 4 0.000000 0.000000 0.000000 0.035545 0.000000 -0.001295
# 5 0.010074 -0.004293 -0.000429 0.000000 0.031122 0.000000
# 6 0.000000 0.000000 0.000000 -0.001295 0.000000 0.033782
#
#
# Mechanical properties :
#
#
# Convention : Reuss Voigt Hill
#
# Bulk Modulus (GPa) = 51.09038 67.70797 59.39917
# Shear Modulus (GPa) = 25.50659 31.58732 28.54696
#
# Velocity S-wave (km/s) = 3.63151 4.04126 3.84185
# Velocity P-wave (km/s) = 6.63321 7.53547 7.09869
#
# Compressibility (1/GPa) = 0.01957316
#
# Stress axis : x y z
#
# Youngs Moduli (GPa) = 33.97782 56.54666 138.93009
#
# Poissons Ratio (x) = 0.63192 0.45756
# Poissons Ratio (y) = 0.37971 0.40309
# Poissons Ratio (z) = 0.11191 0.16407
#
# Static dielectric constant tensor:
#      x y z
#    x 1.659870 0.000000 -0.013410 
#    y 0.000000 1.655470 0.000000 
#    z -0.013410 0.000000 1.571580 
# 
# From -- ./inp_files/108736.got.cif
#   From: 2010.05.17/outbox.cif.g08.bks.cpg/sg12_55_cif.got.tgz:108736.got - 2010.06.03 13:09:07.
