data_PCOD9214660
_publ_section_title
;
Structure prediction by ZEFSAII (Michael W. Deem and Ramdas Pophale) SiO2 
 PCOD9214660
Probable space group: C 2/M
;
_chemical_formula_sum "Si O2"
_cell_formula_units_Z 42
_cell_length_a 7.936492
_cell_length_b 30.152087
_cell_length_c 8.766910
_cell_angle_alpha 90.000000
_cell_angle_beta 84.081114
_cell_angle_gamma 90.000000
_cell_volume 2086.752964
_symmetry_space_group_name_H-M "C 2/M"
_symmetry_group_IT_number 12
_symmetry_cell_setting 'monoclinic'
loop_
_space_group_symop_operation_xyz
x,y,z
-x,y,-z
-x,-y,-z
x,-y,z
1/2+x,1/2+y,z
1/2-x,1/2+y,-z
1/2-x,1/2-y,-z
1/2+x,1/2-y,z
loop_
_atom_site_type_symbol
_atom_site_label
_atom_site_fract_x
_atom_site_fract_y
_atom_site_fract_z
Si Si1 0.244172 0.069706 0.593962
Si Si2 0.500000 0.000000 0.500000
Si Si3 0.884466 0.949934 0.737022
Si Si4 0.895522 0.663322 0.649489
Si Si5 0.800818 0.201551 0.053815
Si Si6 0.637905 0.122026 0.879569
O O1 0.405303 0.039142 0.609971
O O2 0.184853 0.053904 0.430876
O O3 0.288833 0.121392 0.596272
O O4 0.084350 0.059389 0.715007
O O5 0.786553 0.911760 0.832485
O O6 0.850953 0.000000 0.792024
O O7 0.771855 0.692944 0.767606
O O8 0.000000 0.685166 0.500000
O O9 0.038679 0.640929 0.743222
O O10 0.750000 0.250000 0.000000
O O11 0.707317 0.164259 0.963745
O O12 0.000000 0.196314 0.000000
O O13 0.500000 0.099035 0.000000
#
# Coordination Sequence:
#
# PCOD9214660 Si02
#       6
#     8   2   8   8   8   8
#     4  11  20  32  57  89 125 164 209 265 311 360
#     4  12  16  30  48  84 122 162 206 248 322 348
#     4  11  20  35  55  89 131 171 216 259 315 375
#     4  11  21  39  67  99 125 166 217 266 312 378
#     4  11  24  47  71  93 126 171 205 261 337 395
#     4  10  22  40  63  89 129 168 210 261 324 383
#
# _framework density 20.126963
#
# number of rings (size 3 to 8) (size 9 to 14) (size 15 to 20)
#    0.000    1.143    4.762    3.429    0.000    0.381 
#    0.000    3.810    2.095    5.143    0.000    0.000 
#    0.000    0.000    0.000    0.000    0.000    0.000 
#
# Total GULP energy -116975.476849 kJ/mol
# GULP energy per Si atom -5570.260802 kJ/mol
# Density = 2.008115 g / cm^3
# Si number density = 20.126963 Si / 1000 Ang^3
#
#
#
# Elastic Constant Matrix: (Units=GPa)
#
#
# Indices 1 2 3 4 5 6 
#
# 1 86.3871 23.7481 34.4472 0.0000 -35.9356 0.0000
# 2 23.7481 115.4880 43.8738 0.0000 -34.1820 0.0000
# 3 34.4472 43.8738 106.8787 0.0000 -40.0894 0.0000
# 4 0.0000 0.0000 0.0000 31.5659 0.0000 -8.8994
# 5 -35.9356 -34.1820 -40.0894 0.0000 39.0312 0.0000
# 6 0.0000 0.0000 0.0000 -8.8994 0.0000 18.5173
#
#
#
# Elastic Compliance Matrix: (Units=1/GPa)
#
#
# Indices 1 2 3 4 5 6 
#
# 1 0.019025 0.001667 0.000491 0.000000 0.019480 0.000000
# 2 0.001667 0.011997 -0.001538 0.000000 0.010462 0.000000
# 3 0.000491 -0.001538 0.015444 0.000000 0.014967 0.000000
# 4 0.000000 0.000000 0.000000 0.036645 0.000000 0.017612
# 5 0.019480 0.010462 0.014967 0.000000 0.068091 0.000000
# 6 0.000000 0.000000 0.000000 0.017612 0.000000 0.062468
#
#
# Mechanical properties :
#
#
# Convention : Reuss Voigt Hill
#
# Bulk Modulus (GPa) = 20.96188 56.98799 38.97493
# Shear Modulus (GPa) = 21.89799 31.60186 26.74992
#
# Velocity S-wave (km/s) = 3.30205 3.96678 3.64958
# Velocity P-wave (km/s) = 4.99755 7.02540 6.09638
#
# Compressibility (1/GPa) = 0.04770565
#
# Stress axis : x y z
#
# Youngs Moduli (GPa) = 52.56136 83.35594 64.75121
#
# Poissons Ratio (x) = -0.13897 -0.03177
# Poissons Ratio (y) = -0.08763 0.09958
# Poissons Ratio (z) = -0.02579 0.12820
#
# Static dielectric constant tensor:
#      x y z
#    x 1.790170 0.000000 -0.002140 
#    y 0.000000 1.673230 0.000000 
#    z -0.002140 0.000000 1.791740 
# 
# From -- ./inp_files/41521.got.cif
#   From: 2010.05.17/outbox.cif.g08.bks.cpg/sg12_21_cif.got.tgz:41521.got - 2010.06.03 13:09:07.
