data_PCOD9214067
_publ_section_title
;
Structure prediction by ZEFSAII (Michael W. Deem and Ramdas Pophale) SiO2 
 PCOD9214067
Probable space group: C 2/M
;
_chemical_formula_sum "Si O2"
_cell_formula_units_Z 56
_cell_length_a 9.211295
_cell_length_b 14.856189
_cell_length_c 21.008902
_cell_angle_alpha 90.000000
_cell_angle_beta 95.748012
_cell_angle_gamma 90.000000
_cell_volume 2860.502415
_symmetry_space_group_name_H-M "C 2/M"
_symmetry_group_IT_number 12
_symmetry_cell_setting 'monoclinic'
loop_
_space_group_symop_operation_xyz
x,y,z
-x,y,-z
-x,-y,-z
x,-y,z
1/2+x,1/2+y,z
1/2-x,1/2+y,-z
1/2-x,1/2-y,-z
1/2+x,1/2-y,z
loop_
_atom_site_type_symbol
_atom_site_label
_atom_site_fract_x
_atom_site_fract_y
_atom_site_fract_z
Si Si1 0.921596 0.268414 0.335689
Si Si2 0.346549 0.744769 0.758041
Si Si3 0.906850 0.395350 0.092948
Si Si4 0.406872 0.607929 0.431885
Si Si5 0.769410 0.395525 0.954157
Si Si6 0.932314 0.598312 0.566171
Si Si7 0.888342 0.788826 0.156944
O O1 0.766372 0.292868 0.298595
O O2 0.931978 0.169262 0.369643
O O3 0.033075 0.286373 0.282972
O O4 0.968391 0.333044 0.393028
O O5 0.240903 0.805513 0.797608
O O6 0.451771 0.686864 0.809068
O O7 0.888026 0.500000 0.111264
O O8 0.889074 0.318723 0.144556
O O9 0.070875 0.386572 0.071716
O O10 0.796633 0.375333 0.029546
O O11 0.500000 0.631318 0.500000
O O12 0.428644 0.500000 0.421243
O O13 0.237304 0.624137 0.441763
O O14 0.727292 0.500000 0.947310
O O15 0.655329 0.335936 0.910577
O O16 0.939070 0.500000 0.597642
O O17 0.000000 0.592441 0.500000
#
# Coordination Sequence:
#
# PCOD9214067 Si02
#       7
#     8   8   8   8   8   8   8
#     4  11  21  42  58  84 113 157 186 238 272 333
#     4  10  24  36  58  80 116 152 202 224 270 334
#     4   9  18  34  59  87 112 145 188 231 285 348
#     4  10  22  39  62  89 115 145 185 232 287 342
#     4   9  18  34  59  87 112 145 188 231 285 348
#     4  10  22  39  62  89 115 145 185 232 287 342
#     4  11  19  40  56  84 113 153 184 242 278 325
#
# _framework density 19.576979000000001
#
# number of rings (size 3 to 8) (size 9 to 14) (size 15 to 20)
#    0.000    2.000    2.857    1.714    2.000    1.143 
#    0.000    9.286    0.000    1.714    0.000    0.000 
#    0.000    0.000    0.000    0.000    0.000    0.000 
#
# Total GULP energy -155906.789788 kJ/mol
# GULP energy per Si atom -5568.099635 kJ/mol
# Density = 1.953242 g / cm^3
# Si number density = 19.576979 Si / 1000 Ang^3
#
#
#
# Elastic Constant Matrix: (Units=GPa)
#
#
# Indices 1 2 3 4 5 6 
#
# 1 76.3813 21.0413 33.9330 0.0000 23.3523 0.0000
# 2 21.0413 60.7491 57.8527 0.0000 17.2882 0.0000
# 3 33.9330 57.8527 105.9562 0.0000 32.3476 0.0000
# 4 0.0000 0.0000 0.0000 -24.1264 0.0000 -3.0688
# 5 23.3523 17.2882 32.3476 0.0000 47.6679 0.0000
# 6 0.0000 0.0000 0.0000 -3.0688 0.0000 4.8781
#
#
#
# Elastic Compliance Matrix: (Units=1/GPa)
#
#
# Indices 1 2 3 4 5 6 
#
# 1 0.016445 -0.001490 -0.002722 0.000000 -0.005669 0.000000
# 2 -0.001490 0.034432 -0.018583 0.000000 0.000853 0.000000
# 3 -0.002722 -0.018583 0.022693 0.000000 -0.007326 0.000000
# 4 0.000000 0.000000 0.000000 -0.038377 0.000000 -0.024143
# 5 -0.005669 0.000853 -0.007326 0.000000 0.028418 0.000000
# 6 0.000000 0.000000 0.000000 -0.024143 0.000000 0.189809
#
#
# Mechanical properties :
#
#
# Convention : Reuss Voigt Hill
#
# Bulk Modulus (GPa) = 35.74205 52.08229 43.91217
# Shear Modulus (GPa) = 16.21608 14.36789 15.29199
#
# Velocity S-wave (km/s) = 2.88118 2.71203 2.79789
# Velocity P-wave (km/s) = 5.41896 6.03891 5.73731
#
# Compressibility (1/GPa) = 0.02797825
#
# Stress axis : x y z
#
# Youngs Moduli (GPa) = 60.80786 29.04315 44.06710
#
# Poissons Ratio (x) = 0.04328 0.11997
# Poissons Ratio (y) = 0.09062 0.81890
# Poissons Ratio (z) = 0.16555 0.53971
#
# Static dielectric constant tensor:
#      x y z
#    x 1.708950 0.000000 0.042570 
#    y 0.000000 1.688280 0.000000 
#    z 0.042570 0.000000 1.786270 
# 
# From -- ./inp_files/332665.got.cif
#   From: 2010.05.17/outbox.cif.g08.bks.cpg/sg12_167_cif.got.tgz:332665.got - 2010.06.03 13:09:07.
