data_PCOD9214013
_publ_section_title
;
Structure prediction by ZEFSAII (Michael W. Deem and Ramdas Pophale) SiO2 
 PCOD9214013
Probable space group: C 2/M
;
_chemical_formula_sum "Si O2"
_cell_formula_units_Z 48
_cell_length_a 20.528715
_cell_length_b 14.939681
_cell_length_c 17.537459
_cell_angle_alpha 90.000000
_cell_angle_beta 155.708444
_cell_angle_gamma 90.000000
_cell_volume 2212.651262
_symmetry_space_group_name_H-M "C 2/M"
_symmetry_group_IT_number 12
_symmetry_cell_setting 'monoclinic'
loop_
_space_group_symop_operation_xyz
x,y,z
-x,y,-z
-x,-y,-z
x,-y,z
1/2+x,1/2+y,z
1/2-x,1/2+y,-z
1/2-x,1/2-y,-z
1/2+x,1/2-y,z
loop_
_atom_site_type_symbol
_atom_site_label
_atom_site_fract_x
_atom_site_fract_y
_atom_site_fract_z
Si Si1 0.696707 0.500000 0.136075
Si Si2 0.169069 0.101321 0.676856
Si Si3 0.166032 0.152167 0.399605
Si Si4 0.859596 0.602022 0.743108
Si Si5 0.179930 0.650542 0.013072
Si Si6 0.212886 0.851786 0.033320
Si Si7 0.814531 0.000000 0.701002
O O1 0.748813 0.500000 0.279784
O O2 0.747627 0.413053 0.142610
O O3 0.504752 0.500000 0.919804
O O4 0.299151 0.141472 0.758593
O O5 0.000000 0.147908 0.500000
O O6 0.146220 0.000000 0.621704
O O7 0.229591 0.096453 0.826559
O O8 0.250000 0.250000 0.500000
O O9 0.213950 0.103894 0.529279
O O10 0.224180 0.088541 0.391290
O O11 0.975770 0.152175 0.187292
O O12 0.916829 0.500000 0.815748
O O13 0.001488 0.653492 0.853595
O O14 0.255694 0.749095 0.093549
O O15 0.196629 0.615169 0.945578
#
# Coordination Sequence:
#
# PCOD9214013 Si02
#       7
#     4   8   8   8   8   8   4
#     4   9  20  40  61  86 115 168 209 255 304 369
#     4  10  22  39  61  90 122 158 197 246 313 378
#     4  11  20  38  61  91 118 163 203 260 316 371
#     4  11  22  37  61  91 123 155 202 253 318 380
#     4  11  22  39  58  90 124 160 202 259 306 371
#     4  10  23  38  61  88 121 162 212 250 310 370
#     4   9  20  38  61  88 125 150 217 261 302 383
#
# _framework density 21.693432000000001
#
# number of rings (size 3 to 8) (size 9 to 14) (size 15 to 20)
#    0.000    1.667    2.500    2.000    2.333    2.667 
#    6.000    0.000    0.000    1.000    0.000    0.000 
#    0.000    0.000    0.000    0.000    0.000    0.000 
#
# Total GULP energy -133841.845241 kJ/mol
# GULP energy per Si atom -5576.743552 kJ/mol
# Density = 2.164406 g / cm^3
# Si number density = 21.693432 Si / 1000 Ang^3
#
#
#
# Elastic Constant Matrix: (Units=GPa)
#
#
# Indices 1 2 3 4 5 6 
#
# 1 183.7664 49.2163 25.9607 0.0000 -18.3623 -0.0005
# 2 49.2163 85.6466 12.3484 -0.0006 -18.5724 -0.0006
# 3 25.9607 12.3484 50.1323 -0.0005 -10.1737 -0.0002
# 4 0.0000 -0.0006 -0.0005 -16.9986 -0.0001 21.3355
# 5 -18.3623 -18.5724 -10.1737 -0.0001 37.5809 -0.0002
# 6 -0.0005 -0.0006 -0.0002 21.3355 -0.0002 5.3513
#
#
#
# Elastic Compliance Matrix: (Units=1/GPa)
#
#
# Indices 1 2 3 4 5 6 
#
# 1 0.006783 -0.003322 -0.002492 0.000000 0.000998 0.000000
# 2 -0.003322 0.014901 -0.000831 0.000000 0.005516 0.000001
# 3 -0.002492 -0.000831 0.022339 0.000000 0.004420 0.000000
# 4 0.000000 0.000000 0.000000 -0.009798 0.000000 0.039064
# 5 0.000998 0.005516 0.004420 0.000000 0.031019 0.000001
# 6 0.000000 0.000001 0.000000 0.039064 0.000001 0.031123
#
#
# Mechanical properties :
#
#
# Convention : Reuss Voigt Hill
#
# Bulk Modulus (GPa) = 32.53741 54.95515 43.74628
# Shear Modulus (GPa) = 41.70091 20.65473 31.17782
#
# Velocity S-wave (km/s) = 4.38914 3.08899 3.79516
# Velocity P-wave (km/s) = 6.38102 6.17334 6.27804
#
# Compressibility (1/GPa) = 0.03073386
#
# Stress axis : x y z
#
# Youngs Moduli (GPa) = 147.42327 67.11025 44.76472
#
# Poissons Ratio (x) = 0.22296 0.11154
# Poissons Ratio (y) = 0.48978 0.03718
# Poissons Ratio (z) = 0.36735 0.05574
#
# Static dielectric constant tensor:
#      x y z
#    x 1.835070 0.000000 0.045040 
#    y 0.000000 1.821690 0.000000 
#    z 0.045040 0.000000 1.821360 
# 
# From -- ./inp_files/226962.got.cif
#   From: 2010.05.17/outbox.cif.g08.bks.cpg/sg12_114_cif.got.tgz:226962.got - 2010.06.03 13:09:07.
