data_PCOD9214656
_publ_section_title
;
Structure prediction by ZEFSAII (Michael W. Deem and Ramdas Pophale) SiO2 
 PCOD9214656
Probable space group: C 2/M
;
_chemical_formula_sum "Si O2"
_cell_formula_units_Z 32
_cell_length_a 18.941756
_cell_length_b 16.084822
_cell_length_c 14.156024
_cell_angle_alpha 90.000000
_cell_angle_beta 162.906833
_cell_angle_gamma 90.000000
_cell_volume 1267.699414
_symmetry_space_group_name_H-M "C 2/M"
_symmetry_group_IT_number 12
_symmetry_cell_setting 'monoclinic'
loop_
_space_group_symop_operation_xyz
x,y,z
-x,y,-z
-x,-y,-z
x,-y,z
1/2+x,1/2+y,z
1/2-x,1/2+y,-z
1/2-x,1/2-y,-z
1/2+x,1/2-y,z
loop_
_atom_site_type_symbol
_atom_site_label
_atom_site_fract_x
_atom_site_fract_y
_atom_site_fract_z
Si Si1 0.667380 0.865271 0.791674
Si Si2 0.993108 0.405057 0.216080
Si Si3 0.039191 0.911548 0.411696
Si Si4 0.881005 0.723901 0.935902
O O1 0.500000 0.908197 0.500000
O O2 0.501080 0.862698 0.672907
O O3 0.756696 0.781708 0.854635
O O4 0.910266 0.904687 0.144141
O O5 0.088006 0.500000 0.336030
O O6 0.702584 0.413465 0.833819
O O7 0.058474 0.339286 0.219398
O O8 0.192717 0.834666 0.640768
O O9 0.169718 0.000000 0.584658
O O10 0.000000 0.771665 0.000000
#
# Coordination Sequence:
#
# PCOD9214656 Si02
#       4
#     8   8   8   8
#     4  10  22  40  63  89 121 161 206 250 298 360
#     4   9  20  39  63  87 116 157 206 251 294 353
#     4   9  21  40  65  88 116 159 208 250 294 356
#     4  12  24  36  61  94 129 157 197 252 309 358
#
# _framework density 25.242576
#
# number of rings (size 3 to 8) (size 9 to 14) (size 15 to 20)
#    1.500    0.500    0.000    3.750    3.500    7.000 
#    0.000    0.000    0.000    3.000    0.000    0.000 
#    0.000    0.000    0.000    0.000    0.000    0.000 
#
# Total GULP energy -89168.414224 kJ/mol
# GULP energy per Si atom -5573.025889 kJ/mol
# Density = 2.518512 g / cm^3
# Si number density = 25.242576 Si / 1000 Ang^3
#
#
#
# Elastic Constant Matrix: (Units=GPa)
#
#
# Indices 1 2 3 4 5 6 
#
# 1 163.4611 63.0458 26.6980 0.0000 -35.1104 0.0000
# 2 63.0458 151.9558 21.8924 0.0000 -11.1801 0.0000
# 3 26.6980 21.8924 68.7627 0.0001 -25.0451 -0.0001
# 4 0.0000 0.0000 0.0001 46.4647 0.0000 -31.9919
# 5 -35.1104 -11.1801 -25.0451 0.0000 33.1365 0.0000
# 6 0.0000 0.0000 -0.0001 -31.9919 0.0000 39.8290
#
#
#
# Elastic Compliance Matrix: (Units=1/GPa)
#
#
# Indices 1 2 3 4 5 6 
#
# 1 0.009246 -0.003272 0.000853 0.000000 0.009337 0.000000
# 2 -0.003272 0.008076 -0.002168 0.000000 -0.002381 0.000000
# 3 0.000853 -0.002168 0.020649 0.000000 0.015779 0.000000
# 4 0.000000 0.000000 0.000000 0.048151 0.000000 0.038677
# 5 0.009337 -0.002381 0.015779 0.000000 0.051194 0.000000
# 6 0.000000 0.000000 0.000000 0.038677 0.000000 0.056174
#
#
# Mechanical properties :
#
#
# Convention : Reuss Voigt Hill
#
# Bulk Modulus (GPa) = 34.72664 67.49468 51.11066
# Shear Modulus (GPa) = 23.55575 42.05560 32.80568
#
# Velocity S-wave (km/s) = 3.05811 4.08617 3.60893
# Velocity P-wave (km/s) = 5.12410 7.00420 6.13658
#
# Compressibility (1/GPa) = 0.02879634
#
# Stress axis : x y z
#
# Youngs Moduli (GPa) = 108.15550 123.83069 48.42877
#
# Poissons Ratio (x) = 0.40517 -0.04130
# Poissons Ratio (y) = 0.35388 0.10498
# Poissons Ratio (z) = -0.09223 0.26844
#
# Static dielectric constant tensor:
#      x y z
#    x 2.104280 0.000000 0.016590 
#    y 0.000000 2.020240 0.000000 
#    z 0.016590 0.000000 2.016000 
# 
# From -- ./inp_files/46083.got.cif
#   From: 2010.05.17/outbox.cif.g08.bks.cpg/sg12_24_cif.got.tgz:46083.got - 2010.06.03 13:09:07.
