data_PCOD9214566
_publ_section_title
;
Structure prediction by ZEFSAII (Michael W. Deem and Ramdas Pophale) SiO2 
 PCOD9214566
Probable space group: C 2/M
;
_chemical_formula_sum "Si O2"
_cell_formula_units_Z 42
_cell_length_a 19.444842
_cell_length_b 21.214027
_cell_length_c 14.826109
_cell_angle_alpha 90.000000
_cell_angle_beta 18.803571
_cell_angle_gamma 90.000000
_cell_volume 1971.279952
_symmetry_space_group_name_H-M "C 2/M"
_symmetry_group_IT_number 12
_symmetry_cell_setting 'monoclinic'
loop_
_space_group_symop_operation_xyz
x,y,z
-x,y,-z
-x,-y,-z
x,-y,z
1/2+x,1/2+y,z
1/2-x,1/2+y,-z
1/2-x,1/2-y,-z
1/2+x,1/2-y,z
loop_
_atom_site_type_symbol
_atom_site_label
_atom_site_fract_x
_atom_site_fract_y
_atom_site_fract_z
Si Si1 0.233766 0.245443 0.171701
Si Si2 0.269890 0.573920 0.087621
Si Si3 0.930146 0.167175 0.769770
Si Si4 0.701300 0.888918 0.373912
Si Si5 0.685811 0.253104 0.685232
Si Si6 0.500000 0.500000 0.000000
O O1 0.198768 0.179206 0.162375
O O2 0.429335 0.244715 0.999191
O O3 0.000000 0.263566 0.500000
O O4 0.305921 0.292682 0.001918
O O5 0.288481 0.500000 0.090195
O O6 0.263622 0.611006 0.190057
O O7 0.042061 0.587989 0.324434
O O8 0.438045 0.599286 0.806562
O O9 0.159347 0.198668 0.469393
O O10 0.745304 0.822105 0.364727
O O11 0.844766 0.944470 0.234630
O O12 0.750000 0.250000 0.500000
#
# Coordination Sequence:
#
# PCOD9214566 Si02
#       6
#     8   8   8   8   8   2
#     4  10  22  40  62  88 121 165 210 268 325 376
#     4  11  22  42  60  87 132 176 213 262 322 394
#     4  10  23  39  59  94 124 166 220 265 325 380
#     4  11  23  37  58  89 128 171 220 255 324 392
#     4  10  23  40  59  89 126 168 216 270 313 382
#     4  12  24  34  52  96 124 174 220 250 308 414
#
# _framework density 21.305955000000001
#
# number of rings (size 3 to 8) (size 9 to 14) (size 15 to 20)
#    0.000    1.524    1.905    4.000   10.667    0.762 
#    6.857    0.000    0.000    0.571    0.000    1.333 
#    0.000    0.000    0.000    0.381    0.000    0.000 
#
# Total GULP energy -117065.155246 kJ/mol
# GULP energy per Si atom -5574.531202 kJ/mol
# Density = 2.125746 g / cm^3
# Si number density = 21.305955 Si / 1000 Ang^3
#
#
#
# Elastic Constant Matrix: (Units=GPa)
#
#
# Indices 1 2 3 4 5 6 
#
# 1 109.4632 47.5668 24.3779 0.0442 -18.1588 0.0182
# 2 47.5668 121.0158 46.4378 0.1093 8.1629 -0.0323
# 3 24.3779 46.4378 123.5929 0.0902 -21.7347 -0.0572
# 4 0.0442 0.1093 0.0902 39.6781 -0.0783 6.2907
# 5 -18.1588 8.1629 -21.7347 -0.0783 29.9127 0.0142
# 6 0.0182 -0.0323 -0.0572 6.2907 0.0142 33.4021
#
#
#
# Elastic Compliance Matrix: (Units=1/GPa)
#
#
# Indices 1 2 3 4 5 6 
#
# 1 0.013601 -0.006861 0.001922 0.000025 0.011525 -0.000020
# 2 -0.006861 0.014174 -0.006174 -0.000045 -0.012519 0.000021
# 3 0.001922 -0.006174 0.012076 0.000009 0.011626 0.000007
# 4 0.000025 -0.000045 0.000009 0.025979 0.000105 -0.004893
# 5 0.011525 -0.012519 0.011626 0.000105 0.052292 -0.000040
# 6 -0.000020 0.000021 0.000007 -0.004893 -0.000040 0.030860
#
#
# Mechanical properties :
#
#
# Convention : Reuss Voigt Hill
#
# Bulk Modulus (GPa) = 56.73649 65.64854 61.19251
# Shear Modulus (GPa) = 28.23563 36.31122 32.27343
#
# Velocity S-wave (km/s) = 3.64434 4.13277 3.89622
# Velocity P-wave (km/s) = 6.66300 7.32477 7.00170
#
# Compressibility (1/GPa) = 0.01762534
#
# Stress axis : x y z
#
# Youngs Moduli (GPa) = 73.52510 70.55305 82.80760
#
# Poissons Ratio (x) = 0.48406 -0.15916
# Poissons Ratio (y) = 0.50445 0.51123
# Poissons Ratio (z) = -0.14132 0.43558
#
# Static dielectric constant tensor:
#      x y z
#    x 2.031730 0.000060 0.030600 
#    y 0.000060 1.826810 0.000090 
#    z 0.030600 0.000090 1.889690 
# 
# From -- ./inp_files/160185.got.cif
#   From: 2010.05.17/outbox.cif.g08.bks.cpg/sg12_81_cif.got.tgz:160185.got - 2010.06.03 13:09:07.
