data_PCOD9214699
_publ_section_title
;
Structure prediction by ZEFSAII (Michael W. Deem and Ramdas Pophale) SiO2 
 PCOD9214699
Probable space group: C 2/M
;
_chemical_formula_sum "Si O2"
_cell_formula_units_Z 40
_cell_length_a 27.790098
_cell_length_b 14.017316
_cell_length_c 5.206127
_cell_angle_alpha 90.000000
_cell_angle_beta 122.819202
_cell_angle_gamma 90.000000
_cell_volume 1704.307666
_symmetry_space_group_name_H-M "C 2/M"
_symmetry_group_IT_number 12
_symmetry_cell_setting 'monoclinic'
loop_
_space_group_symop_operation_xyz
x,y,z
-x,y,-z
-x,-y,-z
x,-y,z
1/2+x,1/2+y,z
1/2-x,1/2+y,-z
1/2-x,1/2-y,-z
1/2+x,1/2-y,z
loop_
_atom_site_type_symbol
_atom_site_label
_atom_site_fract_x
_atom_site_fract_y
_atom_site_fract_z
Si Si1 0.037894 0.610478 0.855614
Si Si2 0.339691 0.810311 0.731049
Si Si3 0.034793 0.115536 0.350966
Si Si4 0.273618 0.855570 0.046884
Si Si5 0.843003 0.106307 0.508143
O O1 0.056714 0.500000 0.875224
O O2 0.000000 0.635493 0.500000
O O3 0.093198 0.674233 0.052223
O O4 0.000000 0.615203 0.000000
O O5 0.312334 0.867072 0.410190
O O6 0.330255 0.695621 0.662500
O O7 0.311537 0.855227 0.901824
O O8 0.101833 0.138194 0.501652
O O9 0.000000 0.148409 0.500000
O O10 0.033118 0.000000 0.353254
O O11 0.000000 0.147541 0.000000
O O12 0.250000 0.750000 0.000000
O O13 0.213615 0.906682 0.826178
O O14 0.856166 0.000000 0.661320
#
# Coordination Sequence:
#
# PCOD9214699 Si02
#       5
#     8   8   8   8   8
#     4  10  22  42  69  98 126 161 208 261 318 375
#     4  11  23  42  65  93 129 164 207 262 317 372
#     4   9  19  35  54  79 115 157 202 250 295 350
#     4  10  22  41  61  87 125 168 212 260 309 364
#     4  10  22  40  63  92 128 170 212 254 308 376
#
# _framework density 23.469939
#
# number of rings (size 3 to 8) (size 9 to 14) (size 15 to 20)
#    0.000    2.000    0.000    3.600    0.000    7.200 
#    0.000   16.000    0.000    1.800    0.000    0.000 
#    0.000    0.000    0.000    0.000    0.000    0.000 
#
# Total GULP energy -111748.763027 kJ/mol
# GULP energy per Si atom -5587.438151 kJ/mol
# Density = 2.341652 g / cm^3
# Si number density = 23.469939 Si / 1000 Ang^3
#
#
#
# Elastic Constant Matrix: (Units=GPa)
#
#
# Indices 1 2 3 4 5 6 
#
# 1 127.4778 -3.2295 66.9768 0.0000 -4.0480 0.0000
# 2 -3.2295 87.0406 17.1952 0.0000 13.0978 0.0000
# 3 66.9768 17.1952 165.0145 0.0000 -8.5562 0.0000
# 4 0.0000 0.0000 0.0000 13.9961 0.0000 17.3546
# 5 -4.0480 13.0978 -8.5562 0.0000 49.7983 0.0000
# 6 0.0000 0.0000 0.0000 17.3546 0.0000 18.4198
#
#
#
# Elastic Compliance Matrix: (Units=1/GPa)
#
#
# Indices 1 2 3 4 5 6 
#
# 1 0.010096 0.001248 -0.004240 0.000000 -0.000236 0.000000
# 2 0.001248 0.012457 -0.001987 0.000000 -0.003516 0.000000
# 3 -0.004240 -0.001987 0.008069 0.000000 0.001564 0.000000
# 4 0.000000 0.000000 0.000000 -0.424650 0.000000 0.400092
# 5 -0.000236 -0.003516 0.001564 0.000000 0.021255 0.000000
# 6 0.000000 0.000000 0.000000 0.400092 0.000000 -0.322666
#
#
# Mechanical properties :
#
#
# Convention : Reuss Voigt Hill
#
# Bulk Modulus (GPa) = 48.39341 60.15754 54.27547
# Shear Modulus (GPa) = -7.36821 36.34888 14.49033
#
# Velocity S-wave (km/s) = -1.77376 3.93968 2.48745
# Velocity P-wave (km/s) = 4.05821 6.81044 5.60585
#
# Compressibility (1/GPa) = 0.02066397
#
# Stress axis : x y z
#
# Youngs Moduli (GPa) = 99.04472 80.27726 123.92683
#
# Poissons Ratio (x) = -0.10017 0.52548
# Poissons Ratio (y) = -0.12359 0.24622
# Poissons Ratio (z) = 0.41997 0.15950
#
# Static dielectric constant tensor:
#      x y z
#    x 1.830860 0.000000 -0.005330 
#    y 0.000000 1.965920 0.000000 
#    z -0.005330 0.000000 1.888300 
# 
# From -- ./inp_files/28052.got.cif
#   From: 2010.05.17/outbox.cif.g08.bks.cpg/sg12_15_cif.got.tgz:28052.got - 2010.06.03 13:09:07.
