data_PCOD9214510
_publ_section_title
;
Structure prediction by ZEFSAII (Michael W. Deem and Ramdas Pophale) SiO2 
 PCOD9214510
Probable space group: C 2/M
;
_chemical_formula_sum "Si O2"
_cell_formula_units_Z 50
_cell_length_a 10.054515
_cell_length_b 7.575566
_cell_length_c 29.128790
_cell_angle_alpha 90.000000
_cell_angle_beta 113.426648
_cell_angle_gamma 90.000000
_cell_volume 2035.812494
_symmetry_space_group_name_H-M "C 2/M"
_symmetry_group_IT_number 12
_symmetry_cell_setting 'monoclinic'
loop_
_space_group_symop_operation_xyz
x,y,z
-x,y,-z
-x,-y,-z
x,-y,z
1/2+x,1/2+y,z
1/2-x,1/2+y,-z
1/2-x,1/2-y,-z
1/2+x,1/2-y,z
loop_
_atom_site_type_symbol
_atom_site_label
_atom_site_fract_x
_atom_site_fract_y
_atom_site_fract_z
Si Si1 0.242161 0.706105 0.145500
Si Si2 0.854514 0.712720 0.649180
Si Si3 0.328925 0.205232 0.293572
Si Si4 0.441161 0.704031 0.798967
Si Si5 0.159091 0.790229 0.032443
Si Si6 0.602958 0.209716 0.451467
Si Si7 0.000000 0.000000 0.500000
O O1 0.238037 0.500000 0.156604
O O2 0.398304 0.781769 0.182381
O O3 0.224469 0.720744 0.088701
O O4 0.111446 0.791979 0.155523
O O5 0.849492 0.500000 0.652177
O O6 0.009793 0.778260 0.690565
O O7 0.721448 0.785526 0.660271
O O8 0.862861 0.753692 0.596570
O O9 0.193378 0.285635 0.247437
O O10 0.338755 0.000000 0.281619
O O11 0.452887 0.500000 0.786060
O O12 0.149678 0.000000 0.037375
O O13 0.250000 0.750000 0.000000
O O14 0.000000 0.718245 0.000000
O O15 0.750000 0.250000 0.500000
O O16 0.490839 0.343937 0.458957
O O17 0.569573 0.000000 0.450436
#
# Coordination Sequence:
#
# PCOD9214510 Si02
#       7
#     8   8   8   8   8   8   2
#     4  11  23  38  61  91 121 160 206 250 304 368
#     4  10  24  41  63  94 125 162 210 262 315 383
#     4  10  22  41  64  90 124 163 205 256 314 372
#     4  10  22  40  61  89 124 160 204 255 307 368
#     4  11  24  41  61  88 122 159 202 252 304 362
#     4  11  25  44  67  99 132 173 222 272 328 400
#     4  12  26  44  72  92 132 180 214 276 334 382
#
# _framework density 24.560217000000002
#
# number of rings (size 3 to 8) (size 9 to 14) (size 15 to 20)
#    0.000    1.440    0.800    3.120    3.360    7.680 
#    0.000    0.000    0.000    0.000    0.000    0.000 
#    0.000    0.000    0.000    0.000    0.000    0.000 
#
# Total GULP energy -139660.149510 kJ/mol
# GULP energy per Si atom -5586.405980 kJ/mol
# Density = 2.450432 g / cm^3
# Si number density = 24.560217 Si / 1000 Ang^3
#
#
#
# Elastic Constant Matrix: (Units=GPa)
#
#
# Indices 1 2 3 4 5 6 
#
# 1 104.6703 0.1198 0.9149 0.0000 -0.3334 0.0000
# 2 0.1198 99.1035 9.5956 0.0000 -3.5949 0.0000
# 3 0.9149 9.5956 90.4558 0.0000 -5.8335 0.0000
# 4 0.0000 0.0000 0.0000 24.3989 0.0000 -8.9768
# 5 -0.3334 -3.5949 -5.8335 0.0000 47.8343 0.0000
# 6 0.0000 0.0000 0.0000 -8.9768 0.0000 16.0796
#
#
#
# Elastic Compliance Matrix: (Units=1/GPa)
#
#
# Indices 1 2 3 4 5 6 
#
# 1 0.009555 -0.000001 -0.000093 0.000000 0.000055 0.000000
# 2 -0.000001 0.010215 -0.001042 0.000000 0.000641 0.000000
# 3 -0.000093 -0.001042 0.011250 0.000000 0.001293 0.000000
# 4 0.000000 0.000000 0.000000 0.051580 0.000000 0.028796
# 5 0.000055 0.000641 0.001293 0.000000 0.021112 0.000000
# 6 0.000000 0.000000 0.000000 0.028796 0.000000 0.078267
#
#
# Mechanical properties :
#
#
# Convention : Reuss Voigt Hill
#
# Bulk Modulus (GPa) = 34.78529 35.05446 34.91987
# Shear Modulus (GPa) = 25.79554 36.56919 31.18236
#
# Velocity S-wave (km/s) = 3.24435 3.86289 3.56705
# Velocity P-wave (km/s) = 5.31304 5.84806 5.58696
#
# Compressibility (1/GPa) = 0.02874779
#
# Stress axis : x y z
#
# Youngs Moduli (GPa) = 104.65947 97.89893 88.88878
#
# Poissons Ratio (x) = 0.00005 0.00827
# Poissons Ratio (y) = 0.00006 0.09265
# Poissons Ratio (z) = 0.00974 0.10204
#
# Static dielectric constant tensor:
#      x y z
#    x 1.987440 0.000000 0.090710 
#    y 0.000000 1.918140 0.000000 
#    z 0.090710 0.000000 1.920150 
# 
# From -- ./inp_files/357559.got.cif
#   From: 2010.05.17/outbox.cif.g08.bks.cpg/sg12_179_cif.got.tgz:357559.got - 2010.06.03 13:09:07.
