data_PCOD9214938
_publ_section_title
;
Structure prediction by ZEFSAII (Michael W. Deem and Ramdas Pophale) SiO2 
 PCOD9214938
Probable space group: C 2/M
;
_chemical_formula_sum "Si O2"
_cell_formula_units_Z 38
_cell_length_a 9.937562
_cell_length_b 24.308829
_cell_length_c 10.436201
_cell_angle_alpha 90.000000
_cell_angle_beta 38.215264
_cell_angle_gamma 90.000000
_cell_volume 1559.583704
_symmetry_space_group_name_H-M "C 2/M"
_symmetry_group_IT_number 12
_symmetry_cell_setting 'monoclinic'
loop_
_space_group_symop_operation_xyz
x,y,z
-x,y,-z
-x,-y,-z
x,-y,z
1/2+x,1/2+y,z
1/2-x,1/2+y,-z
1/2-x,1/2-y,-z
1/2+x,1/2-y,z
loop_
_atom_site_type_symbol
_atom_site_label
_atom_site_fract_x
_atom_site_fract_y
_atom_site_fract_z
Si Si1 0.500000 0.500000 0.500000
Si Si2 0.000000 0.835659 0.000000
Si Si3 0.053470 0.500000 0.335997
Si Si4 0.932937 0.614983 0.781456
Si Si5 0.552857 0.500000 0.830520
Si Si6 0.138298 0.906479 0.217903
Si Si7 0.826383 0.189734 0.402259
O O1 0.651087 0.450103 0.322559
O O2 0.209391 0.871981 0.874385
O O3 0.072040 0.804706 0.816887
O O4 0.992541 0.554643 0.307579
O O5 0.827528 0.500000 0.604986
O O6 0.333150 0.500000 0.093480
O O7 0.107338 0.655390 0.590636
O O8 0.858300 0.614118 0.984295
O O9 0.491022 0.445179 0.790951
O O10 0.002208 0.850135 0.341485
O O11 0.750000 0.250000 0.500000
#
# Coordination Sequence:
#
# PCOD9214938 Si02
#       7
#     2   4   4   8   4   8   8
#     4  10  22  48  62  98 142 184 228 276 342 402
#     4  10  22  41  68  94 134 167 208 286 344 398
#     4  12  18  26  56  96 126 151 187 255 327 403
#     4  11  21  39  63  99 129 168 215 266 339 402
#     4  11  17  33  61  96 131 154 192 260 346 393
#     4  10  22  40  66  90 135 179 216 274 329 402
#     4  11  25  44  62  95 129 177 231 278 335 400
#
# _framework density 24.365475
#
# number of rings (size 3 to 8) (size 9 to 14) (size 15 to 20)
#    0.000    1.263    2.105    6.316    1.474    4.211 
#    7.579    1.053    0.000    0.000    0.000    0.000 
#    0.000    0.000    0.000    0.000    0.000    0.000 
#
# Total GULP energy -105770.951511 kJ/mol
# GULP energy per Si atom -5566.892185 kJ/mol
# Density = 2.431002 g / cm^3
# Si number density = 24.365475 Si / 1000 Ang^3
#
#
#
# Elastic Constant Matrix: (Units=GPa)
#
#
# Indices 1 2 3 4 5 6 
#
# 1 60.1038 23.5851 34.3716 0.0000 5.5819 0.0000
# 2 23.5851 211.0617 67.2138 0.0000 11.9147 0.0000
# 3 34.3716 67.2138 199.7471 0.0000 -1.4735 0.0000
# 4 0.0000 0.0000 0.0000 47.8793 0.0000 -3.2308
# 5 5.5819 11.9147 -1.4735 0.0000 24.2944 0.0000
# 6 0.0000 0.0000 0.0000 -3.2308 0.0000 2.5746
#
#
#
# Elastic Compliance Matrix: (Units=1/GPa)
#
#
# Indices 1 2 3 4 5 6 
#
# 1 0.019106 -0.000948 -0.002999 0.000000 -0.004107 0.000000
# 2 -0.000948 0.005538 -0.001720 0.000000 -0.002603 0.000000
# 3 -0.002999 -0.001720 0.006115 0.000000 0.001903 0.000000
# 4 0.000000 0.000000 0.000000 0.022818 0.000000 0.028633
# 5 -0.004107 -0.002603 0.001903 0.000000 0.043497 0.000000
# 6 0.000000 0.000000 0.000000 0.028633 0.000000 0.424334
#
#
# Mechanical properties :
#
#
# Convention : Reuss Voigt Hill
#
# Bulk Modulus (GPa) = 51.47677 80.13929 65.80803
# Shear Modulus (GPa) = 9.27269 37.99912 23.63591
#
# Velocity S-wave (km/s) = 1.95293 3.95340 3.11795
# Velocity P-wave (km/s) = 5.12426 7.33492 6.32689
#
# Compressibility (1/GPa) = 0.01942624
#
# Stress axis : x y z
#
# Youngs Moduli (GPa) = 52.33848 180.55493 163.52967
#
# Poissons Ratio (x) = 0.17120 0.49042
# Poissons Ratio (y) = 0.04963 0.28122
# Poissons Ratio (z) = 0.15696 0.31050
#
# Static dielectric constant tensor:
#      x y z
#    x 2.106360 0.000000 0.022750 
#    y 0.000000 1.214700 0.000000 
#    z 0.022750 0.000000 1.998530 
# 
# From -- ./inp_files/137161.got.cif
#   From: 2010.05.17/outbox.cif.g08.bks.cpg/sg12_69_cif.got.tgz:137161.got - 2010.06.03 13:09:07.
