data_PCOD9214557
_publ_section_title
;
Structure prediction by ZEFSAII (Michael W. Deem and Ramdas Pophale) SiO2 
 PCOD9214557
Probable space group: C 2/M
;
_chemical_formula_sum "Si O2"
_cell_formula_units_Z 58
_cell_length_a 12.011806
_cell_length_b 22.499394
_cell_length_c 20.498567
_cell_angle_alpha 90.000000
_cell_angle_beta 147.283043
_cell_angle_gamma 90.000000
_cell_volume 2994.261803
_symmetry_space_group_name_H-M "C 2/M"
_symmetry_group_IT_number 12
_symmetry_cell_setting 'monoclinic'
loop_
_space_group_symop_operation_xyz
x,y,z
-x,y,-z
-x,-y,-z
x,-y,z
1/2+x,1/2+y,z
1/2-x,1/2+y,-z
1/2-x,1/2-y,-z
1/2+x,1/2-y,z
loop_
_atom_site_type_symbol
_atom_site_label
_atom_site_fract_x
_atom_site_fract_y
_atom_site_fract_z
Si Si1 0.494327 0.906567 0.117029
Si Si2 0.953745 0.069002 0.050993
Si Si3 0.867949 0.667753 0.592424
Si Si4 0.244261 0.069261 0.630892
Si Si5 0.929068 0.799270 0.665532
Si Si6 0.500000 0.000000 0.000000
Si Si7 0.911901 0.719547 0.886294
Si Si8 0.679213 0.332223 0.243357
O O1 0.681870 0.914404 0.260024
O O2 0.474576 0.838274 0.085346
O O3 0.287458 0.925215 0.052727
O O4 0.518028 0.948199 0.066014
O O5 0.075003 0.109907 0.161255
O O6 0.014404 0.000000 0.087104
O O7 0.000000 0.088641 0.000000
O O8 0.856445 0.612991 0.635852
O O9 0.860306 0.730032 0.627917
O O10 0.680390 0.668669 0.449061
O O11 0.080140 0.667949 0.656696
O O12 0.000000 0.077156 0.500000
O O13 0.294345 0.000000 0.643995
O O14 0.859352 0.827141 0.699073
O O15 0.174149 0.799345 0.778908
O O16 0.917659 0.774379 0.839583
O O17 0.000000 0.737187 0.000000
#
# Coordination Sequence:
#
# PCOD9214557 Si02
#       8
#     8   8   8   8   8   2   8   8
#     4  12  23  42  65  90 130 165 206 253 311 382
#     4  11  24  42  62  88 121 168 208 246 307 376
#     4  10  22  41  62  87 119 164 207 248 307 374
#     4  11  23  40  63  92 119 160 210 261 310 355
#     4  10  22  40  62  87 122 162 204 253 311 376
#     4  12  24  40  64  96 124 178 200 244 316 392
#     4  11  23  37  60  93 124 157 200 263 318 364
#     4  11  23  38  61  91 121 158 207 259 310 365
#
# _framework density 19.370384000000001
#
# number of rings (size 3 to 8) (size 9 to 14) (size 15 to 20)
#    0.000    1.103    2.069    4.138    0.000    8.276 
#    0.000    0.690    0.000    1.655    0.000    0.000 
#    0.000    0.000    0.000    0.000    0.000    0.000 
#
# Total GULP energy -161955.066306 kJ/mol
# GULP energy per Si atom -5584.657459 kJ/mol
# Density = 1.932630 g / cm^3
# Si number density = 19.370384 Si / 1000 Ang^3
#
#
#
# Elastic Constant Matrix: (Units=GPa)
#
#
# Indices 1 2 3 4 5 6 
#
# 1 71.3501 23.4739 36.1941 0.0020 -28.6258 -0.0098
# 2 23.4739 62.8142 5.0428 -0.0013 -16.5233 -0.0088
# 3 36.1941 5.0428 103.9154 0.0005 -16.1150 -0.0235
# 4 0.0020 -0.0013 0.0005 17.9101 0.0012 -8.4493
# 5 -28.6258 -16.5233 -16.1150 0.0012 29.6479 -0.0022
# 6 -0.0098 -0.0088 -0.0235 -8.4493 -0.0022 449.9901
#
#
#
# Elastic Compliance Matrix: (Units=1/GPa)
#
#
# Indices 1 2 3 4 5 6 
#
# 1 0.026368 -0.004132 -0.005889 -0.000004 0.019956 0.000000
# 2 -0.004132 0.019359 0.001697 0.000002 0.007722 0.000000
# 3 -0.005889 0.001697 0.011856 0.000001 0.001704 0.000001
# 4 -0.000004 0.000002 0.000001 0.056334 -0.000005 0.001058
# 5 0.019956 0.007722 0.001704 -0.000005 0.058227 0.000001
# 6 0.000000 0.000000 0.000001 0.001058 0.000001 0.002242
#
#
# Mechanical properties :
#
#
# Convention : Reuss Voigt Hill
#
# Bulk Modulus (GPa) = 24.42803 40.83349 32.63076
# Shear Modulus (GPa) = 24.42846 111.06753 67.74799
#
# Velocity S-wave (km/s) = 3.55508 7.58046 5.92039
# Velocity P-wave (km/s) = 5.43046 9.88655 7.97602
#
# Compressibility (1/GPa) = 0.04093658
#
# Stress axis : x y z
#
# Youngs Moduli (GPa) = 37.92424 51.65516 84.34315
#
# Poissons Ratio (x) = 0.21343 0.49670
# Poissons Ratio (y) = 0.15670 -0.14315
# Poissons Ratio (z) = 0.22334 -0.08767
#
# Static dielectric constant tensor:
#      x y z
#    x 1.659840 0.000000 0.031050 
#    y 0.000000 1.665030 0.000000 
#    z 0.031050 0.000000 1.668970 
# 
# From -- ./inp_files/265274.got.cif
#   From: 2010.05.17/outbox.cif.g08.bks.cpg/sg12_133_cif.got.tgz:265274.got - 2010.06.03 13:09:07.
