data_PCOD9214129
_publ_section_title
;
Structure prediction by ZEFSAII (Michael W. Deem and Ramdas Pophale) SiO2 
 PCOD9214129
Probable space group: C 2/M
;
_chemical_formula_sum "Si O2"
_cell_formula_units_Z 48
_cell_length_a 9.669258
_cell_length_b 28.328164
_cell_length_c 9.528709
_cell_angle_alpha 90.000000
_cell_angle_beta 79.842688
_cell_angle_gamma 90.000000
_cell_volume 2569.124544
_symmetry_space_group_name_H-M "C 2/M"
_symmetry_group_IT_number 12
_symmetry_cell_setting 'monoclinic'
loop_
_space_group_symop_operation_xyz
x,y,z
-x,y,-z
-x,-y,-z
x,-y,z
1/2+x,1/2+y,z
1/2-x,1/2+y,-z
1/2-x,1/2-y,-z
1/2+x,1/2-y,z
loop_
_atom_site_type_symbol
_atom_site_label
_atom_site_fract_x
_atom_site_fract_y
_atom_site_fract_z
Si Si1 0.857258 0.236619 0.107886
Si Si2 0.340842 0.000000 0.102955
Si Si3 0.402442 0.898448 0.653947
Si Si4 0.868305 0.867225 0.203817
Si Si5 0.318016 0.598904 0.896312
Si Si6 0.983481 0.500000 0.670895
Si Si7 0.575307 0.836661 0.834977
O O1 0.841758 0.189107 0.199983
O O2 0.877090 0.283063 0.198726
O O3 0.750000 0.250000 0.000000
O O4 0.000000 0.226723 0.000000
O O5 0.246405 0.953807 0.090669
O O6 0.376023 0.000000 0.262752
O O7 0.500000 0.000000 0.000000
O O8 0.500000 0.898662 0.500000
O O9 0.239513 0.887100 0.662486
O O10 0.469579 0.859641 0.744415
O O11 0.409474 0.950726 0.719782
O O12 0.025734 0.888072 0.188037
O O13 0.820180 0.884321 0.057484
O O14 0.209267 0.630073 0.827522
O O15 0.000000 0.500000 0.500000
O O16 0.500000 0.835824 0.000000
#
# Coordination Sequence:
#
# PCOD9214129 Si02
#       7
#     8   4   8   8   8   4   8
#     4  11  18  32  58  88 118 154 196 244 291 352
#     4  12  22  36  63  95 120 152 197 247 303 366
#     4  11  23  40  61  84 115 156 202 245 293 356
#     4  11  21  37  54  90 126 151 190 248 306 347
#     4  11  21  34  58  89 124 148 190 252 303 346
#     4  10  22  39  63  81 109 152 206 238 278 346
#     4  11  19  35  62  90 112 156 204 241 289 354
#
# _framework density 18.683406000000002
#
# number of rings (size 3 to 8) (size 9 to 14) (size 15 to 20)
#    0.000    1.000    6.667    2.500    0.000    2.000 
#    0.000    1.667    0.000    2.000    0.000    0.000 
#    0.000    0.000    0.000    0.000    0.000    0.000 
#
# Total GULP energy -133733.953616 kJ/mol
# GULP energy per Si atom -5572.248067 kJ/mol
# Density = 1.864088 g / cm^3
# Si number density = 18.683406 Si / 1000 Ang^3
#
#
#
# Elastic Constant Matrix: (Units=GPa)
#
#
# Indices 1 2 3 4 5 6 
#
# 1 132.9059 49.8808 19.5843 0.0000 -17.6251 0.0000
# 2 49.8808 188.5840 14.4854 0.0000 -3.7693 0.0000
# 3 19.5843 14.4854 37.1487 0.0000 -7.0775 0.0000
# 4 0.0000 0.0000 0.0000 12.1224 0.0000 8.8341
# 5 -17.6251 -3.7693 -7.0775 0.0000 28.6834 0.0000
# 6 0.0000 0.0000 0.0000 8.8341 0.0000 13.2273
#
#
#
# Elastic Compliance Matrix: (Units=1/GPa)
#
#
# Indices 1 2 3 4 5 6 
#
# 1 0.009434 -0.002153 -0.003236 0.000000 0.004716 0.000000
# 2 -0.002153 0.005959 -0.001355 0.000000 -0.000874 0.000000
# 3 -0.003236 -0.001355 0.030158 0.000000 0.005275 0.000000
# 4 0.000000 0.000000 0.000000 0.160707 0.000000 -0.107330
# 5 0.004716 -0.000874 0.005275 0.000000 0.038948 0.000000
# 6 0.000000 0.000000 0.000000 -0.107330 0.000000 0.147283
#
#
# Mechanical properties :
#
#
# Convention : Reuss Voigt Hill
#
# Bulk Modulus (GPa) = 31.18771 58.50438 44.84604
# Shear Modulus (GPa) = 12.00009 29.11919 20.55964
#
# Velocity S-wave (km/s) = 2.53709 3.95214 3.32086
# Velocity P-wave (km/s) = 5.03104 7.22547 6.22570
#
# Compressibility (1/GPa) = 0.03206391
#
# Stress axis : x y z
#
# Youngs Moduli (GPa) = 105.99768 167.82318 33.15855
#
# Poissons Ratio (x) = 0.36125 0.10729
# Poissons Ratio (y) = 0.22817 0.04494
# Poissons Ratio (z) = 0.34299 0.22743
#
# Static dielectric constant tensor:
#      x y z
#    x 1.685880 0.000000 -0.016850 
#    y 0.000000 1.733700 0.000000 
#    z -0.016850 0.000000 1.645380 
# 
# From -- ./inp_files/42255.got.cif
#   From: 2010.05.17/outbox.cif.g08.bks.cpg/sg12_22_cif.got.tgz:42255.got - 2010.06.03 13:09:07.
