data_PCOD9214161
_publ_section_title
;
Structure prediction by ZEFSAII (Michael W. Deem and Ramdas Pophale) SiO2 
 PCOD9214161
Probable space group: C 2/M
;
_chemical_formula_sum "Si O2"
_cell_formula_units_Z 50
_cell_length_a 29.424309
_cell_length_b 7.711022
_cell_length_c 12.462836
_cell_angle_alpha 90.000000
_cell_angle_beta 52.192999
_cell_angle_gamma 90.000000
_cell_volume 2234.118611
_symmetry_space_group_name_H-M "C 2/M"
_symmetry_group_IT_number 12
_symmetry_cell_setting 'monoclinic'
loop_
_space_group_symop_operation_xyz
x,y,z
-x,y,-z
-x,-y,-z
x,-y,z
1/2+x,1/2+y,z
1/2-x,1/2+y,-z
1/2-x,1/2-y,-z
1/2+x,1/2-y,z
loop_
_atom_site_type_symbol
_atom_site_label
_atom_site_fract_x
_atom_site_fract_y
_atom_site_fract_z
Si Si1 0.188373 0.207974 0.141806
Si Si2 0.848995 0.201616 0.170122
Si Si3 0.966466 0.296238 0.406637
Si Si4 0.585997 0.200919 0.132652
Si Si5 0.130399 0.210660 0.622932
Si Si6 0.500000 0.500000 0.500000
Si Si7 0.780740 0.203236 0.672984
O O1 0.137407 0.280942 0.143266
O O2 0.191442 0.278171 0.258939
O O3 0.181869 0.000000 0.151171
O O4 0.250000 0.250000 0.000000
O O5 0.870801 0.272051 0.252534
O O6 0.787690 0.279678 0.226260
O O7 0.836558 0.000000 0.204481
O O8 0.893445 0.218900 0.008738
O O9 0.969997 0.500000 0.433654
O O10 0.027202 0.230297 0.268341
O O11 0.957242 0.156193 0.513622
O O12 0.919498 0.279369 0.381575
O O13 0.575370 0.000000 0.126192
O O14 0.189725 0.266508 0.478771
O O15 0.125624 0.000000 0.631134
O O16 0.793724 0.000000 0.658105
#
# Coordination Sequence:
#
# PCOD9214161 Si02
#       7
#     8   8   8   8   8   2   8
#     4  11  22  36  61  93 129 169 214 268 337 404
#     4  11  23  39  66  96 131 178 229 281 342 403
#     4  11  27  46  72 106 135 183 229 273 344 405
#     4  11  25  43  64  96 135 174 226 279 333 406
#     4  10  23  44  66  96 135 179 229 284 340 405
#     4  12  26  48  76  92 152 168 222 288 330 394
#     4  10  22  39  63  93 131 176 219 278 351 402
#
# _framework density 22.380191
#
# number of rings (size 3 to 8) (size 9 to 14) (size 15 to 20)
#    0.000    1.280    2.400    2.160    4.480    3.200 
#    0.000    3.200    0.000    0.000    0.000    0.000 
#    0.000    0.000    0.000    0.000    0.000    0.000 
#
# Total GULP energy -139536.541918 kJ/mol
# GULP energy per Si atom -5581.461677 kJ/mol
# Density = 2.232925 g / cm^3
# Si number density = 22.380191 Si / 1000 Ang^3
#
#
#
# Elastic Constant Matrix: (Units=GPa)
#
#
# Indices 1 2 3 4 5 6 
#
# 1 59.9739 -0.5926 26.3076 0.0000 19.4293 0.0000
# 2 -0.5926 71.4196 12.3124 0.0000 12.8890 0.0000
# 3 26.3076 12.3124 92.2187 0.0000 13.7179 0.0000
# 4 0.0000 0.0000 0.0000 7.2596 0.0000 3.9994
# 5 19.4293 12.8890 13.7179 0.0000 47.2952 0.0000
# 6 0.0000 0.0000 0.0000 3.9994 0.0000 20.7263
#
#
#
# Elastic Compliance Matrix: (Units=1/GPa)
#
#
# Indices 1 2 3 4 5 6 
#
# 1 0.021636 0.002547 -0.005316 0.000000 -0.008040 0.000000
# 2 0.002547 0.015209 -0.002074 0.000000 -0.004589 0.000000
# 3 -0.005316 -0.002074 0.012780 0.000000 -0.000957 0.000000
# 4 0.000000 0.000000 0.000000 0.154133 0.000000 -0.029742
# 5 -0.008040 -0.004589 -0.000957 0.000000 0.025975 0.000000
# 6 0.000000 0.000000 0.000000 -0.029742 0.000000 0.053987
#
#
# Mechanical properties :
#
#
# Convention : Reuss Voigt Hill
#
# Bulk Modulus (GPa) = 25.03937 33.29632 29.16785
# Shear Modulus (GPa) = 16.30156 27.42854 21.86505
#
# Velocity S-wave (km/s) = 2.70180 3.50461 3.12906
# Velocity P-wave (km/s) = 4.57662 5.59342 5.11037
#
# Compressibility (1/GPa) = 0.03993711
#
# Stress axis : x y z
#
# Youngs Moduli (GPa) = 46.21964 65.75157 78.24878
#
# Poissons Ratio (x) = -0.16747 0.41598
# Poissons Ratio (y) = -0.11772 0.16233
# Poissons Ratio (z) = 0.24571 0.13640
#
# Static dielectric constant tensor:
#      x y z
#    x 1.797450 0.000000 -0.001300 
#    y 0.000000 1.831000 0.000000 
#    z -0.001300 0.000000 1.875000 
# 
# From -- ./inp_files/180543.got.cif
#   From: 2010.05.17/outbox.cif.g08.bks.cpg/sg12_91_cif.got.tgz:180543.got - 2010.06.03 13:09:07.
