data_PCOD9214530
_publ_section_title
;
Structure prediction by ZEFSAII (Michael W. Deem and Ramdas Pophale) SiO2 
 PCOD9214530
Probable space group: C 2/M
;
_chemical_formula_sum "Si O2"
_cell_formula_units_Z 56
_cell_length_a 25.680244
_cell_length_b 8.805529
_cell_length_c 14.882261
_cell_angle_alpha 90.000000
_cell_angle_beta 58.506053
_cell_angle_gamma 90.000000
_cell_volume 2869.573899
_symmetry_space_group_name_H-M "C 2/M"
_symmetry_group_IT_number 12
_symmetry_cell_setting 'monoclinic'
loop_
_space_group_symop_operation_xyz
x,y,z
-x,y,-z
-x,-y,-z
x,-y,z
1/2+x,1/2+y,z
1/2-x,1/2+y,-z
1/2-x,1/2-y,-z
1/2+x,1/2-y,z
loop_
_atom_site_type_symbol
_atom_site_label
_atom_site_fract_x
_atom_site_fract_y
_atom_site_fract_z
Si Si1 0.609317 0.818426 0.782907
Si Si2 0.732177 0.681274 0.920442
Si Si3 0.503290 0.682322 0.768248
Si Si4 0.907534 0.180855 0.009903
Si Si5 0.674518 0.317622 0.306453
Si Si6 0.255079 0.817357 0.396815
Si Si7 0.043440 0.681725 0.376724
O O1 0.568230 0.745062 0.742367
O O2 0.585626 0.762632 0.900985
O O3 0.680135 0.772632 0.706131
O O4 0.605413 0.000000 0.781516
O O5 0.742317 0.500000 0.910330
O O6 0.661031 0.708757 0.963498
O O7 0.774220 0.761253 0.808875
O O8 0.750000 0.750000 0.000000
O O9 0.504476 0.500000 0.762166
O O10 0.482218 0.748288 0.692167
O O11 0.455159 0.726904 0.889975
O O12 0.914895 0.000000 0.018244
O O13 0.669962 0.500000 0.306806
O O14 0.699350 0.271772 0.382346
O O15 0.610410 0.245362 0.337699
O O16 0.250000 0.750000 0.500000
O O17 0.254797 0.000000 0.402568
O O18 0.045856 0.500000 0.365634
O O19 0.000000 0.720093 0.500000
#
# Coordination Sequence:
#
# PCOD9214530 Si02
#       7
#     8   8   8   8   8   8   8
#     4  11  23  41  64  95 130 167 209 259 315 376
#     4  11  22  37  62  93 127 169 212 262 320 376
#     4  11  24  42  65  94 129 169 213 261 312 376
#     4  10  22  40  61  91 127 165 210 258 311 374
#     4  11  23  43  66  94 128 165 212 262 316 381
#     4  10  24  42  64  94 127 165 211 261 316 376
#     4  11  26  46  67  94 126 165 213 265 319 378
#
# _framework density 19.515094000000001
#
# number of rings (size 3 to 8) (size 9 to 14) (size 15 to 20)
#    0.000    1.286    1.429    3.429    2.000    8.000 
#    0.000    0.000    0.000    0.000    0.000    0.000 
#    0.000    0.000    0.000    0.000    0.000    0.000 
#
# Total GULP energy -156625.019305 kJ/mol
# GULP energy per Si atom -5593.750689 kJ/mol
# Density = 1.947068 g / cm^3
# Si number density = 19.515094 Si / 1000 Ang^3
#
#
#
# Elastic Constant Matrix: (Units=GPa)
#
#
# Indices 1 2 3 4 5 6 
#
# 1 142.1589 43.6420 38.7906 0.0000 25.8979 0.0000
# 2 43.6420 38.3113 29.0706 0.0000 7.8437 0.0001
# 3 38.7906 29.0706 77.8943 0.0000 25.7962 0.0000
# 4 0.0000 0.0000 0.0000 35.0751 0.0000 7.6742
# 5 25.8979 7.8437 25.7962 0.0000 39.9981 0.0000
# 6 0.0000 0.0001 0.0000 7.6742 0.0000 33.2324
#
#
#
# Elastic Compliance Matrix: (Units=1/GPa)
#
#
# Indices 1 2 3 4 5 6 
#
# 1 0.011801 -0.012898 0.000801 0.000000 -0.005628 0.000000
# 2 -0.012898 0.050646 -0.015202 0.000000 0.008224 0.000000
# 3 0.000801 -0.015202 0.021995 0.000000 -0.011723 0.000000
# 4 0.000000 0.000000 0.000000 0.030027 0.000000 -0.006934
# 5 -0.005628 0.008224 -0.011723 0.000000 0.034593 0.000000
# 6 0.000000 0.000000 0.000000 -0.006934 0.000000 0.031692
#
#
# Mechanical properties :
#
#
# Convention : Reuss Voigt Hill
#
# Bulk Modulus (GPa) = 33.50825 53.48566 43.49696
# Shear Modulus (GPa) = 20.38321 31.45187 25.91754
#
# Velocity S-wave (km/s) = 3.23535 4.01892 3.64823
# Velocity P-wave (km/s) = 5.58251 7.00017 6.33115
#
# Compressibility (1/GPa) = 0.02984339
#
# Stress axis : x y z
#
# Youngs Moduli (GPa) = 84.73993 19.74486 45.46570
#
# Poissons Ratio (x) = 0.25467 -0.03641
# Poissons Ratio (y) = 1.09299 0.69115
# Poissons Ratio (z) = -0.06786 0.30015
#
# Static dielectric constant tensor:
#      x y z
#    x 1.664710 0.000000 -0.010440 
#    y 0.000000 1.650730 0.000000 
#    z -0.010440 0.000000 1.645520 
# 
# From -- ./inp_files/238246.got.cif
#   From: 2010.05.17/outbox.cif.g08.bks.cpg/sg12_120_cif.got.tgz:238246.got - 2010.06.03 13:09:07.
