data_PCOD9214120
_publ_section_title
;
Structure prediction by ZEFSAII (Michael W. Deem and Ramdas Pophale) SiO2 
 PCOD9214120
Probable space group: C 2/M
;
_chemical_formula_sum "Si O2"
_cell_formula_units_Z 32
_cell_length_a 13.918692
_cell_length_b 18.593868
_cell_length_c 5.777157
_cell_angle_alpha 90.000000
_cell_angle_beta 78.388260
_cell_angle_gamma 90.000000
_cell_volume 1464.542118
_symmetry_space_group_name_H-M "C 2/M"
_symmetry_group_IT_number 12
_symmetry_cell_setting 'monoclinic'
loop_
_space_group_symop_operation_xyz
x,y,z
-x,y,-z
-x,-y,-z
x,-y,z
1/2+x,1/2+y,z
1/2-x,1/2+y,-z
1/2-x,1/2-y,-z
1/2+x,1/2-y,z
loop_
_atom_site_type_symbol
_atom_site_label
_atom_site_fract_x
_atom_site_fract_y
_atom_site_fract_z
Si Si1 0.536906 0.415228 0.232799
Si Si2 0.258207 0.311236 0.302415
Si Si3 0.251337 0.582601 0.679140
Si Si4 0.114546 0.697222 0.987736
O O1 0.500000 0.383105 0.500000
O O2 0.507473 0.500000 0.253132
O O3 0.654757 0.412069 0.198501
O O4 0.500000 0.388155 0.000000
O O5 0.250000 0.250000 0.500000
O O6 0.283896 0.385162 0.415529
O O7 0.337474 0.274466 0.096823
O O8 0.154069 0.317878 0.225699
O O9 0.221913 0.500000 0.675853
O O10 0.166066 0.634370 0.812883
O O11 0.000000 0.697975 0.000000
#
# Coordination Sequence:
#
# PCOD9214120 Si02
#       4
#     8   8   8   8
#     4   9  19  36  57  88 132 176 212 257 326 397
#     4   9  21  43  62  89 120 169 216 258 320 385
#     4  10  22  39  62  95 130 164 211 270 329 393
#     4  10  22  43  65  89 125 166 215 266 326 392
#
# _framework density 21.849830999999998
#
# number of rings (size 3 to 8) (size 9 to 14) (size 15 to 20)
#    0.000    2.500    0.000    0.000    3.500    5.500 
#   13.500    1.250    0.000    0.750    0.000    0.000 
#    0.000    0.000    0.000    0.000    0.000    0.000 
#
# Total GULP energy -89313.386722 kJ/mol
# GULP energy per Si atom -5582.086670 kJ/mol
# Density = 2.180010 g / cm^3
# Si number density = 21.849831 Si / 1000 Ang^3
#
#
#
# Elastic Constant Matrix: (Units=GPa)
#
#
# Indices 1 2 3 4 5 6 
#
# 1 150.6013 31.8155 46.0832 0.0000 30.4785 0.0000
# 2 31.8155 129.2578 33.0895 0.0000 7.6136 0.0000
# 3 46.0832 33.0895 116.0174 0.0000 34.4729 0.0000
# 4 0.0000 0.0000 0.0000 31.5229 0.0000 0.0603
# 5 30.4785 7.6136 34.4729 0.0000 35.1451 0.0000
# 6 0.0000 0.0000 0.0000 0.0603 0.0000 23.9698
#
#
#
# Elastic Compliance Matrix: (Units=1/GPa)
#
#
# Indices 1 2 3 4 5 6 
#
# 1 0.008505 -0.001434 -0.001228 0.000000 -0.005860 0.000000
# 2 -0.001434 0.008601 -0.002399 0.000000 0.001733 0.000000
# 3 -0.001228 -0.002399 0.013154 0.000000 -0.011318 0.000000
# 4 0.000000 0.000000 0.000000 0.031723 0.000000 -0.000080
# 5 -0.005860 0.001733 -0.011318 0.000000 0.044262 0.000000
# 6 0.000000 0.000000 0.000000 -0.000080 0.000000 0.041719
#
#
# Mechanical properties :
#
#
# Convention : Reuss Voigt Hill
#
# Bulk Modulus (GPa) = 49.65273 68.65033 59.15153
# Shear Modulus (GPa) = 30.34006 37.12013 33.73009
#
# Velocity S-wave (km/s) = 3.73040 4.12621 3.93329
# Velocity P-wave (km/s) = 6.42871 7.36126 6.91074
#
# Compressibility (1/GPa) = 0.02013988
#
# Stress axis : x y z
#
# Youngs Moduli (GPa) = 117.58202 116.26086 76.02099
#
# Poissons Ratio (x) = 0.16670 0.09334
# Poissons Ratio (y) = 0.16859 0.18234
# Poissons Ratio (z) = 0.14437 0.27886
#
# Static dielectric constant tensor:
#      x y z
#    x 1.804640 0.000000 -0.052960 
#    y 0.000000 1.777880 0.000000 
#    z -0.052960 0.000000 1.918720 
# 
# From -- ./inp_files/6044.got.cif
#   From: 2010.05.17/outbox.cif.g08.bks.cpg/sg12_4_cif.got.tgz:6044.got - 2010.06.03 13:09:07.
