data_PCOD9214690
_publ_section_title
;
Structure prediction by ZEFSAII (Michael W. Deem and Ramdas Pophale) SiO2 
 PCOD9214690
Probable space group: C 2/M
;
_chemical_formula_sum "Si O2"
_cell_formula_units_Z 52
_cell_length_a 18.945753
_cell_length_b 21.574385
_cell_length_c 6.235602
_cell_angle_alpha 90.000000
_cell_angle_beta 90.925095
_cell_angle_gamma 90.000000
_cell_volume 2548.426264
_symmetry_space_group_name_H-M "C 2/M"
_symmetry_group_IT_number 12
_symmetry_cell_setting 'monoclinic'
loop_
_space_group_symop_operation_xyz
x,y,z
-x,y,-z
-x,-y,-z
x,-y,z
1/2+x,1/2+y,z
1/2-x,1/2+y,-z
1/2-x,1/2-y,-z
1/2+x,1/2-y,z
loop_
_atom_site_type_symbol
_atom_site_label
_atom_site_fract_x
_atom_site_fract_y
_atom_site_fract_z
Si Si1 0.033771 0.500000 0.252113
Si Si2 0.065319 0.834188 0.854435
Si Si3 0.901145 0.262948 0.465729
Si Si4 0.432403 0.858762 0.829933
Si Si5 0.585057 0.429988 0.518941
Si Si6 0.161240 0.163424 0.230435
Si Si7 0.300901 0.192467 0.085403
O O1 0.068221 0.430942 0.242332
O O2 0.000000 0.500000 0.500000
O O3 0.000000 0.500000 0.000000
O O4 0.049334 0.782559 0.675919
O O5 0.099651 0.891603 0.734133
O O6 0.121355 0.808988 0.023405
O O7 0.000000 0.851216 0.000000
O O8 0.936114 0.312400 0.626434
O O9 0.850188 0.216190 0.593835
O O10 0.849475 0.293313 0.291603
O O11 0.500000 0.849728 0.000000
O O12 0.356775 0.838784 0.927374
O O13 0.500000 0.427758 0.500000
O O14 0.608559 0.500000 0.532649
O O15 0.619128 0.395013 0.321095
O O16 0.239833 0.147039 0.169649
O O17 0.250000 0.250000 0.000000
#
# Coordination Sequence:
#
# PCOD9214690 Si02
#       7
#     4   8   8   8   8   8   8
#     4  10  26  54  78 110 150 190 262 325 378 454
#     4  11  22  38  61  99 135 175 225 288 344 416
#     4  11  24  41  69  98 145 175 230 285 369 430
#     4  11  27  47  75 106 138 194 246 304 373 448
#     4  10  22  40  63  91 128 183 236 281 337 404
#     4  11  23  41  63  96 140 178 224 292 349 432
#     4  12  24  44  68 104 144 184 226 286 367 442
#
# _framework density 20.404751000000001
#
# number of rings (size 3 to 8) (size 9 to 14) (size 15 to 20)
#    0.000    1.077    4.615    0.462    4.308    4.615 
#    1.385    0.000    3.385    0.000    0.000    0.000 
#    0.000    0.000    0.000    0.000    0.000    0.000 
#
# Total GULP energy -144822.972683 kJ/mol
# GULP energy per Si atom -5570.114334 kJ/mol
# Density = 2.035831 g / cm^3
# Si number density = 20.404751 Si / 1000 Ang^3
#
#
#
# Elastic Constant Matrix: (Units=GPa)
#
#
# Indices 1 2 3 4 5 6 
#
# 1 94.6239 53.9506 50.4470 0.0000 -28.2568 0.0000
# 2 53.9506 151.8247 65.9410 0.0000 -22.2146 0.0000
# 3 50.4470 65.9410 138.4730 0.0000 -17.1117 0.0000
# 4 0.0000 0.0000 0.0000 25.7662 0.0000 3.4713
# 5 -28.2568 -22.2146 -17.1117 0.0000 28.2949 0.0000
# 6 0.0000 0.0000 0.0000 3.4713 0.0000 -37.0819
#
#
#
# Elastic Compliance Matrix: (Units=1/GPa)
#
#
# Indices 1 2 3 4 5 6 
#
# 1 0.018242 -0.002925 -0.003551 0.000000 0.013774 0.000000
# 2 -0.002925 0.009329 -0.003062 0.000000 0.002552 0.000000
# 3 -0.003551 -0.003062 0.009984 0.000000 0.000088 0.000000
# 4 0.000000 0.000000 0.000000 0.038327 0.000000 0.003588
# 5 0.013774 0.002552 0.000088 0.000000 0.051154 0.000000
# 6 0.000000 0.000000 0.000000 0.003588 0.000000 -0.026631
#
#
# Mechanical properties :
#
#
# Convention : Reuss Voigt Hill
#
# Bulk Modulus (GPa) = 54.11080 80.62210 67.36645
# Shear Modulus (GPa) = 39.79647 17.70137 28.74892
#
# Velocity S-wave (km/s) = 4.42107 2.94855 3.75765
# Velocity P-wave (km/s) = 7.25517 7.15466 7.20509
#
# Compressibility (1/GPa) = 0.01848060
#
# Stress axis : x y z
#
# Youngs Moduli (GPa) = 54.81892 107.19326 100.15930
#
# Poissons Ratio (x) = 0.31350 0.35566
# Poissons Ratio (y) = 0.16033 0.30665
# Poissons Ratio (z) = 0.19466 0.32819
#
# Static dielectric constant tensor:
#      x y z
#    x 1.810300 0.000000 -0.044220 
#    y 0.000000 1.735780 0.000000 
#    z -0.044220 0.000000 1.837700 
# 
# From -- ./inp_files/21227.got.cif
#   From: 2010.05.17/outbox.cif.g08.bks.cpg/sg12_11_cif.got.tgz:21227.got - 2010.06.03 13:09:07.
