data_PCOD9214369
_publ_section_title
;
Structure prediction by ZEFSAII (Michael W. Deem and Ramdas Pophale) SiO2 
 PCOD9214369
Probable space group: C 2/M
;
_chemical_formula_sum "Si O2"
_cell_formula_units_Z 42
_cell_length_a 14.208506
_cell_length_b 7.779737
_cell_length_c 19.646244
_cell_angle_alpha 90.000000
_cell_angle_beta 126.142596
_cell_angle_gamma 90.000000
_cell_volume 1753.731736
_symmetry_space_group_name_H-M "C 2/M"
_symmetry_group_IT_number 12
_symmetry_cell_setting 'monoclinic'
loop_
_space_group_symop_operation_xyz
x,y,z
-x,y,-z
-x,-y,-z
x,-y,z
1/2+x,1/2+y,z
1/2-x,1/2+y,-z
1/2-x,1/2-y,-z
1/2+x,1/2-y,z
loop_
_atom_site_type_symbol
_atom_site_label
_atom_site_fract_x
_atom_site_fract_y
_atom_site_fract_z
Si Si1 0.911479 0.195869 0.378361
Si Si2 0.536087 0.790244 0.240368
Si Si3 0.763441 0.197425 0.583405
Si Si4 0.288774 0.795073 0.803073
Si Si5 0.284898 0.798470 0.090625
Si Si6 0.500000 0.000000 0.500000
O O1 0.812771 0.192336 0.396422
O O2 0.836789 0.257167 0.281313
O O3 0.995252 0.345485 0.439011
O O4 0.956850 0.000000 0.390837
O O5 0.603725 0.715432 0.334311
O O6 0.613926 0.736519 0.208295
O O7 0.407731 0.723172 0.168697
O O8 0.537577 0.000000 0.246731
O O9 0.750000 0.250000 0.500000
O O10 0.720150 0.000000 0.575860
O O11 0.305161 0.742435 0.887702
O O12 0.288476 0.000000 0.800075
O O13 0.302370 0.000000 0.097050
O O14 0.250000 0.750000 0.000000
#
# Coordination Sequence:
#
# PCOD9214369 Si02
#       6
#     8   8   8   8   8   2
#     4  10  22  40  59  88 129 175 221 271 328 396
#     4   9  21  42  64  89 124 175 214 262 335 399
#     4  11  21  37  61  90 126 170 220 272 323 394
#     4   9  20  41  66  87 125 169 213 266 330 392
#     4  11  24  41  65  95 130 163 216 274 332 404
#     4  12  22  36  60  90 128 166 226 264 328 380
#
# _framework density 23.948931000000002
#
# number of rings (size 3 to 8) (size 9 to 14) (size 15 to 20)
#    0.000    1.905    0.952    3.714    1.333    4.571 
#    3.429    5.714    0.000    0.000    0.000    0.000 
#    0.000    0.000    0.000    0.000    0.000    0.000 
#
# Total GULP energy -117261.338245 kJ/mol
# GULP energy per Si atom -5583.873250 kJ/mol
# Density = 2.389442 g / cm^3
# Si number density = 23.948931 Si / 1000 Ang^3
#
#
#
# Elastic Constant Matrix: (Units=GPa)
#
#
# Indices 1 2 3 4 5 6 
#
# 1 59.5666 5.8540 53.5759 0.0000 -12.8093 0.0000
# 2 5.8540 94.8122 -2.6654 0.0000 -1.8992 0.0000
# 3 53.5759 -2.6654 143.7437 0.0000 -43.1500 0.0000
# 4 0.0000 0.0000 0.0000 38.9383 0.0000 -0.0794
# 5 -12.8093 -1.8992 -43.1500 0.0000 39.2152 0.0000
# 6 0.0000 0.0000 0.0000 -0.0794 0.0000 24.8883
#
#
#
# Elastic Compliance Matrix: (Units=1/GPa)
#
#
# Indices 1 2 3 4 5 6 
#
# 1 0.025877 -0.001968 -0.010710 0.000000 -0.003428 0.000000
# 2 -0.001968 0.010733 0.001337 0.000000 0.001348 0.000000
# 3 -0.010710 0.001337 0.014847 0.000000 0.012903 0.000000
# 4 0.000000 0.000000 0.000000 0.025682 0.000000 0.000082
# 5 -0.003428 0.001348 0.012903 0.000000 0.038644 0.000000
# 6 0.000000 0.000000 0.000000 0.000082 0.000000 0.040180
#
#
# Mechanical properties :
#
#
# Convention : Reuss Voigt Hill
#
# Bulk Modulus (GPa) = 34.75124 45.73906 40.24515
# Shear Modulus (GPa) = 26.56232 36.69889 31.63060
#
# Velocity S-wave (km/s) = 3.33396 3.91881 3.63816
# Velocity P-wave (km/s) = 5.41872 6.29414 5.87276
#
# Compressibility (1/GPa) = 0.02877595
#
# Stress axis : x y z
#
# Youngs Moduli (GPa) = 38.64361 93.16845 67.35412
#
# Poissons Ratio (x) = 0.18331 0.72140
# Poissons Ratio (y) = 0.07603 -0.09006
# Poissons Ratio (z) = 0.41389 -0.12458
#
# Static dielectric constant tensor:
#      x y z
#    x 1.646140 0.000000 -0.145940 
#    y 0.000000 1.872800 0.000000 
#    z -0.145940 0.000000 1.668720 
# 
# From -- ./inp_files/267773.got.cif
#   From: 2010.05.17/outbox.cif.g08.bks.cpg/sg12_134_cif.got.tgz:267773.got - 2010.06.03 13:09:07.
