data_PCOD9214307
_publ_section_title
;
Structure prediction by ZEFSAII (Michael W. Deem and Ramdas Pophale) SiO2 
 PCOD9214307
Probable space group: C 2/M
;
_chemical_formula_sum "Si O2"
_cell_formula_units_Z 28
_cell_length_a 17.587140
_cell_length_b 7.865237
_cell_length_c 21.649459
_cell_angle_alpha 90.000000
_cell_angle_beta 159.206550
_cell_angle_gamma 90.000000
_cell_volume 1063.120635
_symmetry_space_group_name_H-M "C 2/M"
_symmetry_group_IT_number 12
_symmetry_cell_setting 'monoclinic'
loop_
_space_group_symop_operation_xyz
x,y,z
-x,y,-z
-x,-y,-z
x,-y,z
1/2+x,1/2+y,z
1/2-x,1/2+y,-z
1/2-x,1/2-y,-z
1/2+x,1/2-y,z
loop_
_atom_site_type_symbol
_atom_site_label
_atom_site_fract_x
_atom_site_fract_y
_atom_site_fract_z
Si Si1 0.165422 0.000000 0.364766
Si Si2 0.720817 0.694555 0.189215
Si Si3 0.764366 0.687623 0.670278
Si Si4 0.833164 0.500000 0.034301
Si Si5 0.457539 0.000000 0.270968
O O1 0.245521 0.838282 0.385776
O O2 0.289038 0.000000 0.523707
O O3 0.909425 0.000000 0.171261
O O4 0.667521 0.500000 0.170746
O O5 0.821244 0.777269 0.325851
O O6 0.866924 0.660751 0.240880
O O7 0.500000 0.777347 0.000000
O O8 0.700813 0.500000 0.600013
O O9 0.023534 0.660719 0.877963
O O10 0.865673 0.500000 0.133187
#
# Coordination Sequence:
#
# PCOD9214307 Si02
#       5
#     4   8   8   4   4
#     4  12  21  43  69  93 136 180 210 268 345 385
#     4   9  18  39  68  94 129 174 221 265 324 394
#     4  10  23  39  67  98 129 173 223 271 327 392
#     4  10  24  44  65 102 134 166 228 276 315 404
#     4  10  22  39  74  95 128 182 215 268 339 386
#
# _framework density 26.337555999999999
#
# number of rings (size 3 to 8) (size 9 to 14) (size 15 to 20)
#    1.714    0.286    1.429    2.571    0.000    4.000 
#    0.000    2.857    3.143    0.000    0.000    0.000 
#    0.000    0.000    0.000    0.000    0.000    0.000 
#
# Total GULP energy -78251.583035 kJ/mol
# GULP energy per Si atom -5589.398788 kJ/mol
# Density = 2.627761 g / cm^3
# Si number density = 26.337556 Si / 1000 Ang^3
#
#
#
# Elastic Constant Matrix: (Units=GPa)
#
#
# Indices 1 2 3 4 5 6 
#
# 1 96.5199 8.8126 23.3979 -0.0319 -15.6454 -0.0058
# 2 8.8126 123.7360 5.9648 -0.1015 -7.8169 -0.0186
# 3 23.3979 5.9648 147.5091 -0.2135 -9.3471 -0.0412
# 4 -0.0319 -0.1015 -0.2135 -467.0756 -0.0332 -89.2688
# 5 -15.6454 -7.8169 -9.3471 -0.0332 44.5370 -0.0069
# 6 -0.0058 -0.0186 -0.0412 -89.2688 -0.0069 8.9712
#
#
#
# Elastic Compliance Matrix: (Units=1/GPa)
#
#
# Indices 1 2 3 4 5 6 
#
# 1 0.011364 -0.000508 -0.001555 0.000000 0.003576 0.000000
# 2 -0.000508 0.008204 -0.000173 -0.000002 0.001225 0.000000
# 3 -0.001555 -0.000173 0.007091 -0.000003 0.000911 0.000000
# 4 0.000000 -0.000002 -0.000003 -0.000738 -0.000003 -0.007342
# 5 0.003576 0.001225 0.000911 -0.000003 0.024116 0.000000
# 6 0.000000 0.000000 0.000000 -0.007342 0.000000 0.038414
#
#
# Mechanical properties :
#
#
# Convention : Reuss Voigt Hill
#
# Bulk Modulus (GPa) = 45.07827 49.34616 47.21222
# Shear Modulus (GPa) = 49.84115 -60.74085 -5.44985
#
# Velocity S-wave (km/s) = 4.35489 -4.80755 -1.44004
# Velocity P-wave (km/s) = 6.51456 3.46987 3.89869
#
# Compressibility (1/GPa) = 0.02218364
#
# Stress axis : x y z
#
# Youngs Moduli (GPa) = 87.99934 121.89659 141.02964
#
# Poissons Ratio (x) = 0.06198 0.21935
# Poissons Ratio (y) = 0.04474 0.02446
# Poissons Ratio (z) = 0.13687 0.02115
#
# Static dielectric constant tensor:
#      x y z
#    x 2.058260 0.000000 0.105270 
#    y 0.000000 2.035920 0.000000 
#    z 0.105270 0.000000 2.177330 
# 
# From -- ./inp_files/346440.got.cif
#   From: 2010.05.17/outbox.cif.g08.bks.cpg/sg12_174_cif.got.tgz:346440.got - 2010.06.03 13:09:07.
