data_PCOD9214175
_publ_section_title
;
Structure prediction by ZEFSAII (Michael W. Deem and Ramdas Pophale) SiO2 
 PCOD9214175
Probable space group: C 2/M
;
_chemical_formula_sum "Si O2"
_cell_formula_units_Z 64
_cell_length_a 15.462053
_cell_length_b 23.649066
_cell_length_c 8.677347
_cell_angle_alpha 90.000000
_cell_angle_beta 92.153618
_cell_angle_gamma 90.000000
_cell_volume 3170.744515
_symmetry_space_group_name_H-M "C 2/M"
_symmetry_group_IT_number 12
_symmetry_cell_setting 'monoclinic'
loop_
_space_group_symop_operation_xyz
x,y,z
-x,y,-z
-x,-y,-z
x,-y,z
1/2+x,1/2+y,z
1/2-x,1/2+y,-z
1/2-x,1/2-y,-z
1/2+x,1/2-y,z
loop_
_atom_site_type_symbol
_atom_site_label
_atom_site_fract_x
_atom_site_fract_y
_atom_site_fract_z
Si Si1 0.082393 0.561883 0.117234
Si Si2 0.650368 0.247347 0.539219
Si Si3 0.275055 0.890362 0.072003
Si Si4 0.338916 0.767857 0.092012
Si Si5 0.913995 0.630423 0.586126
Si Si6 0.589907 0.350199 0.930157
Si Si7 0.754148 0.432504 0.420698
Si Si8 0.407875 0.371380 0.436175
O O1 0.079107 0.500000 0.196046
O O2 0.076494 0.612494 0.237624
O O3 0.171794 0.566185 0.028933
O O4 0.000000 0.564616 0.000000
O O5 0.750000 0.250000 0.500000
O O6 0.654315 0.236959 0.722552
O O7 0.605464 0.196234 0.446261
O O8 0.606731 0.307394 0.503267
O O9 0.337385 0.834890 0.065423
O O10 0.263177 0.910702 0.245922
O O11 0.178871 0.875625 0.005243
O O12 0.403334 0.718004 0.043964
O O13 0.250000 0.750000 0.000000
O O14 0.833983 0.595087 0.515740
O O15 0.000000 0.615196 0.500000
O O16 0.592417 0.365400 0.748962
O O17 0.500000 0.370134 0.000000
O O18 0.756140 0.500000 0.423953
O O19 0.668590 0.408869 0.498813
O O20 0.500000 0.392746 0.500000
#
# Coordination Sequence:
#
# PCOD9214175 Si02
#       8
#     8   8   8   8   8   8   8   8
#     4  11  26  45  66  94 132 180 229 283 340 398
#     4  11  21  40  66  97 133 172 217 270 336 408
#     4  11  21  42  65  93 131 168 220 277 331 396
#     4   9  20  35  60  93 127 169 212 259 326 393
#     4  12  25  43  67  99 135 172 227 278 340 409
#     4  10  22  39  63  96 133 174 214 264 333 400
#     4  12  25  43  71  98 129 178 227 280 338 399
#     4  11  23  43  67  96 136 174 221 275 333 402
#
# _framework density 20.184532999999998
#
# number of rings (size 3 to 8) (size 9 to 14) (size 15 to 20)
#    0.000    1.125    2.500    3.375    3.500    3.750 
#    2.250    0.625    0.000    2.625    0.000    0.000 
#    0.000    0.000    0.000    0.000    0.000    0.000 
#
# Total GULP energy -178697.959168 kJ/mol
# GULP energy per Si atom -5584.311224 kJ/mol
# Density = 2.013859 g / cm^3
# Si number density = 20.184533 Si / 1000 Ang^3
#
#
#
# Elastic Constant Matrix: (Units=GPa)
#
#
# Indices 1 2 3 4 5 6 
#
# 1 125.2687 6.7386 9.1124 0.0000 -22.5200 0.0000
# 2 6.7386 78.3693 -0.3179 0.0000 -10.3837 0.0000
# 3 9.1124 -0.3179 41.2232 0.0000 -17.5175 0.0000
# 4 0.0000 0.0000 0.0000 13.2042 0.0000 3.3455
# 5 -22.5200 -10.3837 -17.5175 0.0000 26.6596 0.0000
# 6 0.0000 0.0000 0.0000 3.3455 0.0000 -39.9662
#
#
#
# Elastic Compliance Matrix: (Units=1/GPa)
#
#
# Indices 1 2 3 4 5 6 
#
# 1 0.009524 0.000446 0.001929 0.000000 0.009487 0.000000
# 2 0.000446 0.013793 0.003400 0.000000 0.007983 0.000000
# 3 0.001929 0.003400 0.034842 0.000000 0.025848 0.000000
# 4 0.000000 0.000000 0.000000 0.074161 0.000000 0.006208
# 5 0.009487 0.007983 0.025848 0.000000 0.065617 0.000000
# 6 0.000000 0.000000 0.000000 0.006208 0.000000 -0.024501
#
#
# Mechanical properties :
#
#
# Convention : Reuss Voigt Hill
#
# Bulk Modulus (GPa) = 14.34512 30.65859 22.50185
# Shear Modulus (GPa) = 27.00935 15.26807 21.13871
#
# Velocity S-wave (km/s) = 3.66200 2.75330 3.23967
# Velocity P-wave (km/s) = 5.00028 5.03286 5.01659
#
# Compressibility (1/GPa) = 0.06971013
#
# Stress axis : x y z
#
# Youngs Moduli (GPa) = 104.99862 72.49896 28.70107
#
# Poissons Ratio (x) = -0.03232 -0.05538
# Poissons Ratio (y) = -0.04681 -0.09759
# Poissons Ratio (z) = -0.20259 -0.24651
#
# Static dielectric constant tensor:
#      x y z
#    x 1.678510 0.000000 0.010560 
#    y 0.000000 1.736210 0.000000 
#    z 0.010560 0.000000 1.671320 
# 
# From -- ./inp_files/65866.got.cif
#   From: 2010.05.17/outbox.cif.g08.bks.cpg/sg12_33_cif.got.tgz:65866.got - 2010.06.03 13:09:07.
