data_PCOD9214072
_publ_section_title
;
Structure prediction by ZEFSAII (Michael W. Deem and Ramdas Pophale) SiO2 
 PCOD9214072
Probable space group: C 2/M
;
_chemical_formula_sum "Si O2"
_cell_formula_units_Z 48
_cell_length_a 24.447637
_cell_length_b 12.631578
_cell_length_c 9.038307
_cell_angle_alpha 90.000000
_cell_angle_beta 60.648923
_cell_angle_gamma 90.000000
_cell_volume 2432.848586
_symmetry_space_group_name_H-M "C 2/M"
_symmetry_group_IT_number 12
_symmetry_cell_setting 'monoclinic'
loop_
_space_group_symop_operation_xyz
x,y,z
-x,y,-z
-x,-y,-z
x,-y,z
1/2+x,1/2+y,z
1/2-x,1/2+y,-z
1/2-x,1/2-y,-z
1/2+x,1/2-y,z
loop_
_atom_site_type_symbol
_atom_site_label
_atom_site_fract_x
_atom_site_fract_y
_atom_site_fract_z
Si Si1 0.149315 0.119642 0.826567
Si Si2 0.453128 0.679957 0.444158
Si Si3 0.961116 0.729537 0.912223
Si Si4 0.908549 0.620541 0.688869
Si Si5 0.683667 0.381236 0.444113
Si Si6 0.768876 0.304734 0.823838
O O1 0.175270 0.143097 0.628262
O O2 0.210153 0.126701 0.849664
O O3 0.123798 0.000000 0.859589
O O4 0.096427 0.201224 0.948965
O O5 0.500000 0.629498 0.500000
O O6 0.489305 0.696764 0.242802
O O7 0.436560 0.795790 0.534506
O O8 0.387733 0.621046 0.519688
O O9 0.932276 0.654537 0.821613
O O10 0.000000 0.682192 0.000000
O O11 0.926170 0.500000 0.635617
O O12 0.833706 0.634245 0.767608
O O13 0.710266 0.500000 0.390308
O O14 0.719518 0.288811 0.311122
O O15 0.750000 0.250000 0.000000
#
# Coordination Sequence:
#
# PCOD9214072 Si02
#       6
#     8   8   8   8   8   8
#     4  11  23  40  63  91 123 162 198 240 304 366
#     4   9  20  37  58  86 122 158 195 245 296 349
#     4  11  21  38  62  89 124 157 197 249 292 354
#     4  10  22  41  63  86 117 163 204 246 303 353
#     4  10  22  39  62  89 121 159 199 245 300 362
#     4  11  22  42  63  90 122 155 200 260 298 352
#
# _framework density 19.729959000000001
#
# number of rings (size 3 to 8) (size 9 to 14) (size 15 to 20)
#    0.000    1.667    3.333    1.000    0.000    6.000 
#    0.000    0.000    0.000    0.000    0.000    0.000 
#    0.000    0.000    0.000    0.000    0.000    0.000 
#
# Total GULP energy -133939.842031 kJ/mol
# GULP energy per Si atom -5580.826751 kJ/mol
# Density = 1.968505 g / cm^3
# Si number density = 19.729959 Si / 1000 Ang^3
#
#
#
# Elastic Constant Matrix: (Units=GPa)
#
#
# Indices 1 2 3 4 5 6 
#
# 1 94.7033 10.2877 16.5622 0.0000 4.5429 0.0000
# 2 10.2877 97.1383 37.2557 0.0000 -0.7844 0.0000
# 3 16.5622 37.2557 74.7939 0.0000 12.6117 0.0000
# 4 0.0000 0.0000 0.0000 10.9426 0.0000 7.8420
# 5 4.5429 -0.7844 12.6117 0.0000 32.6392 0.0000
# 6 0.0000 0.0000 0.0000 7.8420 0.0000 6.8052
#
#
#
# Elastic Compliance Matrix: (Units=1/GPa)
#
#
# Indices 1 2 3 4 5 6 
#
# 1 0.011006 -0.000349 -0.002143 0.000000 -0.000712 0.000000
# 2 -0.000349 0.013008 -0.006913 0.000000 0.003032 0.000000
# 3 -0.002143 -0.006913 0.018469 0.000000 -0.007004 0.000000
# 4 0.000000 0.000000 0.000000 0.524695 0.000000 -0.604631
# 5 -0.000712 0.003032 -0.007004 0.000000 0.033516 0.000000
# 6 0.000000 0.000000 0.000000 -0.604631 0.000000 0.843692
#
#
# Mechanical properties :
#
#
# Convention : Reuss Voigt Hill
#
# Bulk Modulus (GPa) = 42.24461 43.87184 43.05822
# Shear Modulus (GPa) = 3.39885 23.57941 13.48913
#
# Velocity S-wave (km/s) = 1.31393 3.46078 2.61758
# Velocity P-wave (km/s) = 4.87440 6.18496 5.56837
#
# Compressibility (1/GPa) = 0.02367166
#
# Stress axis : x y z
#
# Youngs Moduli (GPa) = 90.85780 76.87866 54.14427
#
# Poissons Ratio (x) = 0.02687 0.11603
# Poissons Ratio (y) = 0.03175 0.37431
# Poissons Ratio (z) = 0.19471 0.53147
#
# Static dielectric constant tensor:
#      x y z
#    x 1.968510 0.000000 0.006510 
#    y 0.000000 1.681080 0.000000 
#    z 0.006510 0.000000 1.672260 
# 
# From -- ./inp_files/94492.got.cif
#   From: 2010.05.17/outbox.cif.g08.bks.cpg/sg12_48_cif.got.tgz:94492.got - 2010.06.03 13:09:07.
