data_PCOD9214567
_publ_section_title
;
Structure prediction by ZEFSAII (Michael W. Deem and Ramdas Pophale) SiO2 
 PCOD9214567
Probable space group: C 2/M
;
_chemical_formula_sum "Si O2"
_cell_formula_units_Z 64
_cell_length_a 32.472332
_cell_length_b 8.935903
_cell_length_c 15.103645
_cell_angle_alpha 90.000000
_cell_angle_beta 133.188714
_cell_angle_gamma 90.000000
_cell_volume 3195.382477
_symmetry_space_group_name_H-M "C 2/M"
_symmetry_group_IT_number 12
_symmetry_cell_setting 'monoclinic'
loop_
_space_group_symop_operation_xyz
x,y,z
-x,y,-z
-x,-y,-z
x,-y,z
1/2+x,1/2+y,z
1/2-x,1/2+y,-z
1/2-x,1/2-y,-z
1/2+x,1/2-y,z
loop_
_atom_site_type_symbol
_atom_site_label
_atom_site_fract_x
_atom_site_fract_y
_atom_site_fract_z
Si Si1 0.541531 0.822887 0.923260
Si Si2 0.378091 0.820790 0.496295
Si Si3 0.228809 0.174807 0.058903
Si Si4 0.739915 0.320650 0.710140
Si Si5 0.358200 0.821192 0.791436
Si Si6 0.066975 0.676670 0.611309
Si Si7 0.595137 0.326885 0.836176
Si Si8 0.425173 0.677366 0.738067
O O1 0.559673 0.773436 0.851660
O O2 0.484424 0.737369 0.863259
O O3 0.531088 0.000000 0.911963
O O4 0.593881 0.787380 0.064634
O O5 0.315278 0.755471 0.411560
O O6 0.401877 0.782585 0.433951
O O7 0.416148 0.749772 0.628686
O O8 0.378191 0.000000 0.504975
O O9 0.252475 0.259466 0.179162
O O10 0.245484 0.000000 0.086298
O O11 0.250000 0.250000 0.000000
O O12 0.160890 0.183600 0.959036
O O13 0.733750 0.500000 0.702396
O O14 0.796882 0.283440 0.740037
O O15 0.375534 0.734422 0.729017
O O16 0.359926 0.000000 0.777442
O O17 0.077316 0.500000 0.643572
O O18 0.087692 0.770368 0.725414
O O19 0.000000 0.697082 0.500000
O O20 0.577423 0.500000 0.818220
O O21 0.425512 0.500000 0.732654
#
# Coordination Sequence:
#
# PCOD9214567 Si02
#       8
#     8   8   8   8   8   8   8   8
#     4  11  22  41  67  94 128 168 211 261 317 385
#     4  11  24  43  66  93 127 171 218 265 318 383
#     4  11  23  38  59  89 125 164 209 259 315 376
#     4  11  23  42  66  93 127 167 213 265 320 378
#     4  10  23  43  67  94 125 168 214 260 319 386
#     4  10  22  40  62  88 121 166 215 259 311 378
#     4  11  23  37  59  92 126 161 204 258 315 372
#     4  12  26  42  65  96 128 165 209 267 325 380
#
# _framework density 20.0289
#
# number of rings (size 3 to 8) (size 9 to 14) (size 15 to 20)
#    0.000    1.125    1.250    4.875    0.000    9.750 
#    0.000    0.000    0.000    0.000    0.000    0.000 
#    0.000    0.000    0.000    0.000    0.000    0.000 
#
# Total GULP energy -179098.331833 kJ/mol
# GULP energy per Si atom -5596.822870 kJ/mol
# Density = 1.998331 g / cm^3
# Si number density = 20.028900 Si / 1000 Ang^3
#
#
#
# Elastic Constant Matrix: (Units=GPa)
#
#
# Indices 1 2 3 4 5 6 
#
# 1 82.0252 26.9570 -0.9481 0.0000 3.4824 0.0000
# 2 26.9570 51.9409 19.3311 0.0000 -0.2075 0.0000
# 3 -0.9481 19.3311 55.8235 0.0000 4.0181 0.0000
# 4 0.0000 0.0000 0.0000 35.3535 0.0000 -0.0428
# 5 3.4824 -0.2075 4.0181 0.0000 33.1775 0.0000
# 6 0.0000 0.0000 0.0000 -0.0428 0.0000 11.8430
#
#
#
# Elastic Compliance Matrix: (Units=1/GPa)
#
#
# Indices 1 2 3 4 5 6 
#
# 1 0.015400 -0.009362 0.003656 0.000000 -0.002118 0.000000
# 2 -0.009362 0.027830 -0.009966 0.000000 0.002364 0.000000
# 3 0.003656 -0.009966 0.021648 0.000000 -0.003068 0.000000
# 4 0.000000 0.000000 0.000000 0.028286 0.000000 0.000102
# 5 -0.002118 0.002364 -0.003068 0.000000 0.030749 0.000000
# 6 0.000000 0.000000 0.000000 0.000102 0.000000 0.084439
#
#
# Mechanical properties :
#
#
# Convention : Reuss Voigt Hill
#
# Bulk Modulus (GPa) = 29.82091 31.16328 30.49210
# Shear Modulus (GPa) = 19.93032 25.70479 22.81755
#
# Velocity S-wave (km/s) = 3.15791 3.58632 3.37891
# Velocity P-wave (km/s) = 5.31204 5.72205 5.52085
#
# Compressibility (1/GPa) = 0.03353352
#
# Stress axis : x y z
#
# Youngs Moduli (GPa) = 64.93435 35.93252 46.19421
#
# Poissons Ratio (x) = 0.33639 -0.16888
# Poissons Ratio (y) = 0.60789 0.46039
# Poissons Ratio (z) = -0.23739 0.35812
#
# Static dielectric constant tensor:
#      x y z
#    x 1.697570 0.000000 0.013980 
#    y 0.000000 1.668140 0.000000 
#    z 0.013980 0.000000 1.688550 
# 
# From -- ./inp_files/250068.got.cif
#   From: 2010.05.17/outbox.cif.g08.bks.cpg/sg12_126_cif.got.tgz:250068.got - 2010.06.03 13:09:07.
