data_PCOD9214288
_publ_section_title
;
Structure prediction by ZEFSAII (Michael W. Deem and Ramdas Pophale) SiO2 
 PCOD9214288
Probable space group: C 2/M
;
_chemical_formula_sum "Si O2"
_cell_formula_units_Z 40
_cell_length_a 13.940285
_cell_length_b 26.914427
_cell_length_c 7.228168
_cell_angle_alpha 90.000000
_cell_angle_beta 37.119947
_cell_angle_gamma 90.000000
_cell_volume 1636.635462
_symmetry_space_group_name_H-M "C 2/M"
_symmetry_group_IT_number 12
_symmetry_cell_setting 'monoclinic'
loop_
_space_group_symop_operation_xyz
x,y,z
-x,y,-z
-x,-y,-z
x,-y,z
1/2+x,1/2+y,z
1/2-x,1/2+y,-z
1/2-x,1/2-y,-z
1/2+x,1/2-y,z
loop_
_atom_site_type_symbol
_atom_site_label
_atom_site_fract_x
_atom_site_fract_y
_atom_site_fract_z
Si Si1 0.611042 0.768878 0.008438
Si Si2 0.746389 0.366169 0.334834
Si Si3 0.675924 0.823069 0.376757
Si Si4 0.153111 0.419138 0.164100
Si Si5 0.507873 0.446088 0.211860
O O1 0.712135 0.851685 0.516695
O O2 0.693807 0.716087 0.895023
O O3 0.500000 0.764320 0.000000
O O4 0.482125 0.790995 0.344815
O O5 0.584174 0.396998 0.581897
O O6 0.856850 0.403113 0.037714
O O7 0.757800 0.311742 0.226441
O O8 0.667060 0.866787 0.246447
O O9 0.000000 0.442914 0.500000
O O10 0.316947 0.445199 0.969710
O O11 0.433683 0.500000 0.376349
O O12 0.500000 0.443990 0.000000
#
# Coordination Sequence:
#
# PCOD9214288 Si02
#       5
#     8   8   8   8   8
#     4  10  22  39  67  98 144 195 231 288 346 405
#     4  11  23  44  71 101 138 186 231 292 353 411
#     4  11  24  43  66 103 145 192 243 284 346 424
#     4  12  26  45  71 103 146 184 232 300 351 422
#     4  11  26  49  79 107 136 183 238 294 363 429
#
# _framework density 24.440384000000002
#
# number of rings (size 3 to 8) (size 9 to 14) (size 15 to 20)
#    0.000    1.000    4.000    3.000    5.600    2.800 
#    0.000    0.000    0.000    7.800    0.000    0.000 
#    0.000    0.000    0.000    0.000    0.000    0.000 
#
# Total GULP energy -111673.521165 kJ/mol
# GULP energy per Si atom -5583.676058 kJ/mol
# Density = 2.438476 g / cm^3
# Si number density = 24.440384 Si / 1000 Ang^3
#
#
#
# Elastic Constant Matrix: (Units=GPa)
#
#
# Indices 1 2 3 4 5 6 
#
# 1 102.3280 43.6487 42.8928 0.0000 12.7615 0.0000
# 2 43.6487 144.7885 47.8691 0.0000 -29.4031 0.0000
# 3 42.8928 47.8691 85.5715 0.0000 -16.8372 0.0000
# 4 0.0000 0.0000 0.0000 5.2970 0.0000 -12.9041
# 5 12.7615 -29.4031 -16.8372 0.0000 42.3487 0.0000
# 6 0.0000 0.0000 0.0000 -12.9041 0.0000 -1.8942
#
#
#
# Elastic Compliance Matrix: (Units=1/GPa)
#
#
# Indices 1 2 3 4 5 6 
#
# 1 0.016481 -0.004665 -0.007882 0.000000 -0.011339 0.000000
# 2 -0.004665 0.010599 -0.002024 0.000000 0.007960 0.000000
# 3 -0.007882 -0.002024 0.018400 0.000000 0.008285 0.000000
# 4 0.000000 0.000000 0.000000 0.010729 0.000000 -0.073091
# 5 -0.011339 0.007960 0.008285 0.000000 0.035851 0.000000
# 6 0.000000 0.000000 0.000000 -0.073091 0.000000 -0.030003
#
#
# Mechanical properties :
#
#
# Convention : Reuss Voigt Hill
#
# Bulk Modulus (GPa) = 61.21662 66.83434 64.02548
# Shear Modulus (GPa) = 51.73535 22.36877 37.05206
#
# Velocity S-wave (km/s) = 4.60586 3.02857 3.89783
# Velocity P-wave (km/s) = 7.30664 6.29563 6.81989
#
# Compressibility (1/GPa) = 0.01633543
#
# Stress axis : x y z
#
# Youngs Moduli (GPa) = 60.67738 94.35127 54.34803
#
# Poissons Ratio (x) = 0.44015 0.42839
# Poissons Ratio (y) = 0.28306 0.11003
# Poissons Ratio (z) = 0.47829 0.19101
#
# Static dielectric constant tensor:
#      x y z
#    x 2.084140 0.000000 0.081250 
#    y 0.000000 1.871230 0.000000 
#    z 0.081250 0.000000 2.120610 
# 
# From -- ./inp_files/79761.got.cif
#   From: 2010.05.17/outbox.cif.g08.bks.cpg/sg12_40_cif.got.tgz:79761.got - 2010.06.03 13:09:07.
