data_PCOD9214109
_publ_section_title
;
Structure prediction by ZEFSAII (Michael W. Deem and Ramdas Pophale) SiO2 
 PCOD9214109
Probable space group: C 2/M
;
_chemical_formula_sum "Si O2"
_cell_formula_units_Z 40
_cell_length_a 12.559309
_cell_length_b 15.666886
_cell_length_c 18.299186
_cell_angle_alpha 90.000000
_cell_angle_beta 32.343577
_cell_angle_gamma 90.000000
_cell_volume 1926.326857
_symmetry_space_group_name_H-M "C 2/M"
_symmetry_group_IT_number 12
_symmetry_cell_setting 'monoclinic'
loop_
_space_group_symop_operation_xyz
x,y,z
-x,y,-z
-x,-y,-z
x,-y,z
1/2+x,1/2+y,z
1/2-x,1/2+y,-z
1/2-x,1/2-y,-z
1/2+x,1/2-y,z
loop_
_atom_site_type_symbol
_atom_site_label
_atom_site_fract_x
_atom_site_fract_y
_atom_site_fract_z
Si Si1 0.945228 0.214756 0.846066
Si Si2 0.514662 0.670307 0.577625
Si Si3 0.441028 0.163388 0.349839
Si Si4 0.355461 0.596579 0.153099
Si Si5 0.225138 0.398817 0.857856
O O1 0.035541 0.288188 0.741808
O O2 0.865544 0.143088 0.836791
O O3 0.092019 0.168902 0.817933
O O4 0.750000 0.250000 0.000000
O O5 0.500000 0.674780 0.500000
O O6 0.541662 0.763337 0.598252
O O7 0.321199 0.628203 0.725531
O O8 0.721714 0.623491 0.479117
O O9 0.630789 0.105010 0.254360
O O10 0.389639 0.500000 0.161327
O O11 0.500000 0.610033 0.000000
O O12 0.222996 0.500000 0.865942
O O13 0.000000 0.366368 0.000000
#
# Coordination Sequence:
#
# PCOD9214109 Si02
#       5
#     8   8   8   8   8
#     4  11  22  37  67  91 125 167 210 262 317 381
#     4  10  22  39  65  93 127 167 221 266 314 382
#     4  10  22  39  62  94 126 172 215 263 317 384
#     4  11  23  38  59  95 134 166 211 265 325 385
#     4  10  24  42  62  92 127 163 210 265 320 381
#
# _framework density 20.764907999999998
#
# number of rings (size 3 to 8) (size 9 to 14) (size 15 to 20)
#    0.000    1.600    2.000    1.800    8.400    1.200 
#    0.000    0.000    0.000   12.600    0.000    0.000 
#    0.000    0.000    0.000    0.000    0.000    0.000 
#
# Total GULP energy -111770.781282 kJ/mol
# GULP energy per Si atom -5588.539064 kJ/mol
# Density = 2.071765 g / cm^3
# Si number density = 20.764908 Si / 1000 Ang^3
#
#
#
# Elastic Constant Matrix: (Units=GPa)
#
#
# Indices 1 2 3 4 5 6 
#
# 1 87.3224 22.9324 42.8834 0.0004 5.1218 -0.0002
# 2 22.9324 47.9631 13.9361 0.0005 5.5605 0.0008
# 3 42.8834 13.9361 142.4082 0.0019 -4.1932 0.0021
# 4 0.0004 0.0005 0.0019 -3.0709 0.0008 -8.3133
# 5 5.1218 5.5605 -4.1932 0.0008 39.6046 -0.0005
# 6 -0.0002 0.0008 0.0021 -8.3133 -0.0005 21.3852
#
#
#
# Elastic Compliance Matrix: (Units=1/GPa)
#
#
# Indices 1 2 3 4 5 6 
#
# 1 0.015045 -0.005851 -0.004004 -0.000002 -0.001548 0.000000
# 2 -0.005851 0.024159 -0.000682 0.000002 -0.002707 0.000000
# 3 -0.004004 -0.000682 0.008338 0.000003 0.001496 0.000001
# 4 -0.000002 0.000002 0.000003 -0.158664 0.000003 -0.061679
# 5 -0.001548 -0.002707 0.001496 0.000003 0.025988 0.000002
# 6 0.000000 0.000000 0.000001 -0.061679 0.000002 0.022784
#
#
# Mechanical properties :
#
#
# Convention : Reuss Voigt Hill
#
# Bulk Modulus (GPa) = 37.77907 48.57750 43.17828
# Shear Modulus (GPa) = -154.07007 24.77989 -64.64509
#
# Velocity S-wave (km/s) = -8.62313 3.45824 -5.58565
# Velocity P-wave (km/s) = 8.99507 6.27621 4.55635
#
# Compressibility (1/GPa) = 0.02646968
#
# Stress axis : x y z
#
# Youngs Moduli (GPa) = 66.46601 41.39275 119.92590
#
# Poissons Ratio (x) = 0.24218 0.48014
# Poissons Ratio (y) = 0.38888 0.08180
# Poissons Ratio (z) = 0.26610 0.02823
#
# Static dielectric constant tensor:
#      x y z
#    x 1.731890 0.000000 -0.018070 
#    y 0.000000 1.733890 0.000000 
#    z -0.018070 0.000000 1.778840 
# 
# From -- ./inp_files/98285.got.cif
#   From: 2010.05.17/outbox.cif.g08.bks.cpg/sg12_50_cif.got.tgz:98285.got - 2010.06.03 13:09:07.
