data_PCOD9214426
_publ_section_title
;
Structure prediction by ZEFSAII (Michael W. Deem and Ramdas Pophale) SiO2 
 PCOD9214426
Probable space group: C 2/M
;
_chemical_formula_sum "Si O2"
_cell_formula_units_Z 34
_cell_length_a 9.392785
_cell_length_b 9.680948
_cell_length_c 16.927975
_cell_angle_alpha 90.000000
_cell_angle_beta 79.507114
_cell_angle_gamma 90.000000
_cell_volume 1513.538216
_symmetry_space_group_name_H-M "C 2/M"
_symmetry_group_IT_number 12
_symmetry_cell_setting 'monoclinic'
loop_
_space_group_symop_operation_xyz
x,y,z
-x,y,-z
-x,-y,-z
x,-y,z
1/2+x,1/2+y,z
1/2-x,1/2+y,-z
1/2-x,1/2-y,-z
1/2+x,1/2-y,z
loop_
_atom_site_type_symbol
_atom_site_label
_atom_site_fract_x
_atom_site_fract_y
_atom_site_fract_z
Si Si1 0.736877 0.661504 0.673892
Si Si2 0.900374 0.654552 0.174780
Si Si3 0.500000 0.500000 0.000000
Si Si4 0.946010 0.340957 0.416301
Si Si5 0.638751 0.654737 0.083764
O O1 0.698748 0.500000 0.681914
O O2 0.670589 0.747993 0.752216
O O3 0.910112 0.673078 0.651974
O O4 0.669866 0.731847 0.602510
O O5 0.926617 0.500000 0.203574
O O6 0.783730 0.641374 0.116577
O O7 0.044719 0.724285 0.127799
O O8 0.368998 0.628740 0.008413
O O9 0.892962 0.500000 0.416372
O O10 0.000000 0.318599 0.500000
O O11 0.550499 0.500000 0.100964
#
# Coordination Sequence:
#
# PCOD9214426 Si02
#       5
#     8   8   2   8   8
#     4  11  23  37  59  88 118 159 201 246 299 348
#     4  11  22  38  60  89 117 155 201 245 292 349
#     4   8  20  44  62  86 124 156 184 242 300 352
#     4  10  22  40  60  87 122 158 200 249 298 353
#     4   9  21  40  61  86 120 154 190 241 294 352
#
# _framework density 22.463919000000001
#
# number of rings (size 3 to 8) (size 9 to 14) (size 15 to 20)
#    0.706    1.176    0.000    3.529    0.000    8.941 
#    0.000    0.588    0.000    0.000    0.000    0.000 
#    0.000    0.000    0.000    0.000    0.000    0.000 
#
# Total GULP energy -94702.699157 kJ/mol
# GULP energy per Si atom -5570.747009 kJ/mol
# Density = 2.241279 g / cm^3
# Si number density = 22.463919 Si / 1000 Ang^3
#
#
#
# Elastic Constant Matrix: (Units=GPa)
#
#
# Indices 1 2 3 4 5 6 
#
# 1 60.4162 38.2055 2.6334 0.0000 6.5711 0.0000
# 2 38.2055 151.0370 32.2384 0.0000 -2.6275 0.0000
# 3 2.6334 32.2384 47.3647 0.0000 -1.0257 0.0000
# 4 0.0000 0.0000 0.0000 40.5359 0.0000 6.6649
# 5 6.5711 -2.6275 -1.0257 0.0000 34.2255 0.0000
# 6 0.0000 0.0000 0.0000 6.6649 0.0000 24.2156
#
#
#
# Elastic Compliance Matrix: (Units=1/GPa)
#
#
# Indices 1 2 3 4 5 6 
#
# 1 0.020621 -0.005881 0.002763 0.000000 -0.004328 0.000000
# 2 -0.005881 0.009430 -0.006055 0.000000 0.001672 0.000000
# 3 0.002763 -0.006055 0.025075 0.000000 -0.000244 0.000000
# 4 0.000000 0.000000 0.000000 0.025839 0.000000 -0.007112
# 5 -0.004328 0.001672 -0.000244 0.000000 0.030170 0.000000
# 6 0.000000 0.000000 0.000000 -0.007112 0.000000 0.043253
#
#
# Mechanical properties :
#
#
# Convention : Reuss Voigt Hill
#
# Bulk Modulus (GPa) = 27.18925 44.99694 36.09310
# Shear Modulus (GPa) = 27.02761 32.17812 29.60287
#
# Velocity S-wave (km/s) = 3.47242 3.78886 3.63408
# Velocity P-wave (km/s) = 5.31100 6.26218 5.80610
#
# Compressibility (1/GPa) = 0.03677924
#
# Stress axis : x y z
#
# Youngs Moduli (GPa) = 48.49356 106.04268 39.87969
#
# Poissons Ratio (x) = 0.62366 -0.11018
# Poissons Ratio (y) = 0.28520 0.24149
# Poissons Ratio (z) = -0.13398 0.64213
#
# Static dielectric constant tensor:
#      x y z
#    x 1.937420 0.000000 0.031350 
#    y 0.000000 1.899990 0.000000 
#    z 0.031350 0.000000 1.863430 
# 
# From -- ./inp_files/298721.got.cif
#   From: 2010.05.17/outbox.cif.g08.bks.cpg/sg12_150_cif.got.tgz:298721.got - 2010.06.03 13:09:07.
