data_PCOD9214180
_publ_section_title
;
Structure prediction by ZEFSAII (Michael W. Deem and Ramdas Pophale) SiO2 
 PCOD9214180
Probable space group: C 2/M
;
_chemical_formula_sum "Si O2"
_cell_formula_units_Z 52
_cell_length_a 5.322712
_cell_length_b 29.679652
_cell_length_c 20.971589
_cell_angle_alpha 90.000000
_cell_angle_beta 132.544281
_cell_angle_gamma 90.000000
_cell_volume 2440.878684
_symmetry_space_group_name_H-M "C 2/M"
_symmetry_group_IT_number 12
_symmetry_cell_setting 'monoclinic'
loop_
_space_group_symop_operation_xyz
x,y,z
-x,y,-z
-x,-y,-z
x,-y,z
1/2+x,1/2+y,z
1/2-x,1/2+y,-z
1/2-x,1/2-y,-z
1/2+x,1/2-y,z
loop_
_atom_site_type_symbol
_atom_site_label
_atom_site_fract_x
_atom_site_fract_y
_atom_site_fract_z
Si Si1 0.191498 0.547620 0.269660
Si Si2 0.238138 0.724770 0.395667
Si Si3 0.980784 0.449994 0.420593
Si Si4 0.000000 0.280236 0.000000
Si Si5 0.210374 0.911752 0.094999
Si Si6 0.502557 0.127051 0.670639
Si Si7 0.183998 0.858234 0.862402
O O1 0.101743 0.500000 0.286706
O O2 0.593250 0.547331 0.329235
O O3 0.966489 0.552314 0.168763
O O4 0.112535 0.592158 0.295272
O O5 0.500000 0.725349 0.500000
O O6 0.392346 0.754951 0.365706
O O7 0.192628 0.673875 0.365137
O O8 0.132576 0.500000 0.432798
O O9 0.089206 0.403169 0.407134
O O10 0.000000 0.445506 0.500000
O O11 0.771027 0.312084 0.914281
O O12 0.750000 0.250000 0.000000
O O13 0.462535 0.873936 0.108901
O O14 0.962121 0.891543 0.107097
O O15 0.000000 0.930192 0.000000
O O16 0.892791 0.139915 0.757217
#
# Coordination Sequence:
#
# PCOD9214180 Si02
#       7
#     8   8   8   4   8   8   8
#     4  10  23  40  62 100 137 174 224 276 331 405
#     4  10  25  44  66  95 128 165 219 283 332 391
#     4  10  22  39  63  98 138 177 227 281 338 406
#     4  12  24  40  64  96 129 164 213 284 348 404
#     4  11  20  40  66  89 131 174 216 262 321 389
#     4  11  24  40  69  91 135 179 227 271 348 399
#     4  11  23  40  63  94 126 171 216 268 325 403
#
# _framework density 21.303805000000001
#
# number of rings (size 3 to 8) (size 9 to 14) (size 15 to 20)
#    0.000    1.385    3.077    1.385    4.308    2.154 
#    0.000    2.308    0.000    2.769    0.000    0.000 
#    0.000    0.000    0.000    0.000    0.000    0.000 
#
# Total GULP energy -145029.386836 kJ/mol
# GULP energy per Si atom -5578.053340 kJ/mol
# Density = 2.125532 g / cm^3
# Si number density = 21.303805 Si / 1000 Ang^3
#
#
#
# Elastic Constant Matrix: (Units=GPa)
#
#
# Indices 1 2 3 4 5 6 
#
# 1 69.7008 29.6303 26.6269 0.0000 -0.5176 0.0000
# 2 29.6303 147.6158 23.6435 0.0000 -9.0000 0.0000
# 3 26.6269 23.6435 66.0860 0.0000 -3.8752 0.0000
# 4 0.0000 0.0000 0.0000 81.4122 0.0000 19.2115
# 5 -0.5176 -9.0000 -3.8752 0.0000 29.4718 0.0000
# 6 0.0000 0.0000 0.0000 19.2115 0.0000 43.8825
#
#
#
# Elastic Compliance Matrix: (Units=1/GPa)
#
#
# Indices 1 2 3 4 5 6 
#
# 1 0.017886 -0.002657 -0.006334 0.000000 -0.001330 0.000000
# 2 -0.002657 0.007685 -0.001556 0.000000 0.002095 0.000000
# 3 -0.006334 -0.001556 0.018348 0.000000 0.001826 0.000000
# 4 0.000000 0.000000 0.000000 0.013698 0.000000 -0.005997
# 5 -0.001330 0.002095 0.001826 0.000000 0.034787 0.000000
# 6 0.000000 0.000000 0.000000 -0.005997 0.000000 0.025414
#
#
# Mechanical properties :
#
#
# Convention : Reuss Voigt Hill
#
# Bulk Modulus (GPa) = 43.81198 49.24489 46.52843
# Shear Modulus (GPa) = 34.12504 44.52009 39.32256
#
# Velocity S-wave (km/s) = 4.00663 4.57636 4.30094
# Velocity P-wave (km/s) = 6.48182 7.14772 6.82290
#
# Compressibility (1/GPa) = 0.02282481
#
# Stress axis : x y z
#
# Youngs Moduli (GPa) = 55.90861 130.13026 54.50284
#
# Poissons Ratio (x) = 0.34573 0.34523
# Poissons Ratio (y) = 0.14854 0.08480
# Poissons Ratio (z) = 0.35413 0.20248
#
# Static dielectric constant tensor:
#      x y z
#    x 1.818070 0.000000 0.007660 
#    y 0.000000 1.762630 0.000000 
#    z 0.007660 0.000000 1.847310 
# 
# From -- ./inp_files/298384.got.cif
#   From: 2010.05.17/outbox.cif.g08.bks.cpg/sg12_150_cif.got.tgz:298384.got - 2010.06.03 13:09:07.
