data_PCOD9214318
_publ_section_title
;
Structure prediction by ZEFSAII (Michael W. Deem and Ramdas Pophale) SiO2 
 PCOD9214318
Probable space group: C 2/M
;
_chemical_formula_sum "Si O2"
_cell_formula_units_Z 40
_cell_length_a 13.387813
_cell_length_b 29.656501
_cell_length_c 5.994616
_cell_angle_alpha 90.000000
_cell_angle_beta 61.021350
_cell_angle_gamma 90.000000
_cell_volume 2082.091634
_symmetry_space_group_name_H-M "C 2/M"
_symmetry_group_IT_number 12
_symmetry_cell_setting 'monoclinic'
loop_
_space_group_symop_operation_xyz
x,y,z
-x,y,-z
-x,-y,-z
x,-y,z
1/2+x,1/2+y,z
1/2-x,1/2+y,-z
1/2-x,1/2-y,-z
1/2+x,1/2-y,z
loop_
_atom_site_type_symbol
_atom_site_label
_atom_site_fract_x
_atom_site_fract_y
_atom_site_fract_z
Si Si1 0.295011 0.646531 0.514078
Si Si2 0.620244 0.721671 0.239374
Si Si3 0.127637 0.405099 0.969366
Si Si4 0.867473 0.322685 0.700414
Si Si5 0.000000 0.165917 0.000000
Si Si6 0.062970 0.500000 0.183798
O O1 0.315687 0.684988 0.677649
O O2 0.229720 0.602923 0.682612
O O3 0.206266 0.667594 0.436613
O O4 0.416580 0.638989 0.258250
O O5 0.500000 0.726888 0.500000
O O6 0.662932 0.773114 0.175990
O O7 0.584747 0.697994 0.047796
O O8 0.145828 0.364170 0.118769
O O9 0.129842 0.452896 0.092465
O O10 0.000000 0.400431 0.000000
O O11 0.000000 0.322605 0.500000
O O12 0.000000 0.500000 0.500000
O O13 0.000000 0.500000 0.000000
#
# Coordination Sequence:
#
# PCOD9214318 Si02
#       6
#     8   8   8   8   4   4
#     4  11  22  38  58  87 123 168 216 261 315 386
#     4   9  21  36  56  83 123 170 214 264 313 372
#     4  11  23  38  62  92 124 163 210 265 331 391
#     4  11  21  35  59  89 126 163 211 266 324 386
#     4  10  22  40  56  81 122 173 220 262 312 370
#     4  10  24  44  68  95 137 167 210 270 341 405
#
# _framework density 19.211451
#
# number of rings (size 3 to 8) (size 9 to 14) (size 15 to 20)
#    0.000    1.600    2.000    2.400    4.200    4.800 
#    0.000    0.000    0.000    0.600    0.000   13.300 
#    0.000    0.000    0.000    0.000    0.000    0.000 
#
# Total GULP energy -111487.772309 kJ/mol
# GULP energy per Si atom -5574.388615 kJ/mol
# Density = 1.916772 g / cm^3
# Si number density = 19.211451 Si / 1000 Ang^3
#
#
#
# Elastic Constant Matrix: (Units=GPa)
#
#
# Indices 1 2 3 4 5 6 
#
# 1 97.1916 43.3650 40.1574 0.0000 9.2635 0.0000
# 2 43.3650 144.3438 76.7074 0.0000 -17.7148 0.0000
# 3 40.1574 76.7074 122.4329 0.0000 -17.5769 0.0000
# 4 0.0000 0.0000 0.0000 33.9366 0.0000 -12.7768
# 5 9.2635 -17.7148 -17.5769 0.0000 41.9275 0.0000
# 6 0.0000 0.0000 0.0000 -12.7768 0.0000 15.0192
#
#
#
# Elastic Compliance Matrix: (Units=1/GPa)
#
#
# Indices 1 2 3 4 5 6 
#
# 1 0.013558 -0.002958 -0.003408 0.000000 -0.005674 0.000000
# 2 -0.002958 0.011156 -0.005585 0.000000 0.003026 0.000000
# 3 -0.003408 -0.005585 0.013358 0.000000 0.003993 0.000000
# 4 0.000000 0.000000 0.000000 0.043351 0.000000 0.036879
# 5 -0.005674 0.003026 0.003993 0.000000 0.028057 0.000000
# 6 0.000000 0.000000 0.000000 0.036879 0.000000 0.097954
#
#
# Mechanical properties :
#
#
# Convention : Reuss Voigt Hill
#
# Bulk Modulus (GPa) = 70.57514 76.04755 73.31135
# Shear Modulus (GPa) = 21.18115 31.75921 26.47018
#
# Velocity S-wave (km/s) = 3.32404 4.07029 3.71594
# Velocity P-wave (km/s) = 7.17969 7.85876 7.52689
#
# Compressibility (1/GPa) = 0.01416930
#
# Stress axis : x y z
#
# Youngs Moduli (GPa) = 73.75784 89.63865 74.86272
#
# Poissons Ratio (x) = 0.26519 0.25513
# Poissons Ratio (y) = 0.21821 0.41809
# Poissons Ratio (z) = 0.25136 0.50060
#
# Static dielectric constant tensor:
#      x y z
#    x 1.662250 0.000000 -0.035050 
#    y 0.000000 1.636580 0.000000 
#    z -0.035050 0.000000 1.783660 
# 
# From -- ./inp_files/8562.got.cif
#   From: 2010.05.17/outbox.cif.g08.bks.cpg/sg12_5_cif.got.tgz:8562.got - 2010.06.03 13:09:07.
