data_PCOD9214523
_publ_section_title
;
Structure prediction by ZEFSAII (Michael W. Deem and Ramdas Pophale) SiO2 
 PCOD9214523
Probable space group: C 2/M
;
_chemical_formula_sum "Si O2"
_cell_formula_units_Z 48
_cell_length_a 14.381319
_cell_length_b 11.562659
_cell_length_c 21.197922
_cell_angle_alpha 90.000000
_cell_angle_beta 134.060288
_cell_angle_gamma 90.000000
_cell_volume 2533.040051
_symmetry_space_group_name_H-M "C 2/M"
_symmetry_group_IT_number 12
_symmetry_cell_setting 'monoclinic'
loop_
_space_group_symop_operation_xyz
x,y,z
-x,y,-z
-x,-y,-z
x,-y,z
1/2+x,1/2+y,z
1/2-x,1/2+y,-z
1/2-x,1/2-y,-z
1/2+x,1/2-y,z
loop_
_atom_site_type_symbol
_atom_site_label
_atom_site_fract_x
_atom_site_fract_y
_atom_site_fract_z
Si Si1 0.149238 0.720057 0.898453
Si Si2 0.709591 0.635567 0.609111
Si Si3 0.644065 0.639699 0.771608
Si Si4 0.367231 0.752161 0.789778
Si Si5 0.941546 0.000000 0.867826
Si Si6 0.955550 0.865985 0.579714
Si Si7 0.698309 0.500000 0.064281
O O1 0.137684 0.819520 0.840375
O O2 0.210401 0.610141 0.893902
O O3 0.009890 0.694336 0.862417
O O4 0.250000 0.750000 0.000000
O O5 0.750217 0.500000 0.623586
O O6 0.811042 0.711780 0.695197
O O7 0.661238 0.681480 0.518256
O O8 0.581687 0.634908 0.593402
O O9 0.652608 0.500000 0.770336
O O10 0.767161 0.697038 0.794131
O O11 0.514812 0.680523 0.672656
O O12 0.392175 0.615767 0.810589
O O13 0.879142 0.000000 0.907560
O O14 0.095406 0.000000 0.957228
O O15 0.920935 0.000000 0.574436
#
# Coordination Sequence:
#
# PCOD9214523 Si02
#       7
#     8   8   8   8   4   8   4
#     4  12  26  40  60  86 115 153 195 244 292 341
#     4   8  14  28  55  88 112 144 188 233 282 338
#     4  10  22  40  61  90 116 148 197 244 282 336
#     4  11  22  38  60  89 115 153 194 238 287 340
#     4  11  22  42  62  75 117 165 197 226 292 363
#     4   7  12  28  55  82 114 145 182 233 284 332
#     4  11  24  44  60  77 115 162 199 232 294 356
#
# _framework density 18.949560999999999
#
# number of rings (size 3 to 8) (size 9 to 14) (size 15 to 20)
#    0.000    2.167    3.333    2.500    4.667    0.667 
#    0.000    1.667    0.000    9.000    0.000    0.000 
#    0.000    0.000    0.000    0.000    0.000    0.000 
#
# Total GULP energy -133720.002519 kJ/mol
# GULP energy per Si atom -5571.666772 kJ/mol
# Density = 1.890643 g / cm^3
# Si number density = 18.949561 Si / 1000 Ang^3
#
#
#
# Elastic Constant Matrix: (Units=GPa)
#
#
# Indices 1 2 3 4 5 6 
#
# 1 47.6504 10.5586 24.2672 0.0000 -8.2552 0.0000
# 2 10.5586 85.5705 36.8329 0.0000 -1.6589 0.0000
# 3 24.2672 36.8329 164.2627 0.0000 -15.0657 0.0000
# 4 0.0000 0.0000 0.0000 36.1537 0.0000 -1.6061
# 5 -8.2552 -1.6589 -15.0657 0.0000 23.5753 0.0000
# 6 0.0000 0.0000 0.0000 -1.6061 0.0000 16.0314
#
#
#
# Elastic Compliance Matrix: (Units=1/GPa)
#
#
# Indices 1 2 3 4 5 6 
#
# 1 0.023796 -0.001722 -0.002524 0.000000 0.006598 0.000000
# 2 -0.001722 0.013082 -0.002815 0.000000 -0.001481 0.000000
# 3 -0.002524 -0.002815 0.007428 0.000000 0.003665 0.000000
# 4 0.000000 0.000000 0.000000 0.027783 0.000000 0.002783
# 5 0.006598 -0.001481 0.003665 0.000000 0.046966 0.000000
# 6 0.000000 0.000000 0.000000 0.002783 0.000000 0.062657
#
#
# Mechanical properties :
#
#
# Convention : Reuss Voigt Hill
#
# Bulk Modulus (GPa) = 33.12979 48.97788 41.05384
# Shear Modulus (GPa) = 24.28427 30.20707 27.24567
#
# Velocity S-wave (km/s) = 3.58372 3.99692 3.79595
# Velocity P-wave (km/s) = 5.88601 6.87045 6.39720
#
# Compressibility (1/GPa) = 0.03018431
#
# Stress axis : x y z
#
# Youngs Moduli (GPa) = 42.02320 76.44319 134.62521
#
# Poissons Ratio (x) = 0.13162 0.33983
# Poissons Ratio (y) = 0.07235 0.37894
# Poissons Ratio (z) = 0.10608 0.21517
#
# Static dielectric constant tensor:
#      x y z
#    x 1.670610 0.000000 -0.020570 
#    y 0.000000 0.874920 0.000000 
#    z -0.020570 0.000000 1.693650 
# 
# From -- ./inp_files/212789.got.cif
#   From: 2010.05.17/outbox.cif.g08.bks.cpg/sg12_107_cif.got.tgz:212789.got - 2010.06.03 13:09:07.
