data_PCOD9214874
_publ_section_title
;
Structure prediction by ZEFSAII (Michael W. Deem and Ramdas Pophale) SiO2 
 PCOD9214874
Probable space group: C 2/M
;
_chemical_formula_sum "Si O2"
_cell_formula_units_Z 56
_cell_length_a 7.391100
_cell_length_b 29.956265
_cell_length_c 12.239987
_cell_angle_alpha 90.000000
_cell_angle_beta 64.624389
_cell_angle_gamma 90.000000
_cell_volume 2448.580628
_symmetry_space_group_name_H-M "C 2/M"
_symmetry_group_IT_number 12
_symmetry_cell_setting 'monoclinic'
loop_
_space_group_symop_operation_xyz
x,y,z
-x,y,-z
-x,-y,-z
x,-y,z
1/2+x,1/2+y,z
1/2-x,1/2+y,-z
1/2-x,1/2-y,-z
1/2+x,1/2-y,z
loop_
_atom_site_type_symbol
_atom_site_label
_atom_site_fract_x
_atom_site_fract_y
_atom_site_fract_z
Si Si1 0.614852 0.726391 0.250912
Si Si2 0.239318 0.000000 0.560568
Si Si3 0.549285 0.206682 0.114328
Si Si4 0.758287 0.000000 0.693152
Si Si5 0.285335 0.590329 0.302568
Si Si6 0.181010 0.385439 0.094838
Si Si7 0.253506 0.412036 0.830747
Si Si8 0.315767 0.810464 0.624954
O O1 0.597958 0.741225 0.128949
O O2 0.821544 0.702486 0.224938
O O3 0.636705 0.776871 0.289299
O O4 0.413744 0.702845 0.345509
O O5 0.284784 0.953876 0.614317
O O6 0.314279 0.000000 0.414702
O O7 0.998431 0.000000 0.619702
O O8 0.714735 0.167815 0.094517
O O9 0.500000 0.201031 0.000000
O O10 0.705342 0.041626 0.782808
O O11 0.258146 0.587240 0.178837
O O12 0.521372 0.598685 0.264017
O O13 0.177060 0.636625 0.358634
O O14 0.940022 0.384857 0.154686
O O15 0.252358 0.407416 0.962945
O O16 0.500000 0.799200 0.500000
#
# Coordination Sequence:
#
# PCOD9214874 Si02
#       8
#     8   4   8   4   8   8   8   8
#     4  10  23  40  63  89 133 176 220 285 332 399
#     4   9  22  44  70  97 133 175 229 290 332 409
#     4  11  20  39  60  95 129 173 224 272 337 411
#     4   9  20  43  70  94 128 170 231 275 346 405
#     4  11  23  43  67  99 134 178 227 282 348 404
#     4  11  22  38  63  97 138 168 222 273 339 417
#     4  10  22  40  65  92 131 174 212 280 338 410
#     4  11  23  41  64  91 127 172 230 277 337 395
#
# _framework density 22.870391999999999
#
# number of rings (size 3 to 8) (size 9 to 14) (size 15 to 20)
#    0.000    1.571    2.857    2.143    0.000    3.429 
#    0.000    3.214    6.286    0.000    0.000    0.000 
#    0.000    0.000    0.000    0.000    0.000    0.000 
#
# Total GULP energy -155926.555543 kJ/mol
# GULP energy per Si atom -5568.805555 kJ/mol
# Density = 2.281834 g / cm^3
# Si number density = 22.870392 Si / 1000 Ang^3
#
#
#
# Elastic Constant Matrix: (Units=GPa)
#
#
# Indices 1 2 3 4 5 6 
#
# 1 85.9160 15.1626 16.5151 0.0000 -16.4244 0.0000
# 2 15.1626 148.9052 74.8625 0.0000 14.2961 0.0000
# 3 16.5151 74.8625 75.7213 0.0000 -3.6230 0.0000
# 4 0.0000 0.0000 0.0000 76.3115 0.0000 13.5183
# 5 -16.4244 14.2961 -3.6230 0.0000 30.5804 0.0000
# 6 0.0000 0.0000 0.0000 13.5183 0.0000 29.0727
#
#
#
# Elastic Compliance Matrix: (Units=1/GPa)
#
#
# Indices 1 2 3 4 5 6 
#
# 1 0.013647 -0.001702 -0.000911 0.000000 0.008017 0.000000
# 2 -0.001702 0.015745 -0.015680 0.000000 -0.010132 0.000000
# 3 -0.000911 -0.015680 0.029401 0.000000 0.010324 0.000000
# 4 0.000000 0.000000 0.000000 0.014280 0.000000 -0.006640
# 5 0.008017 -0.010132 0.010324 0.000000 0.042967 0.000000
# 6 0.000000 0.000000 0.000000 -0.006640 0.000000 0.037484
#
#
# Mechanical properties :
#
#
# Convention : Reuss Voigt Hill
#
# Bulk Modulus (GPa) = 45.02706 58.18032 51.60369
# Shear Modulus (GPa) = 25.31492 40.79305 33.05399
#
# Velocity S-wave (km/s) = 3.33060 4.22792 3.80580
# Velocity P-wave (km/s) = 5.87547 7.02340 6.47493
#
# Compressibility (1/GPa) = 0.02220887
#
# Stress axis : x y z
#
# Youngs Moduli (GPa) = 73.27453 63.51268 34.01233
#
# Poissons Ratio (x) = 0.10807 0.03097
# Poissons Ratio (y) = 0.12468 0.53331
# Poissons Ratio (z) = 0.06673 0.99588
#
# Static dielectric constant tensor:
#      x y z
#    x 2.061720 0.000000 0.191560 
#    y 0.000000 1.937820 0.000000 
#    z 0.191560 0.000000 2.071860 
# 
# From -- ./inp_files/125676.got.cif
#   From: 2010.05.17/outbox.cif.g08.bks.cpg/sg12_63_cif.got.tgz:125676.got - 2010.06.03 13:09:07.
