data_PCOD9214344
_publ_section_title
;
Structure prediction by ZEFSAII (Michael W. Deem and Ramdas Pophale) SiO2 
 PCOD9214344
Probable space group: C 2/M
;
_chemical_formula_sum "Si O2"
_cell_formula_units_Z 36
_cell_length_a 5.156477
_cell_length_b 23.288859
_cell_length_c 17.835630
_cell_angle_alpha 90.000000
_cell_angle_beta 105.106269
_cell_angle_gamma 90.000000
_cell_volume 2067.839817
_symmetry_space_group_name_H-M "C 2/M"
_symmetry_group_IT_number 12
_symmetry_cell_setting 'monoclinic'
loop_
_space_group_symop_operation_xyz
x,y,z
-x,y,-z
-x,-y,-z
x,-y,z
1/2+x,1/2+y,z
1/2-x,1/2+y,-z
1/2-x,1/2-y,-z
1/2+x,1/2-y,z
loop_
_atom_site_type_symbol
_atom_site_label
_atom_site_fract_x
_atom_site_fract_y
_atom_site_fract_z
Si Si1 0.299867 0.500000 0.554615
Si Si2 0.003798 0.099070 0.678510
Si Si3 0.902846 0.213458 0.408173
Si Si4 0.398364 0.932101 0.226489
Si Si5 0.705107 0.930159 0.952119
O O1 0.500000 0.500000 0.500000
O O2 0.362493 0.555365 0.610045
O O3 0.000000 0.500000 0.500000
O O4 0.804562 0.101322 0.734378
O O5 0.057905 0.159030 0.641678
O O6 0.293942 0.075018 0.725142
O O7 0.600092 0.236349 0.393331
O O8 0.000000 0.198976 0.500000
O O9 0.365216 0.913221 0.137810
O O10 0.326806 0.000000 0.226412
O O11 0.697235 0.000000 0.951474
O O12 0.500000 0.910011 0.000000
O O13 0.000000 0.912520 0.000000
#
# Coordination Sequence:
#
# PCOD9214344 Si02
#       5
#     4   8   8   8   8
#     4  12  24  36  52  76 108 146 180 212 262 332
#     4  12  22  37  55  80 111 144 182 225 274 329
#     4  10  22  40  59  77 101 139 187 239 281 311
#     4  11  20  34  52  79 117 148 176 215 274 323
#     4   9  17  29  47  72 105 148 183 208 245 316
#
# _framework density 17.409471
#
# number of rings (size 3 to 8) (size 9 to 14) (size 15 to 20)
#    0.000    1.333    2.222    4.667    0.000    6.222 
#    0.000    0.000    0.000    0.000    0.000    0.000 
#    0.000   62.222    0.000    0.000    0.000    0.000 
#
# Total GULP energy -100545.929755 kJ/mol
# GULP energy per Si atom -5585.884986 kJ/mol
# Density = 1.736985 g / cm^3
# Si number density = 17.409471 Si / 1000 Ang^3
#
#
#
# Elastic Constant Matrix: (Units=GPa)
#
#
# Indices 1 2 3 4 5 6 
#
# 1 135.2093 8.6141 67.4706 0.0000 -17.2060 0.0000
# 2 8.6141 41.9787 40.9958 0.0000 -5.9664 0.0000
# 3 67.4706 40.9958 138.7681 0.0000 -18.6062 0.0000
# 4 0.0000 0.0000 0.0000 12.2491 0.0000 -10.6482
# 5 -17.2060 -5.9664 -18.6062 0.0000 35.0077 0.0000
# 6 0.0000 0.0000 0.0000 -10.6482 0.0000 19.9790
#
#
#
# Elastic Compliance Matrix: (Units=1/GPa)
#
#
# Indices 1 2 3 4 5 6 
#
# 1 0.010419 0.003990 -0.005887 0.000000 0.002672 0.000000
# 2 0.003990 0.035017 -0.012083 0.000000 0.001507 0.000000
# 3 -0.005887 -0.012083 0.013970 0.000000 0.002472 0.000000
# 4 0.000000 0.000000 0.000000 0.152116 0.000000 0.081073
# 5 0.002672 0.001507 0.002472 0.000000 0.031449 0.000000
# 6 0.000000 0.000000 0.000000 0.081073 0.000000 0.093262
#
#
# Mechanical properties :
#
#
# Convention : Reuss Voigt Hill
#
# Bulk Modulus (GPa) = 31.79896 61.12413 46.46154
# Shear Modulus (GPa) = 13.34493 26.70554 20.02523
#
# Velocity S-wave (km/s) = 2.77164 3.92084 3.39521
# Velocity P-wave (km/s) = 5.34300 7.46212 6.48964
#
# Compressibility (1/GPa) = 0.03144757
#
# Stress axis : x y z
#
# Youngs Moduli (GPa) = 95.97661 28.55740 71.58452
#
# Poissons Ratio (x) = -0.11396 0.42138
# Poissons Ratio (y) = -0.38299 0.86497
# Poissons Ratio (z) = 0.56497 0.34506
#
# Static dielectric constant tensor:
#      x y z
#    x 1.579430 0.000000 -0.004520 
#    y 0.000000 1.577170 0.000000 
#    z -0.004520 0.000000 1.582430 
# 
# From -- ./inp_files/191520.got.cif
#   From: 2010.05.17/outbox.cif.g08.bks.cpg/sg12_96_cif.got.tgz:191520.got - 2010.06.03 13:09:07.
