data_PCOD9214986
_publ_section_title
;
Structure prediction by ZEFSAII (Michael W. Deem and Ramdas Pophale) SiO2 
 PCOD9214986
Probable space group: C 2/M
;
_chemical_formula_sum "Si O2"
_cell_formula_units_Z 44
_cell_length_a 33.364743
_cell_length_b 7.859444
_cell_length_c 28.162534
_cell_angle_alpha 90.000000
_cell_angle_beta 18.389340
_cell_angle_gamma 90.000000
_cell_volume 2329.768838
_symmetry_space_group_name_H-M "C 2/M"
_symmetry_group_IT_number 12
_symmetry_cell_setting 'monoclinic'
loop_
_space_group_symop_operation_xyz
x,y,z
-x,y,-z
-x,-y,-z
x,-y,z
1/2+x,1/2+y,z
1/2-x,1/2+y,-z
1/2-x,1/2-y,-z
1/2+x,1/2-y,z
loop_
_atom_site_type_symbol
_atom_site_label
_atom_site_fract_x
_atom_site_fract_y
_atom_site_fract_z
Si Si1 0.896829 0.297527 0.842409
Si Si2 0.760053 0.500000 0.652240
Si Si3 0.930309 0.808232 0.437686
Si Si4 0.490400 0.500000 0.912969
Si Si5 0.637259 0.694601 0.286787
Si Si6 0.580102 0.197492 0.073820
Si Si7 0.706884 0.000000 0.273534
O O1 0.909687 0.500000 0.820983
O O2 0.933057 0.258627 0.855977
O O3 0.984051 0.207373 0.705630
O O4 0.750000 0.250000 0.000000
O O5 0.822534 0.666651 0.558927
O O6 0.609929 0.500000 0.813103
O O7 0.797486 0.500000 0.665324
O O8 0.024396 0.775119 0.376468
O O9 0.880694 0.000000 0.497934
O O10 0.490813 0.332549 0.879340
O O11 0.355420 0.500000 0.091498
O O12 0.628444 0.500000 0.314449
O O13 0.644821 0.833677 0.319429
O O14 0.770282 0.709001 0.108273
O O15 0.542425 0.000000 0.108835
#
# Coordination Sequence:
#
# PCOD9214986 Si02
#       7
#     8   4   8   4   8   8   4
#     4  11  20  32  60  96 126 156 194 234 291 364
#     4  12  26  44  57  85 118 162 212 254 293 352
#     4  11  23  38  58  88 130 162 191 239 303 365
#     4  10  23  42  66  82 112 160 212 254 296 344
#     4   9  18  35  58  93 122 148 187 241 308 373
#     4   9  19  35  59  91 119 150 194 248 295 346
#     4  10  22  40  67  85 112 152 206 263 306 345
#
# _framework density 18.885992000000002
#
# number of rings (size 3 to 8) (size 9 to 14) (size 15 to 20)
#    0.000    1.818    2.727    1.364    2.545    2.909 
#    0.000    2.727    0.000    5.455    0.000    0.000 
#    0.000    0.000    0.000    0.000    0.000    0.000 
#
# Total GULP energy -122948.879322 kJ/mol
# GULP energy per Si atom -5588.585424 kJ/mol
# Density = 1.884301 g / cm^3
# Si number density = 18.885992 Si / 1000 Ang^3
#
#
#
# Elastic Constant Matrix: (Units=GPa)
#
#
# Indices 1 2 3 4 5 6 
#
# 1 47.2880 38.7387 22.1410 0.0094 13.8906 0.0116
# 2 38.7387 93.5162 36.0042 0.0132 -2.1102 0.0183
# 3 22.1410 36.0042 61.3269 0.0091 6.5877 0.0124
# 4 0.0094 0.0132 0.0091 3.5464 0.0003 -8.4032
# 5 13.8906 -2.1102 6.5877 0.0003 23.4671 -0.0004
# 6 0.0116 0.0183 0.0124 -8.4032 -0.0004 8.5799
#
#
#
# Elastic Compliance Matrix: (Units=1/GPa)
#
#
# Indices 1 2 3 4 5 6 
#
# 1 0.045899 -0.018645 -0.002605 0.000068 -0.028114 0.000046
# 2 -0.018645 0.021697 -0.007631 0.000027 0.015130 0.000017
# 3 -0.002605 -0.007631 0.022308 0.000039 -0.005407 0.000026
# 4 0.000068 0.000027 0.000039 -0.213507 -0.000050 -0.209109
# 5 -0.028114 0.015130 -0.005407 -0.000050 0.062132 -0.000032
# 6 0.000046 0.000017 0.000026 -0.209109 -0.000032 -0.088251
#
#
# Mechanical properties :
#
#
# Convention : Reuss Voigt Hill
#
# Bulk Modulus (GPa) = 31.11348 43.98876 37.55112
# Shear Modulus (GPa) = -61.54164 14.13517 -23.70324
#
# Velocity S-wave (km/s) = -5.71460 2.73874 -3.54654
# Velocity P-wave (km/s) = 5.19923 5.77436 1.77641
#
# Compressibility (1/GPa) = 0.03214041
#
# Stress axis : x y z
#
# Youngs Moduli (GPa) = 21.78695 46.09037 44.82777
#
# Poissons Ratio (x) = 0.85936 0.11677
# Poissons Ratio (y) = 0.40622 0.34210
# Poissons Ratio (z) = 0.05675 0.35174
#
# Static dielectric constant tensor:
#      x y z
#    x 1.617350 0.000000 0.018960 
#    y 0.000000 1.656750 0.000000 
#    z 0.018960 0.000000 1.632970 
# 
# From -- ./inp_files/353239.got.cif
#   From: 2010.05.17/outbox.cif.g08.bks.cpg/sg12_177_cif.got.tgz:353239.got - 2010.06.03 13:09:07.
