data_PCOD9214485
_publ_section_title
;
Structure prediction by ZEFSAII (Michael W. Deem and Ramdas Pophale) SiO2 
 PCOD9214485
Probable space group: C 2/M
;
_chemical_formula_sum "Si O2"
_cell_formula_units_Z 48
_cell_length_a 18.083058
_cell_length_b 8.755507
_cell_length_c 15.760708
_cell_angle_alpha 90.000000
_cell_angle_beta 90.062081
_cell_angle_gamma 90.000000
_cell_volume 2495.333763
_symmetry_space_group_name_H-M "C 2/M"
_symmetry_group_IT_number 12
_symmetry_cell_setting 'monoclinic'
loop_
_space_group_symop_operation_xyz
x,y,z
-x,y,-z
-x,-y,-z
x,-y,z
1/2+x,1/2+y,z
1/2-x,1/2+y,-z
1/2-x,1/2-y,-z
1/2+x,1/2-y,z
loop_
_atom_site_type_symbol
_atom_site_label
_atom_site_fract_x
_atom_site_fract_y
_atom_site_fract_z
Si Si1 0.211122 0.681880 0.083140
Si Si2 0.790140 0.317838 0.248899
Si Si3 0.048210 0.182808 0.083131
Si Si4 0.787142 0.683109 0.584358
Si Si5 0.046455 0.818138 0.749050
Si Si6 0.461495 0.183232 0.589078
O O1 0.218660 0.500000 0.083212
O O2 0.249850 0.749671 0.166586
O O3 0.125461 0.729957 0.082958
O O4 0.250000 0.750000 0.000000
O O5 0.784610 0.500000 0.248066
O O6 0.751591 0.252802 0.333141
O O7 0.875366 0.266698 0.248512
O O8 0.001250 0.217804 0.167210
O O9 0.063035 0.000000 0.082187
O O10 0.000000 0.219267 0.000000
O O11 0.779019 0.500000 0.585015
O O12 0.750000 0.750000 0.500000
O O13 0.874511 0.718895 0.585634
O O14 0.001113 0.767369 0.666411
O O15 0.059545 0.000000 0.747681
O O16 0.500000 0.222928 0.500000
O O17 0.469436 0.000000 0.601073
#
# Coordination Sequence:
#
# PCOD9214485 Si02
#       6
#     8   8   8   8   8   8
#     4  12  25  42  65  93 126 163 207 256 308 368
#     4  12  25  42  64  90 125 166 209 257 308 365
#     4  10  22  41  64  91 125 162 201 249 306 368
#     4  11  23  40  64  94 128 165 207 255 308 368
#     4  11  23  39  63  93 123 158 203 255 309 365
#     4  10  22  40  61  87 121 161 203 250 306 366
#
# _framework density 19.235903
#
# number of rings (size 3 to 8) (size 9 to 14) (size 15 to 20)
#    0.000    1.000    0.000    7.000    0.000    8.667 
#    0.000    0.000    0.000    0.000    0.000    0.000 
#    0.000    0.000    0.000    0.000    0.000    0.000 
#
# Total GULP energy -134362.632899 kJ/mol
# GULP energy per Si atom -5598.443037 kJ/mol
# Density = 1.919212 g / cm^3
# Si number density = 19.235903 Si / 1000 Ang^3
#
#
#
# Elastic Constant Matrix: (Units=GPa)
#
#
# Indices 1 2 3 4 5 6 
#
# 1 174.7584 107.5061 109.3091 0.0000 -0.8571 0.0000
# 2 107.5061 126.5928 96.6422 0.0000 -1.6520 0.0000
# 3 109.3091 96.6422 215.0384 0.0000 0.0416 0.0000
# 4 0.0000 0.0000 0.0000 33.0079 0.0000 3.5997
# 5 -0.8571 -1.6520 0.0416 0.0000 39.3240 0.0000
# 6 0.0000 0.0000 0.0000 3.5997 0.0000 33.9347
#
#
#
# Elastic Compliance Matrix: (Units=1/GPa)
#
#
# Indices 1 2 3 4 5 6 
#
# 1 0.012787 -0.008978 -0.002465 0.000000 -0.000096 0.000000
# 2 -0.008978 0.018340 -0.003678 0.000000 0.000579 0.000000
# 3 -0.002465 -0.003678 0.007556 0.000000 -0.000216 0.000000
# 4 0.000000 0.000000 0.000000 0.030650 0.000000 -0.003251
# 5 -0.000096 0.000579 -0.000216 0.000000 0.025452 0.000000
# 6 0.000000 0.000000 0.000000 -0.003251 0.000000 0.029813
#
#
# Mechanical properties :
#
#
# Convention : Reuss Voigt Hill
#
# Bulk Modulus (GPa) = 118.48668 127.03382 122.76025
# Shear Modulus (GPa) = 31.71490 34.78212 33.24851
#
# Velocity S-wave (km/s) = 4.06487 4.25689 4.16199
# Velocity P-wave (km/s) = 9.15211 9.50499 9.33022
#
# Compressibility (1/GPa) = 0.00843977
#
# Stress axis : x y z
#
# Youngs Moduli (GPa) = 78.20707 54.52640 132.33942
#
# Poissons Ratio (x) = 0.48956 0.32617
# Poissons Ratio (y) = 0.70218 0.48679
# Poissons Ratio (z) = 0.19275 0.20057
#
# Static dielectric constant tensor:
#      x y z
#    x 1.631600 0.000000 -0.005310 
#    y 0.000000 1.647980 0.000000 
#    z -0.005310 0.000000 1.626770 
# 
# From -- ./inp_files/221674.got.cif
#   From: 2010.05.17/outbox.cif.g08.bks.cpg/sg12_111_cif.got.tgz:221674.got - 2010.06.03 13:09:07.
