data_PCOD9214875
_publ_section_title
;
Structure prediction by ZEFSAII (Michael W. Deem and Ramdas Pophale) SiO2 
 PCOD9214875
Probable space group: C 2/M
;
_chemical_formula_sum "Si O2"
_cell_formula_units_Z 32
_cell_length_a 14.947822
_cell_length_b 12.741902
_cell_length_c 9.461665
_cell_angle_alpha 90.000000
_cell_angle_beta 52.748219
_cell_angle_gamma 90.000000
_cell_volume 1434.444138
_symmetry_space_group_name_H-M "C 2/M"
_symmetry_group_IT_number 12
_symmetry_cell_setting 'monoclinic'
loop_
_space_group_symop_operation_xyz
x,y,z
-x,y,-z
-x,-y,-z
x,-y,z
1/2+x,1/2+y,z
1/2-x,1/2+y,-z
1/2-x,1/2-y,-z
1/2+x,1/2-y,z
loop_
_atom_site_type_symbol
_atom_site_label
_atom_site_fract_x
_atom_site_fract_y
_atom_site_fract_z
Si Si1 0.982225 0.500000 0.850154
Si Si2 0.700515 0.321021 0.675906
Si Si3 0.342521 0.500000 0.725244
Si Si4 0.876853 0.500000 0.542591
Si Si5 0.680333 0.817105 0.954982
Si Si6 0.945704 0.000000 0.316783
O O1 0.094485 0.500000 0.652018
O O2 0.913819 0.392411 0.885775
O O3 0.000000 0.500000 0.000000
O O4 0.750000 0.250000 0.500000
O O5 0.800877 0.396598 0.639720
O O6 0.647408 0.254604 0.854169
O O7 0.605371 0.398290 0.707654
O O8 0.266482 0.398787 0.804803
O O9 0.402378 0.500000 0.518542
O O10 0.421573 0.500000 0.787881
O O11 0.000000 0.500000 0.500000
O O12 0.750000 0.750000 0.000000
#
# Coordination Sequence:
#
# PCOD9214875 Si02
#       6
#     4   8   4   4   8   4
#     4  11  24  42  63  91 134 166 203 261 330 376
#     4  11  22  40  67  92 124 165 221 260 307 382
#     4  10  22  42  63  90 128 164 209 268 318 373
#     4  11  24  40  63  97 126 162 214 267 305 377
#     4  11  24  42  64  93 130 170 206 262 328 382
#     4  10  22  40  65  93 122 161 220 268 307 365
#
# _framework density 22.308292999999999
#
# number of rings (size 3 to 8) (size 9 to 14) (size 15 to 20)
#    0.000    1.250    2.500    3.000    3.500    9.000 
#    0.000    1.250    0.000    0.000    0.000    0.000 
#    0.000    0.000    0.000    0.000    0.000    0.000 
#
# Total GULP energy -89484.202450 kJ/mol
# GULP energy per Si atom -5592.762653 kJ/mol
# Density = 2.225752 g / cm^3
# Si number density = 22.308293 Si / 1000 Ang^3
#
#
#
# Elastic Constant Matrix: (Units=GPa)
#
#
# Indices 1 2 3 4 5 6 
#
# 1 96.9533 38.7129 -7.1650 0.0000 13.4097 0.0000
# 2 38.7129 137.4989 25.5864 0.0000 12.0226 0.0000
# 3 -7.1650 25.5864 59.4377 0.0000 9.6277 0.0000
# 4 0.0000 0.0000 0.0000 24.5006 0.0000 33.3844
# 5 13.4097 12.0226 9.6277 0.0000 34.3836 0.0000
# 6 0.0000 0.0000 0.0000 33.3844 0.0000 39.6421
#
#
#
# Elastic Compliance Matrix: (Units=1/GPa)
#
#
# Indices 1 2 3 4 5 6 
#
# 1 0.012845 -0.003949 0.004018 0.000000 -0.004754 0.000000
# 2 -0.003949 0.009240 -0.004378 0.000000 -0.000465 0.000000
# 3 0.004018 -0.004378 0.020111 0.000000 -0.005668 0.000000
# 4 0.000000 0.000000 0.000000 -0.276703 0.000000 0.233024
# 5 -0.004754 -0.000465 -0.005668 0.000000 0.032687 0.000000
# 6 0.000000 0.000000 0.000000 0.233024 0.000000 -0.171015
#
#
# Mechanical properties :
#
#
# Convention : Reuss Voigt Hill
#
# Bulk Modulus (GPa) = 29.77991 45.35095 37.56543
# Shear Modulus (GPa) = -14.16339 35.48897 10.66279
#
# Velocity S-wave (km/s) = -2.52244 3.99286 2.18863
# Velocity P-wave (km/s) = 2.21238 6.45218 4.82313
#
# Compressibility (1/GPa) = 0.03357969
#
# Stress axis : x y z
#
# Youngs Moduli (GPa) = 77.84857 108.22614 49.72286
#
# Poissons Ratio (x) = 0.42735 -0.19980
# Poissons Ratio (y) = 0.30740 0.21770
# Poissons Ratio (z) = -0.31282 0.47384
#
# Static dielectric constant tensor:
#      x y z
#    x 1.869360 0.000000 -0.014210 
#    y 0.000000 1.609090 0.000000 
#    z -0.014210 0.000000 1.827420 
# 
# From -- ./inp_files/56852.got.cif
#   From: 2010.05.17/outbox.cif.g08.bks.cpg/sg12_29_cif.got.tgz:56852.got - 2010.06.03 13:09:07.
