data_PCOD9214934
_publ_section_title
;
Structure prediction by ZEFSAII (Michael W. Deem and Ramdas Pophale) SiO2 
 PCOD9214934
Probable space group: C 2/M
;
_chemical_formula_sum "Si O2"
_cell_formula_units_Z 40
_cell_length_a 12.478427
_cell_length_b 15.981911
_cell_length_c 9.176063
_cell_angle_alpha 90.000000
_cell_angle_beta 82.895796
_cell_angle_gamma 90.000000
_cell_volume 1815.925119
_symmetry_space_group_name_H-M "C 2/M"
_symmetry_group_IT_number 12
_symmetry_cell_setting 'monoclinic'
loop_
_space_group_symop_operation_xyz
x,y,z
-x,y,-z
-x,-y,-z
x,-y,z
1/2+x,1/2+y,z
1/2-x,1/2+y,-z
1/2-x,1/2-y,-z
1/2+x,1/2-y,z
loop_
_atom_site_type_symbol
_atom_site_label
_atom_site_fract_x
_atom_site_fract_y
_atom_site_fract_z
Si Si1 0.918183 0.405682 0.131535
Si Si2 0.496960 0.334397 0.826313
Si Si3 0.945275 0.333857 0.662701
Si Si4 0.708384 0.398277 0.628291
Si Si5 0.296051 0.597649 0.705909
O O1 0.895753 0.500000 0.081326
O O2 0.804124 0.362993 0.187647
O O3 0.983581 0.404890 0.270992
O O4 0.000000 0.368057 0.000000
O O5 0.460338 0.246313 0.762972
O O6 0.611530 0.361719 0.740614
O O7 0.404900 0.395188 0.778110
O O8 0.500000 0.334602 0.000000
O O9 0.823181 0.363405 0.662607
O O10 0.000000 0.314442 0.500000
O O11 0.706804 0.500000 0.636052
O O12 0.693055 0.370489 0.461377
O O13 0.267614 0.500000 0.692475
#
# Coordination Sequence:
#
# PCOD9214934 Si02
#       5
#     8   8   8   8   8
#     4  10  22  40  66 101 139 176 220 280 344 407
#     4  12  29  45  67 100 142 184 231 281 344 405
#     4  12  25  43  73 101 138 177 231 281 345 406
#     4  11  25  46  74 104 136 179 231 284 340 411
#     4  10  22  44  71  98 134 178 228 280 337 409
#
# _framework density 22.027339000000001
#
# number of rings (size 3 to 8) (size 9 to 14) (size 15 to 20)
#    0.000    1.000    2.000    3.600    5.600    6.400 
#    0.000    0.000    0.000    0.000    0.000    0.000 
#    0.000    0.000    0.000    0.000    0.000    0.000 
#
# Total GULP energy -111783.907846 kJ/mol
# GULP energy per Si atom -5589.195392 kJ/mol
# Density = 2.197720 g / cm^3
# Si number density = 22.027339 Si / 1000 Ang^3
#
#
#
# Elastic Constant Matrix: (Units=GPa)
#
#
# Indices 1 2 3 4 5 6 
#
# 1 181.6460 14.4081 77.5861 0.0000 -17.4219 0.0000
# 2 14.4081 59.9785 32.8719 0.0000 -2.3366 0.0000
# 3 77.5861 32.8719 146.2402 0.0000 -28.9107 0.0000
# 4 0.0000 0.0000 0.0000 0.4408 0.0000 48.8981
# 5 -17.4219 -2.3366 -28.9107 0.0000 40.3218 0.0000
# 6 0.0000 0.0000 0.0000 48.8981 0.0000 -140.0561
#
#
#
# Elastic Compliance Matrix: (Units=1/GPa)
#
#
# Indices 1 2 3 4 5 6 
#
# 1 0.007132 0.000381 -0.003794 0.000000 0.000384 0.000000
# 2 0.000381 0.019218 -0.004974 0.000000 -0.002288 0.000000
# 3 -0.003794 -0.004974 0.011171 0.000000 0.006082 0.000000
# 4 0.000000 0.000000 0.000000 0.057101 0.000000 0.019936
# 5 0.000384 -0.002288 0.006082 0.000000 0.029195 0.000000
# 6 0.000000 0.000000 0.000000 0.019936 0.000000 -0.000180
#
#
# Mechanical properties :
#
#
# Convention : Reuss Voigt Hill
#
# Bulk Modulus (GPa) = 48.19874 70.84409 59.52141
# Shear Modulus (GPa) = 33.93782 -2.32546 15.80618
#
# Velocity S-wave (km/s) = 3.92945 -1.02859 2.68166
# Velocity P-wave (km/s) = 6.52045 5.55167 6.05546
#
# Compressibility (1/GPa) = 0.02074743
#
# Stress axis : x y z
#
# Youngs Moduli (GPa) = 140.20961 52.03395 89.51494
#
# Poissons Ratio (x) = -0.01981 0.33959
# Poissons Ratio (y) = -0.05339 0.44527
# Poissons Ratio (z) = 0.53191 0.25883
#
# Static dielectric constant tensor:
#      x y z
#    x 1.782100 0.000000 -0.022160 
#    y 0.000000 1.884880 0.000000 
#    z -0.022160 0.000000 1.810590 
# 
# From -- ./inp_files/46906.got.cif
#   From: 2010.05.17/outbox.cif.g08.bks.cpg/sg12_24_cif.got.tgz:46906.got - 2010.06.03 13:09:07.
