data_PCOD9214489
_publ_section_title
;
Structure prediction by ZEFSAII (Michael W. Deem and Ramdas Pophale) SiO2 
 PCOD9214489
Probable space group: C 2/M
;
_chemical_formula_sum "Si O2"
_cell_formula_units_Z 56
_cell_length_a 11.418406
_cell_length_b 31.082591
_cell_length_c 13.425690
_cell_angle_alpha 90.000000
_cell_angle_beta 35.401703
_cell_angle_gamma 90.000000
_cell_volume 2760.367381
_symmetry_space_group_name_H-M "C 2/M"
_symmetry_group_IT_number 12
_symmetry_cell_setting 'monoclinic'
loop_
_space_group_symop_operation_xyz
x,y,z
-x,y,-z
-x,-y,-z
x,-y,z
1/2+x,1/2+y,z
1/2-x,1/2+y,-z
1/2-x,1/2-y,-z
1/2+x,1/2-y,z
loop_
_atom_site_type_symbol
_atom_site_label
_atom_site_fract_x
_atom_site_fract_y
_atom_site_fract_z
Si Si1 0.779831 0.547044 0.599373
Si Si2 0.396486 0.811489 0.678574
Si Si3 0.753097 0.133475 0.905184
Si Si4 0.224434 0.719486 0.805437
Si Si5 0.633213 0.844262 0.706667
Si Si6 0.062203 0.122728 0.859059
Si Si7 0.435923 0.419301 0.438551
O O1 0.689130 0.500000 0.687533
O O2 0.691515 0.590577 0.704515
O O3 0.720643 0.554105 0.523214
O O4 0.000000 0.545798 0.500000
O O5 0.500000 0.816902 0.500000
O O6 0.360303 0.761171 0.721803
O O7 0.518527 0.832732 0.684390
O O8 0.187177 0.836681 0.809870
O O9 0.791567 0.178450 0.823151
O O10 0.873395 0.135401 0.924612
O O11 0.864100 0.096089 0.763220
O O12 0.518641 0.133944 0.105026
O O13 0.207546 0.699914 0.706308
O O14 0.000000 0.730826 0.000000
O O15 0.813384 0.876339 0.555358
O O16 0.000000 0.097014 0.000000
O O17 0.500000 0.439889 0.500000
#
# Coordination Sequence:
#
# PCOD9214489 Si02
#       7
#     8   8   8   8   8   8   8
#     4  10  23  43  67  98 132 161 200 258 325 392
#     4  12  25  37  58  88 124 168 216 272 308 375
#     4  10  22  40  61  87 124 165 209 268 310 374
#     4  10  24  38  56  84 122 169 218 260 318 360
#     4  11  23  41  61  85 124 169 217 260 319 368
#     4  11  21  39  65  91 121 163 211 261 313 378
#     4  11  22  40  71  96 124 166 215 261 313 390
#
# _framework density 20.287154000000001
#
# number of rings (size 3 to 8) (size 9 to 14) (size 15 to 20)
#    0.000    1.286    2.857    3.429    4.000    2.286 
#    0.000    0.000    0.000    0.000    0.000    3.000 
#    0.000    0.000    0.000    0.000    0.000    0.000 
#
# Total GULP energy -156075.171424 kJ/mol
# GULP energy per Si atom -5574.113265 kJ/mol
# Density = 2.024098 g / cm^3
# Si number density = 20.287154 Si / 1000 Ang^3
#
#
#
# Elastic Constant Matrix: (Units=GPa)
#
#
# Indices 1 2 3 4 5 6 
#
# 1 131.4513 13.6282 14.2009 0.0000 10.1892 0.0000
# 2 13.6282 49.7070 10.1499 0.0000 -5.7529 0.0000
# 3 14.2009 10.1499 55.5989 0.0000 6.4699 0.0000
# 4 0.0000 0.0000 0.0000 -84.1082 0.0000 34.1545
# 5 10.1892 -5.7529 6.4699 0.0000 30.8508 0.0000
# 6 0.0000 0.0000 0.0000 34.1545 0.0000 -3.5688
#
#
#
# Elastic Compliance Matrix: (Units=1/GPa)
#
#
# Indices 1 2 3 4 5 6 
#
# 1 0.008214 -0.002309 -0.001343 0.000000 -0.002862 0.000000
# 2 -0.002309 0.022268 -0.004149 0.000000 0.005785 0.000000
# 3 -0.001343 -0.004149 0.019603 0.000000 -0.004441 0.000000
# 4 0.000000 0.000000 0.000000 0.004119 0.000000 0.039423
# 5 -0.002862 0.005785 -0.004441 0.000000 0.035369 0.000000
# 6 0.000000 0.000000 0.000000 0.039423 0.000000 0.097082
#
#
# Mechanical properties :
#
#
# Convention : Reuss Voigt Hill
#
# Bulk Modulus (GPa) = 28.99990 34.74613 31.87301
# Shear Modulus (GPa) = 23.39177 1.88666 12.63922
#
# Velocity S-wave (km/s) = 3.39932 0.96540 2.49874
# Velocity P-wave (km/s) = 5.45279 4.29034 4.90611
#
# Compressibility (1/GPa) = 0.03448288
#
# Stress axis : x y z
#
# Youngs Moduli (GPa) = 121.74794 44.90847 51.01202
#
# Poissons Ratio (x) = 0.10369 0.06853
# Poissons Ratio (y) = 0.28109 0.21162
# Poissons Ratio (z) = 0.16356 0.18630
#
# Static dielectric constant tensor:
#      x y z
#    x 1.817620 0.000000 0.022000 
#    y 0.000000 1.670400 0.000000 
#    z 0.022000 0.000000 1.459260 
# 
# From -- ./inp_files/209999.got.cif
#   From: 2010.05.17/outbox.cif.g08.bks.cpg/sg12_105_cif.got.tgz:209999.got - 2010.06.03 13:09:07.
