data_PCOD9214491
_publ_section_title
;
Structure prediction by ZEFSAII (Michael W. Deem and Ramdas Pophale) SiO2 
 PCOD9214491
Probable space group: C 2/M
;
_chemical_formula_sum "Si O2"
_cell_formula_units_Z 64
_cell_length_a 13.104124
_cell_length_b 26.797268
_cell_length_c 15.629359
_cell_angle_alpha 90.000000
_cell_angle_beta 142.668442
_cell_angle_gamma 90.000000
_cell_volume 3328.264359
_symmetry_space_group_name_H-M "C 2/M"
_symmetry_group_IT_number 12
_symmetry_cell_setting 'monoclinic'
loop_
_space_group_symop_operation_xyz
x,y,z
-x,y,-z
-x,-y,-z
x,-y,z
1/2+x,1/2+y,z
1/2-x,1/2+y,-z
1/2-x,1/2-y,-z
1/2+x,1/2-y,z
loop_
_atom_site_type_symbol
_atom_site_label
_atom_site_fract_x
_atom_site_fract_y
_atom_site_fract_z
Si Si1 0.875135 0.202995 0.252607
Si Si2 0.374774 0.804520 0.764686
Si Si3 0.711527 0.346702 0.496509
Si Si4 0.804116 0.699460 0.380418
Si Si5 0.676001 0.942633 0.069870
Si Si6 0.695419 0.692550 0.129855
Si Si7 0.268575 0.153383 0.997969
Si Si8 0.510457 0.442234 0.405460
O O1 0.737952 0.181624 0.228086
O O2 0.819634 0.259920 0.203081
O O3 0.057900 0.192033 0.411885
O O4 0.871028 0.175106 0.159282
O O5 0.337700 0.839397 0.658972
O O6 0.313491 0.748928 0.698826
O O7 0.570088 0.811471 0.913966
O O8 0.785911 0.330726 0.455485
O O9 0.633982 0.401724 0.446958
O O10 0.743685 0.670708 0.254546
O O11 0.000000 0.713475 0.500000
O O12 0.829621 0.936899 0.239201
O O13 0.677820 0.000000 0.040803
O O14 0.500000 0.933691 0.000000
O O15 0.694705 0.902344 0.007918
O O16 0.721093 0.658484 0.064695
O O17 0.500000 0.709144 0.000000
O O18 0.500000 0.431746 0.500000
O O19 0.563852 0.500000 0.430953
#
# Coordination Sequence:
#
# PCOD9214491 Si02
#       8
#     8   8   8   8   8   8   8   8
#     4  11  20  35  54  84 115 147 189 234 286 343
#     4  11  22  35  56  85 118 150 190 235 283 350
#     4  12  22  36  61  84 113 155 195 233 288 348
#     4  11  23  41  55  79 119 159 197 239 279 328
#     4  10  22  40  61  88 120 149 182 236 298 351
#     4  11  23  37  54  79 116 154 197 239 275 326
#     4  12  22  36  57  83 113 156 193 229 285 343
#     4  10  22  40  62  90 119 146 185 237 295 353
#
# _framework density 19.229240999999998
#
# number of rings (size 3 to 8) (size 9 to 14) (size 15 to 20)
#    0.000    1.000    1.250    8.250    1.750    0.000 
#    0.000    0.000    0.000    1.500    0.000    0.000 
#    0.000    0.000    0.000    0.000    0.000    0.000 
#
# Total GULP energy -178971.774878 kJ/mol
# GULP energy per Si atom -5592.867965 kJ/mol
# Density = 1.918547 g / cm^3
# Si number density = 19.229241 Si / 1000 Ang^3
#
#
#
# Elastic Constant Matrix: (Units=GPa)
#
#
# Indices 1 2 3 4 5 6 
#
# 1 84.7979 46.0907 16.2222 0.0000 -20.2533 0.0000
# 2 46.0907 105.8392 18.5766 0.0000 -7.7691 0.0000
# 3 16.2222 18.5766 63.8919 0.0000 -12.7458 0.0000
# 4 0.0000 0.0000 0.0000 20.4213 0.0000 -2.4595
# 5 -20.2533 -7.7691 -12.7458 0.0000 34.8901 0.0000
# 6 0.0000 0.0000 0.0000 -2.4595 0.0000 22.5114
#
#
#
# Elastic Compliance Matrix: (Units=1/GPa)
#
#
# Indices 1 2 3 4 5 6 
#
# 1 0.017755 -0.006972 -0.000792 0.000000 0.008465 0.000000
# 2 -0.006972 0.012745 -0.002348 0.000000 -0.002067 0.000000
# 3 -0.000792 -0.002348 0.017624 0.000000 0.005455 0.000000
# 4 0.000000 0.000000 0.000000 0.049621 0.000000 0.005421
# 5 0.008465 -0.002067 0.005455 0.000000 0.035108 0.000000
# 6 0.000000 0.000000 0.000000 0.005421 0.000000 0.045014
#
#
# Mechanical properties :
#
#
# Convention : Reuss Voigt Hill
#
# Bulk Modulus (GPa) = 35.84225 46.25644 41.04935
# Shear Modulus (GPa) = 24.10908 27.14055 25.62482
#
# Velocity S-wave (km/s) = 3.54471 3.76096 3.65443
# Velocity P-wave (km/s) = 5.95258 6.55494 6.26101
#
# Compressibility (1/GPa) = 0.02790003
#
# Stress axis : x y z
#
# Youngs Moduli (GPa) = 56.32068 78.46428 56.74237
#
# Poissons Ratio (x) = 0.54703 0.04497
# Poissons Ratio (y) = 0.39265 0.13321
# Poissons Ratio (z) = 0.04463 0.18421
#
# Static dielectric constant tensor:
#      x y z
#    x 1.683990 0.000000 -0.001150 
#    y 0.000000 1.663900 0.000000 
#    z -0.001150 0.000000 1.677220 
# 
# From -- ./inp_files/209409.got.cif
#   From: 2010.05.17/outbox.cif.g08.bks.cpg/sg12_105_cif.got.tgz:209409.got - 2010.06.03 13:09:07.
