data_PCOD9214386
_publ_section_title
;
Structure prediction by ZEFSAII (Michael W. Deem and Ramdas Pophale) SiO2 
 PCOD9214386
Probable space group: C 2/M
;
_chemical_formula_sum "Si O2"
_cell_formula_units_Z 56
_cell_length_a 26.186710
_cell_length_b 14.667671
_cell_length_c 17.192952
_cell_angle_alpha 90.000000
_cell_angle_beta 28.726370
_cell_angle_gamma 90.000000
_cell_volume 3173.955598
_symmetry_space_group_name_H-M "C 2/M"
_symmetry_group_IT_number 12
_symmetry_cell_setting 'monoclinic'
loop_
_space_group_symop_operation_xyz
x,y,z
-x,y,-z
-x,-y,-z
x,-y,z
1/2+x,1/2+y,z
1/2-x,1/2+y,-z
1/2-x,1/2-y,-z
1/2+x,1/2-y,z
loop_
_atom_site_type_symbol
_atom_site_label
_atom_site_fract_x
_atom_site_fract_y
_atom_site_fract_z
Si Si1 0.657273 0.391913 0.255694
Si Si2 0.499034 0.891901 0.414126
Si Si3 0.451693 0.275242 0.287623
Si Si4 0.418194 0.607162 0.178715
Si Si5 0.669568 0.893625 0.487933
Si Si6 0.341212 0.195378 0.922432
Si Si7 0.444568 0.389693 0.449850
O O1 0.644564 0.500000 0.276317
O O2 0.562769 0.362900 0.322866
O O3 0.631228 0.360040 0.377731
O O4 0.772753 0.368654 0.070241
O O5 0.500000 0.853223 0.500000
O O6 0.387577 0.878036 0.518794
O O7 0.588215 0.853417 0.237540
O O8 0.517345 0.000000 0.395377
O O9 0.436280 0.328892 0.228649
O O10 0.384856 0.181138 0.383285
O O11 0.575117 0.252111 0.138517
O O12 0.419167 0.338892 0.404133
O O13 0.433664 0.500000 0.178954
O O14 0.295734 0.617737 0.316259
O O15 0.500000 0.628123 0.000000
O O16 0.647369 0.000000 0.539497
O O17 0.250000 0.250000 0.000000
O O18 0.440766 0.500000 0.445063
#
# Coordination Sequence:
#
# PCOD9214386 Si02
#       7
#     8   8   8   8   8   8   8
#     4   9  18  34  51  71 109 150 183 228 282 325
#     4   9  19  35  54  76 106 147 188 223 268 331
#     4  11  21  35  58  83 109 147 189 230 279 338
#     4  10  22  40  60  83 111 142 183 238 291 336
#     4   9  20  39  58  79 109 147 187 230 284 334
#     4  11  21  31  47  79 112 142 182 225 274 326
#     4   9  18  33  53  77 106 145 188 229 275 331
#
# _framework density 17.643598999999998
#
# number of rings (size 3 to 8) (size 9 to 14) (size 15 to 20)
#    0.000    2.286    1.429    2.143    0.000    5.143 
#    0.000    1.429    0.000    0.429    0.000    0.000 
#    0.000    0.000    0.000    0.000    0.000    0.000 
#
# Total GULP energy -156125.794107 kJ/mol
# GULP energy per Si atom -5575.921218 kJ/mol
# Density = 1.760344 g / cm^3
# Si number density = 17.643599 Si / 1000 Ang^3
#
#
#
# Elastic Constant Matrix: (Units=GPa)
#
#
# Indices 1 2 3 4 5 6 
#
# 1 120.3323 62.9181 85.3191 0.0000 10.0298 0.0000
# 2 62.9181 81.9048 53.7330 0.0000 8.5103 0.0000
# 3 85.3191 53.7330 127.2576 0.0000 3.4256 0.0000
# 4 0.0000 0.0000 0.0000 -62.5541 0.0000 -32.7186
# 5 10.0298 8.5103 3.4256 0.0000 29.0153 0.0000
# 6 0.0000 0.0000 0.0000 -32.7186 0.0000 12.9146
#
#
#
# Elastic Compliance Matrix: (Units=1/GPa)
#
#
# Indices 1 2 3 4 5 6 
#
# 1 0.019925 -0.008666 -0.009613 0.000000 -0.003211 0.000000
# 2 -0.008666 0.021163 -0.003049 0.000000 -0.002852 0.000000
# 3 -0.009613 -0.003049 0.015526 0.000000 0.002384 0.000000
# 4 0.000000 0.000000 0.000000 -0.006875 0.000000 -0.017419
# 5 -0.003211 -0.002852 0.002384 0.000000 0.036129 0.000000
# 6 0.000000 0.000000 0.000000 -0.017419 0.000000 0.033302
#
#
# Mechanical properties :
#
#
# Convention : Reuss Voigt Hill
#
# Bulk Modulus (GPa) = 71.64231 81.49281 76.56756
# Shear Modulus (GPa) = 30.03370 4.37679 17.20524
#
# Velocity S-wave (km/s) = 4.13030 1.57672 3.12613
# Velocity P-wave (km/s) = 7.96488 7.04296 7.51806
#
# Compressibility (1/GPa) = 0.01395823
#
# Stress axis : x y z
#
# Youngs Moduli (GPa) = 50.18799 47.25249 64.40647
#
# Poissons Ratio (x) = 0.40949 0.61915
# Poissons Ratio (y) = 0.43492 0.19638
# Poissons Ratio (z) = 0.48246 0.14407
#
# Static dielectric constant tensor:
#      x y z
#    x 1.592830 0.000000 0.000360 
#    y 0.000000 1.643770 0.000000 
#    z 0.000360 0.000000 1.607090 
# 
# From -- ./inp_files/240889.got.cif
#   From: 2010.05.17/outbox.cif.g08.bks.cpg/sg12_121_cif.got.tgz:240889.got - 2010.06.03 13:09:07.
