data_PCOD9214967
_publ_section_title
;
Structure prediction by ZEFSAII (Michael W. Deem and Ramdas Pophale) SiO2 
 PCOD9214967
Probable space group: C 2/M
;
_chemical_formula_sum "Si O2"
_cell_formula_units_Z 40
_cell_length_a 16.959351
_cell_length_b 14.388098
_cell_length_c 13.961414
_cell_angle_alpha 90.000000
_cell_angle_beta 151.269080
_cell_angle_gamma 90.000000
_cell_volume 1637.620395
_symmetry_space_group_name_H-M "C 2/M"
_symmetry_group_IT_number 12
_symmetry_cell_setting 'monoclinic'
loop_
_space_group_symop_operation_xyz
x,y,z
-x,y,-z
-x,-y,-z
x,-y,z
1/2+x,1/2+y,z
1/2-x,1/2+y,-z
1/2-x,1/2-y,-z
1/2+x,1/2-y,z
loop_
_atom_site_type_symbol
_atom_site_label
_atom_site_fract_x
_atom_site_fract_y
_atom_site_fract_z
Si Si1 0.798583 0.646894 0.074258
Si Si2 0.949649 0.401219 0.041572
Si Si3 0.693729 0.606888 0.480654
Si Si4 0.360544 0.202866 0.485297
Si Si5 0.677005 0.397015 0.139826
O O1 0.822917 0.612008 0.992621
O O2 0.674667 0.608682 0.021963
O O3 0.974750 0.646812 0.314608
O O4 0.750000 0.750000 0.000000
O O5 0.887977 0.500000 0.935993
O O6 0.122831 0.402047 0.280776
O O7 0.000000 0.343035 0.000000
O O8 0.629853 0.500000 0.408712
O O9 0.613204 0.688601 0.459816
O O10 0.723066 0.657322 0.409591
O O11 0.293962 0.181857 0.308965
O O12 0.742144 0.500000 0.234968
O O13 0.500000 0.389082 0.000000
#
# Coordination Sequence:
#
# PCOD9214967 Si02
#       5
#     8   8   8   8   8
#     4  11  25  40  63  99 136 176 222 278 335 410
#     4   9  19  37  62  90 123 168 215 265 328 395
#     4   9  19  35  62  96 129 172 223 274 338 411
#     4  10  22  40  66  97 133 180 224 282 347 407
#     4  11  26  45  71 101 135 181 233 291 349 406
#
# _framework density 24.425685999999999
#
# number of rings (size 3 to 8) (size 9 to 14) (size 15 to 20)
#    0.000    2.000    0.000    1.800   11.200    3.200 
#    0.000    1.000    0.000    2.400    0.000    0.000 
#    0.000    0.000    0.000    0.000    0.000    0.000 
#
# Total GULP energy -111422.795534 kJ/mol
# GULP energy per Si atom -5571.139777 kJ/mol
# Density = 2.437009 g / cm^3
# Si number density = 24.425686 Si / 1000 Ang^3
#
#
#
# Elastic Constant Matrix: (Units=GPa)
#
#
# Indices 1 2 3 4 5 6 
#
# 1 220.5180 47.7864 18.3414 -0.0002 -16.2737 -0.0001
# 2 47.7864 126.2005 -0.5251 -0.0001 -7.1376 0.0000
# 3 18.3414 -0.5251 37.2928 -0.0004 -4.8608 -0.0001
# 4 -0.0002 -0.0001 -0.0004 15.0105 -0.0003 -4.8934
# 5 -16.2737 -7.1376 -4.8608 -0.0003 34.8402 -0.0001
# 6 -0.0001 0.0000 -0.0001 -4.8934 -0.0001 21.4499
#
#
#
# Elastic Compliance Matrix: (Units=1/GPa)
#
#
# Indices 1 2 3 4 5 6 
#
# 1 0.005276 -0.001909 -0.002395 0.000000 0.001739 0.000000
# 2 -0.001909 0.008712 0.001200 0.000000 0.001060 0.000000
# 3 -0.002395 0.001200 0.028413 0.000001 0.003091 0.000000
# 4 0.000000 0.000000 0.000001 0.071973 0.000001 0.016419
# 5 0.001739 0.001060 0.003091 0.000001 0.030163 0.000000
# 6 0.000000 0.000000 0.000000 0.016419 0.000000 0.050366
#
#
# Mechanical properties :
#
#
# Convention : Reuss Voigt Hill
#
# Bulk Modulus (GPa) = 27.63084 57.24629 42.43856
# Shear Modulus (GPa) = 23.45483 35.48735 29.47109
#
# Velocity S-wave (km/s) = 3.10216 3.81579 3.47733
# Velocity P-wave (km/s) = 4.91609 6.54992 5.79091
#
# Compressibility (1/GPa) = 0.03619145
#
# Stress axis : x y z
#
# Youngs Moduli (GPa) = 189.53380 114.78587 35.19566
#
# Poissons Ratio (x) = 0.21918 0.08430
# Poissons Ratio (y) = 0.36190 -0.04223
# Poissons Ratio (z) = 0.45395 -0.13774
#
# Static dielectric constant tensor:
#      x y z
#    x 2.300300 0.000000 0.020640 
#    y 0.000000 2.016510 0.000000 
#    z 0.020640 0.000000 1.973760 
# 
# From -- ./inp_files/225828.got.cif
#   From: 2010.05.17/outbox.cif.g08.bks.cpg/sg12_113_cif.got.tgz:225828.got - 2010.06.03 13:09:07.
