data_PCOD9214071
_publ_section_title
;
Structure prediction by ZEFSAII (Michael W. Deem and Ramdas Pophale) SiO2 
 PCOD9214071
Probable space group: C 2/M
;
_chemical_formula_sum "Si O2"
_cell_formula_units_Z 40
_cell_length_a 17.702500
_cell_length_b 27.409598
_cell_length_c 8.620507
_cell_angle_alpha 90.000000
_cell_angle_beta 28.938360
_cell_angle_gamma 90.000000
_cell_volume 2023.938648
_symmetry_space_group_name_H-M "C 2/M"
_symmetry_group_IT_number 12
_symmetry_cell_setting 'monoclinic'
loop_
_space_group_symop_operation_xyz
x,y,z
-x,y,-z
-x,-y,-z
x,-y,z
1/2+x,1/2+y,z
1/2-x,1/2+y,-z
1/2-x,1/2-y,-z
1/2+x,1/2-y,z
loop_
_atom_site_type_symbol
_atom_site_label
_atom_site_fract_x
_atom_site_fract_y
_atom_site_fract_z
Si Si1 0.315267 0.097586 0.789548
Si Si2 0.817556 0.500000 0.282580
Si Si3 0.687824 0.401663 0.667336
Si Si4 0.686790 0.500000 0.172436
Si Si5 0.166606 0.300357 0.612516
Si Si6 0.680473 0.203298 0.212987
O O1 0.500000 0.096245 0.500000
O O2 0.268352 0.095812 0.692596
O O3 0.254026 0.150490 0.958525
O O4 0.241096 0.049655 0.994283
O O5 0.744081 0.450410 0.481533
O O6 0.772003 0.500000 0.184816
O O7 0.000000 0.500000 0.000000
O O8 0.747906 0.350293 0.489759
O O9 0.500000 0.400941 0.000000
O O10 0.500000 0.500000 0.500000
O O11 0.250000 0.250000 0.500000
O O12 0.178010 0.298650 0.404378
O O13 0.000000 0.300457 0.000000
O O14 0.500000 0.204062 0.500000
O O15 0.750000 0.250000 0.000000
#
# Coordination Sequence:
#
# PCOD9214071 Si02
#       6
#     8   4   8   4   8   8
#     4  10  22  42  62  84 119 165 205 247 306 374
#     4  12  24  38  62  94 124 162 208 262 320 382
#     4  11  23  41  63  90 124 165 209 261 318 380
#     4  12  24  38  60  92 122 156 202 258 312 368
#     4  11  23  40  63  92 126 165 210 263 320 380
#     4  10  22  39  62  89 120 162 208 253 307 369
#
# _framework density 19.763444
#
# number of rings (size 3 to 8) (size 9 to 14) (size 15 to 20)
#    0.000    1.200    0.000    6.000    0.000    7.200 
#    0.000    0.000    0.000    0.000    0.000    0.000 
#    0.000    0.000    0.000    0.000    0.000    0.000 
#
# Total GULP energy -111514.753254 kJ/mol
# GULP energy per Si atom -5575.737663 kJ/mol
# Density = 1.971846 g / cm^3
# Si number density = 19.763444 Si / 1000 Ang^3
#
#
#
# Elastic Constant Matrix: (Units=GPa)
#
#
# Indices 1 2 3 4 5 6 
#
# 1 86.5968 40.4313 23.7842 0.0000 -4.0583 -0.0003
# 2 40.4313 252.1707 96.3763 0.0000 9.8985 -0.0002
# 3 23.7842 96.3763 122.7590 0.0001 -15.8492 -0.0002
# 4 0.0000 0.0000 0.0001 50.0344 0.0000 2.3763
# 5 -4.0583 9.8985 -15.8492 0.0000 31.7010 0.0002
# 6 -0.0003 -0.0002 -0.0002 2.3763 0.0002 48.8978
#
#
#
# Elastic Compliance Matrix: (Units=1/GPa)
#
#
# Indices 1 2 3 4 5 6 
#
# 1 0.012693 -0.001789 -0.000826 0.000000 0.001770 0.000000
# 2 -0.001789 0.006515 -0.005409 0.000000 -0.004968 0.000000
# 3 -0.000826 -0.005409 0.013638 0.000000 0.008402 0.000000
# 4 0.000000 0.000000 0.000000 0.020032 0.000000 -0.000974
# 5 0.001770 -0.004968 0.008402 0.000000 0.037523 0.000000
# 6 0.000000 0.000000 0.000000 -0.000974 0.000000 0.020498
#
#
# Mechanical properties :
#
#
# Convention : Reuss Voigt Hill
#
# Bulk Modulus (GPa) = 59.53694 86.96778 73.25236
# Shear Modulus (GPa) = 37.72255 46.18898 41.95576
#
# Velocity S-wave (km/s) = 4.37361 4.83959 4.61249
# Velocity P-wave (km/s) = 7.46290 8.67921 8.09393
#
# Compressibility (1/GPa) = 0.01679629
#
# Stress axis : x y z
#
# Youngs Moduli (GPa) = 78.78457 153.49686 73.32594
#
# Poissons Ratio (x) = 0.27457 0.06059
# Poissons Ratio (y) = 0.14093 0.39665
# Poissons Ratio (z) = 0.06510 0.83034
#
# Static dielectric constant tensor:
#      x y z
#    x 1.670140 0.000000 -0.041220 
#    y 0.000000 1.803410 0.000000 
#    z -0.041220 0.000000 1.661360 
# 
# From -- ./inp_files/79276.got.cif
#   From: 2010.05.17/outbox.cif.g08.bks.cpg/sg12_40_cif.got.tgz:79276.got - 2010.06.03 13:09:07.
