data_PCOD9214023
_publ_section_title
;
Structure prediction by ZEFSAII (Michael W. Deem and Ramdas Pophale) SiO2 
 PCOD9214023
Probable space group: C 2/M
;
_chemical_formula_sum "Si O2"
_cell_formula_units_Z 58
_cell_length_a 9.055236
_cell_length_b 23.756084
_cell_length_c 20.373874
_cell_angle_alpha 90.000000
_cell_angle_beta 39.501440
_cell_angle_gamma 90.000000
_cell_volume 2787.866721
_symmetry_space_group_name_H-M "C 2/M"
_symmetry_group_IT_number 12
_symmetry_cell_setting 'monoclinic'
loop_
_space_group_symop_operation_xyz
x,y,z
-x,y,-z
-x,-y,-z
x,-y,z
1/2+x,1/2+y,z
1/2-x,1/2+y,-z
1/2-x,1/2-y,-z
1/2+x,1/2-y,z
loop_
_atom_site_type_symbol
_atom_site_label
_atom_site_fract_x
_atom_site_fract_y
_atom_site_fract_z
Si Si1 0.736936 0.562900 0.114933
Si Si2 0.852775 0.615905 0.492654
Si Si3 0.046863 0.367468 0.281792
Si Si4 0.000000 0.500000 0.500000
Si Si5 0.428348 0.566729 0.095163
Si Si6 0.851721 0.767042 0.217351
Si Si7 0.690661 0.180540 0.876590
Si Si8 0.920762 0.809984 0.599873
O O1 0.658029 0.500000 0.163721
O O2 0.586030 0.582428 0.103825
O O3 0.740037 0.615759 0.162843
O O4 0.000000 0.556993 0.000000
O O5 0.616949 0.650145 0.563214
O O6 0.000000 0.644849 0.500000
O O7 0.989684 0.616942 0.376614
O O8 0.841312 0.551052 0.520525
O O9 0.166219 0.418050 0.202534
O O10 0.239320 0.318286 0.215992
O O11 0.814820 0.345201 0.328422
O O12 0.458228 0.500000 0.081066
O O13 0.500000 0.591357 0.000000
O O14 0.910112 0.715518 0.149242
O O15 0.646795 0.743660 0.334031
O O16 0.075341 0.788358 0.179762
O O17 0.500000 0.179799 0.000000
O O18 0.000000 0.793151 0.500000
#
# Coordination Sequence:
#
# PCOD9214023 Si02
#       8
#     8   8   8   2   8   8   8   8
#     4   9  19  39  64  89 121 166 220 272 324 375
#     4   9  22  41  70  94 129 161 211 270 331 385
#     4  11  23  40  62  96 129 174 217 264 328 394
#     4   8  20  44  70 104 122 162 212 272 338 388
#     4  10  22  39  61  90 129 173 217 265 321 386
#     4  12  24  42  64  96 130 175 224 266 328 397
#     4  11  24  41  63  96 133 178 220 278 330 386
#     4  10  24  45  64  94 129 167 212 269 330 393
#
# _framework density 20.804437
#
# number of rings (size 3 to 8) (size 9 to 14) (size 15 to 20)
#    0.414    1.379    2.759    0.414    2.897    5.517 
#    1.241    1.034    0.000    0.000    0.000    0.000 
#    0.000    0.000    0.000    0.000    0.000    0.000 
#
# Total GULP energy -161595.185759 kJ/mol
# GULP energy per Si atom -5572.247785 kJ/mol
# Density = 2.075709 g / cm^3
# Si number density = 20.804437 Si / 1000 Ang^3
#
#
#
# Elastic Constant Matrix: (Units=GPa)
#
#
# Indices 1 2 3 4 5 6 
#
# 1 40.8611 23.6445 6.0334 -0.0001 -2.6088 0.0001
# 2 23.6445 94.9479 1.4130 0.0030 -2.1814 -0.0019
# 3 6.0334 1.4130 53.1250 0.0038 -5.8729 -0.0027
# 4 -0.0001 0.0030 0.0038 30.5900 -0.0002 -8.0438
# 5 -2.6088 -2.1814 -5.8729 -0.0002 14.4926 0.0001
# 6 0.0001 -0.0019 -0.0027 -8.0438 0.0001 26.7717
#
#
#
# Elastic Compliance Matrix: (Units=1/GPa)
#
#
# Indices 1 2 3 4 5 6 
#
# 1 0.029227 -0.007167 -0.002791 0.000001 0.003051 -0.000001
# 2 -0.007167 0.012327 0.000574 -0.000001 0.000798 0.000001
# 3 -0.002791 0.000574 0.019974 -0.000002 0.007678 0.000001
# 4 0.000001 -0.000001 -0.000002 0.035495 -0.000001 0.010665
# 5 0.003051 0.000798 0.007678 -0.000001 0.072782 0.000000
# 6 -0.000001 0.000001 0.000001 0.010665 0.000000 0.040557
#
#
# Mechanical properties :
#
#
# Convention : Reuss Voigt Hill
#
# Bulk Modulus (GPa) = 23.38621 27.90175 25.64398
# Shear Modulus (GPa) = 20.54378 24.89373 22.71876
#
# Velocity S-wave (km/s) = 3.14581 3.46288 3.30815
# Velocity P-wave (km/s) = 4.94573 5.42488 5.19084
#
# Compressibility (1/GPa) = 0.04276025
#
# Stress axis : x y z
#
# Youngs Moduli (GPa) = 34.21467 81.12553 50.06482
#
# Poissons Ratio (x) = 0.58140 0.13975
# Poissons Ratio (y) = 0.24521 -0.02875
# Poissons Ratio (z) = 0.09551 -0.04659
#
# Static dielectric constant tensor:
#      x y z
#    x 1.782650 0.000000 0.000230 
#    y 0.000000 1.769670 0.000000 
#    z 0.000230 0.000000 1.781490 
# 
# From -- ./inp_files/302447.got.cif
#   From: 2010.05.17/outbox.cif.g08.bks.cpg/sg12_152_cif.got.tgz:302447.got - 2010.06.03 13:09:07.
