data_PCOD9214626
_publ_section_title
;
Structure prediction by ZEFSAII (Michael W. Deem and Ramdas Pophale) SiO2 
 PCOD9214626
Probable space group: C 2/M
;
_chemical_formula_sum "Si O2"
_cell_formula_units_Z 40
_cell_length_a 8.918427
_cell_length_b 17.574423
_cell_length_c 11.235549
_cell_angle_alpha 90.000000
_cell_angle_beta 98.677891
_cell_angle_gamma 90.000000
_cell_volume 1740.857544
_symmetry_space_group_name_H-M "C 2/M"
_symmetry_group_IT_number 12
_symmetry_cell_setting 'monoclinic'
loop_
_space_group_symop_operation_xyz
x,y,z
-x,y,-z
-x,-y,-z
x,-y,z
1/2+x,1/2+y,z
1/2-x,1/2+y,-z
1/2-x,1/2-y,-z
1/2+x,1/2-y,z
loop_
_atom_site_type_symbol
_atom_site_label
_atom_site_fract_x
_atom_site_fract_y
_atom_site_fract_z
Si Si1 0.486069 0.704706 0.284626
Si Si2 0.260580 0.085160 0.726062
Si Si3 0.309980 0.416802 0.561738
Si Si4 0.097284 0.628695 0.736297
Si Si5 0.841064 0.190640 0.927351
O O1 0.348334 0.648943 0.232221
O O2 0.584913 0.653137 0.385083
O O3 0.425443 0.785640 0.318434
O O4 0.590768 0.726909 0.185320
O O5 0.236922 0.091223 0.580245
O O6 0.438394 0.098375 0.764179
O O7 0.219121 0.000000 0.759984
O O8 0.385687 0.500000 0.586062
O O9 0.168703 0.415704 0.634614
O O10 0.218216 0.632593 0.858799
O O11 0.750000 0.250000 0.000000
O O12 0.000000 0.160204 0.000000
#
# Coordination Sequence:
#
# PCOD9214626 Si02
#       5
#     8   8   8   8   8
#     4  11  23  38  64 104 125 168 223 277 315 376
#     4  11  23  41  65  95 142 185 210 251 324 396
#     4  10  22  40  62  92 140 189 211 245 321 396
#     4  11  23  38  64 104 124 169 226 276 310 375
#     4  11  23  41  68  95 122 164 212 276 341 400
#
# _framework density 22.977181999999999
#
# number of rings (size 3 to 8) (size 9 to 14) (size 15 to 20)
#    0.000    1.200    2.000    4.800    0.000    8.000 
#    0.000    0.000    0.000   22.800    0.000    0.000 
#    0.000    0.000    0.000    0.000    0.000    0.000 
#
# Total GULP energy -111748.368792 kJ/mol
# GULP energy per Si atom -5587.418440 kJ/mol
# Density = 2.292488 g / cm^3
# Si number density = 22.977182 Si / 1000 Ang^3
#
#
#
# Elastic Constant Matrix: (Units=GPa)
#
#
# Indices 1 2 3 4 5 6 
#
# 1 150.5119 38.0508 32.9031 0.0000 -2.3637 0.0000
# 2 38.0508 132.8905 21.0405 0.0000 -3.0787 0.0000
# 3 32.9031 21.0405 75.2424 0.0000 -1.6118 0.0000
# 4 0.0000 0.0000 0.0000 20.4632 0.0000 11.0990
# 5 -2.3637 -3.0787 -1.6118 0.0000 53.4172 0.0000
# 6 0.0000 0.0000 0.0000 11.0990 0.0000 30.9851
#
#
#
# Elastic Compliance Matrix: (Units=1/GPa)
#
#
# Indices 1 2 3 4 5 6 
#
# 1 0.007719 -0.001750 -0.002883 0.000000 0.000154 0.000000
# 2 -0.001750 0.008278 -0.001542 0.000000 0.000353 0.000000
# 3 -0.002883 -0.001542 0.014987 0.000000 0.000236 0.000000
# 4 0.000000 0.000000 0.000000 0.060652 0.000000 -0.021726
# 5 0.000154 0.000353 0.000236 0.000000 0.018755 0.000000
# 6 0.000000 0.000000 0.000000 -0.021726 0.000000 0.040056
#
#
# Mechanical properties :
#
#
# Convention : Reuss Voigt Hill
#
# Bulk Modulus (GPa) = 53.66328 60.29262 56.97795
# Shear Modulus (GPa) = 29.58419 38.74980 34.16699
#
# Velocity S-wave (km/s) = 3.59213 4.11109 3.86034
# Velocity P-wave (km/s) = 6.37262 6.98799 6.68739
#
# Compressibility (1/GPa) = 0.01863472
#
# Stress axis : x y z
#
# Youngs Moduli (GPa) = 129.54910 120.79533 66.72333
#
# Poissons Ratio (x) = 0.21142 0.19235
# Poissons Ratio (y) = 0.22674 0.10289
# Poissons Ratio (z) = 0.37346 0.18627
#
# Static dielectric constant tensor:
#      x y z
#    x 1.903740 0.000000 0.044640 
#    y 0.000000 1.873510 0.000000 
#    z 0.044640 0.000000 1.875410 
# 
# From -- ./inp_files/118866.got.cif
#   From: 2010.05.17/outbox.cif.g08.bks.cpg/sg12_60_cif.got.tgz:118866.got - 2010.06.03 13:09:07.
