data_PCOD9214100
_publ_section_title
;
Structure prediction by ZEFSAII (Michael W. Deem and Ramdas Pophale) SiO2 
 PCOD9214100
Probable space group: C 2/M
;
_chemical_formula_sum "Si O2"
_cell_formula_units_Z 48
_cell_length_a 13.490434
_cell_length_b 20.493703
_cell_length_c 15.570652
_cell_angle_alpha 90.000000
_cell_angle_beta 34.432353
_cell_angle_gamma 90.000000
_cell_volume 2434.076238
_symmetry_space_group_name_H-M "C 2/M"
_symmetry_group_IT_number 12
_symmetry_cell_setting 'monoclinic'
loop_
_space_group_symop_operation_xyz
x,y,z
-x,y,-z
-x,-y,-z
x,-y,z
1/2+x,1/2+y,z
1/2-x,1/2+y,-z
1/2-x,1/2-y,-z
1/2+x,1/2-y,z
loop_
_atom_site_type_symbol
_atom_site_label
_atom_site_fract_x
_atom_site_fract_y
_atom_site_fract_z
Si Si1 0.965195 0.308266 0.162643
Si Si2 0.386732 0.323654 0.320498
Si Si3 0.589231 0.073149 0.187533
Si Si4 0.499211 0.575155 0.901541
Si Si5 0.207079 0.791228 0.196442
Si Si6 0.992115 0.339057 0.608272
O O1 0.922150 0.245825 0.250926
O O2 0.807586 0.317733 0.207955
O O3 0.997875 0.372390 0.194962
O O4 0.143917 0.290997 0.983371
O O5 0.402762 0.378140 0.234590
O O6 0.539200 0.330939 0.282279
O O7 0.190795 0.324814 0.495907
O O8 0.567840 0.095562 0.301472
O O9 0.523488 0.000000 0.221181
O O10 0.795710 0.074851 0.019919
O O11 0.563615 0.500000 0.854764
O O12 0.500000 0.598661 0.000000
O O13 0.135919 0.719144 0.270398
O O14 0.000000 0.342008 0.500000
#
# Coordination Sequence:
#
# PCOD9214100 Si02
#       6
#     8   8   8   8   8   8
#     4  11  23  41  67  93 126 166 222 270 312 377
#     4  12  22  37  65  91 132 162 212 263 322 383
#     4  11  24  44  64  91 132 175 218 264 320 381
#     4  10  22  39  62  93 128 168 215 268 321 379
#     4  11  23  39  63  99 123 164 212 268 319 371
#     4  12  24  39  62 100 133 165 206 265 331 390
#
# _framework density 19.720006000000001
#
# number of rings (size 3 to 8) (size 9 to 14) (size 15 to 20)
#    0.000    0.833    5.000    3.000    2.333    1.000 
#    0.000    2.500    0.000    1.000    0.000    0.000 
#    0.000    0.000    0.000    0.000    0.000    0.000 
#
# Total GULP energy -134219.958552 kJ/mol
# GULP energy per Si atom -5592.498273 kJ/mol
# Density = 1.967512 g / cm^3
# Si number density = 19.720006 Si / 1000 Ang^3
#
#
#
# Elastic Constant Matrix: (Units=GPa)
#
#
# Indices 1 2 3 4 5 6 
#
# 1 99.6875 33.1360 35.9172 0.0010 -6.0874 0.0016
# 2 33.1360 119.8694 45.9368 -0.0049 15.7146 0.0018
# 3 35.9172 45.9368 78.8444 -0.0048 -2.9958 0.0000
# 4 0.0010 -0.0049 -0.0048 6.0236 -0.0024 5.2007
# 5 -6.0874 15.7146 -2.9958 -0.0024 37.0716 0.0015
# 6 0.0016 0.0018 0.0000 5.2007 0.0015 23.8390
#
#
#
# Elastic Compliance Matrix: (Units=1/GPa)
#
#
# Indices 1 2 3 4 5 6 
#
# 1 0.012459 -0.002120 -0.004342 -0.000007 0.002594 0.000001
# 2 -0.002120 0.012145 -0.006339 0.000004 -0.006009 -0.000001
# 3 -0.004342 -0.006339 0.018486 0.000014 0.003468 -0.000002
# 4 -0.000007 0.000004 0.000014 0.204539 0.000013 -0.044622
# 5 0.002594 -0.006009 0.003468 0.000013 0.030228 -0.000005
# 6 0.000001 -0.000001 -0.000002 -0.044622 -0.000005 0.051683
#
#
# Mechanical properties :
#
#
# Convention : Reuss Voigt Hill
#
# Bulk Modulus (GPa) = 57.17917 58.70903 57.94410
# Shear Modulus (GPa) = 13.85151 25.61427 19.73289
#
# Velocity S-wave (km/s) = 2.65318 3.60793 3.16674
# Velocity P-wave (km/s) = 6.20034 6.86966 6.54356
#
# Compressibility (1/GPa) = 0.01748889
#
# Stress axis : x y z
#
# Youngs Moduli (GPa) = 80.26456 82.33575 54.09528
#
# Poissons Ratio (x) = 0.17457 0.23487
# Poissons Ratio (y) = 0.17018 0.34289
# Poissons Ratio (z) = 0.34848 0.52190
#
# Static dielectric constant tensor:
#      x y z
#    x 1.738990 0.000000 -0.007980 
#    y 0.000000 1.665450 0.000000 
#    z -0.007980 0.000000 1.696600 
# 
# From -- ./inp_files/61743.got.cif
#   From: 2010.05.17/outbox.cif.g08.bks.cpg/sg12_31_cif.got.tgz:61743.got - 2010.06.03 13:09:07.
