data_PCOD9214578
_publ_section_title
;
Structure prediction by ZEFSAII (Michael W. Deem and Ramdas Pophale) SiO2 
 PCOD9214578
Probable space group: C 2/M
;
_chemical_formula_sum "Si O2"
_cell_formula_units_Z 36
_cell_length_a 20.478388
_cell_length_b 14.250763
_cell_length_c 20.714975
_cell_angle_alpha 90.000000
_cell_angle_beta 164.401905
_cell_angle_gamma 90.000000
_cell_volume 1625.509046
_symmetry_space_group_name_H-M "C 2/M"
_symmetry_group_IT_number 12
_symmetry_cell_setting 'monoclinic'
loop_
_space_group_symop_operation_xyz
x,y,z
-x,y,-z
-x,-y,-z
x,-y,z
1/2+x,1/2+y,z
1/2-x,1/2+y,-z
1/2-x,1/2-y,-z
1/2+x,1/2-y,z
loop_
_atom_site_type_symbol
_atom_site_label
_atom_site_fract_x
_atom_site_fract_y
_atom_site_fract_z
Si Si1 0.332658 0.284010 0.904208
Si Si2 0.000000 0.804572 0.500000
Si Si3 0.602363 0.893378 0.202709
Si Si4 0.802296 0.388151 0.561864
Si Si5 0.844109 0.112064 0.043300
O O1 0.366744 0.362897 0.989606
O O2 0.068433 0.264232 0.623710
O O3 0.500000 0.298470 0.000000
O O4 0.401929 0.186269 0.004825
O O5 0.216955 0.870953 0.683972
O O6 0.737746 0.879588 0.399706
O O7 0.510467 0.000000 0.113203
O O8 0.812518 0.500000 0.557757
O O9 0.075856 0.352691 0.808301
O O10 0.577924 0.350834 0.305794
O O11 0.841846 0.000000 0.051008
#
# Coordination Sequence:
#
# PCOD9214578 Si02
#       5
#     8   4   8   8   8
#     4  10  24  40  60  88 124 159 211 253 301 366
#     4  10  23  40  57  88 120 166 209 256 295 366
#     4  10  22  40  62  89 123 162 202 254 310 366
#     4   9  21  39  64  94 124 158 204 252 307 370
#     4  10  22  42  65  92 126 161 201 256 310 363
#
# _framework density 22.146908
#
# number of rings (size 3 to 8) (size 9 to 14) (size 15 to 20)
#    0.000    2.222    0.000    0.333    9.333    7.111 
#    0.000    0.556    0.000    0.000    0.000    0.000 
#    0.000    0.000    0.000    0.000    0.000    0.000 
#
# Total GULP energy -100476.082590 kJ/mol
# GULP energy per Si atom -5582.004588 kJ/mol
# Density = 2.209650 g / cm^3
# Si number density = 22.146908 Si / 1000 Ang^3
#
#
#
# Elastic Constant Matrix: (Units=GPa)
#
#
# Indices 1 2 3 4 5 6 
#
# 1 68.4691 -1.9543 30.1074 0.0227 -5.4982 0.0041
# 2 -1.9543 -48.7956 40.0341 0.0548 4.6946 0.0416
# 3 30.1074 40.0341 135.5081 0.0103 -18.9096 -0.0042
# 4 0.0227 0.0548 0.0103 15.4563 0.0155 -12.2132
# 5 -5.4982 4.6946 -18.9096 0.0155 30.3256 0.0071
# 6 0.0041 0.0416 -0.0042 -12.2132 0.0071 32.0668
#
#
#
# Elastic Compliance Matrix: (Units=1/GPa)
#
#
# Indices 1 2 3 4 5 6 
#
# 1 0.015776 -0.002538 -0.002521 -0.000020 0.001681 -0.000007
# 2 -0.002538 -0.015110 0.005794 0.000091 0.005492 0.000054
# 3 -0.002521 0.005794 0.006614 -0.000042 0.002770 -0.000023
# 4 -0.000020 0.000091 -0.000042 0.092552 -0.000099 0.035250
# 5 0.001681 0.005492 0.002770 -0.000099 0.034158 -0.000052
# 6 -0.000007 0.000054 -0.000023 0.035250 -0.000052 0.044611
#
#
# Mechanical properties :
#
#
# Convention : Reuss Voigt Hill
#
# Bulk Modulus (GPa) = 114.26268 32.39512 73.32890
# Shear Modulus (GPa) = 27.77041 21.36935 24.56988
#
# Velocity S-wave (km/s) = 3.54491 3.10964 3.33439
# Velocity P-wave (km/s) = 8.27407 5.24903 6.92866
#
# Compressibility (1/GPa) = 0.00875176
#
# Stress axis : x y z
#
# Youngs Moduli (GPa) = 63.38704 -66.18295 151.18397
#
# Poissons Ratio (x) = -0.16798 0.38108
# Poissons Ratio (y) = 0.16089 -0.87600
# Poissons Ratio (z) = 0.15978 0.38348
#
# Static dielectric constant tensor:
#      x y z
#    x 1.819070 0.000000 0.010680 
#    y 0.000000 1.786950 -0.000020 
#    z 0.010680 -0.000020 1.882450 
# 
# From -- ./inp_files/14949.got.cif
#   From: 2010.05.17/outbox.cif.g08.bks.cpg/sg12_8_cif.got.tgz:14949.got - 2010.06.03 13:09:07.
