data_PCOD9214857
_publ_section_title
;
Structure prediction by ZEFSAII (Michael W. Deem and Ramdas Pophale) SiO2 
 PCOD9214857
Probable space group: C 2/M
;
_chemical_formula_sum "Si O2"
_cell_formula_units_Z 56
_cell_length_a 14.448174
_cell_length_b 27.248558
_cell_length_c 8.883700
_cell_angle_alpha 90.000000
_cell_angle_beta 55.352187
_cell_angle_gamma 90.000000
_cell_volume 2877.212408
_symmetry_space_group_name_H-M "C 2/M"
_symmetry_group_IT_number 12
_symmetry_cell_setting 'monoclinic'
loop_
_space_group_symop_operation_xyz
x,y,z
-x,y,-z
-x,-y,-z
x,-y,z
1/2+x,1/2+y,z
1/2-x,1/2+y,-z
1/2-x,1/2-y,-z
1/2+x,1/2-y,z
loop_
_atom_site_type_symbol
_atom_site_label
_atom_site_fract_x
_atom_site_fract_y
_atom_site_fract_z
Si Si1 0.617651 0.237944 0.299678
Si Si2 0.432430 0.500000 0.291450
Si Si3 0.865786 0.149617 0.778663
Si Si4 0.687293 0.900098 0.141881
Si Si5 0.691684 0.843635 0.429780
Si Si6 0.616456 0.391168 0.556515
Si Si7 0.682738 0.500000 0.931949
Si Si8 0.517720 0.835865 0.158032
O O1 0.500000 0.240362 0.500000
O O2 0.651573 0.292894 0.231511
O O3 0.700959 0.208058 0.332735
O O4 0.590478 0.205994 0.176508
O O5 0.401040 0.449234 0.403233
O O6 0.365001 0.500000 0.194947
O O7 0.567075 0.500000 0.135882
O O8 0.834864 0.120866 0.653661
O O9 0.996241 0.135863 0.680558
O O10 0.792791 0.131585 0.984876
O O11 0.648749 0.880474 0.339924
O O12 0.586456 0.886415 0.122337
O O13 0.738721 0.953617 0.107908
O O14 0.803115 0.866953 0.394697
O O15 0.599858 0.838370 0.645125
O O16 0.500000 0.825933 0.000000
#
# Coordination Sequence:
#
# PCOD9214857 Si02
#       8
#     8   4   8   8   8   8   4   8
#     4   9  19  41  60  88 128 168 209 249 312 372
#     4  11  22  40  64  92 132 164 210 260 317 378
#     4  11  23  38  59  95 134 160 206 263 308 376
#     4  11  22  41  64  91 124 164 211 257 313 375
#     4  10  22  40  65  89 123 171 209 258 308 380
#     4  11  22  39  62  95 127 165 209 260 314 367
#     4  11  22  39  65  94 120 166 206 261 324 369
#     4  10  22  43  64  89 125 163 210 259 313 370
#
# _framework density 19.463283000000001
#
# number of rings (size 3 to 8) (size 9 to 14) (size 15 to 20)
#    0.000    1.571    4.286    2.143    0.000    5.143 
#    5.143    2.500    0.000    0.000    0.000    0.000 
#    0.000    0.000    0.000    0.000    0.000    0.000 
#
# Total GULP energy -156346.852898 kJ/mol
# GULP energy per Si atom -5583.816175 kJ/mol
# Density = 1.941898 g / cm^3
# Si number density = 19.463283 Si / 1000 Ang^3
#
#
#
# Elastic Constant Matrix: (Units=GPa)
#
#
# Indices 1 2 3 4 5 6 
#
# 1 67.8502 44.6431 27.1477 0.0000 18.1493 0.0000
# 2 44.6431 183.2662 48.0175 0.0000 8.5556 0.0000
# 3 27.1477 48.0175 105.2177 0.0000 19.5447 0.0000
# 4 0.0000 0.0000 0.0000 53.6997 0.0000 -60.5143
# 5 18.1493 8.5556 19.5447 0.0000 19.6391 0.0000
# 6 0.0000 0.0000 0.0000 -60.5143 0.0000 119.5244
#
#
#
# Elastic Compliance Matrix: (Units=1/GPa)
#
#
# Indices 1 2 3 4 5 6 
#
# 1 0.022963 -0.004633 -0.000299 0.000000 -0.018906 0.000000
# 2 -0.004633 0.007133 -0.002794 0.000000 0.003955 0.000000
# 3 -0.000299 -0.002794 0.012978 0.000000 -0.011422 0.000000
# 4 0.000000 0.000000 0.000000 0.043362 0.000000 0.021954
# 5 -0.018906 0.003955 -0.011422 0.000000 0.078035 0.000000
# 6 0.000000 0.000000 0.000000 0.021954 0.000000 0.019482
#
#
# Mechanical properties :
#
#
# Convention : Reuss Voigt Hill
#
# Bulk Modulus (GPa) = 36.20301 66.21672 51.20987
# Shear Modulus (GPa) = 23.96796 54.34101 39.15449
#
# Velocity S-wave (km/s) = 3.51300 5.28965 4.49008
# Velocity P-wave (km/s) = 5.92418 8.44999 7.29720
#
# Compressibility (1/GPa) = 0.02762201
#
# Stress axis : x y z
#
# Youngs Moduli (GPa) = 43.54777 140.20092 77.05225
#
# Poissons Ratio (x) = 0.64954 0.02302
# Poissons Ratio (y) = 0.20175 0.21531
# Poissons Ratio (z) = 0.01301 0.39178
#
# Static dielectric constant tensor:
#      x y z
#    x 1.690220 0.000000 0.008530 
#    y 0.000000 1.679090 0.000000 
#    z 0.008530 0.000000 1.690920 
# 
# From -- ./inp_files/66874.got.cif
#   From: 2010.05.17/outbox.cif.g08.bks.cpg/sg12_34_cif.got.tgz:66874.got - 2010.06.03 13:09:07.
