data_PCOD9214982
_publ_section_title
;
Structure prediction by ZEFSAII (Michael W. Deem and Ramdas Pophale) SiO2 
 PCOD9214982
Probable space group: C 2/M
;
_chemical_formula_sum "Si O2"
_cell_formula_units_Z 64
_cell_length_a 18.789178
_cell_length_b 19.071221
_cell_length_c 14.408742
_cell_angle_alpha 90.000000
_cell_angle_beta 39.926861
_cell_angle_gamma 90.000000
_cell_volume 3313.738969
_symmetry_space_group_name_H-M "C 2/M"
_symmetry_group_IT_number 12
_symmetry_cell_setting 'monoclinic'
loop_
_space_group_symop_operation_xyz
x,y,z
-x,y,-z
-x,-y,-z
x,-y,z
1/2+x,1/2+y,z
1/2-x,1/2+y,-z
1/2-x,1/2-y,-z
1/2+x,1/2-y,z
loop_
_atom_site_type_symbol
_atom_site_label
_atom_site_fract_x
_atom_site_fract_y
_atom_site_fract_z
Si Si1 0.499999 0.420070 0.694452
Si Si2 0.132097 0.582191 0.612754
Si Si3 0.281061 0.350262 0.829768
Si Si4 0.218936 0.850265 0.391889
Si Si5 0.367913 0.082192 0.876938
Si Si6 0.255061 0.311546 0.137225
Si Si7 0.755067 0.188458 0.352649
Si Si8 0.500001 0.367137 0.104679
O O1 0.499998 0.500000 0.662786
O O2 0.391738 0.381792 0.763812
O O3 0.608256 0.381791 0.547287
O O4 0.500003 0.417179 0.806372
O O5 0.159500 0.500000 0.572066
O O6 0.178861 0.608730 0.664342
O O7 0.193865 0.631201 0.476392
O O8 0.000005 0.590474 0.738324
O O9 0.282550 0.357148 0.717452
O O10 0.273650 0.267860 0.860955
O O11 0.178852 0.391263 0.977949
O O12 0.226354 0.767864 0.408251
O O13 0.306146 0.131198 0.864106
O O14 0.340509 0.000000 0.891064
O O15 0.222894 0.321411 0.277108
O O16 0.387545 0.322355 0.999247
O O17 0.887552 0.177650 0.225653
O O18 0.500000 0.398473 0.000000
#
# Coordination Sequence:
#
# PCOD9214982 Si02
#       8
#     8   8   8   8   8   8   8   8
#     4  12  25  41  66  97 129 168 211 260 319 378
#     4  11  25  42  64  94 127 168 212 257 317 382
#     4  11  25  42  65  94 127 169 214 264 315 373
#     4  11  25  42  65  94 127 169 214 264 315 373
#     4  11  25  42  64  94 127 168 212 257 317 382
#     4  10  23  42  67  96 126 163 212 262 318 379
#     4  10  23  42  67  96 126 163 212 262 318 379
#     4  10  22  40  67 100 126 159 208 261 317 376
#
# _framework density 19.31353
#
# number of rings (size 3 to 8) (size 9 to 14) (size 15 to 20)
#    0.000    1.250    2.500    1.875    3.500    4.250 
#    0.000    5.000    0.000    0.000    0.000    0.000 
#    0.000    0.000    0.000    0.000    0.000    0.000 
#
# Total GULP energy -178855.114897 kJ/mol
# GULP energy per Si atom -5589.222341 kJ/mol
# Density = 1.926957 g / cm^3
# Si number density = 19.313530 Si / 1000 Ang^3
#
#
#
# Elastic Constant Matrix: (Units=GPa)
#
#
# Indices 1 2 3 4 5 6 
#
# 1 108.6562 81.6374 69.6662 0.0000 4.1417 0.0000
# 2 81.6374 164.8086 82.8245 0.0000 -2.0956 0.0000
# 3 69.6662 82.8245 106.8502 0.0000 -0.9342 0.0000
# 4 0.0000 0.0000 0.0000 14.1763 0.0000 -7.8632
# 5 4.1417 -2.0956 -0.9342 0.0000 27.3383 0.0000
# 6 0.0000 0.0000 0.0000 -7.8632 0.0000 9.7441
#
#
#
# Elastic Compliance Matrix: (Units=1/GPa)
#
#
# Indices 1 2 3 4 5 6 
#
# 1 0.018288 -0.005070 -0.008024 0.000000 -0.003434 0.000000
# 2 -0.005070 0.011352 -0.005481 0.000000 0.001451 0.000000
# 3 -0.008024 -0.005481 0.018851 0.000000 0.001440 0.000000
# 4 0.000000 0.000000 0.000000 0.127700 0.000000 0.103051
# 5 -0.003434 0.001451 0.001440 0.000000 0.037259 0.000000
# 6 0.000000 0.000000 0.000000 0.103051 0.000000 0.185787
#
#
# Mechanical properties :
#
#
# Convention : Reuss Voigt Hill
#
# Bulk Modulus (GPa) = 88.16947 94.28569 91.22758
# Shear Modulus (GPa) = 11.35927 19.99752 15.67840
#
# Velocity S-wave (km/s) = 2.42781 3.22128 2.85227
# Velocity P-wave (km/s) = 7.32187 7.92212 7.62790
#
# Compressibility (1/GPa) = 0.01134179
#
# Stress axis : x y z
#
# Youngs Moduli (GPa) = 54.67990 88.08875 53.04625
#
# Poissons Ratio (x) = 0.44665 0.42562
# Poissons Ratio (y) = 0.27725 0.29075
# Poissons Ratio (z) = 0.43873 0.48282
#
# Static dielectric constant tensor:
#      x y z
#    x 1.674950 0.000000 0.018310 
#    y 0.000000 1.642420 0.000000 
#    z 0.018310 0.000000 1.664630 
# 
# From -- ./inp_files/226837.got.cif
#   From: 2010.05.17/outbox.cif.g08.bks.cpg/sg12_114_cif.got.tgz:226837.got - 2010.06.03 13:09:07.
