data_PCOD9214461
_publ_section_title
;
Structure prediction by ZEFSAII (Michael W. Deem and Ramdas Pophale) SiO2 
 PCOD9214461
Probable space group: C 2/M
;
_chemical_formula_sum "Si O2"
_cell_formula_units_Z 48
_cell_length_a 18.522200
_cell_length_b 8.688842
_cell_length_c 21.096571
_cell_angle_alpha 90.000000
_cell_angle_beta 48.731973
_cell_angle_gamma 90.000000
_cell_volume 2551.947803
_symmetry_space_group_name_H-M "C 2/M"
_symmetry_group_IT_number 12
_symmetry_cell_setting 'monoclinic'
loop_
_space_group_symop_operation_xyz
x,y,z
-x,y,-z
-x,-y,-z
x,-y,z
1/2+x,1/2+y,z
1/2-x,1/2+y,-z
1/2-x,1/2-y,-z
1/2+x,1/2-y,z
loop_
_atom_site_type_symbol
_atom_site_label
_atom_site_fract_x
_atom_site_fract_y
_atom_site_fract_z
Si Si1 0.271166 0.315236 0.244212
Si Si2 0.976558 0.685557 0.085996
Si Si3 0.111720 0.814957 0.242468
Si Si4 0.598666 0.314630 0.590198
Si Si5 0.148379 0.684667 0.081807
Si Si6 0.234002 0.314628 0.409735
O O1 0.265926 0.500000 0.244359
O O2 0.378457 0.261824 0.165872
O O3 0.197356 0.244008 0.237011
O O4 0.244022 0.265154 0.331371
O O5 0.965254 0.500000 0.094604
O O6 0.064751 0.727903 0.080655
O O7 0.000000 0.728733 0.000000
O O8 0.123651 0.749213 0.165211
O O9 0.009016 0.765889 0.330947
O O10 0.113767 0.000000 0.238367
O O11 0.600342 0.500000 0.586188
O O12 0.672489 0.266627 0.603332
O O13 0.642099 0.249481 0.500131
O O14 0.153629 0.500000 0.081084
O O15 0.250000 0.750000 0.000000
O O16 0.230359 0.500000 0.413040
#
# Coordination Sequence:
#
# PCOD9214461 Si02
#       6
#     8   8   8   8   8   8
#     4  11  23  38  58  85 116 151 193 238 288 343
#     4  10  22  40  61  86 116 149 186 231 283 338
#     4  11  23  39  58  82 117 155 194 240 285 336
#     4   9  19  36  58  82 109 148 193 234 284 343
#     4  11  23  39  62  90 119 152 190 232 282 340
#     4   9  19  36  57  82 112 145 186 238 289 340
#
# _framework density 18.809163000000002
#
# number of rings (size 3 to 8) (size 9 to 14) (size 15 to 20)
#    0.000    1.833    0.000    3.500    0.000    7.667 
#    0.000    6.667    0.000    0.000    0.000    0.000 
#    0.000    0.000    0.000    0.000    0.000    0.000 
#
# Total GULP energy -134134.216550 kJ/mol
# GULP energy per Si atom -5588.925690 kJ/mol
# Density = 1.876635 g / cm^3
# Si number density = 18.809163 Si / 1000 Ang^3
#
#
#
# Elastic Constant Matrix: (Units=GPa)
#
#
# Indices 1 2 3 4 5 6 
#
# 1 169.4563 52.8428 124.3903 0.0000 0.9104 0.0000
# 2 52.8428 36.2231 53.6155 0.0000 -1.4874 0.0000
# 3 124.3903 53.6155 201.0302 0.0000 0.3250 0.0000
# 4 0.0000 0.0000 0.0000 36.0620 0.0000 -2.6488
# 5 0.9104 -1.4874 0.3250 0.0000 42.7486 0.0000
# 6 0.0000 0.0000 0.0000 -2.6488 0.0000 23.0826
#
#
#
# Elastic Compliance Matrix: (Units=1/GPa)
#
#
# Indices 1 2 3 4 5 6 
#
# 1 0.013380 -0.012051 -0.005064 0.000000 -0.000666 0.000000
# 2 -0.012051 0.056588 -0.007639 0.000000 0.002284 0.000000
# 3 -0.005064 -0.007639 0.010146 0.000000 -0.000235 0.000000
# 4 0.000000 0.000000 0.000000 0.027966 0.000000 0.003209
# 5 -0.000666 0.002284 -0.000235 0.000000 0.023488 0.000000
# 6 0.000000 0.000000 0.000000 0.003209 0.000000 0.043691
#
#
# Mechanical properties :
#
#
# Convention : Reuss Voigt Hill
#
# Bulk Modulus (GPa) = 32.67427 96.48963 64.58195
# Shear Modulus (GPa) = 21.27956 32.10268 26.69112
#
# Velocity S-wave (km/s) = 3.36719 4.13577 3.77111
# Velocity P-wave (km/s) = 5.70320 8.61492 7.30559
#
# Compressibility (1/GPa) = 0.03060512
#
# Stress axis : x y z
#
# Youngs Moduli (GPa) = 74.73887 17.67174 98.56543
#
# Poissons Ratio (x) = 0.21296 0.49913
# Poissons Ratio (y) = 0.90066 0.75296
# Poissons Ratio (z) = 0.37847 0.13500
#
# Static dielectric constant tensor:
#      x y z
#    x 1.628630 0.000000 0.003400 
#    y 0.000000 1.634460 0.000000 
#    z 0.003400 0.000000 1.618420 
# 
# From -- ./inp_files/313599.got.cif
#   From: 2010.05.17/outbox.cif.g08.bks.cpg/sg12_157_cif.got.tgz:313599.got - 2010.06.03 13:09:07.
