data_PCOD9214125
_publ_section_title
;
Structure prediction by ZEFSAII (Michael W. Deem and Ramdas Pophale) SiO2 
 PCOD9214125
Probable space group: C 2/M
;
_chemical_formula_sum "Si O2"
_cell_formula_units_Z 34
_cell_length_a 23.983962
_cell_length_b 7.590953
_cell_length_c 10.652144
_cell_angle_alpha 90.000000
_cell_angle_beta 54.210956
_cell_angle_gamma 90.000000
_cell_volume 1573.146502
_symmetry_space_group_name_H-M "C 2/M"
_symmetry_group_IT_number 12
_symmetry_cell_setting 'monoclinic'
loop_
_space_group_symop_operation_xyz
x,y,z
-x,y,-z
-x,-y,-z
x,-y,z
1/2+x,1/2+y,z
1/2-x,1/2+y,-z
1/2-x,1/2-y,-z
1/2+x,1/2-y,z
loop_
_atom_site_type_symbol
_atom_site_label
_atom_site_fract_x
_atom_site_fract_y
_atom_site_fract_z
Si Si1 0.427228 0.787390 0.047285
Si Si2 0.719127 0.788520 0.676277
Si Si3 0.444217 0.801719 0.734016
Si Si4 0.799948 0.788796 0.816780
Si Si5 0.500000 0.500000 0.500000
O O1 0.358611 0.720482 0.204821
O O2 0.428214 0.000000 0.064661
O O3 0.500000 0.718329 0.000000
O O4 0.422378 0.758848 0.905019
O O5 0.750000 0.750000 0.500000
O O6 0.765203 0.726554 0.733238
O O7 0.716486 0.000000 0.693703
O O8 0.374224 0.792060 0.745500
O O9 0.494229 0.655247 0.614968
O O10 0.472738 0.000000 0.694212
O O11 0.810733 0.000000 0.795660
O O12 0.750000 0.750000 0.000000
#
# Coordination Sequence:
#
# PCOD9214125 Si02
#       5
#     8   8   8   8   2
#     4   9  19  40  67  93 128 176 223 269 336 412
#     4  10  22  39  62  97 134 169 221 282 333 395
#     4  11  23  43  69  97 131 181 224 274 343 402
#     4  11  21  39  67  97 132 172 226 282 333 399
#     4  12  26  44  62 102 144 160 228 288 322 412
#
# _framework density 21.612736000000002
#
# number of rings (size 3 to 8) (size 9 to 14) (size 15 to 20)
#    0.000    1.647    3.529    1.059    0.000    3.765 
#    2.118    2.941    0.000    0.000    0.000    0.000 
#    0.000    0.000    0.000    0.000    0.000    0.000 
#
# Total GULP energy -94752.170598 kJ/mol
# GULP energy per Si atom -5573.657094 kJ/mol
# Density = 2.156354 g / cm^3
# Si number density = 21.612736 Si / 1000 Ang^3
#
#
#
# Elastic Constant Matrix: (Units=GPa)
#
#
# Indices 1 2 3 4 5 6 
#
# 1 138.9463 1.2245 58.9535 0.0000 22.5939 0.0000
# 2 1.2245 95.3335 34.3159 0.0000 -5.1962 0.0000
# 3 58.9535 34.3159 147.5417 0.0000 16.6375 0.0000
# 4 0.0000 0.0000 0.0000 34.0923 0.0000 0.4670
# 5 22.5939 -5.1962 16.6375 0.0000 20.4398 0.0000
# 6 0.0000 0.0000 0.0000 0.4670 0.0000 3.4551
#
#
#
# Elastic Compliance Matrix: (Units=1/GPa)
#
#
# Indices 1 2 3 4 5 6 
#
# 1 0.009859 0.000559 -0.003145 0.000000 -0.008196 0.000000
# 2 0.000559 0.012091 -0.003647 0.000000 0.005425 0.000000
# 3 -0.003145 -0.003647 0.009464 0.000000 -0.005154 0.000000
# 4 0.000000 0.000000 0.000000 0.029387 0.000000 -0.003972
# 5 -0.008196 0.005425 -0.005154 0.000000 0.063559 0.000000
# 6 0.000000 0.000000 0.000000 -0.003972 0.000000 0.289964
#
#
# Mechanical properties :
#
#
# Convention : Reuss Voigt Hill
#
# Bulk Modulus (GPa) = 52.77897 63.42325 58.10111
# Shear Modulus (GPa) = 11.54451 30.75259 21.14855
#
# Velocity S-wave (km/s) = 2.31368 3.77622 3.13153
# Velocity P-wave (km/s) = 5.62235 6.95860 6.32586
#
# Compressibility (1/GPa) = 0.01894694
#
# Stress axis : x y z
#
# Youngs Moduli (GPa) = 101.42620 82.70751 105.66428
#
# Poissons Ratio (x) = -0.04622 0.33234
# Poissons Ratio (y) = -0.05667 0.38537
# Poissons Ratio (z) = 0.31901 0.30164
#
# Static dielectric constant tensor:
#      x y z
#    x 1.176550 0.000000 -0.328810 
#    y 0.000000 1.817460 0.000000 
#    z -0.328810 0.000000 1.632320 
# 
# From -- ./inp_files/100870.got.cif
#   From: 2010.05.17/outbox.cif.g08.bks.cpg/sg12_51_cif.got.tgz:100870.got - 2010.06.03 13:09:07.
