data_PCOD9214524
_publ_section_title
;
Structure prediction by ZEFSAII (Michael W. Deem and Ramdas Pophale) SiO2 
 PCOD9214524
Probable space group: C 2/M
;
_chemical_formula_sum "Si O2"
_cell_formula_units_Z 48
_cell_length_a 13.593343
_cell_length_b 14.005262
_cell_length_c 23.619203
_cell_angle_alpha 90.000000
_cell_angle_beta 147.337566
_cell_angle_gamma 90.000000
_cell_volume 2426.754759
_symmetry_space_group_name_H-M "C 2/M"
_symmetry_group_IT_number 12
_symmetry_cell_setting 'monoclinic'
loop_
_space_group_symop_operation_xyz
x,y,z
-x,y,-z
-x,-y,-z
x,-y,z
1/2+x,1/2+y,z
1/2-x,1/2+y,-z
1/2-x,1/2-y,-z
1/2+x,1/2-y,z
loop_
_atom_site_type_symbol
_atom_site_label
_atom_site_fract_x
_atom_site_fract_y
_atom_site_fract_z
Si Si1 0.300117 0.388922 0.897696
Si Si2 0.146486 0.613086 0.122083
Si Si3 0.033825 0.797860 0.275131
Si Si4 0.930345 0.712422 0.118315
Si Si5 0.011183 0.612978 0.330521
Si Si6 0.621881 0.112781 0.509305
O O1 0.320181 0.500000 0.919380
O O2 0.159281 0.352588 0.876142
O O3 0.203658 0.380609 0.789916
O O4 0.500000 0.343453 0.000000
O O5 0.185763 0.500000 0.149223
O O6 0.329305 0.670227 0.193470
O O7 0.056736 0.658257 0.134872
O O8 0.000000 0.619709 0.000000
O O9 0.034681 0.791076 0.207233
O O10 0.091647 0.694006 0.328222
O O11 0.172701 0.869471 0.371915
O O12 0.750000 0.750000 0.000000
O O13 0.060970 0.500000 0.345788
O O14 0.065462 0.644943 0.419522
O O15 0.500000 0.156949 0.500000
O O16 0.586388 0.000000 0.490033
#
# Coordination Sequence:
#
# PCOD9214524 Si02
#       6
#     8   8   8   8   8   8
#     4   9  19  35  58  85 115 154 199 247 306 369
#     4  11  24  43  62  90 132 173 210 259 319 378
#     4  11  23  39  68  90 123 165 216 256 316 382
#     4  11  23  36  58  88 124 162 205 254 306 374
#     4   9  20  38  60  85 121 157 196 258 313 363
#     4  10  22  40  61  90 122 159 209 261 313 373
#
# _framework density 19.779501
#
# number of rings (size 3 to 8) (size 9 to 14) (size 15 to 20)
#    0.000    1.833    1.667    1.500    7.000    0.667 
#    0.000    0.000    0.000    0.500    0.000    0.000 
#    0.000    0.000    0.000    0.000    0.000    0.000 
#
# Total GULP energy -133694.949513 kJ/mol
# GULP energy per Si atom -5570.622896 kJ/mol
# Density = 1.973448 g / cm^3
# Si number density = 19.779501 Si / 1000 Ang^3
#
#
#
# Elastic Constant Matrix: (Units=GPa)
#
#
# Indices 1 2 3 4 5 6 
#
# 1 102.2997 18.6198 46.0483 0.0000 -15.2063 0.0000
# 2 18.6198 51.7463 -8.5128 0.0000 -13.3005 0.0000
# 3 46.0483 -8.5128 103.4288 0.0001 -25.3121 0.0000
# 4 0.0000 0.0000 0.0001 25.3107 0.0000 -1.0605
# 5 -15.2063 -13.3005 -25.3121 0.0000 36.4724 0.0000
# 6 0.0000 0.0000 0.0000 -1.0605 0.0000 22.3335
#
#
#
# Elastic Compliance Matrix: (Units=1/GPa)
#
#
# Indices 1 2 3 4 5 6 
#
# 1 0.013957 -0.006589 -0.007131 0.000000 -0.001533 0.000000
# 2 -0.006589 0.026243 0.008147 0.000000 0.012477 0.000000
# 3 -0.007131 0.008147 0.016278 0.000000 0.011295 0.000000
# 4 0.000000 0.000000 0.000000 0.039588 0.000000 0.001880
# 5 -0.001533 0.012477 0.011295 0.000000 0.039168 0.000000
# 6 0.000000 0.000000 0.000000 0.001880 0.000000 0.044865
#
#
# Mechanical properties :
#
#
# Convention : Reuss Voigt Hill
#
# Bulk Modulus (GPa) = 22.05966 41.08727 31.57347
# Shear Modulus (GPa) = 24.22996 30.24462 27.23729
#
# Velocity S-wave (km/s) = 3.50380 3.91460 3.71488
# Velocity P-wave (km/s) = 5.24841 6.42261 5.86497
#
# Compressibility (1/GPa) = 0.04533161
#
# Stress axis : x y z
#
# Youngs Moduli (GPa) = 71.65057 38.10481 61.43167
#
# Poissons Ratio (x) = 0.25108 0.43809
# Poissons Ratio (y) = 0.47212 -0.50049
# Poissons Ratio (z) = 0.51096 -0.31045
#
# Static dielectric constant tensor:
#      x y z
#    x 1.723570 0.000000 -0.018780 
#    y 0.000000 1.751190 0.000000 
#    z -0.018780 0.000000 1.757970 
# 
# From -- ./inp_files/204852.got.cif
#   From: 2010.05.17/outbox.cif.g08.bks.cpg/sg12_103_cif.got.tgz:204852.got - 2010.06.03 13:09:07.
