data_PCOD9214520
_publ_section_title
;
Structure prediction by ZEFSAII (Michael W. Deem and Ramdas Pophale) SiO2 
 PCOD9214520
Probable space group: C 2/M
;
_chemical_formula_sum "Si O2"
_cell_formula_units_Z 64
_cell_length_a 19.816009
_cell_length_b 23.889130
_cell_length_c 17.818384
_cell_angle_alpha 90.000000
_cell_angle_beta 21.604525
_cell_angle_gamma 90.000000
_cell_volume 3105.748201
_symmetry_space_group_name_H-M "C 2/M"
_symmetry_group_IT_number 12
_symmetry_cell_setting 'monoclinic'
loop_
_space_group_symop_operation_xyz
x,y,z
-x,y,-z
-x,-y,-z
x,-y,z
1/2+x,1/2+y,z
1/2-x,1/2+y,-z
1/2-x,1/2-y,-z
1/2+x,1/2-y,z
loop_
_atom_site_type_symbol
_atom_site_label
_atom_site_fract_x
_atom_site_fract_y
_atom_site_fract_z
Si Si1 0.629662 0.349437 0.971875
Si Si2 0.912255 0.770545 0.513057
Si Si3 0.211240 0.645270 0.349161
Si Si4 0.920779 0.436274 0.389005
Si Si5 0.315632 0.434948 0.510552
Si Si6 0.564577 0.842588 0.847900
Si Si7 0.766367 0.729382 0.068613
Si Si8 0.826307 0.066093 0.935535
O O1 0.418472 0.348093 0.165225
O O2 0.641265 0.391602 0.029464
O O3 0.756053 0.369633 0.771738
O O4 0.687382 0.286148 0.932939
O O5 0.890363 0.704123 0.539050
O O6 0.713230 0.793638 0.703243
O O7 0.000000 0.790733 0.500000
O O8 0.059846 0.788765 0.299888
O O9 0.107539 0.602928 0.510807
O O10 0.923666 0.500000 0.412813
O O11 0.756294 0.429449 0.500595
O O12 0.108744 0.427381 0.148230
O O13 0.293917 0.500000 0.555799
O O14 0.184729 0.394343 0.692731
O O15 0.532633 0.422021 0.278154
O O16 0.500000 0.854422 0.000000
O O17 0.408758 0.817699 0.952268
O O18 0.750000 0.750000 0.000000
O O19 0.857521 0.000000 0.922694
#
# Coordination Sequence:
#
# PCOD9214520 Si02
#       8
#     8   8   8   8   8   8   8   8
#     4  11  22  39  62  93 134 174 221 270 318 385
#     4  12  24  44  68  94 138 178 212 270 335 387
#     4  11  22  38  64  92 133 181 220 266 322 384
#     4  10  22  40  63  94 131 174 224 268 321 384
#     4  10  24  45  68  95 130 165 209 278 339 388
#     4  12  26  47  71 100 132 169 223 273 332 410
#     4  12  28  42  66 102 136 175 219 270 331 390
#     4  10  22  40  61  89 128 172 219 272 324 382
#
# _framework density 20.606950000000001
#
# number of rings (size 3 to 8) (size 9 to 14) (size 15 to 20)
#    0.000    1.000    5.000    0.750    5.250    1.250 
#    0.000    2.500    0.000    0.375    0.000    0.000 
#    0.000    0.000    0.000    0.000    0.000    0.000 
#
# Total GULP energy -178653.213244 kJ/mol
# GULP energy per Si atom -5582.912914 kJ/mol
# Density = 2.056005 g / cm^3
# Si number density = 20.606950 Si / 1000 Ang^3
#
#
#
# Elastic Constant Matrix: (Units=GPa)
#
#
# Indices 1 2 3 4 5 6 
#
# 1 40.4388 14.0551 19.6289 -0.0416 10.2336 0.0498
# 2 14.0551 98.2711 47.2003 -0.0468 22.4111 0.0474
# 3 19.6289 47.2003 141.2140 -0.0812 15.4687 0.0615
# 4 -0.0416 -0.0468 -0.0812 30.9042 0.0354 12.6946
# 5 10.2336 22.4111 15.4687 0.0354 36.5370 -0.0280
# 6 0.0498 0.0474 0.0615 12.6946 -0.0280 7.8914
#
#
#
# Elastic Compliance Matrix: (Units=1/GPa)
#
#
# Indices 1 2 3 4 5 6 
#
# 1 0.028036 -0.001324 -0.002813 0.000306 -0.005850 -0.000661
# 2 -0.001324 0.013583 -0.003653 0.000130 -0.006414 -0.000277
# 3 -0.002813 -0.003653 0.008769 0.000080 -0.000684 -0.000161
# 4 0.000306 0.000130 0.000080 0.095402 -0.000410 -0.153473
# 5 -0.005850 -0.006414 -0.000684 -0.000410 0.033233 0.000858
# 6 -0.000661 -0.000277 -0.000161 -0.153473 0.000858 0.373616
#
#
# Mechanical properties :
#
#
# Convention : Reuss Voigt Hill
#
# Bulk Modulus (GPa) = 28.72999 49.07694 38.90347
# Shear Modulus (GPa) = 8.62334 28.33582 18.47958
#
# Velocity S-wave (km/s) = 2.04787 3.71221 2.99785
# Velocity P-wave (km/s) = 4.42310 6.49934 5.55901
#
# Compressibility (1/GPa) = 0.03480683
#
# Stress axis : x y z
#
# Youngs Moduli (GPa) = 35.66837 73.62155 114.04354
#
# Poissons Ratio (x) = 0.09748 0.32083
# Poissons Ratio (y) = 0.04723 0.41662
# Poissons Ratio (z) = 0.10034 0.26895
#
# Static dielectric constant tensor:
#      x y z
#    x 1.621940 -0.000040 -0.118610 
#    y -0.000040 1.725010 0.000030 
#    z -0.118610 0.000030 1.665530 
# 
# From -- ./inp_files/286394.got.cif
#   From: 2010.05.17/outbox.cif.g08.bks.cpg/sg12_144_cif.got.tgz:286394.got - 2010.06.03 13:09:07.
