data_PCOD9214924
_publ_section_title
;
Structure prediction by ZEFSAII (Michael W. Deem and Ramdas Pophale) SiO2 
 PCOD9214924
Probable space group: C 2/M
;
_chemical_formula_sum "Si O2"
_cell_formula_units_Z 56
_cell_length_a 19.357180
_cell_length_b 14.299226
_cell_length_c 21.784874
_cell_angle_alpha 90.000000
_cell_angle_beta 153.529856
_cell_angle_gamma 90.000000
_cell_volume 2687.713146
_symmetry_space_group_name_H-M "C 2/M"
_symmetry_group_IT_number 12
_symmetry_cell_setting 'monoclinic'
loop_
_space_group_symop_operation_xyz
x,y,z
-x,y,-z
-x,-y,-z
x,-y,z
1/2+x,1/2+y,z
1/2-x,1/2+y,-z
1/2-x,1/2-y,-z
1/2+x,1/2-y,z
loop_
_atom_site_type_symbol
_atom_site_label
_atom_site_fract_x
_atom_site_fract_y
_atom_site_fract_z
Si Si1 0.355607 0.178584 0.544881
Si Si2 0.598387 0.244693 0.640407
Si Si3 0.117098 0.110827 0.148669
Si Si4 0.418758 0.306223 0.750748
Si Si5 0.531328 0.896245 0.241588
Si Si6 0.790169 0.891512 0.078981
Si Si7 0.823910 0.388445 0.874799
O O1 0.250000 0.250000 0.500000
O O2 0.485701 0.229324 0.608502
O O3 0.230376 0.141069 0.396313
O O4 0.431072 0.112893 0.656304
O O5 0.500000 0.250965 0.500000
O O6 0.717417 0.158360 0.731326
O O7 0.704409 0.334684 0.736752
O O8 0.050870 0.156159 0.157808
O O9 0.132372 0.000000 0.168348
O O10 0.000000 0.129101 0.000000
O O11 0.391165 0.194178 0.728796
O O12 0.566886 0.327424 0.826313
O O13 0.579653 0.000000 0.258048
O O14 0.349665 0.886981 0.081055
O O15 0.719398 0.866804 0.088947
O O16 0.842920 0.000000 0.123481
O O17 0.812482 0.500000 0.857909
O O18 0.000000 0.360686 0.000000
#
# Coordination Sequence:
#
# PCOD9214924 Si02
#       7
#     8   8   8   8   8   8   8
#     4  10  23  43  64  94 133 175 226 268 333 400
#     4  12  25  45  67  97 137 178 226 279 341 403
#     4  11  27  46  69 100 133 176 229 280 339 408
#     4  11  22  44  68  94 135 182 219 277 337 400
#     4  10  23  39  65 101 131 168 222 277 331 397
#     4  10  22  40  65  99 131 169 225 277 332 399
#     4  10  23  42  68 100 135 178 224 275 336 402
#
# _framework density 20.835557000000001
#
# number of rings (size 3 to 8) (size 9 to 14) (size 15 to 20)
#    0.000    1.429    1.429    3.000    6.000    2.286 
#    0.000    4.286    0.000    0.429    0.000    0.000 
#    0.000    0.000    0.000    0.000    0.000    0.000 
#
# Total GULP energy -156498.120513 kJ/mol
# GULP energy per Si atom -5589.218590 kJ/mol
# Density = 2.078813 g / cm^3
# Si number density = 20.835557 Si / 1000 Ang^3
#
#
#
# Elastic Constant Matrix: (Units=GPa)
#
#
# Indices 1 2 3 4 5 6 
#
# 1 128.1167 60.9042 54.1257 -0.0024 6.2187 -0.0006
# 2 60.9042 104.0792 66.9746 0.0022 -5.1000 0.0012
# 3 54.1257 66.9746 145.7237 -0.0011 -15.9923 0.0007
# 4 -0.0024 0.0022 -0.0011 -131.3085 -0.0018 -16.9837
# 5 6.2187 -5.1000 -15.9923 -0.0018 37.4770 0.0002
# 6 -0.0006 0.0012 0.0007 -16.9837 0.0002 21.2809
#
#
#
# Elastic Compliance Matrix: (Units=1/GPa)
#
#
# Indices 1 2 3 4 5 6 
#
# 1 0.011510 -0.005548 -0.002117 0.000000 -0.003568 0.000000
# 2 -0.005548 0.016344 -0.005357 0.000000 0.000859 -0.000001
# 3 -0.002117 -0.005357 0.010564 0.000000 0.004130 0.000000
# 4 0.000000 0.000000 0.000000 -0.006903 0.000000 -0.005509
# 5 -0.003568 0.000859 0.004130 0.000000 0.029154 -0.000001
# 6 0.000000 -0.000001 0.000000 -0.005509 -0.000001 0.042594
#
#
# Mechanical properties :
#
#
# Convention : Reuss Voigt Hill
#
# Bulk Modulus (GPa) = 80.81133 82.43650 81.62392
# Shear Modulus (GPa) = 37.47247 -1.44911 18.01168
#
# Velocity S-wave (km/s) = 4.24546 -0.83487 2.94337
# Velocity P-wave (km/s) = 7.93104 6.22269 7.12823
#
# Compressibility (1/GPa) = 0.01237450
#
# Stress axis : x y z
#
# Youngs Moduli (GPa) = 86.87761 61.18548 94.66373
#
# Poissons Ratio (x) = 0.33947 0.20040
# Poissons Ratio (y) = 0.48202 0.50707
# Poissons Ratio (z) = 0.18391 0.32774
#
# Static dielectric constant tensor:
#      x y z
#    x 1.741810 0.000000 -0.025570 
#    y 0.000000 1.762860 0.000000 
#    z -0.025570 0.000000 1.759500 
# 
# From -- ./inp_files/316755.got.cif
#   From: 2010.05.17/outbox.cif.g08.bks.cpg/sg12_159_cif.got.tgz:316755.got - 2010.06.03 13:09:07.
