data_PCOD9214729
_publ_section_title
;
Structure prediction by ZEFSAII (Michael W. Deem and Ramdas Pophale) SiO2 
 PCOD9214729
Probable space group: C 2/M
;
_chemical_formula_sum "Si O2"
_cell_formula_units_Z 64
_cell_length_a 28.458097
_cell_length_b 18.862449
_cell_length_c 9.368013
_cell_angle_alpha 90.000000
_cell_angle_beta 35.315178
_cell_angle_gamma 90.000000
_cell_volume 2906.930897
_symmetry_space_group_name_H-M "C 2/M"
_symmetry_group_IT_number 12
_symmetry_cell_setting 'monoclinic'
loop_
_space_group_symop_operation_xyz
x,y,z
-x,y,-z
-x,-y,-z
x,-y,z
1/2+x,1/2+y,z
1/2-x,1/2+y,-z
1/2-x,1/2-y,-z
1/2+x,1/2-y,z
loop_
_atom_site_type_symbol
_atom_site_label
_atom_site_fract_x
_atom_site_fract_y
_atom_site_fract_z
Si Si1 0.299639 0.859231 0.094564
Si Si2 0.883315 0.915556 0.416846
Si Si3 0.137621 0.079072 0.851346
Si Si4 0.118759 0.214104 0.093647
Si Si5 0.671090 0.077553 0.683587
Si Si6 0.428214 0.084535 0.564963
Si Si7 0.940715 0.795362 0.442059
Si Si8 0.075142 0.327999 0.710021
O O1 0.206271 0.883950 0.324453
O O2 0.342081 0.901433 0.119824
O O3 0.316111 0.776523 0.086925
O O4 0.347148 0.880332 0.833043
O O5 0.901636 0.902039 0.204485
O O6 0.944324 0.873641 0.367868
O O7 0.882878 0.000000 0.438395
O O8 0.232531 0.073151 0.575043
O O9 0.110053 0.000000 0.964911
O O10 0.134267 0.140310 0.976258
O O11 0.106254 0.203230 0.292912
O O12 0.030158 0.236065 0.251454
O O13 0.639975 0.135271 0.650831
O O14 0.634524 0.000000 0.744815
O O15 0.500000 0.099942 0.500000
O O16 0.444979 0.118468 0.369593
O O17 0.418503 0.000000 0.578439
O O18 0.899280 0.744467 0.429464
O O19 0.000000 0.313387 0.000000
#
# Coordination Sequence:
#
# PCOD9214729 Si02
#       8
#     8   8   8   8   8   8   8   8
#     4  11  22  41  69  93 132 173 217 268 322 393
#     4  10  24  44  68  99 132 171 221 272 324 390
#     4   9  22  43  67  96 128 166 212 264 324 388
#     4  11  24  43  67  93 131 174 217 269 329 393
#     4  10  22  40  63  94 130 168 213 265 321 386
#     4  11  22  38  61  89 126 174 220 264 322 384
#     4  11  26  43  63  96 132 170 218 271 329 389
#     4  12  25  39  61  90 132 166 215 270 321 384
#
# _framework density 22.016347
#
# number of rings (size 3 to 8) (size 9 to 14) (size 15 to 20)
#    0.000    1.375    1.250    4.500    5.250    5.500 
#    0.000    3.750    0.000    0.000    0.000    0.000 
#    0.000    0.000    0.000    0.000    0.000    0.000 
#
# Total GULP energy -178969.902460 kJ/mol
# GULP energy per Si atom -5592.809452 kJ/mol
# Density = 2.196624 g / cm^3
# Si number density = 22.016347 Si / 1000 Ang^3
#
#
#
# Elastic Constant Matrix: (Units=GPa)
#
#
# Indices 1 2 3 4 5 6 
#
# 1 66.3677 26.6931 18.1141 0.0000 13.6351 0.0000
# 2 26.6931 122.9825 39.8427 0.0000 17.2136 0.0000
# 3 18.1141 39.8427 79.9769 0.0000 18.8251 0.0000
# 4 0.0000 0.0000 0.0000 17.2479 0.0000 4.4652
# 5 13.6351 17.2136 18.8251 0.0000 27.9252 0.0000
# 6 0.0000 0.0000 0.0000 4.4652 0.0000 38.7594
#
#
#
# Elastic Compliance Matrix: (Units=1/GPa)
#
#
# Indices 1 2 3 4 5 6 
#
# 1 0.017723 -0.002564 -0.001274 0.000000 -0.006214 0.000000
# 2 -0.002564 0.010319 -0.003991 0.000000 -0.002419 0.000000
# 3 -0.001274 -0.003991 0.016706 0.000000 -0.008180 0.000000
# 4 0.000000 0.000000 0.000000 0.059760 0.000000 -0.006885
# 5 -0.006214 -0.002419 -0.008180 0.000000 0.045849 0.000000
# 6 0.000000 0.000000 0.000000 -0.006885 0.000000 0.026593
#
#
# Mechanical properties :
#
#
# Convention : Reuss Voigt Hill
#
# Bulk Modulus (GPa) = 34.37587 48.73634 41.55610
# Shear Modulus (GPa) = 24.71506 29.09831 26.90669
#
# Velocity S-wave (km/s) = 3.35412 3.63942 3.49968
# Velocity P-wave (km/s) = 5.53605 6.31229 5.93687
#
# Compressibility (1/GPa) = 0.02909017
#
# Stress axis : x y z
#
# Youngs Moduli (GPa) = 56.42271 96.90661 59.86026
#
# Poissons Ratio (x) = 0.24850 0.07626
# Poissons Ratio (y) = 0.14468 0.23888
# Poissons Ratio (z) = 0.07188 0.38673
#
# Static dielectric constant tensor:
#      x y z
#    x 1.806790 0.000000 -0.048640 
#    y 0.000000 1.817190 0.000000 
#    z -0.048640 0.000000 1.795270 
# 
# From -- ./inp_files/112826.got.cif
#   From: 2010.05.17/outbox.cif.g08.bks.cpg/sg12_57_cif.got.tgz:112826.got - 2010.06.03 13:09:07.
