data_PCOD9214878
_publ_section_title
;
Structure prediction by ZEFSAII (Michael W. Deem and Ramdas Pophale) SiO2 
 PCOD9214878
Probable space group: C 2/M
;
_chemical_formula_sum "Si O2"
_cell_formula_units_Z 36
_cell_length_a 13.363979
_cell_length_b 12.128103
_cell_length_c 15.873943
_cell_angle_alpha 90.000000
_cell_angle_beta 140.768131
_cell_angle_gamma 90.000000
_cell_volume 1627.221631
_symmetry_space_group_name_H-M "C 2/M"
_symmetry_group_IT_number 12
_symmetry_cell_setting 'monoclinic'
loop_
_space_group_symop_operation_xyz
x,y,z
-x,y,-z
-x,-y,-z
x,-y,z
1/2+x,1/2+y,z
1/2-x,1/2+y,-z
1/2-x,1/2-y,-z
1/2+x,1/2-y,z
loop_
_atom_site_type_symbol
_atom_site_label
_atom_site_fract_x
_atom_site_fract_y
_atom_site_fract_z
Si Si1 0.000000 0.200290 0.500000
Si Si2 0.202480 0.376250 0.729229
Si Si3 0.009054 0.840560 0.841597
Si Si4 0.866894 0.620392 0.121832
Si Si5 0.670743 0.375574 0.449141
O O1 0.868764 0.283774 0.377248
O O2 0.930500 0.131012 0.531570
O O3 0.145714 0.500000 0.671428
O O4 0.390440 0.376281 0.837244
O O5 0.153538 0.351860 0.792843
O O6 0.024366 0.709016 0.851120
O O7 0.933588 0.875775 0.703804
O O8 0.189203 0.878468 0.969417
O O9 0.935910 0.500000 0.158891
O O10 0.752646 0.500000 0.501928
O O11 0.750000 0.250000 0.500000
#
# Coordination Sequence:
#
# PCOD9214878 Si02
#       5
#     4   8   8   8   8
#     4  12  24  42  60  96 127 172 209 264 317 380
#     4  11  22  39  64  94 127 166 213 264 314 379
#     4  11  22  40  66  93 126 161 216 263 318 374
#     4  10  22  40  65  93 125 165 211 264 320 379
#     4  12  26  44  67  94 129 172 216 265 321 380
#
# _framework density 22.123598999999999
#
# number of rings (size 3 to 8) (size 9 to 14) (size 15 to 20)
#    0.000    0.889    4.444    3.333    0.000    3.556 
#    0.000    0.000    0.000    2.667    0.000    0.000 
#    0.000    0.000    0.000    0.000    0.000    0.000 
#
# Total GULP energy -100503.370808 kJ/mol
# GULP energy per Si atom -5583.520600 kJ/mol
# Density = 2.207324 g / cm^3
# Si number density = 22.123599 Si / 1000 Ang^3
#
#
#
# Elastic Constant Matrix: (Units=GPa)
#
#
# Indices 1 2 3 4 5 6 
#
# 1 49.8264 25.9378 -16.8771 0.0000 2.9561 0.0000
# 2 25.9378 150.6920 17.4569 0.0000 8.7702 0.0000
# 3 -16.8771 17.4569 70.1022 0.0001 4.1473 0.0000
# 4 0.0000 0.0000 0.0001 2.4893 0.0000 -19.2898
# 5 2.9561 8.7702 4.1473 0.0000 21.8744 0.0000
# 6 0.0000 0.0000 0.0000 -19.2898 0.0000 56.1634
#
#
#
# Elastic Compliance Matrix: (Units=1/GPa)
#
#
# Indices 1 2 3 4 5 6 
#
# 1 0.025450 -0.005092 0.007563 0.000000 -0.002832 0.000000
# 2 -0.005092 0.007984 -0.003100 0.000000 -0.001925 0.000000
# 3 0.007563 -0.003100 0.017036 0.000000 -0.003009 0.000000
# 4 0.000000 0.000000 0.000000 -0.241785 0.000000 -0.083043
# 5 -0.002832 -0.001925 -0.003009 0.000000 0.047440 0.000000
# 6 0.000000 0.000000 0.000000 -0.083043 0.000000 -0.010717
#
#
# Mechanical properties :
#
#
# Convention : Reuss Voigt Hill
#
# Bulk Modulus (GPa) = 20.32093 35.96177 28.14135
# Shear Modulus (GPa) = -36.51502 32.37896 -2.06803
#
# Velocity S-wave (km/s) = -4.06704 3.82979 -0.96788
# Velocity P-wave (km/s) = 3.58460 5.98720 3.39096
#
# Compressibility (1/GPa) = 0.04921035
#
# Stress axis : x y z
#
# Youngs Moduli (GPa) = 39.29292 125.25605 58.70075
#
# Poissons Ratio (x) = 0.63778 -0.44393
# Poissons Ratio (y) = 0.20007 0.18198
# Poissons Ratio (z) = -0.29715 0.38830
#
# Static dielectric constant tensor:
#      x y z
#    x 1.766550 0.000000 0.033710 
#    y 0.000000 1.882660 0.000000 
#    z 0.033710 0.000000 1.816800 
# 
# From -- ./inp_files/213587.got.cif
#   From: 2010.05.17/outbox.cif.g08.bks.cpg/sg12_107_cif.got.tgz:213587.got - 2010.06.03 13:09:07.
