data_PCOD9214247
_publ_section_title
;
Structure prediction by ZEFSAII (Michael W. Deem and Ramdas Pophale) SiO2 
 PCOD9214247
Probable space group: C 2/M
;
_chemical_formula_sum "Si O2"
_cell_formula_units_Z 64
_cell_length_a 14.949926
_cell_length_b 16.100707
_cell_length_c 19.886574
_cell_angle_alpha 90.000000
_cell_angle_beta 38.976625
_cell_angle_gamma 90.000000
_cell_volume 3010.903764
_symmetry_space_group_name_H-M "C 2/M"
_symmetry_group_IT_number 12
_symmetry_cell_setting 'monoclinic'
loop_
_space_group_symop_operation_xyz
x,y,z
-x,y,-z
-x,-y,-z
x,-y,z
1/2+x,1/2+y,z
1/2-x,1/2+y,-z
1/2-x,1/2-y,-z
1/2+x,1/2-y,z
loop_
_atom_site_type_symbol
_atom_site_label
_atom_site_fract_x
_atom_site_fract_y
_atom_site_fract_z
Si Si1 0.661942 0.101262 0.427845
Si Si2 0.333333 0.405350 0.606120
Si Si3 0.718780 0.597377 0.991246
Si Si4 0.155901 0.408071 0.941116
Si Si5 0.747773 0.713225 0.224869
Si Si6 0.414537 0.814876 0.775590
Si Si7 0.060512 0.810503 0.796196
Si Si8 0.828290 0.596649 0.424832
O O1 0.500000 0.122473 0.500000
O O2 0.794407 0.142884 0.311438
O O3 0.678342 0.128954 0.495941
O O4 0.673284 0.000000 0.416203
O O5 0.500000 0.411268 0.500000
O O6 0.276243 0.500000 0.649407
O O7 0.295332 0.348291 0.690669
O O8 0.275372 0.366974 0.570724
O O9 0.711947 0.500000 0.977854
O O10 0.777857 0.652627 0.896084
O O11 0.831384 0.607486 0.987072
O O12 0.567594 0.628993 0.107405
O O13 0.220193 0.500000 0.892880
O O14 0.235303 0.339051 0.852876
O O15 0.000000 0.409683 0.000000
O O16 0.630750 0.778745 0.270024
O O17 0.890512 0.756907 0.167814
O O18 0.499562 0.749332 0.772901
O O19 0.518118 0.890739 0.697913
O O20 0.791429 0.500000 0.451883
#
# Coordination Sequence:
#
# PCOD9214247 Si02
#       8
#     8   8   8   8   8   8   8   8
#     4  10  23  45  70  97 134 182 235 277 327 402
#     4  10  23  42  65  96 131 171 220 270 330 402
#     4  11  25  47  70  96 134 180 232 278 332 405
#     4  10  22  39  65  94 125 172 218 265 329 404
#     4  12  25  40  64  94 135 170 210 276 334 395
#     4  12  25  42  65 100 138 174 215 277 341 403
#     4  12  25  43  67 103 135 174 222 285 342 395
#     4  10  22  43  69  95 130 177 220 270 330 398
#
# _framework density 21.256076
#
# number of rings (size 3 to 8) (size 9 to 14) (size 15 to 20)
#    0.000    1.125    2.500    3.000    3.500    2.000 
#    0.000    2.500    0.000    0.000    0.000    0.000 
#    0.000    0.000    0.000    0.000    0.000    0.000 
#
# Total GULP energy -178726.557930 kJ/mol
# GULP energy per Si atom -5585.204935 kJ/mol
# Density = 2.120770 g / cm^3
# Si number density = 21.256076 Si / 1000 Ang^3
#
#
#
# Elastic Constant Matrix: (Units=GPa)
#
#
# Indices 1 2 3 4 5 6 
#
# 1 101.7527 28.9709 14.4429 0.0002 10.2582 0.0001
# 2 28.9709 59.1814 26.6982 0.0002 4.8991 0.0002
# 3 14.4429 26.6982 83.7625 0.0008 -4.7211 0.0005
# 4 0.0002 0.0002 0.0008 90.8974 -0.0003 35.5637
# 5 10.2582 4.8991 -4.7211 -0.0003 32.6678 -0.0003
# 6 0.0001 0.0002 0.0005 35.5637 -0.0003 44.9644
#
#
#
# Elastic Compliance Matrix: (Units=1/GPa)
#
#
# Indices 1 2 3 4 5 6 
#
# 1 0.011693 -0.005249 -0.000510 0.000000 -0.002958 0.000000
# 2 -0.005249 0.022597 -0.006448 0.000000 -0.002672 0.000000
# 3 -0.000510 -0.006448 0.014261 0.000000 0.003188 0.000000
# 4 0.000000 0.000000 0.000000 0.015931 0.000000 -0.012601
# 5 -0.002958 -0.002672 0.003188 0.000000 0.032402 0.000000
# 6 0.000000 0.000000 0.000000 -0.012601 0.000000 0.032206
#
#
# Mechanical properties :
#
#
# Convention : Reuss Voigt Hill
#
# Bulk Modulus (GPa) = 41.42977 42.76896 42.09936
# Shear Modulus (GPa) = 30.95024 45.34491 38.14757
#
# Velocity S-wave (km/s) = 3.81998 4.62374 4.24095
# Velocity P-wave (km/s) = 6.24415 6.97638 6.62040
#
# Compressibility (1/GPa) = 0.02413723
#
# Stress axis : x y z
#
# Youngs Moduli (GPa) = 85.52221 44.25395 70.11971
#
# Poissons Ratio (x) = 0.23229 0.03575
# Poissons Ratio (y) = 0.44892 0.45213
# Poissons Ratio (z) = 0.04360 0.28535
#
# Static dielectric constant tensor:
#      x y z
#    x 1.821840 0.000000 -0.023170 
#    y 0.000000 1.812370 0.000000 
#    z -0.023170 0.000000 1.747240 
# 
# From -- ./inp_files/271684.got.cif
#   From: 2010.05.17/outbox.cif.g08.bks.cpg/sg12_136_cif.got.tgz:271684.got - 2010.06.03 13:09:07.
