data_PCOD9214258
_publ_section_title
;
Structure prediction by ZEFSAII (Michael W. Deem and Ramdas Pophale) SiO2 
 PCOD9214258
Probable space group: C 2/M
;
_chemical_formula_sum "Si O2"
_cell_formula_units_Z 34
_cell_length_a 19.248251
_cell_length_b 7.515680
_cell_length_c 14.998534
_cell_angle_alpha 90.000000
_cell_angle_beta 43.534286
_cell_angle_gamma 90.000000
_cell_volume 1494.494308
_symmetry_space_group_name_H-M "C 2/M"
_symmetry_group_IT_number 12
_symmetry_cell_setting 'monoclinic'
loop_
_space_group_symop_operation_xyz
x,y,z
-x,y,-z
-x,-y,-z
x,-y,z
1/2+x,1/2+y,z
1/2-x,1/2+y,-z
1/2-x,1/2-y,-z
1/2+x,1/2-y,z
loop_
_atom_site_type_symbol
_atom_site_label
_atom_site_fract_x
_atom_site_fract_y
_atom_site_fract_z
Si Si1 0.852813 0.788598 0.852558
Si Si2 0.615494 0.282393 0.377160
Si Si3 0.775551 0.287227 0.373834
Si Si4 0.000000 0.000000 0.000000
Si Si5 0.498142 0.205105 0.870979
O O1 0.850861 0.725224 0.752581
O O2 0.943820 0.712241 0.826263
O O3 0.867986 0.000000 0.835138
O O4 0.750000 0.750000 0.000000
O O5 0.500000 0.228288 0.500000
O O6 0.617304 0.500000 0.377999
O O7 0.690710 0.220181 0.384771
O O8 0.780301 0.500000 0.359960
O O9 0.750000 0.250000 0.500000
O O10 0.887509 0.222663 0.245436
O O11 0.051460 0.158415 0.014445
O O12 0.496509 0.000000 0.901845
#
# Coordination Sequence:
#
# PCOD9214258 Si02
#       5
#     8   8   8   2   8
#     4  11  23  41  66  96 134 177 222 277 344 403
#     4   9  19  37  63  92 125 171 222 270 330 399
#     4  10  22  39  65  97 133 174 222 282 338 397
#     4  12  26  44  72  94 132 184 228 274 348 402
#     4  11  25  44  66 100 137 174 227 284 335 406
#
# _framework density 22.750171999999999
#
# number of rings (size 3 to 8) (size 9 to 14) (size 15 to 20)
#    0.000    1.647    1.176    2.471    4.941    1.882 
#    0.000    2.353    0.000    6.353    0.000    0.000 
#    0.000    0.000    0.000    0.000    0.000    0.000 
#
# Total GULP energy -94844.461726 kJ/mol
# GULP energy per Si atom -5579.085984 kJ/mol
# Density = 2.269839 g / cm^3
# Si number density = 22.750172 Si / 1000 Ang^3
#
#
#
# Elastic Constant Matrix: (Units=GPa)
#
#
# Indices 1 2 3 4 5 6 
#
# 1 227.0512 11.3596 87.4420 0.0000 12.3946 0.0000
# 2 11.3596 116.6668 1.1074 -0.0003 6.9710 0.0003
# 3 87.4420 1.1074 129.0790 0.0000 10.8095 0.0000
# 4 0.0000 -0.0003 0.0000 8.0559 0.0000 3.4802
# 5 12.3946 6.9710 10.8095 0.0000 47.4657 0.0000
# 6 0.0000 0.0003 0.0000 3.4802 0.0000 28.1566
#
#
#
# Elastic Compliance Matrix: (Units=1/GPa)
#
#
# Indices 1 2 3 4 5 6 
#
# 1 0.006009 -0.000512 -0.004018 0.000000 -0.000579 0.000000
# 2 -0.000512 0.008691 0.000375 0.000000 -0.001228 0.000000
# 3 -0.004018 0.000375 0.010584 0.000000 -0.001416 0.000000
# 4 0.000000 0.000000 0.000000 0.131134 0.000000 -0.016208
# 5 -0.000579 -0.001228 -0.001416 0.000000 0.021722 0.000000
# 6 0.000000 0.000000 0.000000 -0.016208 0.000000 0.037519
#
#
# Mechanical properties :
#
#
# Convention : Reuss Voigt Hill
#
# Bulk Modulus (GPa) = 58.91055 74.73501 66.82278
# Shear Modulus (GPa) = 21.77442 41.59484 31.68463
#
# Velocity S-wave (km/s) = 3.09708 4.28054 3.73597
# Velocity P-wave (km/s) = 6.22414 7.57313 6.93153
#
# Compressibility (1/GPa) = 0.01697489
#
# Stress axis : x y z
#
# Youngs Moduli (GPa) = 166.42205 115.05995 94.47968
#
# Poissons Ratio (x) = 0.05895 0.37959
# Poissons Ratio (y) = 0.08527 -0.03546
# Poissons Ratio (z) = 0.66863 -0.04319
#
# Static dielectric constant tensor:
#      x y z
#    x 1.844250 0.000000 -0.002080 
#    y 0.000000 1.920070 0.000000 
#    z -0.002080 0.000000 1.917950 
# 
# From -- ./inp_files/220491.got.cif
#   From: 2010.05.17/outbox.cif.g08.bks.cpg/sg12_111_cif.got.tgz:220491.got - 2010.06.03 13:09:07.
