data_PCOD9214707
_publ_section_title
;
Structure prediction by ZEFSAII (Michael W. Deem and Ramdas Pophale) SiO2 
 PCOD9214707
Probable space group: C 2/M
;
_chemical_formula_sum "Si O2"
_cell_formula_units_Z 32
_cell_length_a 14.862337
_cell_length_b 20.190254
_cell_length_c 7.856281
_cell_angle_alpha 90.000000
_cell_angle_beta 141.417563
_cell_angle_gamma 90.000000
_cell_volume 1470.211661
_symmetry_space_group_name_H-M "C 2/M"
_symmetry_group_IT_number 12
_symmetry_cell_setting 'monoclinic'
loop_
_space_group_symop_operation_xyz
x,y,z
-x,y,-z
-x,-y,-z
x,-y,z
1/2+x,1/2+y,z
1/2-x,1/2+y,-z
1/2-x,1/2-y,-z
1/2+x,1/2-y,z
loop_
_atom_site_type_symbol
_atom_site_label
_atom_site_fract_x
_atom_site_fract_y
_atom_site_fract_z
Si Si1 0.189676 0.702892 0.140088
Si Si2 0.168777 0.927924 0.785152
Si Si3 0.162332 0.076844 0.182297
Si Si4 0.877845 0.307619 0.564261
O O1 0.265186 0.633064 0.217591
O O2 0.145142 0.711287 0.271515
O O3 0.302536 0.763398 0.306272
O O4 0.050198 0.700456 0.812739
O O5 0.000000 0.929239 0.500000
O O6 0.231665 0.000000 0.829718
O O7 0.176810 0.920692 0.000021
O O8 0.295162 0.122019 0.437914
O O9 0.173566 0.000000 0.255118
O O10 0.000000 0.100030 0.000000
#
# Coordination Sequence:
#
# PCOD9214707 Si02
#       4
#     8   8   8   8
#     4  10  23  41  62  93 126 164 204 257 310 366
#     4  10  22  40  63  93 127 162 206 258 310 367
#     4  10  22  40  65  92 122 164 209 255 310 370
#     4  10  23  40  64  91 126 164 207 254 307 371
#
# _framework density 21.765575999999999
#
# number of rings (size 3 to 8) (size 9 to 14) (size 15 to 20)
#    0.000    2.000    0.000    1.500   10.500    6.000 
#    0.000    5.000    0.000    0.000    0.000    0.000 
#    0.000    0.000    0.000    0.000    0.000    0.000 
#
# Total GULP energy -89154.812697 kJ/mol
# GULP energy per Si atom -5572.175794 kJ/mol
# Density = 2.171604 g / cm^3
# Si number density = 21.765576 Si / 1000 Ang^3
#
#
#
# Elastic Constant Matrix: (Units=GPa)
#
#
# Indices 1 2 3 4 5 6 
#
# 1 73.3528 40.0167 15.0668 0.0000 6.4510 0.0000
# 2 40.0167 125.6184 69.9219 0.0000 25.4320 0.0000
# 3 15.0668 69.9219 167.0967 0.0000 30.8204 0.0000
# 4 0.0000 0.0000 0.0000 49.3691 0.0000 -4.3106
# 5 6.4510 25.4320 30.8204 0.0000 15.5466 0.0000
# 6 0.0000 0.0000 0.0000 -4.3106 0.0000 80.1404
#
#
#
# Elastic Compliance Matrix: (Units=1/GPa)
#
#
# Indices 1 2 3 4 5 6 
#
# 1 0.016628 -0.006005 0.000748 0.000000 0.001441 0.000000
# 2 -0.006005 0.014602 -0.002558 0.000000 -0.016325 0.000000
# 3 0.000748 -0.002558 0.009889 0.000000 -0.015730 0.000000
# 4 0.000000 0.000000 0.000000 0.020351 0.000000 0.001095
# 5 0.001441 -0.016325 -0.015730 0.000000 0.121614 0.000000
# 6 0.000000 0.000000 0.000000 0.001095 0.000000 0.012537
#
#
# Mechanical properties :
#
#
# Convention : Reuss Voigt Hill
#
# Bulk Modulus (GPa) = 39.23276 68.45319 53.84297
# Shear Modulus (GPa) = 22.75329 45.08205 33.91767
#
# Velocity S-wave (km/s) = 3.23674 4.55604 3.95184
# Velocity P-wave (km/s) = 5.65976 7.69384 6.75382
#
# Compressibility (1/GPa) = 0.02548890
#
# Stress axis : x y z
#
# Youngs Moduli (GPa) = 60.13803 68.48210 101.12393
#
# Poissons Ratio (x) = 0.41124 -0.07560
# Poissons Ratio (y) = 0.36113 0.25866
# Poissons Ratio (z) = -0.04496 0.17517
#
# Static dielectric constant tensor:
#      x y z
#    x 1.934500 0.000000 -0.035850 
#    y 0.000000 1.821270 0.000000 
#    z -0.035850 0.000000 1.926970 
# 
# From -- ./inp_files/46282.got.cif
#   From: 2010.05.17/outbox.cif.g08.bks.cpg/sg12_24_cif.got.tgz:46282.got - 2010.06.03 13:09:07.
