data_PCOD9214193
_publ_section_title
;
Structure prediction by ZEFSAII (Michael W. Deem and Ramdas Pophale) SiO2 
 PCOD9214193
Probable space group: C 2/M
;
_chemical_formula_sum "Si O2"
_cell_formula_units_Z 48
_cell_length_a 10.875084
_cell_length_b 24.449746
_cell_length_c 11.533640
_cell_angle_alpha 90.000000
_cell_angle_beta 56.915692
_cell_angle_gamma 90.000000
_cell_volume 2569.502811
_symmetry_space_group_name_H-M "C 2/M"
_symmetry_group_IT_number 12
_symmetry_cell_setting 'monoclinic'
loop_
_space_group_symop_operation_xyz
x,y,z
-x,y,-z
-x,-y,-z
x,-y,z
1/2+x,1/2+y,z
1/2-x,1/2+y,-z
1/2-x,1/2-y,-z
1/2+x,1/2-y,z
loop_
_atom_site_type_symbol
_atom_site_label
_atom_site_fract_x
_atom_site_fract_y
_atom_site_fract_z
Si Si1 0.154860 0.820171 0.721507
Si Si2 0.315531 0.000000 0.479142
Si Si3 0.832052 0.199763 0.900456
Si Si4 0.353952 0.608887 0.497933
Si Si5 0.329632 0.714140 0.626982
Si Si6 0.837878 0.500000 0.746627
Si Si7 0.322172 0.606900 0.079345
O O1 0.114079 0.864593 0.644460
O O2 0.255199 0.770595 0.628752
O O3 0.222621 0.851760 0.794527
O O4 0.003610 0.793952 0.840765
O O5 0.236133 0.945974 0.472550
O O6 0.298679 0.000000 0.628621
O O7 0.485043 0.000000 0.351358
O O8 0.816731 0.205787 0.770866
O O9 0.750000 0.250000 0.000000
O O10 0.792436 0.140690 0.976530
O O11 0.500000 0.599118 0.500000
O O12 0.267105 0.658730 0.603216
O O13 0.500000 0.716245 0.500000
O O14 0.767960 0.552208 0.847980
O O15 0.500000 0.597147 0.000000
#
# Coordination Sequence:
#
# PCOD9214193 Si02
#       7
#     8   4   8   8   8   4   8
#     4  11  21  39  61  94 125 165 209 255 311 375
#     4  11  25  40  67  93 123 162 205 270 326 365
#     4  11  22  39  60  92 127 165 203 251 311 374
#     4  11  22  41  61  90 127 166 216 252 307 376
#     4  11  23  38  62  94 129 163 206 256 315 379
#     4  11  23  44  63  97 126 153 209 270 325 374
#     4  10  22  39  64  90 125 166 210 253 311 380
#
# _framework density 18.680658000000001
#
# number of rings (size 3 to 8) (size 9 to 14) (size 15 to 20)
#    0.000    1.167    6.667    1.000    0.000    2.667 
#    0.000    0.833    0.000    1.000    0.000    0.000 
#    0.000    0.000    0.000    0.000    0.000    0.000 
#
# Total GULP energy -133858.966941 kJ/mol
# GULP energy per Si atom -5577.456956 kJ/mol
# Density = 1.863814 g / cm^3
# Si number density = 18.680658 Si / 1000 Ang^3
#
#
#
# Elastic Constant Matrix: (Units=GPa)
#
#
# Indices 1 2 3 4 5 6 
#
# 1 66.2407 67.7996 32.8692 0.0000 -0.4438 0.0000
# 2 67.7996 172.8610 66.2329 0.0000 -18.9437 0.0000
# 3 32.8692 66.2329 116.6714 0.0000 5.7712 0.0000
# 4 0.0000 0.0000 0.0000 32.2802 0.0000 -6.0399
# 5 -0.4438 -18.9437 5.7712 0.0000 29.9270 0.0000
# 6 0.0000 0.0000 0.0000 -6.0399 0.0000 28.6952
#
#
#
# Elastic Compliance Matrix: (Units=1/GPa)
#
#
# Indices 1 2 3 4 5 6 
#
# 1 0.026496 -0.010631 -0.001127 0.000000 -0.006119 0.000000
# 2 -0.010631 0.012697 -0.004647 0.000000 0.008776 0.000000
# 3 -0.001127 -0.004647 0.011785 0.000000 -0.005231 0.000000
# 4 0.000000 0.000000 0.000000 0.032249 0.000000 0.006788
# 5 -0.006119 0.008776 -0.005231 0.000000 0.039888 0.000000
# 6 0.000000 0.000000 0.000000 0.006788 0.000000 0.036278
#
#
# Mechanical properties :
#
#
# Convention : Reuss Voigt Hill
#
# Bulk Modulus (GPa) = 55.04017 76.61961 65.82989
# Shear Modulus (GPa) = 25.21968 30.77192 27.99580
#
# Velocity S-wave (km/s) = 3.67828 4.06305 3.87544
# Velocity P-wave (km/s) = 6.89691 7.94454 7.43919
#
# Compressibility (1/GPa) = 0.01816855
#
# Stress axis : x y z
#
# Youngs Moduli (GPa) = 37.74182 78.75904 84.85178
#
# Poissons Ratio (x) = 0.83730 0.09560
# Poissons Ratio (y) = 0.40124 0.39430
# Poissons Ratio (z) = 0.04252 0.36599
#
# Static dielectric constant tensor:
#      x y z
#    x 1.666260 0.000000 0.027260 
#    y 0.000000 1.655730 0.000000 
#    z 0.027260 0.000000 1.684880 
# 
# From -- ./inp_files/133017.got.cif
#   From: 2010.05.17/outbox.cif.g08.bks.cpg/sg12_67_cif.got.tgz:133017.got - 2010.06.03 13:09:07.
