data_PCOD9214430
_publ_section_title
;
Structure prediction by ZEFSAII (Michael W. Deem and Ramdas Pophale) SiO2 
 PCOD9214430
Probable space group: C 2/M
;
_chemical_formula_sum "Si O2"
_cell_formula_units_Z 32
_cell_length_a 25.680654
_cell_length_b 8.045462
_cell_length_c 9.587132
_cell_angle_alpha 90.000000
_cell_angle_beta 67.925861
_cell_angle_gamma 90.000000
_cell_volume 1835.625845
_symmetry_space_group_name_H-M "C 2/M"
_symmetry_group_IT_number 12
_symmetry_cell_setting 'monoclinic'
loop_
_space_group_symop_operation_xyz
x,y,z
-x,y,-z
-x,-y,-z
x,-y,z
1/2+x,1/2+y,z
1/2-x,1/2+y,-z
1/2-x,1/2-y,-z
1/2+x,1/2-y,z
loop_
_atom_site_type_symbol
_atom_site_label
_atom_site_fract_x
_atom_site_fract_y
_atom_site_fract_z
Si Si1 0.741317 0.695412 0.849920
Si Si2 0.137457 0.314177 0.779966
Si Si3 0.057083 0.000000 0.527049
Si Si4 0.337569 0.310032 0.548658
Si Si5 0.557162 0.500000 0.857782
O O1 0.729040 0.500000 0.856729
O O2 0.689721 0.790812 0.830635
O O3 0.796618 0.733005 0.702808
O O4 0.750000 0.750000 0.000000
O O5 0.113902 0.500000 0.817334
O O6 0.159408 0.287339 0.599266
O O7 0.093685 0.165212 0.850448
O O8 0.099012 0.156570 0.459026
O O9 0.000000 0.000000 0.500000
O O10 0.045543 0.000000 0.703713
O O11 0.317925 0.500000 0.535399
O O12 0.500000 0.500000 0.000000
#
# Coordination Sequence:
#
# PCOD9214430 Si02
#       5
#     8   8   4   8   4
#     4  12  23  36  54  86 123 154 194 246 302 355
#     4  11  21  39  61  85 118 157 201 242 292 356
#     4   8  18  36  60  84 112 156 197 234 297 346
#     4   9  19  36  58  85 113 153 199 236 292 348
#     4  10  22  40  60  88 116 158 201 246 297 344
#
# _framework density 17.432745000000001
#
# number of rings (size 3 to 8) (size 9 to 14) (size 15 to 20)
#    0.750    1.000    2.500    3.750    0.000    2.500 
#    0.000    0.000    0.000   18.750    0.000    0.000 
#    0.000    0.000    0.000    0.000    0.000    0.000 
#
# Total GULP energy -89217.904461 kJ/mol
# GULP energy per Si atom -5576.119029 kJ/mol
# Density = 1.739307 g / cm^3
# Si number density = 17.432745 Si / 1000 Ang^3
#
#
#
# Elastic Constant Matrix: (Units=GPa)
#
#
# Indices 1 2 3 4 5 6 
#
# 1 122.5067 32.8903 67.6596 0.0000 12.9368 0.0000
# 2 32.8903 129.5013 33.8409 0.0000 -3.2169 0.0000
# 3 67.6596 33.8409 95.2757 0.0000 -17.8174 0.0000
# 4 0.0000 0.0000 0.0000 23.5111 0.0000 0.5212
# 5 12.9368 -3.2169 -17.8174 0.0000 29.6284 0.0000
# 6 0.0000 0.0000 0.0000 0.5212 0.0000 16.9529
#
#
#
# Elastic Compliance Matrix: (Units=1/GPa)
#
#
# Indices 1 2 3 4 5 6 
#
# 1 0.020298 -0.001011 -0.017727 0.000000 -0.019633 0.000000
# 2 -0.001011 0.008589 -0.002339 0.000000 -0.000033 0.000000
# 3 -0.017727 -0.002339 0.028523 0.000000 0.024639 0.000000
# 4 0.000000 0.000000 0.000000 0.042562 0.000000 -0.001308
# 5 -0.019633 -0.000033 0.024639 0.000000 0.057137 0.000000
# 6 0.000000 0.000000 0.000000 -0.001308 0.000000 0.059027
#
#
# Mechanical properties :
#
#
# Convention : Reuss Voigt Hill
#
# Bulk Modulus (GPa) = 65.54590 68.45171 66.99881
# Shear Modulus (GPa) = 18.98427 28.21135 23.59781
#
# Velocity S-wave (km/s) = 3.30358 4.02717 3.68319
# Velocity P-wave (km/s) = 7.22720 7.80868 7.52356
#
# Compressibility (1/GPa) = 0.01525648
#
# Stress axis : x y z
#
# Youngs Moduli (GPa) = 49.26615 116.42723 35.05908
#
# Poissons Ratio (x) = 0.11765 0.62149
# Poissons Ratio (y) = 0.04978 0.08201
# Poissons Ratio (z) = 0.87334 0.27236
#
# Static dielectric constant tensor:
#      x y z
#    x 1.585010 0.000000 -0.005180 
#    y 0.000000 1.629790 0.000000 
#    z -0.005180 0.000000 1.568700 
# 
# From -- ./inp_files/100600.got.cif
#   From: 2010.05.17/outbox.cif.g08.bks.cpg/sg12_51_cif.got.tgz:100600.got - 2010.06.03 13:09:07.
