data_PCOD9214790
_publ_section_title
;
Structure prediction by ZEFSAII (Michael W. Deem and Ramdas Pophale) SiO2 
 PCOD9214790
Probable space group: C 2/M
;
_chemical_formula_sum "Si O2"
_cell_formula_units_Z 48
_cell_length_a 12.545811
_cell_length_b 14.843388
_cell_length_c 13.914605
_cell_angle_alpha 90.000000
_cell_angle_beta 54.717802
_cell_angle_gamma 90.000000
_cell_volume 2115.249267
_symmetry_space_group_name_H-M "C 2/M"
_symmetry_group_IT_number 12
_symmetry_cell_setting 'monoclinic'
loop_
_space_group_symop_operation_xyz
x,y,z
-x,y,-z
-x,-y,-z
x,-y,z
1/2+x,1/2+y,z
1/2-x,1/2+y,-z
1/2-x,1/2-y,-z
1/2+x,1/2-y,z
loop_
_atom_site_type_symbol
_atom_site_label
_atom_site_fract_x
_atom_site_fract_y
_atom_site_fract_z
Si Si1 0.519715 0.897961 0.181840
Si Si2 0.597090 0.394366 0.236757
Si Si3 0.549645 0.100720 0.571037
Si Si4 0.689993 0.327251 0.598575
Si Si5 0.194065 0.842818 0.987308
Si Si6 0.831152 0.736744 0.184731
O O1 0.487744 0.861033 0.305638
O O2 0.674692 0.900884 0.090732
O O3 0.452899 0.829605 0.142531
O O4 0.466681 0.000000 0.199968
O O5 0.617620 0.500000 0.249217
O O6 0.456281 0.359834 0.345058
O O7 0.711196 0.329558 0.218410
O O8 0.602353 0.383071 0.117390
O O9 0.500000 0.148473 0.500000
O O10 0.704025 0.096064 0.476713
O O11 0.490723 0.000000 0.603651
O O12 0.750000 0.250000 0.500000
O O13 0.697372 0.289896 0.702680
O O14 0.144817 0.811517 0.909315
O O15 0.250000 0.750000 0.000000
#
# Coordination Sequence:
#
# PCOD9214790 Si02
#       6
#     8   8   8   8   8   8
#     4  11  22  41  66  98 131 175 224 271 329 397
#     4  11  26  47  67 100 140 180 223 285 347 401
#     4  10  22  40  64  92 129 173 222 273 328 397
#     4  12  25  41  67  95 136 174 228 274 341 398
#     4  10  23  41  67  97 136 171 222 275 339 398
#     4  11  23  43  70 102 135 179 227 283 334 396
#
# _framework density 22.692360999999998
#
# number of rings (size 3 to 8) (size 9 to 14) (size 15 to 20)
#    0.000    1.167    1.667    4.500    2.333    6.000 
#    0.000    8.333    0.000    0.000    0.000    0.000 
#    0.000    0.000    0.000    0.000    0.000    0.000 
#
# Total GULP energy -134092.123429 kJ/mol
# GULP energy per Si atom -5587.171810 kJ/mol
# Density = 2.264071 g / cm^3
# Si number density = 22.692361 Si / 1000 Ang^3
#
#
#
# Elastic Constant Matrix: (Units=GPa)
#
#
# Indices 1 2 3 4 5 6 
#
# 1 97.3838 8.8483 36.2396 0.0000 -13.6589 0.0000
# 2 8.8483 77.0452 1.0123 0.0000 -7.3527 0.0000
# 3 36.2396 1.0123 91.7911 0.0000 -15.1230 0.0000
# 4 0.0000 0.0000 0.0000 15.8800 0.0000 -14.2210
# 5 -13.6589 -7.3527 -15.1230 0.0000 47.7777 0.0000
# 6 0.0000 0.0000 0.0000 -14.2210 0.0000 24.7360
#
#
#
# Elastic Compliance Matrix: (Units=1/GPa)
#
#
# Indices 1 2 3 4 5 6 
#
# 1 0.012333 -0.001175 -0.004542 0.000000 0.001907 0.000000
# 2 -0.001175 0.013288 0.000632 0.000000 0.001909 0.000000
# 3 -0.004542 0.000632 0.013169 0.000000 0.002967 0.000000
# 4 0.000000 0.000000 0.000000 0.129799 0.000000 0.074623
# 5 0.001907 0.001909 0.002967 0.000000 0.022709 0.000000
# 6 0.000000 0.000000 0.000000 0.074623 0.000000 0.083328
#
#
# Mechanical properties :
#
#
# Convention : Reuss Voigt Hill
#
# Bulk Modulus (GPa) = 34.93946 39.82447 37.38197
# Shear Modulus (GPa) = 16.98734 32.35341 24.67038
#
# Velocity S-wave (km/s) = 2.73901 3.77999 3.30080
# Velocity P-wave (km/s) = 5.04315 6.05301 5.57101
#
# Compressibility (1/GPa) = 0.02862093
#
# Stress axis : x y z
#
# Youngs Moduli (GPa) = 81.08247 75.25475 75.93365
#
# Poissons Ratio (x) = 0.08840 0.34489
# Poissons Ratio (y) = 0.09525 -0.04797
# Poissons Ratio (z) = 0.36827 -0.04754
#
# Static dielectric constant tensor:
#      x y z
#    x 1.919340 0.000000 0.014640 
#    y 0.000000 1.995070 0.000000 
#    z 0.014640 0.000000 1.860110 
# 
# From -- ./inp_files/204847.got.cif
#   From: 2010.05.17/outbox.cif.g08.bks.cpg/sg12_103_cif.got.tgz:204847.got - 2010.06.03 13:09:07.
