data_PCOD9214929
_publ_section_title
;
Structure prediction by ZEFSAII (Michael W. Deem and Ramdas Pophale) SiO2 
 PCOD9214929
Probable space group: C 2/M
;
_chemical_formula_sum "Si O2"
_cell_formula_units_Z 44
_cell_length_a 25.046566
_cell_length_b 13.820280
_cell_length_c 9.965120
_cell_angle_alpha 90.000000
_cell_angle_beta 146.553964
_cell_angle_gamma 90.000000
_cell_volume 1901.158990
_symmetry_space_group_name_H-M "C 2/M"
_symmetry_group_IT_number 12
_symmetry_cell_setting 'monoclinic'
loop_
_space_group_symop_operation_xyz
x,y,z
-x,y,-z
-x,-y,-z
x,-y,z
1/2+x,1/2+y,z
1/2-x,1/2+y,-z
1/2-x,1/2-y,-z
1/2+x,1/2-y,z
loop_
_atom_site_type_symbol
_atom_site_label
_atom_site_fract_x
_atom_site_fract_y
_atom_site_fract_z
Si Si1 0.916174 0.699005 0.434971
Si Si2 0.770730 0.884133 0.903239
Si Si3 0.398682 0.000000 0.871329
Si Si4 0.500000 0.684519 0.000000
Si Si5 0.679078 0.816628 0.431284
Si Si6 0.005778 0.500000 0.350438
Si Si7 0.986726 0.112265 0.263239
O O1 0.807081 0.669501 0.162461
O O2 0.000000 0.695528 0.500000
O O3 0.944084 0.602373 0.581245
O O4 0.933389 0.806430 0.530626
O O5 0.729524 0.846409 0.674843
O O6 0.759541 0.000000 0.895491
O O7 0.886586 0.866515 0.135430
O O8 0.341580 0.091610 0.702066
O O9 0.500000 0.000000 0.000000
O O10 0.413002 0.000000 0.060967
O O11 0.418721 0.755003 0.770132
O O12 0.533586 0.624181 0.939565
O O13 0.750000 0.750000 0.500000
O O14 0.000000 0.500000 0.500000
O O15 0.014426 0.000000 0.347675
#
# Coordination Sequence:
#
# PCOD9214929 Si02
#       7
#     8   8   4   4   8   4   8
#     4  11  23  43  71  93 126 169 224 281 331 388
#     4  11  22  40  64  95 128 171 215 267 334 397
#     4  12  22  38  68  99 128 175 226 280 339 406
#     4  12  21  39  64  90 132 173 214 261 328 398
#     4  12  23  36  62 100 134 168 217 275 332 397
#     4  10  22  40  66 100 126 168 220 285 341 390
#     4  11  25  41  64  93 132 176 216 261 331 406
#
# _framework density 23.143775999999999
#
# number of rings (size 3 to 8) (size 9 to 14) (size 15 to 20)
#    0.000    0.727    6.364    2.455    0.000    1.091 
#    1.636    0.000    2.000    0.000    0.000    0.000 
#    0.000    0.000    0.000    0.000    0.000    0.000 
#
# Total GULP energy -122717.392173 kJ/mol
# GULP energy per Si atom -5578.063281 kJ/mol
# Density = 2.309110 g / cm^3
# Si number density = 23.143776 Si / 1000 Ang^3
#
#
#
# Elastic Constant Matrix: (Units=GPa)
#
#
# Indices 1 2 3 4 5 6 
#
# 1 86.1843 21.7944 -0.4071 0.0000 13.4422 0.0000
# 2 21.7944 182.5109 45.4874 0.0000 24.6684 0.0000
# 3 -0.4071 45.4874 41.0146 0.0000 21.5818 0.0000
# 4 0.0000 0.0000 0.0000 133.7030 0.0000 -19.4822
# 5 13.4422 24.6684 21.5818 0.0000 38.0238 0.0000
# 6 0.0000 0.0000 0.0000 -19.4822 0.0000 39.9154
#
#
#
# Elastic Compliance Matrix: (Units=1/GPa)
#
#
# Indices 1 2 3 4 5 6 
#
# 1 0.013234 -0.002192 0.006097 0.000000 -0.006717 0.000000
# 2 -0.002192 0.007936 -0.009299 0.000000 0.000904 0.000000
# 3 0.006097 -0.009299 0.046647 0.000000 -0.022598 0.000000
# 4 0.000000 0.000000 0.000000 0.008052 0.000000 0.003930
# 5 -0.006717 0.000904 -0.022598 0.000000 0.040914 0.000000
# 6 0.000000 0.000000 0.000000 0.003930 0.000000 0.026971
#
#
# Mechanical properties :
#
#
# Convention : Reuss Voigt Hill
#
# Bulk Modulus (GPa) = 17.53536 49.27322 33.40429
# Shear Modulus (GPa) = 28.80972 58.51744 43.66358
#
# Velocity S-wave (km/s) = 3.53202 5.03381 4.34824
# Velocity P-wave (km/s) = 4.92206 7.42441 6.29875
#
# Compressibility (1/GPa) = 0.05702764
#
# Stress axis : x y z
#
# Youngs Moduli (GPa) = 75.56433 126.00241 21.43763
#
# Poissons Ratio (x) = 0.27619 -0.13070
# Poissons Ratio (y) = 0.16563 0.19936
# Poissons Ratio (z) = -0.46069 1.17176
#
# Static dielectric constant tensor:
#      x y z
#    x 2.002830 0.000000 0.002570 
#    y 0.000000 1.854080 0.000000 
#    z 0.002570 0.000000 1.888350 
# 
# From -- ./inp_files/183629.got.cif
#   From: 2010.05.17/outbox.cif.g08.bks.cpg/sg12_92_cif.got.tgz:183629.got - 2010.06.03 13:09:07.
