data_PCOD9214747
_publ_section_title
;
Structure prediction by ZEFSAII (Michael W. Deem and Ramdas Pophale) SiO2 
 PCOD9214747
Probable space group: C 2/M
;
_chemical_formula_sum "Si O2"
_cell_formula_units_Z 40
_cell_length_a 7.938220
_cell_length_b 29.867397
_cell_length_c 8.427918
_cell_angle_alpha 90.000000
_cell_angle_beta 77.225620
_cell_angle_gamma 90.000000
_cell_volume 1948.749510
_symmetry_space_group_name_H-M "C 2/M"
_symmetry_group_IT_number 12
_symmetry_cell_setting 'monoclinic'
loop_
_space_group_symop_operation_xyz
x,y,z
-x,y,-z
-x,-y,-z
x,-y,z
1/2+x,1/2+y,z
1/2-x,1/2+y,-z
1/2-x,1/2-y,-z
1/2+x,1/2-y,z
loop_
_atom_site_type_symbol
_atom_site_label
_atom_site_fract_x
_atom_site_fract_y
_atom_site_fract_z
Si Si1 0.796750 0.500000 0.511368
Si Si2 0.500000 0.842577 0.000000
Si Si3 0.695968 0.401485 0.515525
Si Si4 0.699731 0.811680 0.666386
Si Si5 0.298513 0.401410 0.101553
Si Si6 0.000000 0.759974 0.500000
Si Si7 0.308951 0.500000 0.108375
O O1 0.753885 0.451401 0.447683
O O2 0.694242 0.500000 0.699797
O O3 0.000000 0.500000 0.500000
O O4 0.403408 0.814048 0.151462
O O5 0.655600 0.870232 0.050779
O O6 0.500000 0.396662 0.500000
O O7 0.799966 0.360832 0.413720
O O8 0.705832 0.397563 0.705212
O O9 0.611988 0.774397 0.577140
O O10 0.894260 0.793216 0.636652
O O11 0.236937 0.452142 0.073655
O O12 0.500000 0.395302 0.000000
O O13 0.500000 0.500000 0.000000
#
# Coordination Sequence:
#
# PCOD9214747 Si02
#       7
#     4   4   8   8   8   4   4
#     4  10  23  35  63 103 130 175 229 276 328 395
#     4  12  26  41  68 102 136 172 224 277 348 408
#     4  11  22  42  69  96 138 183 225 279 337 400
#     4  11  24  44  68 102 128 180 220 281 343 406
#     4  10  22  40  63  97 136 181 230 277 336 400
#     4  10  24  46  72  92 134 170 228 280 344 412
#     4   8  18  38  57  82 132 180 222 267 324 386
#
# _framework density 20.525983
#
# number of rings (size 3 to 8) (size 9 to 14) (size 15 to 20)
#    0.000    1.600    1.000    2.700    7.000    1.200 
#    0.000    3.000    0.000    0.000    0.000    0.000 
#    0.000    0.000    0.000    0.000    0.000    0.000 
#
# Total GULP energy -111528.560225 kJ/mol
# GULP energy per Si atom -5576.428011 kJ/mol
# Density = 2.047926 g / cm^3
# Si number density = 20.525983 Si / 1000 Ang^3
#
#
#
# Elastic Constant Matrix: (Units=GPa)
#
#
# Indices 1 2 3 4 5 6 
#
# 1 84.0959 42.5906 37.5446 0.0000 -4.3737 0.0000
# 2 42.5906 139.5578 46.8598 0.0000 -18.5422 0.0000
# 3 37.5446 46.8598 81.8310 0.0000 -18.6182 0.0000
# 4 0.0000 0.0000 0.0000 -36.5409 0.0000 0.2927
# 5 -4.3737 -18.5422 -18.6182 0.0000 36.6274 0.0000
# 6 0.0000 0.0000 0.0000 0.2927 0.0000 24.3456
#
#
#
# Elastic Compliance Matrix: (Units=1/GPa)
#
#
# Indices 1 2 3 4 5 6 
#
# 1 0.016149 -0.003222 -0.006216 0.000000 -0.002862 0.000000
# 2 -0.003222 0.009667 -0.003428 0.000000 0.002767 0.000000
# 3 -0.006216 -0.003428 0.018626 0.000000 0.006990 0.000000
# 4 0.000000 0.000000 0.000000 -0.027364 0.000000 0.000329
# 5 -0.002862 0.002767 0.006990 0.000000 0.031914 0.000000
# 6 0.000000 0.000000 0.000000 0.000329 0.000000 0.041071
#
#
# Mechanical properties :
#
#
# Convention : Reuss Voigt Hill
#
# Bulk Modulus (GPa) = 53.44507 62.16385 57.80446
# Shear Modulus (GPa) = 40.97322 16.78575 28.87949
#
# Velocity S-wave (km/s) = 4.47269 2.86279 3.75503
# Velocity P-wave (km/s) = 7.26413 6.42484 6.85734
#
# Compressibility (1/GPa) = 0.01871080
#
# Stress axis : x y z
#
# Youngs Moduli (GPa) = 61.92386 103.44030 53.68952
#
# Poissons Ratio (x) = 0.33324 0.33371
# Poissons Ratio (y) = 0.19949 0.18407
# Poissons Ratio (z) = 0.38489 0.35463
#
# Static dielectric constant tensor:
#      x y z
#    x 1.795700 0.000000 -0.040240 
#    y 0.000000 1.756600 0.000000 
#    z -0.040240 0.000000 1.726060 
# 
# From -- ./inp_files/40496.got.cif
#   From: 2010.05.17/outbox.cif.g08.bks.cpg/sg12_21_cif.got.tgz:40496.got - 2010.06.03 13:09:07.
