data_PCOD9214177
_publ_section_title
;
Structure prediction by ZEFSAII (Michael W. Deem and Ramdas Pophale) SiO2 
 PCOD9214177
Probable space group: C 2/M
;
_chemical_formula_sum "Si O2"
_cell_formula_units_Z 32
_cell_length_a 19.612239
_cell_length_b 16.286316
_cell_length_c 5.529486
_cell_angle_alpha 90.000000
_cell_angle_beta 131.327726
_cell_angle_gamma 90.000000
_cell_volume 1326.302941
_symmetry_space_group_name_H-M "C 2/M"
_symmetry_group_IT_number 12
_symmetry_cell_setting 'monoclinic'
loop_
_space_group_symop_operation_xyz
x,y,z
-x,y,-z
-x,-y,-z
x,-y,z
1/2+x,1/2+y,z
1/2-x,1/2+y,-z
1/2-x,1/2-y,-z
1/2+x,1/2-y,z
loop_
_atom_site_type_symbol
_atom_site_label
_atom_site_fract_x
_atom_site_fract_y
_atom_site_fract_z
Si Si1 0.894722 0.093421 0.401043
Si Si2 0.903148 0.184053 0.928061
Si Si3 0.019391 0.646651 0.286507
Si Si4 0.266767 0.168851 0.190363
O O1 0.916882 0.149355 0.688885
O O2 0.918975 0.000000 0.509307
O O3 0.927500 0.124479 0.211365
O O4 0.785491 0.100176 0.090352
O O5 0.794040 0.180489 0.712210
O O6 0.952546 0.271532 0.105549
O O7 0.126681 0.663236 0.528451
O O8 0.000000 0.609529 0.500000
O O9 0.000000 0.597027 0.000000
O O10 0.250000 0.250000 0.000000
#
# Coordination Sequence:
#
# PCOD9214177 Si02
#       4
#     8   8   8   8
#     4  10  22  42  68  94 131 174 213 261 325 386
#     4  10  22  39  63  97 127 167 210 261 323 378
#     4  12  23  36  62  95 133 159 206 268 318 382
#     4  10  22  39  66  95 127 167 216 265 325 369
#
# _framework density 24.127217000000002
#
# number of rings (size 3 to 8) (size 9 to 14) (size 15 to 20)
#    1.500    0.000    2.500    3.750    3.500    2.000 
#    0.000    0.000    0.000   40.500    0.000    0.000 
#    0.000    0.000    0.000    0.000    0.000    0.000 
#
# Total GULP energy -89141.859017 kJ/mol
# GULP energy per Si atom -5571.366189 kJ/mol
# Density = 2.407230 g / cm^3
# Si number density = 24.127217 Si / 1000 Ang^3
#
#
#
# Elastic Constant Matrix: (Units=GPa)
#
#
# Indices 1 2 3 4 5 6 
#
# 1 187.2579 5.9243 63.3761 0.0000 -22.3444 0.0000
# 2 5.9243 72.3965 15.1299 0.0000 -20.5254 0.0000
# 3 63.3761 15.1299 178.4346 0.0000 -15.9718 0.0000
# 4 0.0000 0.0000 0.0000 19.5848 0.0000 6.0766
# 5 -22.3444 -20.5254 -15.9718 0.0000 63.0019 0.0000
# 6 0.0000 0.0000 0.0000 6.0766 0.0000 14.4524
#
#
#
# Elastic Compliance Matrix: (Units=1/GPa)
#
#
# Indices 1 2 3 4 5 6 
#
# 1 0.006254 0.000445 -0.002095 0.000000 0.001832 0.000000
# 2 0.000445 0.015382 -0.001023 0.000000 0.004910 0.000000
# 3 -0.002095 -0.001023 0.006486 0.000000 0.000568 0.000000
# 4 0.000000 0.000000 0.000000 0.058720 0.000000 -0.024689
# 5 0.001832 0.004910 0.000568 0.000000 0.018266 0.000000
# 6 0.000000 0.000000 0.000000 -0.024689 0.000000 0.079573
#
#
# Mechanical properties :
#
#
# Convention : Reuss Voigt Hill
#
# Bulk Modulus (GPa) = 43.90415 67.43884 55.67149
# Shear Modulus (GPa) = 25.30125 42.98509 34.14317
#
# Velocity S-wave (km/s) = 3.24182 4.22548 3.76590
# Velocity P-wave (km/s) = 5.67881 7.19849 6.48333
#
# Compressibility (1/GPa) = 0.02277689
#
# Stress axis : x y z
#
# Youngs Moduli (GPa) = 159.90349 65.01014 154.17890
#
# Poissons Ratio (x) = -0.02896 0.32300
# Poissons Ratio (y) = -0.07123 0.15773
# Poissons Ratio (z) = 0.33500 0.06651
#
# Static dielectric constant tensor:
#      x y z
#    x 1.812060 0.000000 -0.103020 
#    y 0.000000 1.912870 0.000000 
#    z -0.103020 0.000000 1.892600 
# 
# From -- ./inp_files/10267.got.cif
#   From: 2010.05.17/outbox.cif.g08.bks.cpg/sg12_6_cif.got.tgz:10267.got - 2010.06.03 13:09:07.
