data_PCOD9214631
_publ_section_title
;
Structure prediction by ZEFSAII (Michael W. Deem and Ramdas Pophale) SiO2 
 PCOD9214631
Probable space group: C 2/M
;
_chemical_formula_sum "Si O2"
_cell_formula_units_Z 44
_cell_length_a 9.368238
_cell_length_b 16.838077
_cell_length_c 19.766341
_cell_angle_alpha 90.000000
_cell_angle_beta 131.584510
_cell_angle_gamma 90.000000
_cell_volume 2332.197132
_symmetry_space_group_name_H-M "C 2/M"
_symmetry_group_IT_number 12
_symmetry_cell_setting 'monoclinic'
loop_
_space_group_symop_operation_xyz
x,y,z
-x,y,-z
-x,-y,-z
x,-y,z
1/2+x,1/2+y,z
1/2-x,1/2+y,-z
1/2-x,1/2-y,-z
1/2+x,1/2-y,z
loop_
_atom_site_type_symbol
_atom_site_label
_atom_site_fract_x
_atom_site_fract_y
_atom_site_fract_z
Si Si1 0.118732 0.830495 0.465934
Si Si2 0.710677 0.000000 0.039896
Si Si3 0.370206 0.641533 0.014904
Si Si4 0.089364 0.000000 0.757133
Si Si5 0.224701 0.500000 0.545924
Si Si6 0.083356 0.754467 0.849886
Si Si7 0.797703 0.167555 0.253208
O O1 0.250000 0.750000 0.500000
O O2 0.000000 0.835797 0.500000
O O3 0.958073 0.817433 0.358873
O O4 0.223717 0.916439 0.479174
O O5 0.729928 0.921552 0.002003
O O6 0.872056 0.000000 0.149928
O O7 0.500000 0.000000 0.000000
O O8 0.474226 0.680052 0.112124
O O9 0.500000 0.600708 0.000000
O O10 0.261228 0.709462 0.939240
O O11 0.196546 0.075538 0.761602
O O12 0.873650 0.000000 0.657508
O O13 0.000000 0.500000 0.500000
O O14 0.145747 0.791100 0.799251
O O15 0.905744 0.696848 0.785854
#
# Coordination Sequence:
#
# PCOD9214631 Si02
#       7
#     8   4   8   4   4   8   8
#     4  11  23  42  67  98 131 169 215 268 333 395
#     4  12  23  39  63  87 124 170 210 261 317 373
#     4  11  23  38  57  86 124 157 208 258 306 361
#     4  10  22  40  62  94 120 164 212 255 314 388
#     4  10  23  43  69  97 132 172 215 275 332 392
#     4  11  22  37  61  87 118 165 204 256 308 365
#     4  11  22  41  64  89 126 162 213 258 312 382
#
# _framework density 18.866327999999999
#
# number of rings (size 3 to 8) (size 9 to 14) (size 15 to 20)
#    0.000    1.091    3.636    3.273    0.000    1.455 
#    0.000    0.000    0.000    3.273    0.000    0.000 
#    0.000    0.000    0.000    0.000    0.000    0.000 
#
# Total GULP energy -122595.538036 kJ/mol
# GULP energy per Si atom -5572.524456 kJ/mol
# Density = 1.882339 g / cm^3
# Si number density = 18.866328 Si / 1000 Ang^3
#
#
#
# Elastic Constant Matrix: (Units=GPa)
#
#
# Indices 1 2 3 4 5 6 
#
# 1 120.1515 55.3349 33.0567 0.0000 -5.6897 0.0000
# 2 55.3349 99.5741 39.4653 0.0000 -9.6604 0.0000
# 3 33.0567 39.4653 88.7191 0.0000 -17.2668 0.0000
# 4 0.0000 0.0000 0.0000 37.1378 0.0000 5.8595
# 5 -5.6897 -9.6604 -17.2668 0.0000 29.3103 0.0000
# 6 0.0000 0.0000 0.0000 5.8595 0.0000 50.8954
#
#
#
# Elastic Compliance Matrix: (Units=1/GPa)
#
#
# Indices 1 2 3 4 5 6 
#
# 1 0.011417 -0.005674 -0.001878 0.000000 -0.000760 0.000000
# 2 -0.005674 0.015035 -0.004319 0.000000 0.001310 0.000000
# 3 -0.001878 -0.004319 0.015298 0.000000 0.007224 0.000000
# 4 0.000000 0.000000 0.000000 0.027425 0.000000 -0.003157
# 5 -0.000760 0.001310 0.007224 0.000000 0.038658 0.000000
# 6 0.000000 0.000000 0.000000 -0.003157 0.000000 0.020012
#
#
# Mechanical properties :
#
#
# Convention : Reuss Voigt Hill
#
# Bulk Modulus (GPa) = 55.52976 62.68429 59.10702
# Shear Modulus (GPa) = 31.72834 35.50789 33.61812
#
# Velocity S-wave (km/s) = 4.10536 4.34300 4.22585
# Velocity P-wave (km/s) = 7.20896 7.64503 7.43019
#
# Compressibility (1/GPa) = 0.01800836
#
# Stress axis : x y z
#
# Youngs Moduli (GPa) = 87.59244 66.51298 65.36601
#
# Poissons Ratio (x) = 0.37738 0.12274
# Poissons Ratio (y) = 0.49698 0.28232
# Poissons Ratio (z) = 0.16448 0.28727
#
# Static dielectric constant tensor:
#      x y z
#    x 1.656540 0.000000 -0.005830 
#    y 0.000000 1.665730 0.000000 
#    z -0.005830 0.000000 1.652150 
# 
# From -- ./inp_files/257333.got.cif
#   From: 2010.05.17/outbox.cif.g08.bks.cpg/sg12_129_cif.got.tgz:257333.got - 2010.06.03 13:09:07.
