data_PCOD9214742
_publ_section_title
;
Structure prediction by ZEFSAII (Michael W. Deem and Ramdas Pophale) SiO2 
 PCOD9214742
Probable space group: C 2/M
;
_chemical_formula_sum "Si O2"
_cell_formula_units_Z 40
_cell_length_a 7.701680
_cell_length_b 15.244717
_cell_length_c 20.388521
_cell_angle_alpha 90.000000
_cell_angle_beta 41.292973
_cell_angle_gamma 90.000000
_cell_volume 1579.701230
_symmetry_space_group_name_H-M "C 2/M"
_symmetry_group_IT_number 12
_symmetry_cell_setting 'monoclinic'
loop_
_space_group_symop_operation_xyz
x,y,z
-x,y,-z
-x,-y,-z
x,-y,z
1/2+x,1/2+y,z
1/2-x,1/2+y,-z
1/2-x,1/2-y,-z
1/2+x,1/2-y,z
loop_
_atom_site_type_symbol
_atom_site_label
_atom_site_fract_x
_atom_site_fract_y
_atom_site_fract_z
Si Si1 0.402606 0.735025 0.195196
Si Si2 0.455629 0.655093 0.621463
Si Si3 0.622371 0.900630 0.592095
Si Si4 0.256955 0.603407 0.118469
Si Si5 0.501513 0.409478 0.250579
O O1 0.350531 0.662238 0.154151
O O2 0.541371 0.830422 0.147075
O O3 0.595084 0.679389 0.189591
O O4 0.146846 0.758094 0.312663
O O5 0.731074 0.654832 0.505683
O O6 0.238133 0.628174 0.629661
O O7 0.474026 0.592667 0.678570
O O8 0.310907 0.909120 0.674590
O O9 0.722407 0.000000 0.552272
O O10 0.179771 0.500000 0.154907
O O11 0.500000 0.597920 0.000000
O O12 0.618896 0.500000 0.190758
#
# Coordination Sequence:
#
# PCOD9214742 Si02
#       5
#     8   8   8   8   8
#     4  12  24  46  71 108 140 180 241 298 359 445
#     4  11  22  39  65  95 141 188 239 297 347 410
#     4  10  22  40  63  96 142 196 246 291 348 414
#     4  11  26  50  78 107 144 185 228 297 382 451
#     4  11  23  41  66  97 141 190 236 295 355 411
#
# _framework density 25.321244
#
# number of rings (size 3 to 8) (size 9 to 14) (size 15 to 20)
#    0.000    1.000    2.000    5.400    0.000    6.400 
#    3.600    0.000    0.000    4.200    0.000    0.000 
#    0.000    0.000    0.000    0.000    0.000    0.000 
#
# Total GULP energy -111673.978003 kJ/mol
# GULP energy per Si atom -5583.698900 kJ/mol
# Density = 2.526361 g / cm^3
# Si number density = 25.321244 Si / 1000 Ang^3
#
#
#
# Elastic Constant Matrix: (Units=GPa)
#
#
# Indices 1 2 3 4 5 6 
#
# 1 87.6094 27.2355 31.9023 -0.0023 8.2463 -0.0027
# 2 27.2355 248.2052 51.3882 -0.0031 14.9325 -0.0016
# 3 31.9023 51.3882 96.6561 0.0007 9.6870 0.0014
# 4 -0.0023 -0.0031 0.0007 32.3096 -0.0010 -13.7423
# 5 8.2463 14.9325 9.6870 -0.0010 26.5502 -0.0022
# 6 -0.0027 -0.0016 0.0014 -13.7423 -0.0022 3.6608
#
#
#
# Elastic Compliance Matrix: (Units=1/GPa)
#
#
# Indices 1 2 3 4 5 6 
#
# 1 0.013199 -0.000507 -0.003845 -0.000008 -0.002411 -0.000022
# 2 -0.000507 0.004625 -0.002124 -0.000002 -0.001669 -0.000005
# 3 -0.003845 -0.002124 0.012980 0.000009 -0.002347 0.000022
# 4 -0.000008 -0.000002 0.000009 -0.051873 -0.000018 -0.194727
# 5 -0.002411 -0.001669 -0.002347 -0.000018 0.040208 -0.000044
# 6 -0.000022 -0.000005 0.000022 -0.194727 -0.000044 -0.457823
#
#
# Mechanical properties :
#
#
# Convention : Reuss Voigt Hill
#
# Bulk Modulus (GPa) = 56.02099 72.61362 64.31731
# Shear Modulus (GPa) = -11.91095 33.96710 11.02807
#
# Velocity S-wave (km/s) = -2.17121 3.66655 2.08919
# Velocity P-wave (km/s) = 3.98580 6.83110 5.59243
#
# Compressibility (1/GPa) = 0.01785045
#
# Stress axis : x y z
#
# Youngs Moduli (GPa) = 75.76253 216.22808 77.04381
#
# Poissons Ratio (x) = 0.10966 0.29625
# Poissons Ratio (y) = 0.03842 0.16365
# Poissons Ratio (z) = 0.29132 0.45931
#
# Static dielectric constant tensor:
#      x y z
#    x 2.099560 0.000010 -0.011110 
#    y 0.000010 2.180280 -0.000010 
#    z -0.011110 -0.000010 1.971730 
# 
# From -- ./inp_files/299692.got.cif
#   From: 2010.05.17/outbox.cif.g08.bks.cpg/sg12_150_cif.got.tgz:299692.got - 2010.06.03 13:09:07.
