data_PCOD9214380
_publ_section_title
;
Structure prediction by ZEFSAII (Michael W. Deem and Ramdas Pophale) SiO2 
 PCOD9214380
Probable space group: C 2/M
;
_chemical_formula_sum "Si O2"
_cell_formula_units_Z 48
_cell_length_a 20.195035
_cell_length_b 8.876265
_cell_length_c 14.324027
_cell_angle_alpha 90.000000
_cell_angle_beta 125.433007
_cell_angle_gamma 90.000000
_cell_volume 2092.125800
_symmetry_space_group_name_H-M "C 2/M"
_symmetry_group_IT_number 12
_symmetry_cell_setting 'monoclinic'
loop_
_space_group_symop_operation_xyz
x,y,z
-x,y,-z
-x,-y,-z
x,-y,z
1/2+x,1/2+y,z
1/2-x,1/2+y,-z
1/2-x,1/2-y,-z
1/2+x,1/2-y,z
loop_
_atom_site_type_symbol
_atom_site_label
_atom_site_fract_x
_atom_site_fract_y
_atom_site_fract_z
Si Si1 0.005438 0.674203 0.808063
Si Si2 0.731684 0.679973 0.585774
Si Si3 0.564153 0.828933 0.447679
Si Si4 0.269527 0.819543 0.916772
Si Si5 0.594776 0.676645 0.724148
Si Si6 0.876246 0.683519 0.843340
O O1 0.033821 0.500000 0.842652
O O2 0.937983 0.669380 0.669084
O O3 0.960205 0.729799 0.863385
O O4 0.072269 0.777285 0.812934
O O5 0.733799 0.500000 0.582298
O O6 0.750000 0.750000 0.500000
O O7 0.640458 0.729498 0.538812
O O8 0.802055 0.728297 0.714867
O O9 0.527808 0.769170 0.612033
O O10 0.574528 0.000000 0.487118
O O11 0.188916 0.787773 0.789008
O O12 0.348803 0.769104 0.924213
O O13 0.273352 0.000000 0.930217
O O14 0.250000 0.750000 0.000000
O O15 0.581395 0.500000 0.698820
O O16 0.879814 0.500000 0.846958
#
# Coordination Sequence:
#
# PCOD9214380 Si02
#       6
#     8   8   8   8   8   8
#     4   8  15  30  53  76 103 138 174 212 255 305
#     4  11  18  28  50  79 112 145 176 214 260 309
#     4   9  17  29  48  75 106 140 174 207 252 306
#     4  10  22  40  60  78 102 136 178 224 270 318
#     4   9  17  32  54  78 103 137 174 214 266 318
#     4   9  18  34  54  79 107 139 180 220 256 309
#
# _framework density 22.943171
#
# number of rings (size 3 to 8) (size 9 to 14) (size 15 to 20)
#    1.000    1.667    1.667    1.000    0.000    1.333 
#    0.000    4.167    0.000   10.000    0.000    0.000 
#    0.000    0.000    0.000    0.000    0.000    0.000 
#
# Total GULP energy -133942.147991 kJ/mol
# GULP energy per Si atom -5580.922833 kJ/mol
# Density = 2.289095 g / cm^3
# Si number density = 22.943171 Si / 1000 Ang^3
#
#
#
# Elastic Constant Matrix: (Units=GPa)
#
#
# Indices 1 2 3 4 5 6 
#
# 1 130.0677 12.1993 20.3861 0.0000 -6.6163 0.0000
# 2 12.1993 37.9236 7.2314 0.0000 7.9797 0.0000
# 3 20.3861 7.2314 83.4645 0.0000 -6.5441 0.0000
# 4 0.0000 0.0000 0.0000 17.8390 0.0000 0.4434
# 5 -6.6163 7.9797 -6.5441 0.0000 41.8810 0.0000
# 6 0.0000 0.0000 0.0000 0.4434 0.0000 21.9240
#
#
#
# Elastic Compliance Matrix: (Units=1/GPa)
#
#
# Indices 1 2 3 4 5 6 
#
# 1 0.008280 -0.002673 -0.001669 0.000000 0.001557 0.000000
# 2 -0.002673 0.029007 -0.002356 0.000000 -0.006317 0.000000
# 3 -0.001669 -0.002356 0.012764 0.000000 0.002180 0.000000
# 4 0.000000 0.000000 0.000000 0.056085 0.000000 -0.001134
# 5 0.001557 -0.006317 0.002180 0.000000 0.025667 0.000000
# 6 0.000000 0.000000 0.000000 -0.001134 0.000000 0.045635
#
#
# Mechanical properties :
#
#
# Convention : Reuss Voigt Hill
#
# Bulk Modulus (GPa) = 27.28054 36.78770 32.03412
# Shear Modulus (GPa) = 24.62440 30.43808 27.53124
#
# Velocity S-wave (km/s) = 3.27965 3.64630 3.46782
# Velocity P-wave (km/s) = 5.12423 5.81347 5.47970
#
# Compressibility (1/GPa) = 0.03665617
#
# Stress axis : x y z
#
# Youngs Moduli (GPa) = 120.77721 34.47454 78.34722
#
# Poissons Ratio (x) = 0.09214 0.13074
# Poissons Ratio (y) = 0.32281 0.18456
# Poissons Ratio (z) = 0.20154 0.08121
#
# Static dielectric constant tensor:
#      x y z
#    x 1.919210 0.000000 -0.039910 
#    y 0.000000 1.778260 0.000000 
#    z -0.039910 0.000000 1.971320 
# 
# From -- ./inp_files/230345.got.cif
#   From: 2010.05.17/outbox.cif.g08.bks.cpg/sg12_116_cif.got.tgz:230345.got - 2010.06.03 13:09:07.
