data_PCOD9214891
_publ_section_title
;
Structure prediction by ZEFSAII (Michael W. Deem and Ramdas Pophale) SiO2 
 PCOD9214891
Probable space group: C 2/M
;
_chemical_formula_sum "Si O2"
_cell_formula_units_Z 36
_cell_length_a 15.756715
_cell_length_b 9.768604
_cell_length_c 10.809476
_cell_angle_alpha 90.000000
_cell_angle_beta 97.310699
_cell_angle_gamma 90.000000
_cell_volume 1650.280950
_symmetry_space_group_name_H-M "C 2/M"
_symmetry_group_IT_number 12
_symmetry_cell_setting 'monoclinic'
loop_
_space_group_symop_operation_xyz
x,y,z
-x,y,-z
-x,-y,-z
x,-y,z
1/2+x,1/2+y,z
1/2-x,1/2+y,-z
1/2-x,1/2-y,-z
1/2+x,1/2-y,z
loop_
_atom_site_type_symbol
_atom_site_label
_atom_site_fract_x
_atom_site_fract_y
_atom_site_fract_z
Si Si1 0.821910 0.655802 0.072472
Si Si2 0.082085 0.346266 0.163806
Si Si3 0.000000 0.240752 0.500000
Si Si4 0.822005 0.655669 0.574792
Si Si5 0.062212 0.153918 0.768603
O O1 0.796407 0.500000 0.097930
O O2 0.862013 0.739009 0.193116
O O3 0.750000 0.750000 0.000000
O O4 0.889732 0.648973 0.972346
O O5 0.046852 0.500000 0.188689
O O6 0.160435 0.324126 0.274805
O O7 0.017286 0.223336 0.175525
O O8 0.916924 0.322865 0.533668
O O9 0.965014 0.155085 0.378707
O O10 0.794650 0.500000 0.551086
O O11 0.750000 0.750000 0.500000
O O12 0.082341 0.000000 0.813936
#
# Coordination Sequence:
#
# PCOD9214891 Si02
#       5
#     8   8   4   8   8
#     4  11  24  41  62  91 126 166 207 257 316 380
#     4   9  21  42  62  86 123 164 204 254 320 383
#     4  10  24  44  64  94 132 178 214 262 326 392
#     4  10  22  40  65  94 128 169 216 266 322 386
#     4  11  23  40  65  93 123 163 211 264 313 376
#
# _framework density 21.814467
#
# number of rings (size 3 to 8) (size 9 to 14) (size 15 to 20)
#    0.000    1.778    0.000    2.667    3.111   11.556 
#    0.000    0.000    0.000    0.000    0.000    0.000 
#    0.000    0.000    0.000    0.000    0.000    0.000 
#
# Total GULP energy -100524.119876 kJ/mol
# GULP energy per Si atom -5584.673326 kJ/mol
# Density = 2.176482 g / cm^3
# Si number density = 21.814467 Si / 1000 Ang^3
#
#
#
# Elastic Constant Matrix: (Units=GPa)
#
#
# Indices 1 2 3 4 5 6 
#
# 1 50.1923 34.8241 21.7802 0.0000 19.1327 0.0000
# 2 34.8241 185.0193 49.5679 0.0000 36.4363 0.0000
# 3 21.7802 49.5679 102.0504 0.0000 25.1458 0.0000
# 4 0.0000 0.0000 0.0000 22.9838 0.0000 12.3946
# 5 19.1327 36.4363 25.1458 0.0000 40.2002 0.0000
# 6 0.0000 0.0000 0.0000 12.3946 0.0000 23.9082
#
#
#
# Elastic Compliance Matrix: (Units=1/GPa)
#
#
# Indices 1 2 3 4 5 6 
#
# 1 0.025961 -0.002609 -0.002142 0.000000 -0.008651 0.000000
# 2 -0.002609 0.007222 -0.001944 0.000000 -0.004088 0.000000
# 3 -0.002142 -0.001944 0.012431 0.000000 -0.004995 0.000000
# 4 0.000000 0.000000 0.000000 0.060393 0.000000 -0.031309
# 5 -0.008651 -0.004088 -0.004995 0.000000 0.035823 0.000000
# 6 0.000000 0.000000 0.000000 -0.031309 0.000000 0.058058
#
#
# Mechanical properties :
#
#
# Convention : Reuss Voigt Hill
#
# Bulk Modulus (GPa) = 31.03192 61.06739 46.04966
# Shear Modulus (GPa) = 22.31973 32.82443 27.57208
#
# Velocity S-wave (km/s) = 3.20216 3.88327 3.55904
# Velocity P-wave (km/s) = 5.28470 6.93982 6.16803
#
# Compressibility (1/GPa) = 0.03222488
#
# Stress axis : x y z
#
# Youngs Moduli (GPa) = 38.52004 138.47262 80.44425
#
# Poissons Ratio (x) = 0.36124 0.17230
# Poissons Ratio (y) = 0.10049 0.15635
# Poissons Ratio (z) = 0.08250 0.26913
#
# Static dielectric constant tensor:
#      x y z
#    x 1.865840 0.000000 0.009270 
#    y 0.000000 1.785490 0.000000 
#    z 0.009270 0.000000 1.820500 
# 
# From -- ./inp_files/152069.got.cif
#   From: 2010.05.17/outbox.cif.g08.bks.cpg/sg12_77_cif.got.tgz:152069.got - 2010.06.03 13:09:07.
