data_PCOD9214915
_publ_section_title
;
Structure prediction by ZEFSAII (Michael W. Deem and Ramdas Pophale) SiO2 
 PCOD9214915
Probable space group: C 2/M
;
_chemical_formula_sum "Si O2"
_cell_formula_units_Z 40
_cell_length_a 17.848184
_cell_length_b 22.921990
_cell_length_c 9.382231
_cell_angle_alpha 90.000000
_cell_angle_beta 30.008764
_cell_angle_gamma 90.000000
_cell_volume 1919.718362
_symmetry_space_group_name_H-M "C 2/M"
_symmetry_group_IT_number 12
_symmetry_cell_setting 'monoclinic'
loop_
_space_group_symop_operation_xyz
x,y,z
-x,y,-z
-x,-y,-z
x,-y,z
1/2+x,1/2+y,z
1/2-x,1/2+y,-z
1/2-x,1/2-y,-z
1/2+x,1/2-y,z
loop_
_atom_site_type_symbol
_atom_site_label
_atom_site_fract_x
_atom_site_fract_y
_atom_site_fract_z
Si Si1 0.007745 0.567509 0.817251
Si Si2 0.155676 0.245031 0.801874
Si Si3 0.338095 0.432800 0.207905
Si Si4 0.268248 0.349068 0.799120
Si Si5 0.087262 0.140740 0.135881
O O1 0.998018 0.500000 0.780411
O O2 0.174903 0.592629 0.513793
O O3 0.870394 0.606199 0.985915
O O4 0.000000 0.565811 0.000000
O O5 0.250000 0.250000 0.500000
O O6 0.220359 0.287717 0.813177
O O7 0.121629 0.185315 0.947412
O O8 0.000000 0.268550 0.000000
O O9 0.328848 0.500000 0.267503
O O10 0.500000 0.411751 0.000000
O O11 0.355089 0.421691 0.012636
O O12 0.324491 0.342000 0.867724
O O13 0.413275 0.365568 0.464466
#
# Coordination Sequence:
#
# PCOD9214915 Si02
#       5
#     8   8   8   8   8
#     4  10  22  40  65  97 129 167 217 265 312 378
#     4  12  25  44  68  94 125 166 217 269 317 383
#     4  10  22  40  66  97 130 168 212 263 319 379
#     4  11  25  43  64  94 133 171 213 263 321 381
#     4  11  25  43  63  94 134 171 211 263 324 383
#
# _framework density 20.836390000000002
#
# number of rings (size 3 to 8) (size 9 to 14) (size 15 to 20)
#    0.000    1.200    2.000    3.000    5.600    4.000 
#    0.000    4.000    0.000    0.000    0.000    0.000 
#    0.000    0.000    0.000    0.000    0.000    0.000 
#
# Total GULP energy -111425.239485 kJ/mol
# GULP energy per Si atom -5571.261974 kJ/mol
# Density = 2.078897 g / cm^3
# Si number density = 20.836390 Si / 1000 Ang^3
#
#
#
# Elastic Constant Matrix: (Units=GPa)
#
#
# Indices 1 2 3 4 5 6 
#
# 1 96.6834 24.5185 69.0175 0.0033 -14.9620 -0.0001
# 2 24.5185 50.0815 42.1808 0.0010 -11.7667 -0.0014
# 3 69.0175 42.1808 180.6925 -0.0038 -24.3008 -0.0009
# 4 0.0033 0.0010 -0.0038 22.6766 -0.0007 -0.0131
# 5 -14.9620 -11.7667 -24.3008 -0.0007 39.2352 -0.0003
# 6 -0.0001 -0.0014 -0.0009 -0.0131 -0.0003 21.2503
#
#
#
# Elastic Compliance Matrix: (Units=1/GPa)
#
#
# Indices 1 2 3 4 5 6 
#
# 1 0.014704 -0.002792 -0.004716 -0.000003 0.001849 0.000000
# 2 -0.002792 0.026039 -0.004478 -0.000001 0.003971 0.000002
# 3 -0.004716 -0.004478 0.008681 0.000002 0.002236 0.000000
# 4 -0.000003 -0.000001 0.000002 0.044098 0.000001 0.000027
# 5 0.001849 0.003971 0.002236 0.000001 0.028768 0.000001
# 6 0.000000 0.000002 0.000000 0.000027 0.000001 0.047058
#
#
# Mechanical properties :
#
#
# Convention : Reuss Voigt Hill
#
# Bulk Modulus (GPa) = 39.28941 66.54344 52.91642
# Shear Modulus (GPa) = 24.77645 29.41513 27.09579
#
# Velocity S-wave (km/s) = 3.45207 3.76136 3.61003
# Velocity P-wave (km/s) = 5.89797 7.13227 6.54429
#
# Compressibility (1/GPa) = 0.02545215
#
# Stress axis : x y z
#
# Youngs Moduli (GPa) = 68.01066 38.40397 115.18756
#
# Poissons Ratio (x) = 0.10723 0.54319
# Poissons Ratio (y) = 0.18990 0.51581
# Poissons Ratio (z) = 0.32072 0.17197
#
# Static dielectric constant tensor:
#      x y z
#    x 1.736600 0.000000 0.006880 
#    y 0.000000 2.034510 0.000000 
#    z 0.006880 0.000000 1.807270 
# 
# From -- ./inp_files/79269.got.cif
#   From: 2010.05.17/outbox.cif.g08.bks.cpg/sg12_40_cif.got.tgz:79269.got - 2010.06.03 13:09:07.
