data_PCOD9214131
_publ_section_title
;
Structure prediction by ZEFSAII (Michael W. Deem and Ramdas Pophale) SiO2 
 PCOD9214131
Probable space group: C 2/M
;
_chemical_formula_sum "Si O2"
_cell_formula_units_Z 40
_cell_length_a 12.939150
_cell_length_b 12.749356
_cell_length_c 14.561901
_cell_angle_alpha 90.000000
_cell_angle_beta 50.439286
_cell_angle_gamma 90.000000
_cell_volume 1851.988785
_symmetry_space_group_name_H-M "C 2/M"
_symmetry_group_IT_number 12
_symmetry_cell_setting 'monoclinic'
loop_
_space_group_symop_operation_xyz
x,y,z
-x,y,-z
-x,-y,-z
x,-y,z
1/2+x,1/2+y,z
1/2-x,1/2+y,-z
1/2-x,1/2-y,-z
1/2+x,1/2-y,z
loop_
_atom_site_type_symbol
_atom_site_label
_atom_site_fract_x
_atom_site_fract_y
_atom_site_fract_z
Si Si1 0.368778 0.839980 0.129095
Si Si2 0.139455 0.374145 0.464513
Si Si3 0.382072 0.380283 0.191629
Si Si4 0.449791 0.120413 0.289462
Si Si5 0.352377 0.699254 0.869061
O O1 0.369153 0.712524 0.125958
O O2 0.382197 0.871873 0.227428
O O3 0.233561 0.868143 0.153754
O O4 0.500000 0.876541 0.000000
O O5 0.131297 0.500000 0.462521
O O6 0.271010 0.349849 0.331392
O O7 0.142371 0.351362 0.571302
O O8 0.000000 0.331693 0.500000
O O9 0.360339 0.500000 0.173234
O O10 0.529880 0.366960 0.150324
O O11 0.570878 0.202536 0.220366
O O12 0.495847 0.000000 0.276127
O O13 0.250000 0.750000 0.000000
#
# Coordination Sequence:
#
# PCOD9214131 Si02
#       5
#     8   8   8   8   8
#     4  11  22  40  55  86 127 155 199 247 287 358
#     4   9  18  37  63  93 119 149 203 255 298 359
#     4  10  22  39  63  88 118 158 201 249 302 350
#     4  10  22  39  63  86 116 161 201 241 303 359
#     4  11  22  40  55  86 127 155 200 249 285 355
#
# _framework density 21.598402
#
# number of rings (size 3 to 8) (size 9 to 14) (size 15 to 20)
#    0.000    1.800    4.000    1.200    0.000    8.000 
#    0.000    3.000    0.000    3.600    0.000    0.000 
#    0.000    0.000    0.000    0.000    0.000    0.000 
#
# Total GULP energy -111668.284551 kJ/mol
# GULP energy per Si atom -5583.414228 kJ/mol
# Density = 2.154924 g / cm^3
# Si number density = 21.598402 Si / 1000 Ang^3
#
#
#
# Elastic Constant Matrix: (Units=GPa)
#
#
# Indices 1 2 3 4 5 6 
#
# 1 120.8035 -22.1994 29.8903 0.0000 -1.3209 0.0000
# 2 -22.1994 89.7112 5.6168 0.0000 -3.9462 0.0000
# 3 29.8903 5.6168 132.1308 0.0000 2.4534 0.0000
# 4 0.0000 0.0000 0.0000 -68.9101 0.0000 16.8529
# 5 -1.3209 -3.9462 2.4534 0.0000 34.6009 0.0000
# 6 0.0000 0.0000 0.0000 16.8529 0.0000 11.2652
#
#
#
# Elastic Compliance Matrix: (Units=1/GPa)
#
#
# Indices 1 2 3 4 5 6 
#
# 1 0.009291 0.002473 -0.002222 0.000000 0.000794 0.000000
# 2 0.002473 0.011895 -0.001093 0.000000 0.001529 0.000000
# 3 -0.002222 -0.001093 0.008132 0.000000 -0.000786 0.000000
# 4 0.000000 0.000000 0.000000 -0.010624 0.000000 0.015894
# 5 0.000794 0.001529 -0.000786 0.000000 0.029161 0.000000
# 6 0.000000 0.000000 0.000000 0.015894 0.000000 0.064991
#
#
# Mechanical properties :
#
#
# Convention : Reuss Voigt Hill
#
# Bulk Modulus (GPa) = 36.18835 41.02897 38.60866
# Shear Modulus (GPa) = 40.40733 17.34706 28.87720
#
# Velocity S-wave (km/s) = 4.33002 2.83709 3.66048
# Velocity P-wave (km/s) = 6.46454 5.45616 5.98164
#
# Compressibility (1/GPa) = 0.02763320
#
# Stress axis : x y z
#
# Youngs Moduli (GPa) = 107.63398 84.07211 122.97248
#
# Poissons Ratio (x) = -0.20792 0.27320
# Poissons Ratio (y) = -0.26619 0.13447
# Poissons Ratio (z) = 0.23912 0.09193
#
# Static dielectric constant tensor:
#      x y z
#    x 1.887940 0.000000 0.000540 
#    y 0.000000 1.808790 0.000000 
#    z 0.000540 0.000000 1.782310 
# 
# From -- ./inp_files/141846.got.cif
#   From: 2010.05.17/outbox.cif.g08.bks.cpg/sg12_71_cif.got.tgz:141846.got - 2010.06.03 13:09:07.
