data_PCOD9214586
_publ_section_title
;
Structure prediction by ZEFSAII (Michael W. Deem and Ramdas Pophale) SiO2 
 PCOD9214586
Probable space group: C 2/M
;
_chemical_formula_sum "Si O2"
_cell_formula_units_Z 40
_cell_length_a 27.740957
_cell_length_b 8.783720
_cell_length_c 18.883781
_cell_angle_alpha 90.000000
_cell_angle_beta 26.982654
_cell_angle_gamma 90.000000
_cell_volume 2087.745234
_symmetry_space_group_name_H-M "C 2/M"
_symmetry_group_IT_number 12
_symmetry_cell_setting 'monoclinic'
loop_
_space_group_symop_operation_xyz
x,y,z
-x,y,-z
-x,-y,-z
x,-y,z
1/2+x,1/2+y,z
1/2-x,1/2+y,-z
1/2-x,1/2-y,-z
1/2+x,1/2-y,z
loop_
_atom_site_type_symbol
_atom_site_label
_atom_site_fract_x
_atom_site_fract_y
_atom_site_fract_z
Si Si1 0.229969 0.318697 0.241661
Si Si2 0.835799 0.317724 0.833740
Si Si3 0.362925 0.817465 0.375084
Si Si4 0.041232 0.317318 0.024307
Si Si5 0.565626 0.318293 0.568418
O O1 0.220226 0.500000 0.264872
O O2 0.199194 0.284063 0.200875
O O3 0.150041 0.234954 0.399270
O O4 0.349480 0.265690 0.100664
O O5 0.840992 0.500000 0.835296
O O6 0.950477 0.247148 0.699347
O O7 0.750000 0.250000 0.000000
O O8 0.250000 0.750000 0.500000
O O9 0.451073 0.781905 0.200101
O O10 0.398690 0.747932 0.402756
O O11 0.355180 0.000000 0.391107
O O12 0.059544 0.500000 0.001524
O O13 0.000000 0.276856 0.000000
O O14 0.561806 0.500000 0.576808
#
# Coordination Sequence:
#
# PCOD9214586 Si02
#       5
#     8   8   8   8   8
#     4  11  24  41  63  91 122 158 203 256 309 364
#     4  11  24  42  64  92 125 160 203 254 309 369
#     4  11  23  40  64  93 127 164 204 253 306 363
#     4  10  22  40  62  90 123 159 200 247 301 364
#     4  12  25  41  63  90 123 164 208 253 305 365
#
# _framework density 19.159424999999999
#
# number of rings (size 3 to 8) (size 9 to 14) (size 15 to 20)
#    0.000    1.000    0.000    6.600    0.000   12.400 
#    0.000    0.000    0.000    0.000    0.000    0.000 
#    0.000    0.000    0.000    0.000    0.000    0.000 
#
# Total GULP energy -111967.251438 kJ/mol
# GULP energy per Si atom -5598.362572 kJ/mol
# Density = 1.911582 g / cm^3
# Si number density = 19.159425 Si / 1000 Ang^3
#
#
#
# Elastic Constant Matrix: (Units=GPa)
#
#
# Indices 1 2 3 4 5 6 
#
# 1 205.7819 107.4707 122.3616 -0.0006 -2.7818 0.0002
# 2 107.4707 106.2218 98.8575 -0.0016 5.1344 0.0003
# 3 122.3616 98.8575 194.7547 -0.0016 -3.3860 0.0004
# 4 -0.0006 -0.0016 -0.0016 38.8893 0.0002 -6.6742
# 5 -2.7818 5.1344 -3.3860 0.0002 45.1592 0.0001
# 6 0.0002 0.0003 0.0004 -6.6742 0.0001 34.4271
#
#
#
# Elastic Compliance Matrix: (Units=1/GPa)
#
#
# Indices 1 2 3 4 5 6 
#
# 1 0.010950 -0.009051 -0.002259 0.000000 0.001534 0.000000
# 2 -0.009051 0.025662 -0.007410 0.000001 -0.004031 0.000000
# 3 -0.002259 -0.007410 0.010341 0.000000 0.001479 0.000000
# 4 0.000000 0.000001 0.000000 0.026599 0.000000 0.005157
# 5 0.001534 -0.004031 0.001479 0.000000 0.022808 0.000000
# 6 0.000000 0.000000 0.000000 0.005157 0.000000 0.030047
#
#
# Mechanical properties :
#
#
# Convention : Reuss Voigt Hill
#
# Bulk Modulus (GPa) = 105.10510 129.34867 117.22688
# Shear Modulus (GPa) = 29.93691 35.56637 32.75164
#
# Velocity S-wave (km/s) = 3.95716 4.31320 4.13901
# Velocity P-wave (km/s) = 8.70954 9.61578 9.17386
#
# Compressibility (1/GPa) = 0.00951429
#
# Stress axis : x y z
#
# Youngs Moduli (GPa) = 91.32083 38.96741 96.70271
#
# Poissons Ratio (x) = 0.35269 0.21846
# Poissons Ratio (y) = 0.82653 0.71655
# Poissons Ratio (z) = 0.20630 0.28874
#
# Static dielectric constant tensor:
#      x y z
#    x 1.631260 0.000000 0.008490 
#    y 0.000000 1.640670 0.000000 
#    z 0.008490 0.000000 1.621300 
# 
# From -- ./inp_files/288590.got.cif
#   From: 2010.05.17/outbox.cif.g08.bks.cpg/sg12_145_cif.got.tgz:288590.got - 2010.06.03 13:09:07.
