data_PCOD9214341
_publ_section_title
;
Structure prediction by ZEFSAII (Michael W. Deem and Ramdas Pophale) SiO2 
 PCOD9214341
Probable space group: C 2/M
;
_chemical_formula_sum "Si O2"
_cell_formula_units_Z 56
_cell_length_a 14.109636
_cell_length_b 19.015704
_cell_length_c 16.108063
_cell_angle_alpha 90.000000
_cell_angle_beta 145.316991
_cell_angle_gamma 90.000000
_cell_volume 2459.297375
_symmetry_space_group_name_H-M "C 2/M"
_symmetry_group_IT_number 12
_symmetry_cell_setting 'monoclinic'
loop_
_space_group_symop_operation_xyz
x,y,z
-x,y,-z
-x,-y,-z
x,-y,z
1/2+x,1/2+y,z
1/2-x,1/2+y,-z
1/2-x,1/2-y,-z
1/2+x,1/2-y,z
loop_
_atom_site_type_symbol
_atom_site_label
_atom_site_fract_x
_atom_site_fract_y
_atom_site_fract_z
Si Si1 0.682382 0.731949 0.330745
Si Si2 0.513397 0.879118 0.420392
Si Si3 0.959165 0.920850 0.378814
Si Si4 0.316831 0.296704 0.853667
Si Si5 0.830645 0.178414 0.146481
Si Si6 0.045650 0.418971 0.937388
Si Si7 0.321317 0.107887 0.622593
O O1 0.845451 0.682976 0.464009
O O2 0.671640 0.746374 0.224426
O O3 0.508678 0.694565 0.232989
O O4 0.694879 0.807013 0.384788
O O5 0.500000 0.916062 0.500000
O O6 0.331327 0.849593 0.270180
O O7 0.565878 0.914680 0.372934
O O8 0.143181 0.923780 0.474454
O O9 0.000000 0.893434 0.500000
O O10 0.863348 0.866802 0.253340
O O11 0.888432 0.000000 0.332370
O O12 0.258476 0.249516 0.888683
O O13 0.500000 0.327011 0.000000
O O14 0.689621 0.130583 0.002272
O O15 0.101761 0.500000 0.981490
O O16 0.892194 0.414414 0.763022
O O17 0.000000 0.398295 0.000000
#
# Coordination Sequence:
#
# PCOD9214341 Si02
#       7
#     8   8   8   8   8   8   8
#     4  11  22  37  60  95 125 164 202 256 327 372
#     4  10  22  40  58  90 130 161 202 256 313 369
#     4  11  23  38  61  90 121 167 215 255 303 373
#     4  11  23  36  58  91 127 166 202 248 313 384
#     4  12  22  39  60  91 131 163 203 258 311 380
#     4  11  25  42  61  90 130 173 211 256 313 375
#     4  12  21  39  64  90 126 167 210 256 312 379
#
# _framework density 22.770733
#
# number of rings (size 3 to 8) (size 9 to 14) (size 15 to 20)
#    0.000    0.857    2.857    6.000    2.000    4.571 
#    0.000    0.000    0.000    1.714    0.000    4.000 
#    0.000    0.000    0.000    0.000    0.000    0.000 
#
# Total GULP energy -156516.541776 kJ/mol
# GULP energy per Si atom -5589.876492 kJ/mol
# Density = 2.271891 g / cm^3
# Si number density = 22.770733 Si / 1000 Ang^3
#
#
#
# Elastic Constant Matrix: (Units=GPa)
#
#
# Indices 1 2 3 4 5 6 
#
# 1 111.7098 7.7011 18.7201 -0.0013 7.1195 -0.0003
# 2 7.7011 63.4603 19.5492 0.0020 10.3137 0.0028
# 3 18.7201 19.5492 117.7297 0.0019 29.9090 0.0041
# 4 -0.0013 0.0020 0.0019 -5.9839 0.0029 -15.2410
# 5 7.1195 10.3137 29.9090 0.0029 45.6308 0.0037
# 6 -0.0003 0.0028 0.0041 -15.2410 0.0037 -7.5081
#
#
#
# Elastic Compliance Matrix: (Units=1/GPa)
#
#
# Indices 1 2 3 4 5 6 
#
# 1 0.009235 -0.000662 -0.001236 0.000000 -0.000481 -0.000001
# 2 -0.000662 0.016865 -0.002103 0.000001 -0.002330 0.000001
# 3 -0.001236 -0.002103 0.010642 0.000001 -0.006307 -0.000001
# 4 0.000000 0.000001 0.000001 0.040073 0.000003 -0.081345
# 5 -0.000481 -0.002330 -0.006307 0.000003 0.026651 0.000003
# 6 -0.000001 0.000001 -0.000001 -0.081345 0.000003 0.031937
#
#
# Mechanical properties :
#
#
# Convention : Reuss Voigt Hill
#
# Bulk Modulus (GPa) = 34.79536 42.76008 38.77772
# Shear Modulus (GPa) = 32.68279 22.88974 27.78627
#
# Velocity S-wave (km/s) = 3.79264 3.17397 3.49702
# Velocity P-wave (km/s) = 5.87305 5.67903 5.77686
#
# Compressibility (1/GPa) = 0.02873946
#
# Stress axis : x y z
#
# Youngs Moduli (GPa) = 108.28103 59.29521 93.96541
#
# Poissons Ratio (x) = 0.03923 0.11618
# Poissons Ratio (y) = 0.07165 0.19763
# Poissons Ratio (z) = 0.13388 0.12471
#
# Static dielectric constant tensor:
#      x y z
#    x 1.927380 0.000000 0.011990 
#    y 0.000000 1.844140 0.000000 
#    z 0.011990 0.000000 1.869300 
# 
# From -- ./inp_files/272349.got.cif
#   From: 2010.05.17/outbox.cif.g08.bks.cpg/sg12_137_cif.got.tgz:272349.got - 2010.06.03 13:09:07.
