data_PCOD9214886
_publ_section_title
;
Structure prediction by ZEFSAII (Michael W. Deem and Ramdas Pophale) SiO2 
 PCOD9214886
Probable space group: C 2/M
;
_chemical_formula_sum "Si O2"
_cell_formula_units_Z 58
_cell_length_a 12.164593
_cell_length_b 27.466284
_cell_length_c 9.358116
_cell_angle_alpha 90.000000
_cell_angle_beta 86.786703
_cell_angle_gamma 90.000000
_cell_volume 3121.781990
_symmetry_space_group_name_H-M "C 2/M"
_symmetry_group_IT_number 12
_symmetry_cell_setting 'monoclinic'
loop_
_space_group_symop_operation_xyz
x,y,z
-x,y,-z
-x,-y,-z
x,-y,z
1/2+x,1/2+y,z
1/2-x,1/2+y,-z
1/2-x,1/2-y,-z
1/2+x,1/2-y,z
loop_
_atom_site_type_symbol
_atom_site_label
_atom_site_fract_x
_atom_site_fract_y
_atom_site_fract_z
Si Si1 0.271432 0.807047 0.967860
Si Si2 0.918951 0.802081 0.634422
Si Si3 0.500000 0.500000 0.500000
Si Si4 0.686788 0.840726 0.719689
Si Si5 0.062083 0.858653 0.852971
Si Si6 0.559870 0.190856 0.295708
Si Si7 0.832667 0.052749 0.326860
Si Si8 0.120529 0.596413 0.481630
O O1 0.165739 0.825877 0.889897
O O2 0.377866 0.813725 0.859923
O O3 0.250000 0.750000 0.000000
O O4 0.285149 0.836717 0.114642
O O5 0.793982 0.820072 0.631663
O O6 0.912899 0.743971 0.647423
O O7 0.000000 0.815290 0.500000
O O8 0.976425 0.826669 0.767553
O O9 0.411172 0.541599 0.455217
O O10 0.571850 0.812035 0.711255
O O11 0.661409 0.890899 0.638764
O O12 0.110983 0.904599 0.766034
O O13 0.000000 0.875120 0.000000
O O14 0.600314 0.147480 0.396810
O O15 0.712630 0.067470 0.389727
O O16 0.829320 0.000000 0.249107
O O17 0.000000 0.572843 0.500000
#
# Coordination Sequence:
#
# PCOD9214886 Si02
#       8
#     8   8   2   8   8   8   8   8
#     4  12  22  40  60  88 130 178 218 259 315 388
#     4  12  25  36  60  89 130 175 219 267 315 379
#     4   8  24  40  68 100 120 156 218 266 338 386
#     4  11  23  37  58  86 119 168 213 258 315 378
#     4  12  24  41  64  95 131 173 216 270 324 388
#     4  11  23  40  58  88 128 171 221 263 314 381
#     4  10  23  43  70  93 127 159 213 274 338 381
#     4  10  22  40  65  94 123 162 212 265 325 386
#
# _framework density 18.579132999999999
#
# number of rings (size 3 to 8) (size 9 to 14) (size 15 to 20)
#    0.414    0.552    4.138    3.310    2.897    1.655 
#    0.000    0.000    0.000    0.000    0.000    1.931 
#    0.000    0.000    0.000    0.000    0.000    0.000 
#
# Total GULP energy -161570.445891 kJ/mol
# GULP energy per Si atom -5571.394686 kJ/mol
# Density = 1.853685 g / cm^3
# Si number density = 18.579133 Si / 1000 Ang^3
#
#
#
# Elastic Constant Matrix: (Units=GPa)
#
#
# Indices 1 2 3 4 5 6 
#
# 1 156.8386 38.8121 28.8368 0.0000 -12.5405 0.0000
# 2 38.8121 71.1271 3.1016 0.0000 7.5469 0.0000
# 3 28.8368 3.1016 63.1032 0.0000 -12.6251 0.0000
# 4 0.0000 0.0000 0.0000 3.5748 0.0000 8.5952
# 5 -12.5405 7.5469 -12.6251 0.0000 39.9445 0.0000
# 6 0.0000 0.0000 0.0000 8.5952 0.0000 20.4019
#
#
#
# Elastic Compliance Matrix: (Units=1/GPa)
#
#
# Indices 1 2 3 4 5 6 
#
# 1 0.008292 -0.004659 -0.003057 0.000000 0.002517 0.000000
# 2 -0.004659 0.017070 0.000376 0.000000 -0.004569 0.000000
# 3 -0.003057 0.000376 0.018168 0.000000 0.004712 0.000000
# 4 0.000000 0.000000 0.000000-21.618941 0.000000 9.107887
# 5 0.002517 -0.004569 0.004712 0.000000 0.028177 0.000000
# 6 0.000000 0.000000 0.000000 9.107887 0.000000 -3.788064
#
#
# Mechanical properties :
#
#
# Convention : Reuss Voigt Hill
#
# Bulk Modulus (GPa) = 34.66084 48.06332 41.36208
# Shear Modulus (GPa) = -0.19754 27.47214 13.63730
#
# Velocity S-wave (km/s) = -0.32643 3.84950 2.71220
# Velocity P-wave (km/s) = 4.30746 6.75899 5.66737
#
# Compressibility (1/GPa) = 0.02885100
#
# Stress axis : x y z
#
# Youngs Moduli (GPa) = 120.59644 58.58300 55.04153
#
# Poissons Ratio (x) = 0.27291 0.16825
# Poissons Ratio (y) = 0.56181 -0.02068
# Poissons Ratio (z) = 0.36863 -0.02201
#
# Static dielectric constant tensor:
#      x y z
#    x 1.638430 0.000000 -0.009990 
#    y 0.000000 1.628890 0.000000 
#    z -0.009990 0.000000 1.677520 
# 
# From -- ./inp_files/53244.got.cif
#   From: 2010.05.17/outbox.cif.g08.bks.cpg/sg12_27_cif.got.tgz:53244.got - 2010.06.03 13:09:07.
