data_PCOD9214698
_publ_section_title
;
Structure prediction by ZEFSAII (Michael W. Deem and Ramdas Pophale) SiO2 
 PCOD9214698
Probable space group: C 2/M
;
_chemical_formula_sum "Si O2"
_cell_formula_units_Z 56
_cell_length_a 19.437516
_cell_length_b 8.748583
_cell_length_c 29.434898
_cell_angle_alpha 90.000000
_cell_angle_beta 32.488443
_cell_angle_gamma 90.000000
_cell_volume 2688.561675
_symmetry_space_group_name_H-M "C 2/M"
_symmetry_group_IT_number 12
_symmetry_cell_setting 'monoclinic'
loop_
_space_group_symop_operation_xyz
x,y,z
-x,y,-z
-x,-y,-z
x,-y,z
1/2+x,1/2+y,z
1/2-x,1/2+y,-z
1/2-x,1/2-y,-z
1/2+x,1/2-y,z
loop_
_atom_site_type_symbol
_atom_site_label
_atom_site_fract_x
_atom_site_fract_y
_atom_site_fract_z
Si Si1 0.273083 0.318196 0.872356
Si Si2 0.959048 0.182033 0.852947
Si Si3 0.015993 0.680309 0.066028
Si Si4 0.083065 0.818266 0.384443
Si Si5 0.277554 0.681664 0.344658
Si Si6 0.262696 0.821143 0.784336
Si Si7 0.708600 0.317122 0.474781
O O1 0.281709 0.500000 0.857615
O O2 0.361361 0.287015 0.866576
O O3 0.312711 0.224803 0.806132
O O4 0.127022 0.284252 0.968174
O O5 0.932234 0.278858 0.912709
O O6 0.101104 0.216979 0.755036
O O7 0.953077 0.000000 0.866835
O O8 0.986952 0.500000 0.078891
O O9 0.886587 0.775170 0.132585
O O10 0.151351 0.741051 0.389336
O O11 0.165501 0.772961 0.294485
O O12 0.937431 0.770660 0.455836
O O13 0.085216 0.000000 0.390314
O O14 0.272108 0.500000 0.353117
O O15 0.290986 0.757118 0.386473
O O16 0.277554 0.000000 0.766725
O O17 0.714326 0.500000 0.473709
O O18 0.750000 0.250000 0.500000
#
# Coordination Sequence:
#
# PCOD9214698 Si02
#       7
#     8   8   8   8   8   8   8
#     4  10  23  41  61  89 128 169 210 260 317 375
#     4  10  22  40  63  92 128 166 208 259 313 368
#     4  11  22  39  64  91 123 168 215 259 312 375
#     4  11  24  44  68  93 126 168 211 256 309 372
#     4  11  23  41  67  98 130 167 209 255 310 371
#     4  12  25  40  62  93 126 164 212 266 316 369
#     4  11  26  45  68  98 132 167 205 255 312 371
#
# _framework density 20.828982
#
# number of rings (size 3 to 8) (size 9 to 14) (size 15 to 20)
#    0.000    1.143    1.429    4.286    2.000    8.000 
#    0.000    0.000    0.000    0.000    0.000    0.000 
#    0.000    0.000    0.000    0.000    0.000    0.000 
#
# Total GULP energy -156729.450285 kJ/mol
# GULP energy per Si atom -5597.480367 kJ/mol
# Density = 2.078157 g / cm^3
# Si number density = 20.828982 Si / 1000 Ang^3
#
#
#
# Elastic Constant Matrix: (Units=GPa)
#
#
# Indices 1 2 3 4 5 6 
#
# 1 68.8975 8.2788 11.7250 0.0000 16.2999 0.0009
# 2 8.2788 18.5934 9.5445 0.0015 1.6665 0.0003
# 3 11.7250 9.5445 43.9154 0.0005 10.6930 -0.0003
# 4 0.0000 0.0015 0.0005 18.0078 0.0001 3.9632
# 5 16.2999 1.6665 10.6930 0.0001 38.1433 -0.0023
# 6 0.0009 0.0003 -0.0003 3.9632 -0.0023 41.0174
#
#
#
# Elastic Compliance Matrix: (Units=1/GPa)
#
#
# Indices 1 2 3 4 5 6 
#
# 1 0.017090 -0.006190 -0.001615 0.000001 -0.006580 -0.000001
# 2 -0.006190 0.062823 -0.012854 -0.000005 0.003504 0.000000
# 3 -0.001615 -0.012854 0.027573 0.000000 -0.006478 0.000000
# 4 0.000001 -0.000005 0.000000 0.056738 -0.000001 -0.005482
# 5 -0.006580 0.003504 -0.006478 -0.000001 0.030692 0.000002
# 6 -0.000001 0.000000 0.000000 -0.005482 0.000002 0.024910
#
#
# Mechanical properties :
#
#
# Convention : Reuss Voigt Hill
#
# Bulk Modulus (GPa) = 15.11344 21.16699 18.14021
# Shear Modulus (GPa) = 17.65532 26.22422 21.93977
#
# Velocity S-wave (km/s) = 2.91457 3.55212 3.24902
# Velocity P-wave (km/s) = 4.31254 5.19690 4.77524
#
# Compressibility (1/GPa) = 0.06616629
#
# Stress axis : x y z
#
# Youngs Moduli (GPa) = 58.51483 15.91769 36.26686
#
# Poissons Ratio (x) = 0.09854 0.05858
# Poissons Ratio (y) = 0.36223 0.46619
# Poissons Ratio (z) = 0.09452 0.20461
#
# Static dielectric constant tensor:
#      x y z
#    x 1.752950 0.000000 -0.015620 
#    y 0.000000 1.695950 0.000000 
#    z -0.015620 0.000000 1.736510 
# 
# From -- ./inp_files/362933.got.cif
#   From: 2010.05.17/outbox.cif.g08.bks.cpg/sg12_182_cif.got.tgz:362933.got - 2010.06.03 13:09:07.
