data_PCOD9214396
_publ_section_title
;
Structure prediction by ZEFSAII (Michael W. Deem and Ramdas Pophale) SiO2 
 PCOD9214396
Probable space group: C 2/M
;
_chemical_formula_sum "Si O2"
_cell_formula_units_Z 48
_cell_length_a 9.817573
_cell_length_b 9.327855
_cell_length_c 26.136335
_cell_angle_alpha 90.000000
_cell_angle_beta 90.023260
_cell_angle_gamma 90.000000
_cell_volume 2393.484271
_symmetry_space_group_name_H-M "C 2/M"
_symmetry_group_IT_number 12
_symmetry_cell_setting 'monoclinic'
loop_
_space_group_symop_operation_xyz
x,y,z
-x,y,-z
-x,-y,-z
x,-y,z
1/2+x,1/2+y,z
1/2-x,1/2+y,-z
1/2-x,1/2-y,-z
1/2+x,1/2-y,z
loop_
_atom_site_type_symbol
_atom_site_label
_atom_site_fract_x
_atom_site_fract_y
_atom_site_fract_z
Si Si1 0.065217 0.330634 0.609824
Si Si2 0.790251 0.669716 0.551804
Si Si3 0.290404 0.167942 0.221092
Si Si4 0.563188 0.667918 0.054700
Si Si5 0.286761 0.667580 0.115075
Si Si6 0.567287 0.167667 0.280779
O O1 0.102029 0.500000 0.610045
O O2 0.947077 0.308708 0.567647
O O3 0.193872 0.234781 0.595796
O O4 0.997716 0.296615 0.664354
O O5 0.767762 0.500000 0.546639
O O6 0.750000 0.750000 0.500000
O O7 0.268072 0.250461 0.168241
O O8 0.445790 0.183227 0.239720
O O9 0.191991 0.234722 0.263856
O O10 0.260899 0.000000 0.214679
O O11 0.603572 0.500000 0.051473
O O12 0.441677 0.680872 0.095760
O O13 0.688265 0.763313 0.072824
O O14 0.500000 0.709147 0.000000
O O15 0.255064 0.500000 0.121356
O O16 0.608716 0.000000 0.282371
#
# Coordination Sequence:
#
# PCOD9214396 Si02
#       6
#     8   8   8   8   8   8
#     4  10  22  40  60  85 117 150 189 238 288 341
#     4  11  23  38  59  86 116 153 194 237 287 342
#     4  11  23  38  59  86 115 150 191 235 284 339
#     4  10  22  40  61  87 118 151 191 239 288 340
#     4  11  23  38  59  86 116 153 193 234 284 340
#     4  10  22  40  61  86 116 150 190 237 288 342
#
# _framework density 20.054447
#
# number of rings (size 3 to 8) (size 9 to 14) (size 15 to 20)
#    0.000    1.500    0.000    4.500    0.000    9.667 
#    0.000    0.000    0.000    0.000    0.000    0.000 
#    0.000    0.000    0.000    0.000    0.000    0.000 
#
# Total GULP energy -134268.720094 kJ/mol
# GULP energy per Si atom -5594.530004 kJ/mol
# Density = 2.000880 g / cm^3
# Si number density = 20.054447 Si / 1000 Ang^3
#
#
#
# Elastic Constant Matrix: (Units=GPa)
#
#
# Indices 1 2 3 4 5 6 
#
# 1 41.0197 31.3918 -16.0037 0.0000 -3.9852 0.0000
# 2 31.3918 66.2582 8.5557 0.0000 -0.3108 0.0000
# 3 -16.0037 8.5557 57.1874 0.0000 2.5779 0.0000
# 4 0.0000 0.0000 0.0000 34.4999 0.0000 -2.7002
# 5 -3.9852 -0.3108 2.5779 0.0000 23.4986 0.0000
# 6 0.0000 0.0000 0.0000 -2.7002 0.0000 28.5343
#
#
#
# Elastic Compliance Matrix: (Units=1/GPa)
#
#
# Indices 1 2 3 4 5 6 
#
# 1 0.053725 -0.027863 0.018903 0.000000 0.006669 0.000000
# 2 -0.027863 0.029845 -0.012127 0.000000 -0.003000 0.000000
# 3 0.018903 -0.012127 0.024575 0.000000 0.000349 0.000000
# 4 0.000000 0.000000 0.000000 0.029202 0.000000 0.002763
# 5 0.006669 -0.003000 0.000349 0.000000 0.043609 0.000000
# 6 0.000000 0.000000 0.000000 0.002763 0.000000 0.035307
#
#
# Mechanical properties :
#
#
# Convention : Reuss Voigt Hill
#
# Bulk Modulus (GPa) = 15.15863 23.59476 19.37669
# Shear Modulus (GPa) = 17.82989 26.67467 22.25228
#
# Velocity S-wave (km/s) = 2.98497 3.65103 3.33467
# Velocity P-wave (km/s) = 4.41080 5.43730 4.95073
#
# Compressibility (1/GPa) = 0.06596903
#
# Stress axis : x y z
#
# Youngs Moduli (GPa) = 18.61343 33.50600 40.69208
#
# Poissons Ratio (x) = 0.93359 -0.76919
# Poissons Ratio (y) = 0.51863 0.49349
# Poissons Ratio (z) = -0.35184 0.40634
#
# Static dielectric constant tensor:
#      x y z
#    x 1.679700 0.000000 -0.000740 
#    y 0.000000 1.664420 0.000000 
#    z -0.000740 0.000000 1.718870 
# 
# From -- ./inp_files/357329.got.cif
#   From: 2010.05.17/outbox.cif.g08.bks.cpg/sg12_179_cif.got.tgz:357329.got - 2010.06.03 13:09:07.
