data_PCOD9214646
_publ_section_title
;
Structure prediction by ZEFSAII (Michael W. Deem and Ramdas Pophale) SiO2 
 PCOD9214646
Probable space group: C 2/M
;
_chemical_formula_sum "Si O2"
_cell_formula_units_Z 48
_cell_length_a 13.679486
_cell_length_b 15.517284
_cell_length_c 11.915905
_cell_angle_alpha 90.000000
_cell_angle_beta 67.571423
_cell_angle_gamma 90.000000
_cell_volume 2338.038814
_symmetry_space_group_name_H-M "C 2/M"
_symmetry_group_IT_number 12
_symmetry_cell_setting 'monoclinic'
loop_
_space_group_symop_operation_xyz
x,y,z
-x,y,-z
-x,-y,-z
x,-y,z
1/2+x,1/2+y,z
1/2-x,1/2+y,-z
1/2-x,1/2-y,-z
1/2+x,1/2-y,z
loop_
_atom_site_type_symbol
_atom_site_label
_atom_site_fract_x
_atom_site_fract_y
_atom_site_fract_z
Si Si1 0.786728 0.841048 0.378805
Si Si2 0.217649 0.652006 0.043368
Si Si3 0.640601 0.849162 0.620142
Si Si4 0.409020 0.401485 0.112697
Si Si5 0.900737 0.401326 0.111012
Si Si6 0.904406 0.603772 0.692471
O O1 0.740583 0.889262 0.509233
O O2 0.838184 0.752504 0.399567
O O3 0.873000 0.872227 0.251167
O O4 0.677995 0.844301 0.350750
O O5 0.192647 0.605864 0.938014
O O6 0.250000 0.750000 0.000000
O O7 0.309095 0.607470 0.074985
O O8 0.119128 0.639107 0.171470
O O9 0.634714 0.863881 0.755522
O O10 0.528770 0.880254 0.618905
O O11 0.440228 0.500000 0.115674
O O12 0.500000 0.355530 0.000000
O O13 0.930143 0.500000 0.122681
O O14 0.000000 0.360919 0.000000
O O15 0.883170 0.500000 0.694866
#
# Coordination Sequence:
#
# PCOD9214646 Si02
#       6
#     8   8   8   8   8   8
#     4  10  23  40  59  90 127 157 205 256 306 367
#     4  11  22  35  59  89 122 157 197 251 304 362
#     4  11  23  38  60  91 126 165 197 249 317 368
#     4  10  22  40  63  86 113 157 208 252 294 356
#     4  11  21  35  57  87 122 154 191 243 307 369
#     4  11  22  40  66  93 121 161 213 261 307 363
#
# _framework density 20.530028000000001
#
# number of rings (size 3 to 8) (size 9 to 14) (size 15 to 20)
#    0.000    1.333    1.667    6.000    2.333    4.667 
#    0.000    0.000    0.000    0.000    0.000    3.500 
#    0.000    0.000    0.000    0.000    0.000    0.000 
#
# Total GULP energy -133640.111594 kJ/mol
# GULP energy per Si atom -5568.337983 kJ/mol
# Density = 2.048330 g / cm^3
# Si number density = 20.530028 Si / 1000 Ang^3
#
#
#
# Elastic Constant Matrix: (Units=GPa)
#
#
# Indices 1 2 3 4 5 6 
#
# 1 32.7966 5.8817 22.8543 0.0000 -4.8161 0.0000
# 2 5.8817 60.3305 1.8683 0.0000 -13.4884 0.0000
# 3 22.8543 1.8683 159.9154 0.0000 -26.4870 0.0000
# 4 0.0000 0.0000 0.0000 34.5354 0.0000 6.8363
# 5 -4.8161 -13.4884 -26.4870 0.0000 41.2603 0.0000
# 6 0.0000 0.0000 0.0000 6.8363 0.0000 29.4124
#
#
#
# Elastic Compliance Matrix: (Units=1/GPa)
#
#
# Indices 1 2 3 4 5 6 
#
# 1 0.034475 -0.003253 -0.004922 0.000000 -0.000199 0.000000
# 2 -0.003253 0.018293 0.001319 0.000000 0.006447 0.000000
# 3 -0.004922 0.001319 0.007741 0.000000 0.004826 0.000000
# 4 0.000000 0.000000 0.000000 0.030352 0.000000 -0.007055
# 5 -0.000199 0.006447 0.004826 0.000000 0.029419 0.000000
# 6 0.000000 0.000000 0.000000 -0.007055 0.000000 0.035639
#
#
# Mechanical properties :
#
#
# Convention : Reuss Voigt Hill
#
# Bulk Modulus (GPa) = 21.36902 34.91680 28.14291
# Shear Modulus (GPa) = 26.99353 35.87084 31.43219
#
# Velocity S-wave (km/s) = 3.62999 4.18453 3.91709
# Velocity P-wave (km/s) = 5.29154 6.35544 5.84774
#
# Compressibility (1/GPa) = 0.04679673
#
# Stress axis : x y z
#
# Youngs Moduli (GPa) = 29.00653 54.66542 129.18861
#
# Poissons Ratio (x) = 0.17783 0.63586
# Poissons Ratio (y) = 0.09436 -0.17041
# Poissons Ratio (z) = 0.14277 -0.07211
#
# Static dielectric constant tensor:
#      x y z
#    x 1.757910 0.000000 -0.056360 
#    y 0.000000 1.773140 0.000000 
#    z -0.056360 0.000000 1.865120 
# 
# From -- ./inp_files/143541.got.cif
#   From: 2010.05.17/outbox.cif.g08.bks.cpg/sg12_72_cif.got.tgz:143541.got - 2010.06.03 13:09:07.
