data_PCOD9214787
_publ_section_title
;
Structure prediction by ZEFSAII (Michael W. Deem and Ramdas Pophale) SiO2 
 PCOD9214787
Probable space group: C 2/M
;
_chemical_formula_sum "Si O2"
_cell_formula_units_Z 48
_cell_length_a 14.439401
_cell_length_b 8.533738
_cell_length_c 27.234312
_cell_angle_alpha 90.000000
_cell_angle_beta 40.450605
_cell_angle_gamma 90.000000
_cell_volume 2177.261280
_symmetry_space_group_name_H-M "C 2/M"
_symmetry_group_IT_number 12
_symmetry_cell_setting 'monoclinic'
loop_
_space_group_symop_operation_xyz
x,y,z
-x,y,-z
-x,-y,-z
x,-y,z
1/2+x,1/2+y,z
1/2-x,1/2+y,-z
1/2-x,1/2-y,-z
1/2+x,1/2-y,z
loop_
_atom_site_type_symbol
_atom_site_label
_atom_site_fract_x
_atom_site_fract_y
_atom_site_fract_z
Si Si1 0.156423 0.685846 0.785805
Si Si2 0.181362 0.681581 0.372912
Si Si3 0.179393 0.184059 0.179354
Si Si4 0.591995 0.319020 0.558786
Si Si5 0.680145 0.186780 0.077644
Si Si6 0.575524 0.820850 0.665218
O O1 0.174116 0.500000 0.766672
O O2 0.240330 0.782891 0.710622
O O3 0.219700 0.711851 0.814567
O O4 0.989081 0.723479 0.854315
O O5 0.195757 0.500000 0.379919
O O6 0.267780 0.783358 0.377586
O O7 0.017001 0.728114 0.432073
O O8 0.242142 0.234970 0.101897
O O9 0.037648 0.286197 0.246542
O O10 0.142332 0.000000 0.192973
O O11 0.595405 0.500000 0.544178
O O12 0.750000 0.250000 0.500000
O O13 0.535625 0.294620 0.637106
O O14 0.696538 0.000000 0.073604
O O15 0.750000 0.250000 0.000000
O O16 0.565533 0.000000 0.652410
#
# Coordination Sequence:
#
# PCOD9214787 Si02
#       6
#     8   8   8   8   8   8
#     4  10  22  40  64  92 128 169 213 264 322 384
#     4  12  24  40  67  99 130 171 219 266 320 385
#     4  11  22  39  65  95 126 166 215 266 322 384
#     4  12  26  46  68  97 135 172 215 269 328 385
#     4  11  24  42  63  91 130 171 214 269 330 385
#     4  12  24  41  66  98 132 171 218 267 321 383
#
# _framework density 22.046046
#
# number of rings (size 3 to 8) (size 9 to 14) (size 15 to 20)
#    0.000    0.667    3.333    5.500    0.000    2.667 
#    0.000    6.667    0.000    0.000    0.000    0.000 
#    0.000    0.000    0.000    0.000    0.000    0.000 
#
# Total GULP energy -134418.124324 kJ/mol
# GULP energy per Si atom -5600.755180 kJ/mol
# Density = 2.199587 g / cm^3
# Si number density = 22.046046 Si / 1000 Ang^3
#
#
#
# Elastic Constant Matrix: (Units=GPa)
#
#
# Indices 1 2 3 4 5 6 
#
# 1 78.1370 6.2312 -2.8047 0.0000 -0.9794 0.0002
# 2 6.2312 83.1846 5.8022 0.0000 -8.2034 0.0003
# 3 -2.8047 5.8022 55.6449 0.0000 6.5717 0.0000
# 4 0.0000 0.0000 0.0000 34.2616 0.0000 1.8303
# 5 -0.9794 -8.2034 6.5717 0.0000 31.8252 0.0000
# 6 0.0002 0.0003 0.0000 1.8303 0.0000 31.2191
#
#
#
# Elastic Compliance Matrix: (Units=1/GPa)
#
#
# Indices 1 2 3 4 5 6 
#
# 1 0.012907 -0.001022 0.000760 0.000000 -0.000023 0.000000
# 2 -0.001022 0.012575 -0.001785 0.000000 0.003579 0.000000
# 3 0.000760 -0.001785 0.018703 0.000000 -0.004299 0.000000
# 4 0.000000 0.000000 0.000000 0.029279 0.000000 -0.001717
# 5 -0.000023 0.003579 -0.004299 0.000000 0.033231 0.000000
# 6 0.000000 0.000000 0.000000 -0.001717 0.000000 0.032132
#
#
# Mechanical properties :
#
#
# Convention : Reuss Voigt Hill
#
# Bulk Modulus (GPa) = 24.94394 26.15823 25.55108
# Shear Modulus (GPa) = 31.99259 33.31037 32.65148
#
# Velocity S-wave (km/s) = 3.81356 3.89130 3.85263
# Velocity P-wave (km/s) = 5.54346 5.66398 5.60405
#
# Compressibility (1/GPa) = 0.04008990
#
# Stress axis : x y z
#
# Youngs Moduli (GPa) = 77.48017 79.51988 53.46656
#
# Poissons Ratio (x) = 0.08128 -0.04063
# Poissons Ratio (y) = 0.07919 0.09546
# Poissons Ratio (z) = -0.05887 0.14198
#
# Static dielectric constant tensor:
#      x y z
#    x 1.811820 0.000000 0.015580 
#    y 0.000000 1.750850 0.000000 
#    z 0.015580 0.000000 1.856790 
# 
# From -- ./inp_files/360233.got.cif
#   From: 2010.05.17/outbox.cif.g08.bks.cpg/sg12_181_cif.got.tgz:360233.got - 2010.06.03 13:09:07.
