data_PCOD9214672
_publ_section_title
;
Structure prediction by ZEFSAII (Michael W. Deem and Ramdas Pophale) SiO2 
 PCOD9214672
Probable space group: C 2/M
;
_chemical_formula_sum "Si O2"
_cell_formula_units_Z 56
_cell_length_a 19.999412
_cell_length_b 19.137562
_cell_length_c 15.237177
_cell_angle_alpha 90.000000
_cell_angle_beta 26.369700
_cell_angle_gamma 90.000000
_cell_volume 2590.294817
_symmetry_space_group_name_H-M "C 2/M"
_symmetry_group_IT_number 12
_symmetry_cell_setting 'monoclinic'
loop_
_space_group_symop_operation_xyz
x,y,z
-x,y,-z
-x,-y,-z
x,-y,z
1/2+x,1/2+y,z
1/2-x,1/2+y,-z
1/2-x,1/2-y,-z
1/2+x,1/2-y,z
loop_
_atom_site_type_symbol
_atom_site_label
_atom_site_fract_x
_atom_site_fract_y
_atom_site_fract_z
Si Si1 0.185853 0.195594 0.869895
Si Si2 0.623607 0.323164 0.558469
Si Si3 0.121503 0.416891 0.280871
Si Si4 0.595144 0.083264 0.110687
Si Si5 0.373738 0.674132 0.716282
Si Si6 0.150069 0.804544 0.715889
Si Si7 0.875500 0.582738 0.216923
O O1 0.232236 0.130049 0.874318
O O2 0.304297 0.256509 0.752693
O O3 0.182821 0.166347 0.773884
O O4 0.019425 0.226814 0.080484
O O5 0.464116 0.310853 0.700621
O O6 0.718582 0.251928 0.448062
O O7 0.631524 0.349592 0.649683
O O8 0.721835 0.376611 0.386343
O O9 0.150577 0.500000 0.252024
O O10 0.068595 0.400651 0.244199
O O11 0.000000 0.399518 0.500000
O O12 0.449193 0.099175 0.224251
O O13 0.622666 0.000000 0.070585
O O14 0.737229 0.123563 0.902924
O O15 0.500000 0.646635 0.500000
O O16 0.852740 0.500000 0.235627
O O17 0.000000 0.604285 0.000000
#
# Coordination Sequence:
#
# PCOD9214672 Si02
#       7
#     8   8   8   8   8   8   8
#     4  11  23  43  64  90 126 164 209 257 314 374
#     4  11  23  38  60  92 125 161 207 257 312 365
#     4  10  23  42  67  94 124 162 211 265 314 371
#     4  10  23  41  63  92 128 169 211 255 315 377
#     4  12  23  38  65  97 127 164 209 263 315 373
#     4  10  24  40  60  90 124 164 203 257 313 369
#     4  10  22  40  63  90 126 170 209 252 309 380
#
# _framework density 21.619161999999999
#
# number of rings (size 3 to 8) (size 9 to 14) (size 15 to 20)
#    0.000    1.429    1.429    3.000    4.000    4.286 
#    0.000    2.143    0.000    0.000    0.000    0.000 
#    0.000    0.000    0.000    0.000    0.000    0.000 
#
# Total GULP energy -156332.599739 kJ/mol
# GULP energy per Si atom -5583.307134 kJ/mol
# Density = 2.156996 g / cm^3
# Si number density = 21.619162 Si / 1000 Ang^3
#
#
#
# Elastic Constant Matrix: (Units=GPa)
#
#
# Indices 1 2 3 4 5 6 
#
# 1 146.2167 21.6333 20.7397 -0.0022 -7.0959 0.0015
# 2 21.6333 30.5713 13.9743 -0.0001 -6.2617 -0.0002
# 3 20.7397 13.9743 66.8486 0.0002 -11.0267 0.0004
# 4 -0.0022 -0.0001 0.0002 -87.3407 -0.0053 38.7998
# 5 -7.0959 -6.2617 -11.0267 -0.0053 40.2624 0.0024
# 6 0.0015 -0.0002 0.0004 38.7998 0.0024 6.8826
#
#
#
# Elastic Compliance Matrix: (Units=1/GPa)
#
#
# Indices 1 2 3 4 5 6 
#
# 1 0.007757 -0.004817 -0.001359 0.000000 0.000246 0.000000
# 2 -0.004817 0.039699 -0.006206 0.000000 0.003625 0.000001
# 3 -0.001359 -0.006206 0.017259 0.000000 0.003522 0.000000
# 4 0.000000 0.000000 0.000000 -0.003267 -0.000002 0.018419
# 5 0.000246 0.003625 0.003522 -0.000002 0.026409 0.000000
# 6 0.000000 0.000001 0.000000 0.018419 0.000000 0.041461
#
#
# Mechanical properties :
#
#
# Convention : Reuss Voigt Hill
#
# Bulk Modulus (GPa) = 25.03157 39.59236 32.31196
# Shear Modulus (GPa) = 29.86877 4.44682 17.15779
#
# Velocity S-wave (km/s) = 3.72100 1.43574 2.82021
# Velocity P-wave (km/s) = 5.48313 4.59367 5.05799
#
# Compressibility (1/GPa) = 0.03994956
#
# Stress axis : x y z
#
# Youngs Moduli (GPa) = 128.92288 25.18966 57.94033
#
# Poissons Ratio (x) = 0.12135 0.07874
# Poissons Ratio (y) = 0.62106 0.35959
# Poissons Ratio (z) = 0.17519 0.15633
#
# Static dielectric constant tensor:
#      x y z
#    x 1.834400 0.000000 0.064830 
#    y 0.000000 1.746490 0.000000 
#    z 0.064830 0.000000 1.815300 
# 
# From -- ./inp_files/227585.got.cif
#   From: 2010.05.17/outbox.cif.g08.bks.cpg/sg12_114_cif.got.tgz:227585.got - 2010.06.03 13:09:07.
