data_PCOD9214252
_publ_section_title
;
Structure prediction by ZEFSAII (Michael W. Deem and Ramdas Pophale) SiO2 
 PCOD9214252
Probable space group: C 2/M
;
_chemical_formula_sum "Si O2"
_cell_formula_units_Z 40
_cell_length_a 12.881595
_cell_length_b 14.359886
_cell_length_c 9.266745
_cell_angle_alpha 90.000000
_cell_angle_beta 105.845224
_cell_angle_gamma 90.000000
_cell_volume 1649.013354
_symmetry_space_group_name_H-M "C 2/M"
_symmetry_group_IT_number 12
_symmetry_cell_setting 'monoclinic'
loop_
_space_group_symop_operation_xyz
x,y,z
-x,y,-z
-x,-y,-z
x,-y,z
1/2+x,1/2+y,z
1/2-x,1/2+y,-z
1/2-x,1/2-y,-z
1/2+x,1/2-y,z
loop_
_atom_site_type_symbol
_atom_site_label
_atom_site_fract_x
_atom_site_fract_y
_atom_site_fract_z
Si Si1 0.409399 0.396891 0.871628
Si Si2 0.619636 0.107524 0.265890
Si Si3 0.237215 0.611388 0.601953
Si Si4 0.281116 0.652648 0.082243
Si Si5 0.056522 0.258288 0.670860
O O1 0.451665 0.500000 0.849538
O O2 0.353129 0.357326 0.708095
O O3 0.500000 0.345103 0.000000
O O4 0.316222 0.405074 0.956729
O O5 0.710002 0.126002 0.424425
O O6 0.524040 0.179931 0.261064
O O7 0.582793 0.000000 0.270388
O O8 0.318744 0.117766 0.861494
O O9 0.230185 0.500000 0.625191
O O10 0.148446 0.668837 0.654854
O O11 0.383378 0.674187 0.225080
O O12 0.250000 0.750000 0.000000
O O13 0.000000 0.228820 0.500000
#
# Coordination Sequence:
#
# PCOD9214252 Si02
#       5
#     8   8   8   8   8
#     4  10  22  40  62  85 122 169 210 252 311 376
#     4  10  23  43  68  93 125 166 214 258 308 379
#     4   9  18  39  65  91 123 165 212 257 307 372
#     4  12  25  39  59  93 131 163 202 260 314 367
#     4  10  22  39  65  96 127 166 206 259 318 372
#
# _framework density 24.256930000000001
#
# number of rings (size 3 to 8) (size 9 to 14) (size 15 to 20)
#    0.000    1.800    2.000    1.200    2.800    7.200 
#    0.000    1.000    0.000    6.000    0.000    0.000 
#    0.000    0.000    0.000    0.000    0.000    0.000 
#
# Total GULP energy -111802.078837 kJ/mol
# GULP energy per Si atom -5590.103942 kJ/mol
# Density = 2.420172 g / cm^3
# Si number density = 24.256930 Si / 1000 Ang^3
#
#
#
# Elastic Constant Matrix: (Units=GPa)
#
#
# Indices 1 2 3 4 5 6 
#
# 1 54.0069 3.7271 -7.6797 0.0000 -16.0467 0.0000
# 2 3.7271 80.7036 3.9380 0.0000 -3.0559 0.0000
# 3 -7.6797 3.9380 63.8664 0.0000 14.3194 0.0000
# 4 0.0000 0.0000 0.0000 25.8297 0.0000 -4.2023
# 5 -16.0467 -3.0559 14.3194 0.0000 41.3287 0.0000
# 6 0.0000 0.0000 0.0000 -4.2023 0.0000 31.2664
#
#
#
# Elastic Compliance Matrix: (Units=1/GPa)
#
#
# Indices 1 2 3 4 5 6 
#
# 1 0.021005 -0.000714 0.000817 0.000000 0.007820 0.000000
# 2 -0.000714 0.012516 -0.001087 0.000000 0.001025 0.000000
# 3 0.000817 -0.001087 0.017098 0.000000 -0.005687 0.000000
# 4 0.000000 0.000000 0.000000 0.039581 0.000000 0.005320
# 5 0.007820 0.001025 -0.005687 0.000000 0.029279 0.000000
# 6 0.000000 0.000000 0.000000 0.005320 0.000000 0.032698
#
#
# Mechanical properties :
#
#
# Convention : Reuss Voigt Hill
#
# Bulk Modulus (GPa) = 20.55516 22.06085 21.30801
# Shear Modulus (GPa) = 29.34917 32.92439 31.13678
#
# Velocity S-wave (km/s) = 3.48218 3.68818 3.58666
# Velocity P-wave (km/s) = 4.96586 5.22028 5.09465
#
# Compressibility (1/GPa) = 0.04864958
#
# Stress axis : x y z
#
# Youngs Moduli (GPa) = 47.60773 79.89861 58.48606
#
# Poissons Ratio (x) = 0.05703 -0.04775
# Poissons Ratio (y) = 0.03398 0.06360
# Poissons Ratio (z) = -0.03887 0.08688
#
# Static dielectric constant tensor:
#      x y z
#    x 1.962750 0.000000 0.028170 
#    y 0.000000 1.956070 0.000000 
#    z 0.028170 0.000000 1.975940 
# 
# From -- ./inp_files/143345.got.cif
#   From: 2010.05.17/outbox.cif.g08.bks.cpg/sg12_72_cif.got.tgz:143345.got - 2010.06.03 13:09:07.
