data_PCOD9214438
_publ_section_title
;
Structure prediction by ZEFSAII (Michael W. Deem and Ramdas Pophale) SiO2 
 PCOD9214438
Probable space group: C 2/M
;
_chemical_formula_sum "Si O2"
_cell_formula_units_Z 56
_cell_length_a 29.960867
_cell_length_b 19.369675
_cell_length_c 8.464783
_cell_angle_alpha 90.000000
_cell_angle_beta 147.804072
_cell_angle_gamma 90.000000
_cell_volume 2617.398857
_symmetry_space_group_name_H-M "C 2/M"
_symmetry_group_IT_number 12
_symmetry_cell_setting 'monoclinic'
loop_
_space_group_symop_operation_xyz
x,y,z
-x,y,-z
-x,-y,-z
x,-y,z
1/2+x,1/2+y,z
1/2-x,1/2+y,-z
1/2-x,1/2-y,-z
1/2+x,1/2-y,z
loop_
_atom_site_type_symbol
_atom_site_label
_atom_site_fract_x
_atom_site_fract_y
_atom_site_fract_z
Si Si1 0.950818 0.419148 0.597740
Si Si2 0.734449 0.670047 0.427089
Si Si3 0.925689 0.869490 0.879384
Si Si4 0.549091 0.574129 0.484130
Si Si5 0.677979 0.825439 0.640431
Si Si6 0.829833 0.164777 0.314470
Si Si7 0.871022 0.419052 0.009178
O O1 0.943038 0.500000 0.617518
O O2 0.905094 0.369889 0.584431
O O3 0.905113 0.410170 0.289935
O O4 0.048262 0.403434 0.859227
O O5 0.750000 0.750000 0.500000
O O6 0.636184 0.660074 0.171780
O O7 0.769020 0.654692 0.355600
O O8 0.793915 0.627466 0.724322
O O9 0.859130 0.885867 0.542459
O O10 0.000000 0.830490 0.000000
O O11 0.981342 0.923906 0.139746
O O12 0.500000 0.578386 0.500000
O O13 0.594933 0.500000 0.617775
O O14 0.607373 0.640609 0.635109
O O15 0.660414 0.743100 0.594028
O O16 0.737917 0.840536 0.969639
O O17 0.850026 0.500000 0.927481
#
# Coordination Sequence:
#
# PCOD9214438 Si02
#       7
#     8   8   8   8   8   8   8
#     4   9  20  42  68  97 126 167 220 265 321 391
#     4  12  24  40  64  94 133 170 212 264 324 390
#     4  10  22  41  64  91 126 164 213 262 315 385
#     4  10  22  42  66  93 127 169 220 273 323 378
#     4  11  23  39  63  93 133 171 214 270 322 382
#     4  10  22  40  60  90 130 168 218 259 320 383
#     4   9  21  42  67  95 130 168 213 266 324 384
#
# _framework density 21.395287
#
# number of rings (size 3 to 8) (size 9 to 14) (size 15 to 20)
#    0.000    1.857    1.429    2.571    2.000    7.143 
#    2.571    2.857    0.000    0.000    0.000    0.000 
#    0.000    0.000    0.000    0.000    0.000    0.000 
#
# Total GULP energy -156004.737956 kJ/mol
# GULP energy per Si atom -5571.597784 kJ/mol
# Density = 2.134659 g / cm^3
# Si number density = 21.395287 Si / 1000 Ang^3
#
#
#
# Elastic Constant Matrix: (Units=GPa)
#
#
# Indices 1 2 3 4 5 6 
#
# 1 125.7697 37.0081 18.0464 0.0000 31.7738 0.0000
# 2 37.0081 44.1669 33.9040 0.0000 28.4761 0.0000
# 3 18.0464 33.9040 83.7649 0.0000 9.3504 0.0000
# 4 0.0000 0.0000 0.0000 17.5279 0.0000 14.3889
# 5 31.7738 28.4761 9.3504 0.0000 43.8894 0.0000
# 6 0.0000 0.0000 0.0000 14.3889 0.0000 16.0552
#
#
#
# Elastic Compliance Matrix: (Units=1/GPa)
#
#
# Indices 1 2 3 4 5 6 
#
# 1 0.010930 -0.008462 0.001373 0.000000 -0.002715 0.000000
# 2 -0.008462 0.068224 -0.022058 0.000000 -0.033439 0.000000
# 3 0.001373 -0.022058 0.019549 0.000000 0.009153 0.000000
# 4 0.000000 0.000000 0.000000 0.215870 0.000000 -0.193466
# 5 -0.002715 -0.033439 0.009153 0.000000 0.044496 0.000000
# 6 0.000000 0.000000 0.000000 -0.193466 0.000000 0.235672
#
#
# Mechanical properties :
#
#
# Convention : Reuss Voigt Hill
#
# Bulk Modulus (GPa) = 24.74689 47.95759 36.35224
# Shear Modulus (GPa) = 7.50182 26.47736 16.98959
#
# Velocity S-wave (km/s) = 1.87454 3.52167 2.82100
# Velocity P-wave (km/s) = 4.03446 6.24499 5.25722
#
# Compressibility (1/GPa) = 0.04040912
#
# Stress axis : x y z
#
# Youngs Moduli (GPa) = 91.49232 14.65757 51.15448
#
# Poissons Ratio (x) = 0.12403 -0.07026
# Poissons Ratio (y) = 0.77422 1.12837
# Poissons Ratio (z) = -0.12565 0.32332
#
# Static dielectric constant tensor:
#      x y z
#    x 1.870500 0.000000 -0.014100 
#    y 0.000000 1.751180 0.000000 
#    z -0.014100 0.000000 1.777830 
# 
# From -- ./inp_files/113384.got.cif
#   From: 2010.05.17/outbox.cif.g08.bks.cpg/sg12_57_cif.got.tgz:113384.got - 2010.06.03 13:09:07.
