data_PCOD9214662
_publ_section_title
;
Structure prediction by ZEFSAII (Michael W. Deem and Ramdas Pophale) SiO2 
 PCOD9214662
Probable space group: C 2/M
;
_chemical_formula_sum "Si O2"
_cell_formula_units_Z 64
_cell_length_a 34.800355
_cell_length_b 8.836931
_cell_length_c 15.599747
_cell_angle_alpha 90.000000
_cell_angle_beta 43.596685
_cell_angle_gamma 90.000000
_cell_volume 3308.155125
_symmetry_space_group_name_H-M "C 2/M"
_symmetry_group_IT_number 12
_symmetry_cell_setting 'monoclinic'
loop_
_space_group_symop_operation_xyz
x,y,z
-x,y,-z
-x,-y,-z
x,-y,z
1/2+x,1/2+y,z
1/2-x,1/2+y,-z
1/2-x,1/2-y,-z
1/2+x,1/2-y,z
loop_
_atom_site_type_symbol
_atom_site_label
_atom_site_fract_x
_atom_site_fract_y
_atom_site_fract_z
Si Si1 0.207033 0.181638 0.000534
Si Si2 0.257080 0.182498 0.735267
Si Si3 0.883541 0.681503 0.570936
Si Si4 0.599189 0.819606 0.256516
Si Si5 0.917395 0.319143 0.156020
Si Si6 0.518079 0.319459 0.098421
Si Si7 0.289042 0.180746 0.364349
Si Si8 0.497289 0.680074 0.328581
O O1 0.226882 0.224329 0.873050
O O2 0.208550 0.000000 0.004087
O O3 0.250000 0.250000 0.000000
O O4 0.145906 0.241321 0.122488
O O5 0.322344 0.224568 0.636750
O O6 0.229021 0.256934 0.698714
O O7 0.254321 0.000000 0.731903
O O8 0.889550 0.500000 0.551342
O O9 0.887633 0.715722 0.665660
O O10 0.934488 0.762507 0.441977
O O11 0.538489 0.761121 0.328291
O O12 0.602316 0.000000 0.241085
O O13 0.925115 0.500000 0.149834
O O14 0.960020 0.237086 0.151178
O O15 0.853590 0.280800 0.277096
O O16 0.934791 0.263890 0.033078
O O17 0.523188 0.500000 0.078660
O O18 0.518221 0.285168 0.198668
O O19 0.250000 0.250000 0.500000
O O20 0.284180 0.000000 0.372958
O O21 0.499623 0.500000 0.337306
#
# Coordination Sequence:
#
# PCOD9214662 Si02
#       8
#     8   8   8   8   8   8   8   8
#     4  11  22  40  65  95 129 168 211 259 314 372
#     4  10  23  43  65  92 127 167 210 257 311 373
#     4  10  22  42  63  87 122 166 209 251 307 368
#     4  11  23  41  63  90 125 167 210 255 309 367
#     4  10  22  41  64  90 120 154 201 251 300 363
#     4  10  22  40  63  90 120 157 198 248 311 367
#     4  11  26  44  65  96 128 164 208 256 313 373
#     4  11  25  40  59  93 125 158 207 258 308 365
#
# _framework density 19.346129999999999
#
# number of rings (size 3 to 8) (size 9 to 14) (size 15 to 20)
#    0.000    1.500    1.250    3.375    3.500    8.000 
#    0.000    0.000    0.000    0.000    0.000    0.000 
#    0.000    0.000    0.000    0.000    0.000    0.000 
#
# Total GULP energy -178950.186770 kJ/mol
# GULP energy per Si atom -5592.193337 kJ/mol
# Density = 1.930210 g / cm^3
# Si number density = 19.346130 Si / 1000 Ang^3
#
#
#
# Elastic Constant Matrix: (Units=GPa)
#
#
# Indices 1 2 3 4 5 6 
#
# 1 28.5456 7.5037 7.3599 0.0000 3.2619 0.0000
# 2 7.5037 24.4268 17.4990 0.0000 3.5084 -0.0001
# 3 7.3599 17.4990 76.9986 0.0000 -7.4500 0.0000
# 4 0.0000 0.0000 0.0000 35.1765 0.0000 -3.2480
# 5 3.2619 3.5084 -7.4500 0.0000 29.4845 0.0000
# 6 0.0000 -0.0001 0.0000 -3.2480 0.0000 31.0089
#
#
#
# Elastic Compliance Matrix: (Units=1/GPa)
#
#
# Indices 1 2 3 4 5 6 
#
# 1 0.038531 -0.010097 -0.001727 0.000000 -0.003497 0.000000
# 2 -0.010097 0.053904 -0.012093 0.000000 -0.008353 0.000000
# 3 -0.001727 -0.012093 0.016461 0.000000 0.005789 0.000000
# 4 0.000000 0.000000 0.000000 0.028706 0.000000 0.003007
# 5 -0.003497 -0.008353 0.005789 0.000000 0.036760 0.000000
# 6 0.000000 0.000000 0.000000 0.003007 0.000000 0.032564
#
#
# Mechanical properties :
#
#
# Convention : Reuss Voigt Hill
#
# Bulk Modulus (GPa) = 16.37709 21.63292 19.00500
# Shear Modulus (GPa) = 18.17440 25.64120 21.90780
#
# Velocity S-wave (km/s) = 3.06834 3.64454 3.36878
# Velocity P-wave (km/s) = 4.58657 5.37741 4.99766
#
# Compressibility (1/GPa) = 0.06106092
#
# Stress axis : x y z
#
# Youngs Moduli (GPa) = 25.95330 18.55165 60.75030
#
# Poissons Ratio (x) = 0.18732 0.10489
# Poissons Ratio (y) = 0.26205 0.73468
# Poissons Ratio (z) = 0.04481 0.22435
#
# Static dielectric constant tensor:
#      x y z
#    x 1.653110 0.000000 -0.003090 
#    y 0.000000 1.650260 0.000000 
#    z -0.003090 0.000000 1.661980 
# 
# From -- ./inp_files/249898.got.cif
#   From: 2010.05.17/outbox.cif.g08.bks.cpg/sg12_125_cif.got.tgz:249898.got - 2010.06.03 13:09:07.
