data_PCOD9214445
_publ_section_title
;
Structure prediction by ZEFSAII (Michael W. Deem and Ramdas Pophale) SiO2 
 PCOD9214445
Probable space group: C 2/M
;
_chemical_formula_sum "Si O2"
_cell_formula_units_Z 42
_cell_length_a 13.264238
_cell_length_b 13.394588
_cell_length_c 9.209021
_cell_angle_alpha 90.000000
_cell_angle_beta 103.604867
_cell_angle_gamma 90.000000
_cell_volume 1590.248673
_symmetry_space_group_name_H-M "C 2/M"
_symmetry_group_IT_number 12
_symmetry_cell_setting 'monoclinic'
loop_
_space_group_symop_operation_xyz
x,y,z
-x,y,-z
-x,-y,-z
x,-y,z
1/2+x,1/2+y,z
1/2-x,1/2+y,-z
1/2-x,1/2-y,-z
1/2+x,1/2-y,z
loop_
_atom_site_type_symbol
_atom_site_label
_atom_site_fract_x
_atom_site_fract_y
_atom_site_fract_z
Si Si1 0.067210 0.113933 0.875044
Si Si2 0.000000 0.000000 0.500000
Si Si3 0.760153 0.880128 0.854705
Si Si4 0.892002 0.820860 0.620224
Si Si5 0.534694 0.114918 0.864739
Si Si6 0.106375 0.393268 0.446996
O O1 0.003828 0.183026 0.743678
O O2 0.069107 0.000000 0.808275
O O3 0.178554 0.144874 0.975053
O O4 0.000000 0.104839 0.000000
O O5 0.085352 0.911971 0.479345
O O6 0.814855 0.840983 0.728244
O O7 0.640361 0.851153 0.824798
O O8 0.770624 0.000000 0.848911
O O9 0.859070 0.720469 0.526645
O O10 0.433592 0.107521 0.731779
O O11 0.564532 0.000000 0.912138
O O12 0.500000 0.168283 0.000000
O O13 0.162051 0.500000 0.494935
O O14 0.000000 0.399307 0.500000
#
# Coordination Sequence:
#
# PCOD9214445 Si02
#       6
#     8   2   8   8   8   8
#     4   8  14  27  50  83 119 151 186 241 309 363
#     4  12  20  32  60  92 134 158 194 240 312 368
#     4   9  17  33  61  92 123 154 196 252 316 364
#     4  11  19  34  59  92 126 160 196 246 303 370
#     4   9  19  38  64  87 117 161 213 258 296 352
#     4  10  22  40  61  81 116 170 208 245 300 359
#
# _framework density 26.410964
#
# number of rings (size 3 to 8) (size 9 to 14) (size 15 to 20)
#    0.000    2.476    2.857    1.143    0.000    2.286 
#    0.000    4.762    4.190    0.000    0.000    0.000 
#    0.000    0.000    0.000    0.000    0.000    0.000 
#
# Total GULP energy -117074.947790 kJ/mol
# GULP energy per Si atom -5574.997514 kJ/mol
# Density = 2.635085 g / cm^3
# Si number density = 26.410964 Si / 1000 Ang^3
#
#
#
# Elastic Constant Matrix: (Units=GPa)
#
#
# Indices 1 2 3 4 5 6 
#
# 1 109.9136 39.4517 16.5333 0.0000 -1.4988 0.0000
# 2 39.4517 226.1671 22.8495 0.0000 -4.9671 0.0000
# 3 16.5333 22.8495 69.2608 0.0000 -2.7822 0.0000
# 4 0.0000 0.0000 0.0000 39.1847 0.0000 -3.1220
# 5 -1.4988 -4.9671 -2.7822 0.0000 52.5218 0.0000
# 6 0.0000 0.0000 0.0000 -3.1220 0.0000 2.1407
#
#
#
# Elastic Compliance Matrix: (Units=1/GPa)
#
#
# Indices 1 2 3 4 5 6 
#
# 1 0.009933 -0.001544 -0.001860 0.000000 0.000039 0.000000
# 2 -0.001544 0.004820 -0.001208 0.000000 0.000348 0.000000
# 3 -0.001860 -0.001208 0.015307 0.000000 0.000644 0.000000
# 4 0.000000 0.000000 0.000000 0.028875 0.000000 0.042112
# 5 0.000039 0.000348 0.000644 0.000000 0.019108 0.000000
# 6 0.000000 0.000000 0.000000 0.042112 0.000000 0.528542
#
#
# Mechanical properties :
#
#
# Convention : Reuss Voigt Hill
#
# Bulk Modulus (GPa) = 47.99380 62.55675 55.27527
# Shear Modulus (GPa) = 8.02886 40.53658 24.28272
#
# Velocity S-wave (km/s) = 1.74544 3.92195 3.03548
# Velocity P-wave (km/s) = 4.71948 6.65179 5.76714
#
# Compressibility (1/GPa) = 0.02083602
#
# Stress axis : x y z
#
# Youngs Moduli (GPa) = 100.67948 207.44875 65.33166
#
# Poissons Ratio (x) = 0.32026 0.12153
# Poissons Ratio (y) = 0.15543 0.07891
# Poissons Ratio (z) = 0.18728 0.25056
#
# Static dielectric constant tensor:
#      x y z
#    x 2.115270 0.000000 0.088000 
#    y 0.000000 2.250050 0.000000 
#    z 0.088000 0.000000 2.215720 
# 
# From -- ./inp_files/141947.got.cif
#   From: 2010.05.17/outbox.cif.g08.bks.cpg/sg12_71_cif.got.tgz:141947.got - 2010.06.03 13:09:07.
