data_PCOD9214130
_publ_section_title
;
Structure prediction by ZEFSAII (Michael W. Deem and Ramdas Pophale) SiO2 
 PCOD9214130
Probable space group: C 2/M
;
_chemical_formula_sum "Si O2"
_cell_formula_units_Z 56
_cell_length_a 17.365274
_cell_length_b 31.315207
_cell_length_c 8.582383
_cell_angle_alpha 90.000000
_cell_angle_beta 38.630078
_cell_angle_gamma 90.000000
_cell_volume 2913.607474
_symmetry_space_group_name_H-M "C 2/M"
_symmetry_group_IT_number 12
_symmetry_cell_setting 'monoclinic'
loop_
_space_group_symop_operation_xyz
x,y,z
-x,y,-z
-x,-y,-z
x,-y,z
1/2+x,1/2+y,z
1/2-x,1/2+y,-z
1/2-x,1/2-y,-z
1/2+x,1/2-y,z
loop_
_atom_site_type_symbol
_atom_site_label
_atom_site_fract_x
_atom_site_fract_y
_atom_site_fract_z
Si Si1 0.974259 0.720715 0.359472
Si Si2 0.331239 0.380131 0.457402
Si Si3 0.480857 0.691519 0.848057
Si Si4 0.266937 0.845753 0.707113
Si Si5 0.620418 0.910891 0.222992
Si Si6 0.140748 0.949094 0.334910
Si Si7 0.405138 0.846092 0.008681
O O1 0.862354 0.689309 0.491729
O O2 0.000000 0.715148 0.500000
O O3 0.961549 0.769995 0.339061
O O4 0.084640 0.700129 0.085681
O O5 0.455941 0.353875 0.279643
O O6 0.290442 0.374308 0.342073
O O7 0.340046 0.425499 0.528929
O O8 0.229500 0.354466 0.714695
O O9 0.500000 0.702309 0.000000
O O10 0.337901 0.682903 0.046589
O O11 0.328297 0.876829 0.734052
O O12 0.500000 0.932192 0.500000
O O13 0.742264 0.935617 0.962252
O O14 0.569436 0.882906 0.158926
O O15 0.000000 0.937752 0.500000
O O16 0.144548 0.000000 0.344634
O O17 0.500000 0.850226 0.000000
#
# Coordination Sequence:
#
# PCOD9214130 Si02
#       7
#     8   8   8   8   8   8   8
#     4  12  23  36  54  84 118 161 211 245 296 349
#     4  10  22  39  63  85 117 158 203 249 307 362
#     4  10  25  37  55  83 118 163 207 261 295 354
#     4  11  21  40  59  85 122 162 205 250 308 359
#     4  11  20  38  65  93 124 159 204 249 310 369
#     4  10  23  43  68  94 124 159 200 250 309 377
#     4  11  19  35  58  83 114 158 200 242 298 360
#
# _framework density 19.22016
#
# number of rings (size 3 to 8) (size 9 to 14) (size 15 to 20)
#    0.000    1.286    4.286    1.286    2.000    4.857 
#    0.000    0.714    0.000   20.143    0.000    0.000 
#    0.000    0.000    0.000    0.000    0.000    0.000 
#
# Total GULP energy -156086.837736 kJ/mol
# GULP energy per Si atom -5574.529919 kJ/mol
# Density = 1.917641 g / cm^3
# Si number density = 19.220160 Si / 1000 Ang^3
#
#
#
# Elastic Constant Matrix: (Units=GPa)
#
#
# Indices 1 2 3 4 5 6 
#
# 1 72.3311 41.2248 35.5017 0.0000 5.5226 0.0000
# 2 41.2248 82.1725 33.3227 0.0000 5.1803 0.0000
# 3 35.5017 33.3227 86.5626 0.0000 -3.6721 0.0000
# 4 0.0000 0.0000 0.0000 12.9361 0.0000 6.2362
# 5 5.5226 5.1803 -3.6721 0.0000 24.4391 0.0000
# 6 0.0000 0.0000 0.0000 6.2362 0.0000 11.1147
#
#
#
# Elastic Compliance Matrix: (Units=1/GPa)
#
#
# Indices 1 2 3 4 5 6 
#
# 1 0.021740 -0.008255 -0.005910 0.000000 -0.004051 0.000000
# 2 -0.008255 0.017937 -0.003625 0.000000 -0.002481 0.000000
# 3 -0.005910 -0.003625 0.015560 0.000000 0.004442 0.000000
# 4 0.000000 0.000000 0.000000 0.105965 0.000000 -0.059455
# 5 -0.004051 -0.002481 0.004442 0.000000 0.043027 0.000000
# 6 0.000000 0.000000 0.000000 -0.059455 0.000000 0.123330
#
#
# Mechanical properties :
#
#
# Convention : Reuss Voigt Hill
#
# Bulk Modulus (GPa) = 50.87032 51.24049 51.05541
# Shear Modulus (GPa) = 13.52477 18.43245 15.97861
#
# Velocity S-wave (km/s) = 2.65557 3.10016 2.88644
# Velocity P-wave (km/s) = 5.99394 6.28747 6.14246
#
# Compressibility (1/GPa) = 0.01965783
#
# Stress axis : x y z
#
# Youngs Moduli (GPa) = 45.99759 55.75037 64.26648
#
# Poissons Ratio (x) = 0.46020 0.37985
# Poissons Ratio (y) = 0.37969 0.23295
# Poissons Ratio (z) = 0.27187 0.20208
#
# Static dielectric constant tensor:
#      x y z
#    x 1.680290 0.000000 -0.033390 
#    y 0.000000 1.627690 0.000000 
#    z -0.033390 0.000000 1.811270 
# 
# From -- ./inp_files/80003.got.cif
#   From: 2010.05.17/outbox.cif.g08.bks.cpg/sg12_41_cif.got.tgz:80003.got - 2010.06.03 13:09:07.
