data_PCOD9214939
_publ_section_title
;
Structure prediction by ZEFSAII (Michael W. Deem and Ramdas Pophale) SiO2 
 PCOD9214939
Probable space group: C 2/M
;
_chemical_formula_sum "Si O2"
_cell_formula_units_Z 56
_cell_length_a 18.156769
_cell_length_b 12.930300
_cell_length_c 18.906420
_cell_angle_alpha 90.000000
_cell_angle_beta 42.081341
_cell_angle_gamma 90.000000
_cell_volume 2974.754583
_symmetry_space_group_name_H-M "C 2/M"
_symmetry_group_IT_number 12
_symmetry_cell_setting 'monoclinic'
loop_
_space_group_symop_operation_xyz
x,y,z
-x,y,-z
-x,-y,-z
x,-y,z
1/2+x,1/2+y,z
1/2-x,1/2+y,-z
1/2-x,1/2-y,-z
1/2+x,1/2-y,z
loop_
_atom_site_type_symbol
_atom_site_label
_atom_site_fract_x
_atom_site_fract_y
_atom_site_fract_z
Si Si1 0.230357 0.621569 0.433443
Si Si2 0.507533 0.795657 0.074267
Si Si3 0.914677 0.382025 0.839302
Si Si4 0.235129 0.212177 0.741996
Si Si5 0.566671 0.734754 0.637187
Si Si6 0.187535 0.880258 0.926794
Si Si7 0.424089 0.619663 0.623853
O O1 0.222047 0.500000 0.453637
O O2 0.231570 0.644486 0.349101
O O3 0.342697 0.668487 0.385518
O O4 0.132501 0.685122 0.540249
O O5 0.559300 0.868342 0.096666
O O6 0.386118 0.759340 0.182438
O O7 0.500000 0.839691 0.000000
O O8 0.586270 0.695344 0.013489
O O9 0.939658 0.500000 0.799396
O O10 0.787689 0.362894 0.909752
O O11 0.989681 0.300651 0.743983
O O12 0.231647 0.147571 0.817077
O O13 0.320241 0.305977 0.689022
O O14 0.494004 0.660302 0.640234
O O15 0.154345 0.000000 0.953496
O O16 0.500000 0.627559 0.500000
O O17 0.392261 0.500000 0.655351
#
# Coordination Sequence:
#
# PCOD9214939 Si02
#       7
#     8   8   8   8   8   8   8
#     4  11  23  38  62  94 125 164 204 252 307 365
#     4  10  23  41  63  87 125 159 205 263 306 373
#     4  11  22  40  65  90 122 163 204 259 319 367
#     4  11  21  40  62  93 127 159 206 254 297 375
#     4  11  22  42  61  90 129 160 209 255 301 378
#     4  10  22  40  66  91 121 163 204 258 320 366
#     4  11  23  41  65  92 128 171 208 248 306 367
#
# _framework density 18.825082999999999
#
# number of rings (size 3 to 8) (size 9 to 14) (size 15 to 20)
#    0.000    1.286    4.286    1.714    0.000    4.000 
#    0.000    2.857    0.000    0.000    0.000    0.000 
#    0.000    0.000    0.000    0.000    0.000    0.000 
#
# Total GULP energy -156476.639443 kJ/mol
# GULP energy per Si atom -5588.451409 kJ/mol
# Density = 1.878224 g / cm^3
# Si number density = 18.825083 Si / 1000 Ang^3
#
#
#
# Elastic Constant Matrix: (Units=GPa)
#
#
# Indices 1 2 3 4 5 6 
#
# 1 99.0865 17.0236 18.9493 0.0000 6.9321 0.0000
# 2 17.0236 69.4693 10.1514 0.0000 -4.7675 0.0000
# 3 18.9493 10.1514 44.7652 0.0000 -5.0460 0.0000
# 4 0.0000 0.0000 0.0000 21.4699 0.0000 4.8374
# 5 6.9321 -4.7675 -5.0460 0.0000 26.8793 0.0000
# 6 0.0000 0.0000 0.0000 4.8374 0.0000 5.8585
#
#
#
# Elastic Compliance Matrix: (Units=1/GPa)
#
#
# Indices 1 2 3 4 5 6 
#
# 1 0.011763 -0.002466 -0.004916 0.000000 -0.004394 0.000000
# 2 -0.002466 0.015517 -0.002138 0.000000 0.002987 0.000000
# 3 -0.004916 -0.002138 0.025545 0.000000 0.005684 0.000000
# 4 0.000000 0.000000 0.000000 0.057223 0.000000 -0.047250
# 5 -0.004394 0.002987 0.005684 0.000000 0.039933 0.000000
# 6 0.000000 0.000000 0.000000 -0.047250 0.000000 0.209708
#
#
# Mechanical properties :
#
#
# Convention : Reuss Voigt Hill
#
# Bulk Modulus (GPa) = 29.59831 33.95218 31.77525
# Shear Modulus (GPa) = 12.82085 21.98799 17.40442
#
# Velocity S-wave (km/s) = 2.61253 3.42133 3.04391
# Velocity P-wave (km/s) = 4.98571 5.80363 5.41015
#
# Compressibility (1/GPa) = 0.03378571
#
# Stress axis : x y z
#
# Youngs Moduli (GPa) = 85.01026 64.44744 39.14639
#
# Poissons Ratio (x) = 0.15892 0.19243
# Poissons Ratio (y) = 0.20962 0.08370
# Poissons Ratio (z) = 0.41787 0.13780
#
# Static dielectric constant tensor:
#      x y z
#    x 1.646260 0.000000 0.016620 
#    y 0.000000 1.604310 0.000000 
#    z 0.016620 0.000000 1.631890 
# 
# From -- ./inp_files/276935.got.cif
#   From: 2010.05.17/outbox.cif.g08.bks.cpg/sg12_139_cif.got.tgz:276935.got - 2010.06.03 13:09:07.
