data_PCOD9214212
_publ_section_title
;
Structure prediction by ZEFSAII (Michael W. Deem and Ramdas Pophale) SiO2 
 PCOD9214212
Probable space group: C 2/M
;
_chemical_formula_sum "Si O2"
_cell_formula_units_Z 40
_cell_length_a 26.473082
_cell_length_b 14.736731
_cell_length_c 9.802659
_cell_angle_alpha 90.000000
_cell_angle_beta 152.966950
_cell_angle_gamma 90.000000
_cell_volume 1738.151524
_symmetry_space_group_name_H-M "C 2/M"
_symmetry_group_IT_number 12
_symmetry_cell_setting 'monoclinic'
loop_
_space_group_symop_operation_xyz
x,y,z
-x,y,-z
-x,-y,-z
x,-y,z
1/2+x,1/2+y,z
1/2-x,1/2+y,-z
1/2-x,1/2-y,-z
1/2+x,1/2-y,z
loop_
_atom_site_type_symbol
_atom_site_label
_atom_site_fract_x
_atom_site_fract_y
_atom_site_fract_z
Si Si1 0.000580 0.891103 0.339025
Si Si2 0.406414 0.103789 0.659903
Si Si3 0.216189 0.212233 0.771873
Si Si4 0.431935 0.105040 0.195285
Si Si5 0.226648 0.178202 0.328162
O O1 0.113273 0.853795 0.543999
O O2 0.000000 0.868645 0.500000
O O3 0.993569 0.000000 0.310646
O O4 0.895612 0.844987 0.012996
O O5 0.484092 0.141883 0.715328
O O6 0.302050 0.093517 0.527315
O O7 0.393410 0.000000 0.567605
O O8 0.500000 0.120083 0.000000
O O9 0.193859 0.297769 0.616389
O O10 0.250000 0.250000 0.000000
O O11 0.319988 0.164314 0.947492
O O12 0.500000 0.111231 0.500000
O O13 0.399636 0.000000 0.097226
O O14 0.250000 0.250000 0.500000
#
# Coordination Sequence:
#
# PCOD9214212 Si02
#       5
#     8   8   8   8   8
#     4  11  26  49  74 105 146 196 243 291 362 443
#     4  10  22  42  67  93 130 177 226 279 349 425
#     4  12  25  41  69 103 143 181 239 294 355 425
#     4  10  22  39  64  95 130 172 224 286 346 412
#     4  12  27  43  70 104 144 183 234 296 360 424
#
# _framework density 23.012953
#
# number of rings (size 3 to 8) (size 9 to 14) (size 15 to 20)
#    0.000    1.000    2.000    3.600    8.400    0.000 
#    0.000    4.000    0.000    0.000    0.000    0.000 
#    0.000    0.000    0.000    0.000    0.000    0.000 
#
# Total GULP energy -111385.481432 kJ/mol
# GULP energy per Si atom -5569.274072 kJ/mol
# Density = 2.296057 g / cm^3
# Si number density = 23.012953 Si / 1000 Ang^3
#
#
#
# Elastic Constant Matrix: (Units=GPa)
#
#
# Indices 1 2 3 4 5 6 
#
# 1 147.7225 61.3368 81.0119 0.0000 33.4244 0.0000
# 2 61.3368 123.6049 63.3373 0.0000 21.1111 0.0000
# 3 81.0119 63.3373 168.4979 0.0000 26.3647 0.0000
# 4 0.0000 0.0000 0.0000 61.7869 0.0000 6.8580
# 5 33.4244 21.1111 26.3647 0.0000 60.7990 0.0000
# 6 0.0000 0.0000 0.0000 6.8580 0.0000 56.9640
#
#
#
# Elastic Compliance Matrix: (Units=1/GPa)
#
#
# Indices 1 2 3 4 5 6 
#
# 1 0.010658 -0.002925 -0.003505 0.000000 -0.003324 0.000000
# 2 -0.002925 0.011051 -0.002573 0.000000 -0.001113 0.000000
# 3 -0.003505 -0.002573 0.008739 0.000000 -0.000969 0.000000
# 4 0.000000 0.000000 0.000000 0.016404 0.000000 -0.001975
# 5 -0.003324 -0.001113 -0.000969 0.000000 0.019082 0.000000
# 6 0.000000 0.000000 0.000000 -0.001975 0.000000 0.017793
#
#
# Mechanical properties :
#
#
# Convention : Reuss Voigt Hill
#
# Bulk Modulus (GPa) = 80.37924 94.57748 87.47836
# Shear Modulus (GPa) = 47.22363 51.51923 49.37143
#
# Velocity S-wave (km/s) = 4.53487 4.73663 4.63684
# Velocity P-wave (km/s) = 7.90086 8.43214 8.17082
#
# Compressibility (1/GPa) = 0.01244102
#
# Stress axis : x y z
#
# Youngs Moduli (GPa) = 93.82501 90.49253 114.43377
#
# Poissons Ratio (x) = 0.26473 0.40104
# Poissons Ratio (y) = 0.27448 0.29446
# Poissons Ratio (z) = 0.32882 0.23286
#
# Static dielectric constant tensor:
#      x y z
#    x 1.777670 0.000000 0.029550 
#    y 0.000000 2.107420 0.000000 
#    z 0.029550 0.000000 1.891430 
# 
# From -- ./inp_files/98313.got.cif
#   From: 2010.05.17/outbox.cif.g08.bks.cpg/sg12_50_cif.got.tgz:98313.got - 2010.06.03 13:09:07.
