data_PCOD9214792
_publ_section_title
;
Structure prediction by ZEFSAII (Michael W. Deem and Ramdas Pophale) SiO2 
 PCOD9214792
Probable space group: C 2/M
;
_chemical_formula_sum "Si O2"
_cell_formula_units_Z 32
_cell_length_a 20.700759
_cell_length_b 13.966944
_cell_length_c 5.337108
_cell_angle_alpha 90.000000
_cell_angle_beta 118.005780
_cell_angle_gamma 90.000000
_cell_volume 1362.402028
_symmetry_space_group_name_H-M "C 2/M"
_symmetry_group_IT_number 12
_symmetry_cell_setting 'monoclinic'
loop_
_space_group_symop_operation_xyz
x,y,z
-x,y,-z
-x,-y,-z
x,-y,z
1/2+x,1/2+y,z
1/2-x,1/2+y,-z
1/2-x,1/2-y,-z
1/2+x,1/2-y,z
loop_
_atom_site_type_symbol
_atom_site_label
_atom_site_fract_x
_atom_site_fract_y
_atom_site_fract_z
Si Si1 0.177335 0.609395 0.876785
Si Si2 0.192916 0.787161 0.599720
Si Si3 0.912956 0.105185 0.314637
Si Si4 0.049197 0.706101 0.842516
O O1 0.184319 0.500000 0.813664
O O2 0.159885 0.685967 0.630130
O O3 0.110824 0.624105 0.949672
O O4 0.253067 0.652024 0.119429
O O5 0.250000 0.750000 0.500000
O O6 0.123856 0.859131 0.492659
O O7 0.905120 0.193829 0.107830
O O8 0.000000 0.097994 0.500000
O O9 0.885222 0.000000 0.190297
O O10 0.000000 0.696192 0.500000
O O11 0.000000 0.706503 0.000000
#
# Coordination Sequence:
#
# PCOD9214792 Si02
#       4
#     8   8   8   8
#     4  10  23  40  62  91 127 174 223 271 334 401
#     4  10  22  40  64  92 131 172 215 283 331 395
#     4   9  19  37  63  95 129 171 222 274 334 397
#     4  10  23  41  65  95 136 176 219 277 332 392
#
# _framework density 23.487929000000001
#
# number of rings (size 3 to 8) (size 9 to 14) (size 15 to 20)
#    0.000    2.250    0.000    0.750   10.500    3.500 
#    0.000    0.000    0.000    0.000    0.000    0.000 
#    0.000    0.000    0.000    0.000    0.000    0.000 
#
# Total GULP energy -89086.986547 kJ/mol
# GULP energy per Si atom -5567.936659 kJ/mol
# Density = 2.343447 g / cm^3
# Si number density = 23.487929 Si / 1000 Ang^3
#
#
#
# Elastic Constant Matrix: (Units=GPa)
#
#
# Indices 1 2 3 4 5 6 
#
# 1 177.5271 49.3246 26.1104 0.0000 -19.1972 0.0000
# 2 49.3246 167.9307 -4.1843 0.0000 2.6062 0.0000
# 3 26.1104 -4.1843 44.6271 0.0000 -1.1981 0.0000
# 4 0.0000 0.0000 0.0000 8.4074 0.0000 3.5012
# 5 -19.1972 2.6062 -1.1981 0.0000 35.3161 0.0000
# 6 0.0000 0.0000 0.0000 3.5012 0.0000 17.7150
#
#
#
# Elastic Compliance Matrix: (Units=1/GPa)
#
#
# Indices 1 2 3 4 5 6 
#
# 1 0.007368 -0.002337 -0.004422 0.000000 0.004028 0.000000
# 2 -0.002337 0.006716 0.001951 0.000000 -0.001700 0.000000
# 3 -0.004422 0.001951 0.025133 0.000000 -0.001695 0.000000
# 4 0.000000 0.000000 0.000000 0.129611 0.000000 -0.025617
# 5 0.004028 -0.001700 -0.001695 0.000000 0.030573 0.000000
# 6 0.000000 0.000000 0.000000 -0.025617 0.000000 0.061512
#
#
# Mechanical properties :
#
#
# Convention : Reuss Voigt Hill
#
# Bulk Modulus (GPa) = 33.78150 59.17627 46.47888
# Shear Modulus (GPa) = 17.83194 33.54330 25.68762
#
# Velocity S-wave (km/s) = 2.75834 3.78313 3.31063
# Velocity P-wave (km/s) = 4.95563 6.65821 5.86899
#
# Compressibility (1/GPa) = 0.02960201
#
# Stress axis : x y z
#
# Youngs Moduli (GPa) = 135.71982 148.89331 39.78908
#
# Poissons Ratio (x) = 0.34794 0.17594
# Poissons Ratio (y) = 0.31716 -0.07764
# Poissons Ratio (z) = 0.60014 -0.29054
#
# Static dielectric constant tensor:
#      x y z
#    x 1.994580 0.000000 0.036630 
#    y 0.000000 1.875890 0.000000 
#    z 0.036630 0.000000 2.315610 
# 
# From -- ./inp_files/14486.got.cif
#   From: 2010.05.17/outbox.cif.g08.bks.cpg/sg12_8_cif.got.tgz:14486.got - 2010.06.03 13:09:07.
