data_PCOD9214122
_publ_section_title
;
Structure prediction by ZEFSAII (Michael W. Deem and Ramdas Pophale) SiO2 
 PCOD9214122
Probable space group: C 2/M
;
_chemical_formula_sum "Si O2"
_cell_formula_units_Z 40
_cell_length_a 12.248997
_cell_length_b 14.860799
_cell_length_c 9.858246
_cell_angle_alpha 90.000000
_cell_angle_beta 102.196778
_cell_angle_gamma 90.000000
_cell_volume 1753.989609
_symmetry_space_group_name_H-M "C 2/M"
_symmetry_group_IT_number 12
_symmetry_cell_setting 'monoclinic'
loop_
_space_group_symop_operation_xyz
x,y,z
-x,y,-z
-x,-y,-z
x,-y,z
1/2+x,1/2+y,z
1/2-x,1/2+y,-z
1/2-x,1/2-y,-z
1/2+x,1/2-y,z
loop_
_atom_site_type_symbol
_atom_site_label
_atom_site_fract_x
_atom_site_fract_y
_atom_site_fract_z
Si Si1 0.935333 0.899331 0.113707
Si Si2 0.669884 0.894367 0.304051
Si Si3 0.392902 0.706670 0.377762
Si Si4 0.081682 0.397729 0.704003
Si Si5 0.303476 0.848406 0.991655
O O1 0.931430 0.834707 0.242417
O O2 0.807525 0.907847 0.035693
O O3 0.979346 0.000000 0.157633
O O4 0.000000 0.862221 0.000000
O O5 0.779608 0.844830 0.388486
O O6 0.551864 0.887333 0.348332
O O7 0.649812 0.855548 0.147565
O O8 0.696269 0.000000 0.298806
O O9 0.500000 0.694359 0.500000
O O10 0.364547 0.812068 0.354600
O O11 0.113078 0.500000 0.673178
O O12 0.114310 0.381636 0.870139
O O13 0.250000 0.750000 0.000000
#
# Coordination Sequence:
#
# PCOD9214122 Si02
#       5
#     8   8   8   8   8
#     4  10  22  39  62  96 129 157 203 264 319 376
#     4  10  22  40  62  92 124 163 213 262 314 384
#     4  11  24  41  65  93 128 171 215 260 315 377
#     4  11  23  39  62  90 126 168 213 262 317 375
#     4  11  19  34  61  91 121 163 202 261 314 379
#
# _framework density 22.805152
#
# number of rings (size 3 to 8) (size 9 to 14) (size 15 to 20)
#    0.000    1.400    4.000    4.200    2.800    4.400 
#    0.000    0.000    0.000    3.600    0.000    0.000 
#    0.000    0.000    0.000    0.000    0.000    0.000 
#
# Total GULP energy -111778.464542 kJ/mol
# GULP energy per Si atom -5588.923227 kJ/mol
# Density = 2.275325 g / cm^3
# Si number density = 22.805152 Si / 1000 Ang^3
#
#
#
# Elastic Constant Matrix: (Units=GPa)
#
#
# Indices 1 2 3 4 5 6 
#
# 1 55.6615 27.9129 23.0478 0.0000 3.9328 0.0000
# 2 27.9129 190.6237 30.7405 0.0000 1.5904 0.0000
# 3 23.0478 30.7405 88.4696 0.0000 29.3177 0.0000
# 4 0.0000 0.0000 0.0000 20.5251 0.0000 10.9599
# 5 3.9328 1.5904 29.3177 0.0000 39.3119 0.0000
# 6 0.0000 0.0000 0.0000 10.9599 0.0000 29.9914
#
#
#
# Elastic Compliance Matrix: (Units=1/GPa)
#
#
# Indices 1 2 3 4 5 6 
#
# 1 0.021188 -0.002248 -0.005401 0.000000 0.001999 0.000000
# 2 -0.002248 0.005874 -0.001928 0.000000 0.001425 0.000000
# 3 -0.005401 -0.001928 0.017500 0.000000 -0.012433 0.000000
# 4 0.000000 0.000000 0.000000 0.060533 0.000000 -0.022121
# 5 0.001999 0.001425 -0.012433 0.000000 0.034452 0.000000
# 6 0.000000 0.000000 0.000000 -0.022121 0.000000 0.041427
#
#
# Mechanical properties :
#
#
# Convention : Reuss Voigt Hill
#
# Bulk Modulus (GPa) = 39.35665 55.35082 47.35373
# Shear Modulus (GPa) = 23.96954 34.83592 29.40273
#
# Velocity S-wave (km/s) = 3.24552 3.91262 3.59458
# Velocity P-wave (km/s) = 5.59819 6.68845 6.16746
#
# Compressibility (1/GPa) = 0.02540867
#
# Stress axis : x y z
#
# Youngs Moduli (GPa) = 47.19548 170.23898 57.14179
#
# Poissons Ratio (x) = 0.38274 0.30864
# Poissons Ratio (y) = 0.10611 0.11014
# Poissons Ratio (z) = 0.25492 0.32814
#
# Static dielectric constant tensor:
#      x y z
#    x 1.842630 0.000000 -0.038770 
#    y 0.000000 1.939070 0.000000 
#    z -0.038770 0.000000 1.897170 
# 
# From -- ./inp_files/129570.got.cif
#   From: 2010.05.17/outbox.cif.g08.bks.cpg/sg12_65_cif.got.tgz:129570.got - 2010.06.03 13:09:07.
