data_PCOD9214289
_publ_section_title
;
Structure prediction by ZEFSAII (Michael W. Deem and Ramdas Pophale) SiO2 
 PCOD9214289
Probable space group: C 2/M
;
_chemical_formula_sum "Si O2"
_cell_formula_units_Z 38
_cell_length_a 13.576734
_cell_length_b 13.369918
_cell_length_c 19.575022
_cell_angle_alpha 90.000000
_cell_angle_beta 153.755551
_cell_angle_gamma 90.000000
_cell_volume 1571.255512
_symmetry_space_group_name_H-M "C 2/M"
_symmetry_group_IT_number 12
_symmetry_cell_setting 'monoclinic'
loop_
_space_group_symop_operation_xyz
x,y,z
-x,y,-z
-x,-y,-z
x,-y,z
1/2+x,1/2+y,z
1/2-x,1/2+y,-z
1/2-x,1/2-y,-z
1/2+x,1/2-y,z
loop_
_atom_site_type_symbol
_atom_site_label
_atom_site_fract_x
_atom_site_fract_y
_atom_site_fract_z
Si Si1 0.154101 0.167490 0.341740
Si Si2 0.313810 0.385328 0.014441
Si Si3 0.788210 0.388024 0.665123
Si Si4 0.500000 0.731194 0.000000
Si Si5 0.144203 0.888121 0.726078
Si Si6 0.000000 0.500000 0.500000
O O1 0.230749 0.282518 0.385483
O O2 0.938004 0.159920 0.157209
O O3 0.075956 0.134293 0.367844
O O4 0.333050 0.088748 0.425854
O O5 0.388028 0.500000 0.057535
O O6 0.452813 0.115470 0.146990
O O7 0.396321 0.333849 0.996377
O O8 0.771691 0.500000 0.621980
O O9 0.639881 0.386962 0.641581
O O10 0.312914 0.802115 0.852440
O O11 0.221059 0.000000 0.793778
#
# Coordination Sequence:
#
# PCOD9214289 Si02
#       6
#     8   8   8   4   8   2
#     4  12  22  44  63  93 129 173 226 264 316 383
#     4  11  21  36  60  99 141 168 206 264 340 397
#     4  10  22  39  67  99 133 169 202 274 341 388
#     4  12  20  32  60 100 136 176 196 268 334 408
#     4  11  21  35  61  95 131 162 215 263 321 395
#     4  12  28  44  74  88 124 182 232 270 304 378
#
# _framework density 24.184481000000002
#
# number of rings (size 3 to 8) (size 9 to 14) (size 15 to 20)
#    0.000    0.842    6.316    2.526    0.000    1.684 
#    0.000    1.579    2.316    0.000    0.000    0.000 
#    0.000    0.000    0.000    0.000    0.000    0.000 
#
# Total GULP energy -106195.118771 kJ/mol
# GULP energy per Si atom -5589.216777 kJ/mol
# Density = 2.412944 g / cm^3
# Si number density = 24.184481 Si / 1000 Ang^3
#
#
#
# Elastic Constant Matrix: (Units=GPa)
#
#
# Indices 1 2 3 4 5 6 
#
# 1 122.7138 53.3240 34.4632 -0.0052 5.3926 -0.0028
# 2 53.3240 227.1492 32.7903 0.0018 0.4129 -0.0024
# 3 34.4632 32.7903 65.1029 0.0040 10.7270 -0.0024
# 4 -0.0052 0.0018 0.0040 47.5864 -0.0016 7.0381
# 5 5.3926 0.4129 10.7270 -0.0016 42.5345 -0.0012
# 6 -0.0028 -0.0024 -0.0024 7.0381 -0.0012 44.1057
#
#
#
# Elastic Compliance Matrix: (Units=1/GPa)
#
#
# Indices 1 2 3 4 5 6 
#
# 1 0.010171 -0.001740 -0.004484 0.000002 -0.000142 0.000000
# 2 -0.001740 0.005059 -0.001727 0.000000 0.000607 0.000000
# 3 -0.004484 -0.001727 0.019310 -0.000002 -0.004285 0.000001
# 4 0.000002 0.000000 -0.000002 0.021522 0.000001 -0.003434
# 5 -0.000142 0.000607 -0.004285 0.000001 0.024603 0.000000
# 6 0.000000 0.000000 0.000001 -0.003434 0.000000 0.023221
#
#
# Mechanical properties :
#
#
# Convention : Reuss Voigt Hill
#
# Bulk Modulus (GPa) = 53.65643 72.90233 63.27938
# Shear Modulus (GPa) = 39.68223 46.47121 43.07672
#
# Velocity S-wave (km/s) = 4.05509 4.38828 4.22497
# Velocity P-wave (km/s) = 6.64526 7.47568 7.07267
#
# Compressibility (1/GPa) = 0.01863709
#
# Stress axis : x y z
#
# Youngs Moduli (GPa) = 98.32111 197.66475 51.78679
#
# Poissons Ratio (x) = 0.34394 0.23223
# Poissons Ratio (y) = 0.17108 0.08944
# Poissons Ratio (z) = 0.44090 0.34137
#
# Static dielectric constant tensor:
#      x y z
#    x 1.885860 0.000000 -0.029420 
#    y 0.000000 1.875510 0.000000 
#    z -0.029420 0.000000 2.017400 
# 
# From -- ./inp_files/360629.got.cif
#   From: 2010.05.17/outbox.cif.g08.bks.cpg/sg12_181_cif.got.tgz:360629.got - 2010.06.03 13:09:07.
