data_PCOD9214497
_publ_section_title
;
Structure prediction by ZEFSAII (Michael W. Deem and Ramdas Pophale) SiO2 
 PCOD9214497
Probable space group: C 2/M
;
_chemical_formula_sum "Si O2"
_cell_formula_units_Z 40
_cell_length_a 9.920363
_cell_length_b 25.233878
_cell_length_c 17.857800
_cell_angle_alpha 90.000000
_cell_angle_beta 29.256245
_cell_angle_gamma 90.000000
_cell_volume 2184.722969
_symmetry_space_group_name_H-M "C 2/M"
_symmetry_group_IT_number 12
_symmetry_cell_setting 'monoclinic'
loop_
_space_group_symop_operation_xyz
x,y,z
-x,y,-z
-x,-y,-z
x,-y,z
1/2+x,1/2+y,z
1/2-x,1/2+y,-z
1/2-x,1/2-y,-z
1/2+x,1/2-y,z
loop_
_atom_site_type_symbol
_atom_site_label
_atom_site_fract_x
_atom_site_fract_y
_atom_site_fract_z
Si Si1 0.273361 0.354964 0.317651
Si Si2 0.230327 0.561125 0.682444
Si Si3 0.802575 0.062901 0.822320
Si Si4 0.703192 0.260201 0.110577
Si Si5 0.692664 0.855139 0.179969
O O1 0.459728 0.404639 0.252032
O O2 0.469215 0.303936 0.234003
O O3 0.195515 0.358791 0.268098
O O4 0.000000 0.351832 0.500000
O O5 0.500000 0.564191 0.500000
O O6 0.128053 0.500000 0.729796
O O7 0.305366 0.573237 0.732053
O O8 0.009593 0.602437 0.758711
O O9 0.838969 0.000000 0.816520
O O10 0.500000 0.077614 0.000000
O O11 0.622695 0.204778 0.188537
O O12 0.750000 0.250000 0.000000
O O13 0.000000 0.277162 0.000000
O O14 0.000000 0.864707 0.000000
#
# Coordination Sequence:
#
# PCOD9214497 Si02
#       5
#     8   8   8   8   8
#     4  12  25  39  62  95 124 157 201 253 308 353
#     4  10  22  40  61  88 123 160 197 245 302 354
#     4  10  22  40  64  91 120 163 207 243 298 364
#     4  11  23  44  65  87 121 161 202 250 300 362
#     4  11  23  40  62  89 118 159 205 243 298 360
#
# _framework density 18.308956999999999
#
# number of rings (size 3 to 8) (size 9 to 14) (size 15 to 20)
#    0.000    1.200    4.000    3.000    2.800    3.200 
#    0.000    0.000    0.000    0.000    0.000    0.000 
#    0.000    0.000    0.000    0.000    0.000    0.000 
#
# Total GULP energy -111806.902900 kJ/mol
# GULP energy per Si atom -5590.345145 kJ/mol
# Density = 1.826729 g / cm^3
# Si number density = 18.308957 Si / 1000 Ang^3
#
#
#
# Elastic Constant Matrix: (Units=GPa)
#
#
# Indices 1 2 3 4 5 6 
#
# 1 137.6763 62.9111 44.4440 0.0163 19.8686 0.0218
# 2 62.9111 101.8853 37.4667 0.0612 -9.5061 0.0138
# 3 44.4440 37.4667 94.4634 0.2912 19.3846 -0.0142
# 4 0.0163 0.0612 0.2912 -5.6179 0.0424 -19.9807
# 5 19.8686 -9.5061 19.3846 0.0424 37.8522 0.0195
# 6 0.0218 0.0138 -0.0142 -19.9807 0.0195 43.0104
#
#
#
# Elastic Compliance Matrix: (Units=1/GPa)
#
#
# Indices 1 2 3 4 5 6 
#
# 1 0.012426 -0.008053 -0.001004 -0.000061 -0.008030 -0.000029
# 2 -0.008053 0.017990 -0.005745 -0.000002 0.011687 -0.000010
# 3 -0.001004 -0.005745 0.015113 0.000231 -0.008655 0.000119
# 4 -0.000061 -0.000002 0.000231 -0.067109 0.000005 -0.031176
# 5 -0.008030 0.011687 -0.008655 0.000005 0.038001 -0.000018
# 6 -0.000029 -0.000010 0.000119 -0.031176 -0.000018 0.008767
#
#
# Mechanical properties :
#
#
# Convention : Reuss Voigt Hill
#
# Bulk Modulus (GPa) = 62.79396 69.29652 66.04524
# Shear Modulus (GPa) = 83.19378 27.66248 55.42813
#
# Velocity S-wave (km/s) = 6.74815 3.89121 5.50813
# Velocity P-wave (km/s) = 9.75131 7.62360 8.75235
#
# Compressibility (1/GPa) = 0.01592510
#
# Stress axis : x y z
#
# Youngs Moduli (GPa) = 80.47496 55.58568 66.16947
#
# Poissons Ratio (x) = 0.44761 0.06646
# Poissons Ratio (y) = 0.64804 0.38014
# Poissons Ratio (z) = 0.08083 0.31934
#
# Static dielectric constant tensor:
#      x y z
#    x 1.604090 0.000000 0.007850 
#    y 0.000000 1.626970 0.000000 
#    z 0.007850 0.000000 1.596040 
# 
# From -- ./inp_files/39243.got.cif
#   From: 2010.05.17/outbox.cif.g08.bks.cpg/sg12_20_cif.got.tgz:39243.got - 2010.06.03 13:09:07.
