data_PCOD9214958
_publ_section_title
;
Structure prediction by ZEFSAII (Michael W. Deem and Ramdas Pophale) SiO2 
 PCOD9214958
Probable space group: C 2/M
;
_chemical_formula_sum "Si O2"
_cell_formula_units_Z 48
_cell_length_a 30.036056
_cell_length_b 8.700197
_cell_length_c 15.322409
_cell_angle_alpha 90.000000
_cell_angle_beta 140.092711
_cell_angle_gamma 90.000000
_cell_volume 2568.784500
_symmetry_space_group_name_H-M "C 2/M"
_symmetry_group_IT_number 12
_symmetry_cell_setting 'monoclinic'
loop_
_space_group_symop_operation_xyz
x,y,z
-x,y,-z
-x,-y,-z
x,-y,z
1/2+x,1/2+y,z
1/2-x,1/2+y,-z
1/2-x,1/2-y,-z
1/2+x,1/2-y,z
loop_
_atom_site_type_symbol
_atom_site_label
_atom_site_fract_x
_atom_site_fract_y
_atom_site_fract_z
Si Si1 0.325841 0.316411 0.635966
Si Si2 0.175683 0.683881 0.857729
Si Si3 0.832559 0.817190 0.347126
Si Si4 0.185480 0.817015 0.180302
Si Si5 0.419636 0.684242 0.134363
Si Si6 0.073618 0.316460 0.358688
O O1 0.325726 0.500000 0.621500
O O2 0.250000 0.250000 0.500000
O O3 0.339107 0.286881 0.758226
O O4 0.381888 0.240192 0.657218
O O5 0.179113 0.500000 0.862429
O O6 0.160154 0.745556 0.737828
O O7 0.118526 0.742256 0.839985
O O8 0.250000 0.750000 0.000000
O O9 0.755748 0.773849 0.265725
O O10 0.887284 0.746932 0.496990
O O11 0.840262 0.000000 0.354803
O O12 0.201516 0.000000 0.198110
O O13 0.127594 0.781166 0.021356
O O14 0.422163 0.500000 0.148259
O O15 0.496330 0.750009 0.238932
O O16 0.072418 0.500000 0.359321
#
# Coordination Sequence:
#
# PCOD9214958 Si02
#       6
#     8   8   8   8   8   8
#     4  11  22  39  65  97 129 169 217 266 322 383
#     4  12  24  41  66  98 132 170 215 263 319 382
#     4  12  24  40  67  97 127 168 219 268 319 383
#     4  10  22  40  66  95 129 168 213 266 322 381
#     4  11  24  44  67  95 131 170 215 269 327 382
#     4  12  26  44  64  93 134 173 214 269 329 385
#
# _framework density 18.685880999999998
#
# number of rings (size 3 to 8) (size 9 to 14) (size 15 to 20)
#    0.000    0.667    3.333    5.500    0.000    2.667 
#    0.000    6.667    0.000    0.000    0.000    0.000 
#    0.000    0.000    0.000    0.000    0.000    0.000 
#
# Total GULP energy -134326.576760 kJ/mol
# GULP energy per Si atom -5596.940698 kJ/mol
# Density = 1.864335 g / cm^3
# Si number density = 18.685881 Si / 1000 Ang^3
#
#
#
# Elastic Constant Matrix: (Units=GPa)
#
#
# Indices 1 2 3 4 5 6 
#
# 1 82.3251 27.5564 10.2544 0.0000 -2.3494 0.0000
# 2 27.5564 115.3753 34.4739 0.0000 -5.9941 0.0000
# 3 10.2544 34.4739 65.5889 0.0000 -1.7627 0.0000
# 4 0.0000 0.0000 0.0000 32.9933 0.0000 2.6928
# 5 -2.3494 -5.9941 -1.7627 0.0000 42.5279 0.0000
# 6 0.0000 0.0000 0.0000 2.6928 0.0000 39.0945
#
#
#
# Elastic Compliance Matrix: (Units=1/GPa)
#
#
# Indices 1 2 3 4 5 6 
#
# 1 0.013219 -0.002998 -0.000483 0.000000 0.000288 0.000000
# 2 -0.002998 0.011026 -0.005295 0.000000 0.001169 0.000000
# 3 -0.000483 -0.005295 0.018105 0.000000 -0.000023 0.000000
# 4 0.000000 0.000000 0.000000 0.030481 0.000000 -0.002100
# 5 0.000288 0.001169 -0.000023 0.000000 0.023694 0.000000
# 6 0.000000 0.000000 0.000000 -0.002100 0.000000 0.025724
#
#
# Mechanical properties :
#
#
# Convention : Reuss Voigt Hill
#
# Bulk Modulus (GPa) = 40.32769 45.31765 42.82267
# Shear Modulus (GPa) = 33.76860 35.65676 34.71268
#
# Velocity S-wave (km/s) = 4.25570 4.37306 4.31478
# Velocity P-wave (km/s) = 6.76585 7.05714 6.91303
#
# Compressibility (1/GPa) = 0.02479686
#
# Stress axis : x y z
#
# Youngs Moduli (GPa) = 75.64967 90.69168 55.23421
#
# Poissons Ratio (x) = 0.27188 0.02669
# Poissons Ratio (y) = 0.22679 0.29249
# Poissons Ratio (z) = 0.03656 0.48025
#
# Static dielectric constant tensor:
#      x y z
#    x 1.619660 0.000000 -0.016170 
#    y 0.000000 1.626000 0.000000 
#    z -0.016170 0.000000 1.614250 
# 
# From -- ./inp_files/229900.got.cif
#   From: 2010.05.17/outbox.cif.g08.bks.cpg/sg12_115_cif.got.tgz:229900.got - 2010.06.03 13:09:07.
