data_PCOD9214451
_publ_section_title
;
Structure prediction by ZEFSAII (Michael W. Deem and Ramdas Pophale) SiO2 
 PCOD9214451
Probable space group: C 2/M
;
_chemical_formula_sum "Si O2"
_cell_formula_units_Z 48
_cell_length_a 16.456672
_cell_length_b 27.291004
_cell_length_c 4.969658
_cell_angle_alpha 90.000000
_cell_angle_beta 90.627819
_cell_angle_gamma 90.000000
_cell_volume 2231.834344
_symmetry_space_group_name_H-M "C 2/M"
_symmetry_group_IT_number 12
_symmetry_cell_setting 'monoclinic'
loop_
_space_group_symop_operation_xyz
x,y,z
-x,y,-z
-x,-y,-z
x,-y,z
1/2+x,1/2+y,z
1/2-x,1/2+y,-z
1/2-x,1/2-y,-z
1/2+x,1/2-y,z
loop_
_atom_site_type_symbol
_atom_site_label
_atom_site_fract_x
_atom_site_fract_y
_atom_site_fract_z
Si Si1 0.802874 0.623020 0.969512
Si Si2 0.590936 0.781921 0.058601
Si Si3 0.055937 0.944516 0.240819
Si Si4 0.698633 0.377384 0.465537
Si Si5 0.056482 0.555362 0.261411
Si Si6 0.409390 0.714651 0.446936
O O1 0.724755 0.615803 0.775162
O O2 0.869199 0.587591 0.839097
O O3 0.840780 0.677301 0.964926
O O4 0.776437 0.615797 0.276121
O O5 0.600278 0.736104 0.853231
O O6 0.500000 0.802389 0.000000
O O7 0.593563 0.761249 0.358293
O O8 0.132372 0.913608 0.339056
O O9 0.000000 0.947837 0.500000
O O10 0.079978 0.000000 0.157463
O O11 0.000000 0.923022 0.000000
O O12 0.658417 0.323585 0.465076
O O13 0.082479 0.500000 0.344893
O O14 0.000000 0.575877 0.500000
O O15 0.000000 0.551364 0.000000
O O16 0.500000 0.692763 0.500000
#
# Coordination Sequence:
#
# PCOD9214451 Si02
#       6
#     8   8   8   8   8   8
#     4  12  25  38  60  93 126 158 194 251 316 366
#     4  10  22  40  61  84 115 161 211 253 297 361
#     4  10  22  42  66  89 119 163 210 252 298 364
#     4  12  25  38  60  93 126 158 194 251 316 366
#     4  10  22  42  66  89 119 163 210 252 298 364
#     4  10  22  40  61  84 115 161 211 253 297 361
#
# _framework density 21.506972000000001
#
# number of rings (size 3 to 8) (size 9 to 14) (size 15 to 20)
#    0.000    1.333    0.000    5.000    0.000    9.333 
#    0.000    0.000    0.000    0.000    0.000    0.000 
#    0.000    0.000    0.000    0.000    0.000    0.000 
#
# Total GULP energy -134099.119948 kJ/mol
# GULP energy per Si atom -5587.463331 kJ/mol
# Density = 2.145802 g / cm^3
# Si number density = 21.506972 Si / 1000 Ang^3
#
#
#
# Elastic Constant Matrix: (Units=GPa)
#
#
# Indices 1 2 3 4 5 6 
#
# 1 64.4963 31.0586 8.2824 0.0000 -2.9677 0.0000
# 2 31.0586 43.9702 -3.3450 0.0000 1.1556 0.0000
# 3 8.2824 -3.3450 93.5343 0.0000 -4.0385 0.0000
# 4 0.0000 0.0000 0.0000 62.9462 0.0000 -74.5336
# 5 -2.9677 1.1556 -4.0385 0.0000 47.8481 0.0000
# 6 0.0000 0.0000 0.0000 -74.5336 0.0000 230.9584
#
#
#
# Elastic Compliance Matrix: (Units=1/GPa)
#
#
# Indices 1 2 3 4 5 6 
#
# 1 0.024325 -0.017433 -0.002704 0.000000 0.001701 0.000000
# 2 -0.017433 0.035309 0.002733 0.000000 -0.001703 0.000000
# 3 -0.002704 0.002733 0.011059 0.000000 0.000700 0.000000
# 4 0.000000 0.000000 0.000000 0.025711 0.000000 0.008297
# 5 0.001701 -0.001703 0.000700 0.000000 0.021105 0.000000
# 6 0.000000 0.000000 0.000000 0.008297 0.000000 0.007007
#
#
# Mechanical properties :
#
#
# Convention : Reuss Voigt Hill
#
# Bulk Modulus (GPa) = 27.86658 30.44365 29.15511
# Shear Modulus (GPa) = 29.19098 79.41753 54.30425
#
# Velocity S-wave (km/s) = 3.68812 6.08330 5.03035
# Velocity P-wave (km/s) = 5.57866 7.97045 6.87930
#
# Compressibility (1/GPa) = 0.03588528
#
# Stress axis : x y z
#
# Youngs Moduli (GPa) = 41.10988 28.32149 90.42704
#
# Poissons Ratio (x) = 0.49372 0.24451
# Poissons Ratio (y) = 0.71665 -0.24712
# Poissons Ratio (z) = 0.11116 -0.07740
#
# Static dielectric constant tensor:
#      x y z
#    x 1.792410 0.000000 0.009620 
#    y 0.000000 1.780880 0.000000 
#    z 0.009620 0.000000 1.714620 
# 
# From -- ./inp_files/12364.got.cif
#   From: 2010.05.17/outbox.cif.g08.bks.cpg/sg12_7_cif.got.tgz:12364.got - 2010.06.03 13:09:07.
