data_PCOD9214295
_publ_section_title
;
Structure prediction by ZEFSAII (Michael W. Deem and Ramdas Pophale) SiO2 
 PCOD9214295
Probable space group: C 2/M
;
_chemical_formula_sum "Si O2"
_cell_formula_units_Z 32
_cell_length_a 8.630343
_cell_length_b 33.780749
_cell_length_c 10.849419
_cell_angle_alpha 90.000000
_cell_angle_beta 28.689079
_cell_angle_gamma 90.000000
_cell_volume 1518.434228
_symmetry_space_group_name_H-M "C 2/M"
_symmetry_group_IT_number 12
_symmetry_cell_setting 'monoclinic'
loop_
_space_group_symop_operation_xyz
x,y,z
-x,y,-z
-x,-y,-z
x,-y,z
1/2+x,1/2+y,z
1/2-x,1/2+y,-z
1/2-x,1/2-y,-z
1/2+x,1/2-y,z
loop_
_atom_site_type_symbol
_atom_site_label
_atom_site_fract_x
_atom_site_fract_y
_atom_site_fract_z
Si Si1 0.606359 0.000000 0.784122
Si Si2 0.758543 0.921712 0.050375
Si Si3 0.099752 0.785660 0.684022
Si Si4 0.233031 0.374931 0.456094
Si Si5 0.500000 0.749150 0.000000
O O1 0.433097 0.961739 0.845626
O O2 0.000000 0.000000 0.500000
O O3 0.500000 0.000000 0.000000
O O4 0.481757 0.890957 0.283052
O O5 0.000000 0.927139 0.000000
O O6 0.970410 0.903426 0.790799
O O7 0.250000 0.750000 0.500000
O O8 0.175112 0.829489 0.588524
O O9 0.722841 0.777850 0.923682
O O10 0.165996 0.778999 0.782745
O O11 0.000000 0.375484 0.500000
#
# Coordination Sequence:
#
# PCOD9214295 Si02
#       5
#     4   8   8   8   4
#     4  12  25  46  69 100 138 170 204 266 347 398
#     4  10  23  44  69  98 124 175 220 267 317 403
#     4  11  23  41  61  92 129 176 224 274 331 386
#     4  10  22  39  68  96 128 166 224 274 321 374
#     4  10  24  38  62  88 124 178 222 270 330 390
#
# _framework density 21.074342000000001
#
# number of rings (size 3 to 8) (size 9 to 14) (size 15 to 20)
#    0.000    1.500    0.000    4.125   12.250    0.000 
#    6.750    5.000    0.000    0.000    0.000    0.000 
#    0.000    0.000    0.000    0.000    0.000    0.000 
#
# Total GULP energy -89339.123656 kJ/mol
# GULP energy per Si atom -5583.695229 kJ/mol
# Density = 2.102638 g / cm^3
# Si number density = 21.074342 Si / 1000 Ang^3
#
#
#
# Elastic Constant Matrix: (Units=GPa)
#
#
# Indices 1 2 3 4 5 6 
#
# 1 56.8106 34.5258 30.7835 0.0000 2.5152 0.0000
# 2 34.5258 163.4465 59.1745 0.0000 -21.6379 0.0000
# 3 30.7835 59.1745 136.5384 0.0000 -3.9437 0.0000
# 4 0.0000 0.0000 0.0000 41.0794 0.0000 -4.5699
# 5 2.5152 -21.6379 -3.9437 0.0000 27.9776 0.0000
# 6 0.0000 0.0000 0.0000 -4.5699 0.0000 23.8395
#
#
#
# Elastic Compliance Matrix: (Units=1/GPa)
#
#
# Indices 1 2 3 4 5 6 
#
# 1 0.022252 -0.004254 -0.003340 0.000000 -0.005761 0.000000
# 2 -0.004254 0.008907 -0.002702 0.000000 0.006891 0.000000
# 3 -0.003340 -0.002702 0.009234 0.000000 -0.000488 0.000000
# 4 0.000000 0.000000 0.000000 0.024874 0.000000 0.004768
# 5 -0.005761 0.006891 -0.000488 0.000000 0.041521 0.000000
# 6 0.000000 0.000000 0.000000 0.004768 0.000000 0.042861
#
#
# Mechanical properties :
#
#
# Convention : Reuss Voigt Hill
#
# Bulk Modulus (GPa) = 50.50078 67.30700 58.90389
# Shear Modulus (GPa) = 28.27377 34.06673 31.17025
#
# Velocity S-wave (km/s) = 3.66679 4.02494 3.85003
# Velocity P-wave (km/s) = 6.47629 7.32171 6.91193
#
# Compressibility (1/GPa) = 0.01980168
#
# Stress axis : x y z
#
# Youngs Moduli (GPa) = 44.93881 112.26667 108.29640
#
# Poissons Ratio (x) = 0.47760 0.36167
# Poissons Ratio (y) = 0.19118 0.29264
# Poissons Ratio (z) = 0.15008 0.30337
#
# Static dielectric constant tensor:
#      x y z
#    x 1.820750 0.000000 -0.032170 
#    y 0.000000 1.752760 0.000000 
#    z -0.032170 0.000000 1.846370 
# 
# From -- ./inp_files/125562.got.cif
#   From: 2010.05.17/outbox.cif.g08.bks.cpg/sg12_63_cif.got.tgz:125562.got - 2010.06.03 13:09:07.
