data_PCOD9214127
_publ_section_title
;
Structure prediction by ZEFSAII (Michael W. Deem and Ramdas Pophale) SiO2 
 PCOD9214127
Probable space group: C 2/M
;
_chemical_formula_sum "Si O2"
_cell_formula_units_Z 48
_cell_length_a 12.522321
_cell_length_b 25.679501
_cell_length_c 14.852246
_cell_angle_alpha 90.000000
_cell_angle_beta 30.401067
_cell_angle_gamma 90.000000
_cell_volume 2416.889677
_symmetry_space_group_name_H-M "C 2/M"
_symmetry_group_IT_number 12
_symmetry_cell_setting 'monoclinic'
loop_
_space_group_symop_operation_xyz
x,y,z
-x,y,-z
-x,-y,-z
x,-y,z
1/2+x,1/2+y,z
1/2-x,1/2+y,-z
1/2-x,1/2-y,-z
1/2+x,1/2-y,z
loop_
_atom_site_type_symbol
_atom_site_label
_atom_site_fract_x
_atom_site_fract_y
_atom_site_fract_z
Si Si1 0.504714 0.000000 0.169941
Si Si2 0.974304 0.000000 0.912594
Si Si3 0.947422 0.386255 0.892805
Si Si4 0.526060 0.413588 0.740597
Si Si5 0.500000 0.799587 0.000000
Si Si6 0.194565 0.663514 0.554655
Si Si7 0.040521 0.758113 0.366318
Si Si8 0.440959 0.500000 0.434541
O O1 0.491471 0.054345 0.125573
O O2 0.312011 0.000000 0.378758
O O3 0.728385 0.000000 0.059034
O O4 0.072201 0.950584 0.791110
O O5 0.000000 0.000000 0.000000
O O6 0.058753 0.373300 0.718075
O O7 0.694984 0.385864 0.077582
O O8 0.017717 0.339378 0.904385
O O9 0.708754 0.372475 0.592505
O O10 0.494704 0.449717 0.672896
O O11 0.283423 0.767305 0.162184
O O12 0.400899 0.689909 0.450430
O O13 0.054274 0.711320 0.623306
O O14 0.000000 0.745206 0.500000
O O15 0.500000 0.500000 0.500000
#
# Coordination Sequence:
#
# PCOD9214127 Si02
#       8
#     4   4   8   8   4   8   8   4
#     4  10  22  39  63 100 132 168 220 252 321 406
#     4   9  21  45  67  90 137 176 221 277 319 383
#     4  11  23  39  66  95 136 170 214 268 329 393
#     4  10  22  42  64 100 130 176 221 264 332 393
#     4  12  24  39  68  96 134 175 214 266 344 392
#     4  11  23  43  68  89 132 171 219 277 324 383
#     4  11  25  44  65  95 124 170 226 273 329 398
#     4  11  23  37  65  98 145 174 209 262 329 412
#
# _framework density 19.860234999999999
#
# number of rings (size 3 to 8) (size 9 to 14) (size 15 to 20)
#    0.000    1.333    5.000    0.500    2.333    3.000 
#    6.000    1.667    0.000    0.000    0.000    0.000 
#    0.000    0.000    0.000    0.000    0.000    0.000 
#
# Total GULP energy -133905.640134 kJ/mol
# GULP energy per Si atom -5579.401672 kJ/mol
# Density = 1.981503 g / cm^3
# Si number density = 19.860235 Si / 1000 Ang^3
#
#
#
# Elastic Constant Matrix: (Units=GPa)
#
#
# Indices 1 2 3 4 5 6 
#
# 1 49.4741 16.4134 19.7650 -0.0103 8.9738 0.0135
# 2 16.4134 86.1941 51.8472 0.0007 -6.5757 0.0010
# 3 19.7650 51.8472 160.0646 -0.0069 -6.0836 -0.0143
# 4 -0.0103 0.0007 -0.0069 32.7307 0.0085 -13.3744
# 5 8.9738 -6.5757 -6.0836 0.0085 27.3586 -0.0030
# 6 0.0135 0.0010 -0.0143 -13.3744 -0.0030 57.7209
#
#
#
# Elastic Compliance Matrix: (Units=1/GPa)
#
#
# Indices 1 2 3 4 5 6 
#
# 1 0.024059 -0.004089 -0.002001 0.000008 -0.009319 -0.000005
# 2 -0.004089 0.015268 -0.004286 -0.000004 0.004058 -0.000001
# 3 -0.002001 -0.004286 0.007936 0.000002 0.001391 0.000003
# 4 0.000008 -0.000004 0.000002 0.033748 -0.000013 0.007820
# 5 -0.009319 0.004058 0.001391 -0.000013 0.040893 0.000002
# 6 -0.000005 -0.000001 0.000003 0.007820 0.000002 0.019137
#
#
# Mechanical properties :
#
#
# Convention : Reuss Voigt Hill
#
# Bulk Modulus (GPa) = 37.72033 52.42044 45.07039
# Shear Modulus (GPa) = 29.30339 37.40918 33.35629
#
# Velocity S-wave (km/s) = 3.84537 4.34478 4.10268
# Velocity P-wave (km/s) = 6.22494 7.18481 6.72203
#
# Compressibility (1/GPa) = 0.02651090
#
# Stress axis : x y z
#
# Youngs Moduli (GPa) = 41.56504 65.49504 126.01096
#
# Poissons Ratio (x) = 0.26781 0.25209
# Poissons Ratio (y) = 0.16996 0.54015
# Poissons Ratio (z) = 0.08315 0.28074
#
# Static dielectric constant tensor:
#      x y z
#    x 1.780010 0.000000 0.034270 
#    y 0.000000 1.724890 0.000010 
#    z 0.034270 0.000010 1.714780 
# 
# From -- ./inp_files/209357.got.cif
#   From: 2010.05.17/outbox.cif.g08.bks.cpg/sg12_105_cif.got.tgz:209357.got - 2010.06.03 13:09:07.
