data_PCOD9214856
_publ_section_title
;
Structure prediction by ZEFSAII (Michael W. Deem and Ramdas Pophale) SiO2 
 PCOD9214856
Probable space group: C 2/M
;
_chemical_formula_sum "Si O2"
_cell_formula_units_Z 48
_cell_length_a 17.413767
_cell_length_b 30.867713
_cell_length_c 8.994244
_cell_angle_alpha 90.000000
_cell_angle_beta 146.910929
_cell_angle_gamma 90.000000
_cell_volume 2639.419863
_symmetry_space_group_name_H-M "C 2/M"
_symmetry_group_IT_number 12
_symmetry_cell_setting 'monoclinic'
loop_
_space_group_symop_operation_xyz
x,y,z
-x,y,-z
-x,-y,-z
x,-y,z
1/2+x,1/2+y,z
1/2-x,1/2+y,-z
1/2-x,1/2-y,-z
1/2+x,1/2-y,z
loop_
_atom_site_type_symbol
_atom_site_label
_atom_site_fract_x
_atom_site_fract_y
_atom_site_fract_z
Si Si1 0.353646 0.124786 0.342526
Si Si2 0.139639 0.549764 0.427875
Si Si3 0.208756 0.289086 0.225883
Si Si4 0.194292 0.450094 0.172768
Si Si5 0.101076 0.709766 0.387266
Si Si6 0.666267 0.368821 0.753329
O O1 0.500000 0.112682 0.500000
O O2 0.307106 0.084804 0.369462
O O3 0.384542 0.166233 0.495013
O O4 0.241266 0.135737 0.034259
O O5 0.166589 0.500000 0.516007
O O6 0.199879 0.556326 0.359932
O O7 0.970294 0.555173 0.137948
O O8 0.167933 0.297380 0.332027
O O9 0.314958 0.248745 0.399151
O O10 0.276727 0.331002 0.261298
O O11 0.062468 0.279146 0.904456
O O12 0.233014 0.500000 0.203238
O O13 0.285062 0.414711 0.235683
O O14 0.500000 0.366319 0.500000
#
# Coordination Sequence:
#
# PCOD9214856 Si02
#       6
#     8   8   8   8   8   8
#     4  12  22  37  58  89 119 151 192 239 288 340
#     4   9  18  35  64  91 111 147 198 244 279 334
#     4  10  22  42  62  86 114 153 194 239 284 341
#     4   9  18  37  62  87 116 152 194 236 285 340
#     4  10  22  40  65  86 113 150 196 240 286 337
#     4  12  26  39  55  86 124 158 187 233 296 346
#
# _framework density 18.185815000000002
#
# number of rings (size 3 to 8) (size 9 to 14) (size 15 to 20)
#    0.000    1.667    3.333    2.000    2.333    5.333 
#    0.000    2.500    0.000    2.000    0.000    0.000 
#    0.000    0.000    0.000    0.000    0.000    0.000 
#
# Total GULP energy -134074.879857 kJ/mol
# GULP energy per Si atom -5586.453327 kJ/mol
# Density = 1.814442 g / cm^3
# Si number density = 18.185815 Si / 1000 Ang^3
#
#
#
# Elastic Constant Matrix: (Units=GPa)
#
#
# Indices 1 2 3 4 5 6 
#
# 1 47.3416 54.1220 39.8621 0.0000 2.2671 0.0000
# 2 54.1220 111.7832 52.1690 0.0000 -14.8772 0.0000
# 3 39.8621 52.1690 109.1830 0.0000 -2.7713 0.0000
# 4 0.0000 0.0000 0.0000 -54.6061 0.0000 104.0590
# 5 2.2671 -14.8772 -2.7713 0.0000 26.3801 0.0000
# 6 0.0000 0.0000 0.0000 104.0590 0.0000 -126.1615
#
#
#
# Elastic Compliance Matrix: (Units=1/GPa)
#
#
# Indices 1 2 3 4 5 6 
#
# 1 0.064693 -0.029777 -0.009985 0.000000 -0.023401 0.000000
# 2 -0.029777 0.026225 -0.001222 0.000000 0.017220 0.000000
# 3 -0.009985 -0.001222 0.013429 0.000000 0.001580 0.000000
# 4 0.000000 0.000000 0.000000 0.032028 0.000000 0.026417
# 5 -0.023401 0.017220 0.001580 0.000000 0.049796 0.000000
# 6 0.000000 0.000000 0.000000 0.026417 0.000000 0.013863
#
#
# Mechanical properties :
#
#
# Convention : Reuss Voigt Hill
#
# Bulk Modulus (GPa) = 44.68662 62.29043 53.48853
# Shear Modulus (GPa) = 17.27347 -22.73384 -2.73019
#
# Velocity S-wave (km/s) = 3.08528 -3.53949 -1.22659
# Velocity P-wave (km/s) = 6.10881 4.19792 5.24119
#
# Compressibility (1/GPa) = 0.02237806
#
# Stress axis : x y z
#
# Youngs Moduli (GPa) = 15.45765 38.13126 74.46772
#
# Poissons Ratio (x) = 1.13542 0.74358
# Poissons Ratio (y) = 0.46028 0.09102
# Poissons Ratio (z) = 0.15435 0.04661
#
# Static dielectric constant tensor:
#      x y z
#    x 1.612560 0.000000 -0.009610 
#    y 0.000000 1.601960 0.000000 
#    z -0.009610 0.000000 1.605980 
# 
# From -- ./inp_files/80820.got.cif
#   From: 2010.05.17/outbox.cif.g08.bks.cpg/sg12_41_cif.got.tgz:80820.got - 2010.06.03 13:09:07.
