data_PCOD9214515
_publ_section_title
;
Structure prediction by ZEFSAII (Michael W. Deem and Ramdas Pophale) SiO2 
 PCOD9214515
Probable space group: C 2/M
;
_chemical_formula_sum "Si O2"
_cell_formula_units_Z 42
_cell_length_a 9.859861
_cell_length_b 7.437327
_cell_length_c 24.128022
_cell_angle_alpha 90.000000
_cell_angle_beta 65.958031
_cell_angle_gamma 90.000000
_cell_volume 1615.837848
_symmetry_space_group_name_H-M "C 2/M"
_symmetry_group_IT_number 12
_symmetry_cell_setting 'monoclinic'
loop_
_space_group_symop_operation_xyz
x,y,z
-x,y,-z
-x,-y,-z
x,-y,z
1/2+x,1/2+y,z
1/2-x,1/2+y,-z
1/2-x,1/2-y,-z
1/2+x,1/2-y,z
loop_
_atom_site_type_symbol
_atom_site_label
_atom_site_fract_x
_atom_site_fract_y
_atom_site_fract_z
Si Si1 0.602333 0.214712 0.561213
Si Si2 0.923392 0.706884 0.137225
Si Si3 0.500000 0.500000 0.500000
Si Si4 0.755885 0.714181 0.933943
Si Si5 0.348304 0.718007 0.744677
Si Si6 0.827522 0.290925 0.327585
O O1 0.750000 0.250000 0.500000
O O2 0.485183 0.341462 0.550365
O O3 0.640095 0.281392 0.616716
O O4 0.571583 0.000000 0.565664
O O5 0.934786 0.500000 0.153215
O O6 0.877616 0.711038 0.080322
O O7 0.782181 0.783999 0.193282
O O8 0.086768 0.787489 0.115461
O O9 0.752677 0.500000 0.927316
O O10 0.750000 0.750000 0.000000
O O11 0.349261 0.500000 0.744888
O O12 0.514412 0.776578 0.730374
O O13 0.299746 0.782913 0.691212
O O14 0.796539 0.500000 0.340700
#
# Coordination Sequence:
#
# PCOD9214515 Si02
#       6
#     8   8   2   8   8   8
#     4  11  25  44  69 100 132 176 223 278 338 405
#     4  10  22  40  61  89 126 164 205 257 312 374
#     4  12  26  44  72  92 140 176 218 276 346 400
#     4  11  23  39  62  90 124 162 207 257 311 370
#     4  10  22  41  65  91 124 165 210 257 316 379
#     4  10  24  42  64  95 128 164 214 268 319 387
#
# _framework density 25.992708
#
# number of rings (size 3 to 8) (size 9 to 14) (size 15 to 20)
#    0.000    1.524    0.952    2.571    4.000    6.857 
#    0.000    0.000    0.000    0.000    0.000    0.000 
#    0.000    0.000    0.000    0.000    0.000    0.000 
#
# Total GULP energy -117339.275968 kJ/mol
# GULP energy per Si atom -5587.584570 kJ/mol
# Density = 2.593355 g / cm^3
# Si number density = 25.992708 Si / 1000 Ang^3
#
#
#
# Elastic Constant Matrix: (Units=GPa)
#
#
# Indices 1 2 3 4 5 6 
#
# 1 110.6252 2.7499 -2.4351 0.0000 -1.2000 0.0000
# 2 2.7499 141.1776 2.3609 0.0000 4.6616 0.0000
# 3 -2.4351 2.3609 87.3782 0.0000 4.6159 0.0000
# 4 0.0000 0.0000 0.0000 24.3573 0.0000 -2.0243
# 5 -1.2000 4.6616 4.6159 0.0000 53.8474 0.0000
# 6 0.0000 0.0000 0.0000 -2.0243 0.0000 19.9131
#
#
#
# Elastic Compliance Matrix: (Units=1/GPa)
#
#
# Indices 1 2 3 4 5 6 
#
# 1 0.009052 -0.000187 0.000247 0.000000 0.000197 0.000000
# 2 -0.000187 0.007110 -0.000165 0.000000 -0.000605 0.000000
# 3 0.000247 -0.000165 0.011507 0.000000 -0.000967 0.000000
# 4 0.000000 0.000000 0.000000 0.041405 0.000000 0.004209
# 5 0.000197 -0.000605 -0.000967 0.000000 0.018711 0.000000
# 6 0.000000 0.000000 0.000000 0.004209 0.000000 0.050646
#
#
# Mechanical properties :
#
#
# Convention : Reuss Voigt Hill
#
# Bulk Modulus (GPa) = 36.41974 38.28139 37.35057
# Shear Modulus (GPa) = 33.83095 42.05725 37.94410
#
# Velocity S-wave (km/s) = 3.61162 4.02685 3.82488
# Velocity P-wave (km/s) = 5.60658 6.03162 5.82298
#
# Compressibility (1/GPa) = 0.02745763
#
# Stress axis : x y z
#
# Youngs Moduli (GPa) = 110.47590 140.65339 86.90429
#
# Poissons Ratio (x) = 0.02629 -0.02146
# Poissons Ratio (y) = 0.02065 0.01437
# Poissons Ratio (z) = -0.02728 0.02325
#
# Static dielectric constant tensor:
#      x y z
#    x 2.173960 0.000000 -0.068520 
#    y 0.000000 1.995010 0.000000 
#    z -0.068520 0.000000 2.109430 
# 
# From -- ./inp_files/303577.got.cif
#   From: 2010.05.17/outbox.cif.g08.bks.cpg/sg12_152_cif.got.tgz:303577.got - 2010.06.03 13:09:07.
