data_PCOD9214352
_publ_section_title
;
Structure prediction by ZEFSAII (Michael W. Deem and Ramdas Pophale) SiO2 
 PCOD9214352
Probable space group: C 2/M
;
_chemical_formula_sum "Si O2"
_cell_formula_units_Z 42
_cell_length_a 14.309682
_cell_length_b 7.383878
_cell_length_c 21.357356
_cell_angle_alpha 90.000000
_cell_angle_beta 132.647941
_cell_angle_gamma 90.000000
_cell_volume 1659.826329
_symmetry_space_group_name_H-M "C 2/M"
_symmetry_group_IT_number 12
_symmetry_cell_setting 'monoclinic'
loop_
_space_group_symop_operation_xyz
x,y,z
-x,y,-z
-x,-y,-z
x,-y,z
1/2+x,1/2+y,z
1/2-x,1/2+y,-z
1/2-x,1/2-y,-z
1/2+x,1/2-y,z
loop_
_atom_site_type_symbol
_atom_site_label
_atom_site_fract_x
_atom_site_fract_y
_atom_site_fract_z
Si Si1 0.174656 0.701413 0.266059
Si Si2 0.600575 0.792546 0.860443
Si Si3 0.624992 0.720798 0.017940
Si Si4 0.561806 0.718471 0.638670
Si Si5 0.184302 0.790812 0.404185
Si Si6 0.500000 0.000000 0.500000
O O1 0.151513 0.500000 0.230529
O O2 0.293402 0.777325 0.282293
O O3 0.225935 0.691679 0.360727
O O4 0.038517 0.794896 0.210496
O O5 0.614382 0.789015 0.942119
O O6 0.591411 0.000000 0.833411
O O7 0.734488 0.718650 0.895356
O O8 0.627178 0.500000 0.017230
O O9 0.500000 0.774812 0.000000
O O10 0.559965 0.500000 0.624826
O O11 0.463932 0.743251 0.650811
O O12 0.512308 0.841455 0.559951
O O13 0.250000 0.750000 0.500000
O O14 0.213221 0.000000 0.403524
#
# Coordination Sequence:
#
# PCOD9214352 Si02
#       6
#     8   8   8   8   8   2
#     4  10  22  40  59  81 119 157 196 250 302 354
#     4   9  19  36  57  83 117 157 192 234 293 349
#     4   9  18  34  57  87 120 152 192 238 283 344
#     4  10  24  41  57  85 118 150 195 253 305 357
#     4  11  24  39  58  84 114 148 196 250 301 357
#     4  12  22  36  68  82 108 154 202 244 302 374
#
# _framework density 25.303851000000002
#
# number of rings (size 3 to 8) (size 9 to 14) (size 15 to 20)
#    0.000    2.095    0.000    2.000    6.667    5.714 
#    0.000    0.000    0.000    0.000    0.000    0.000 
#    0.000    0.000    0.000    0.000    0.000    0.000 
#
# Total GULP energy -117022.703821 kJ/mol
# GULP energy per Si atom -5572.509706 kJ/mol
# Density = 2.524626 g / cm^3
# Si number density = 25.303851 Si / 1000 Ang^3
#
#
#
# Elastic Constant Matrix: (Units=GPa)
#
#
# Indices 1 2 3 4 5 6 
#
# 1 111.5885 11.0900 34.3371 0.0000 43.1498 0.0000
# 2 11.0900 113.7275 -6.5393 0.0000 4.4134 0.0000
# 3 34.3371 -6.5393 72.9890 0.0000 32.5472 0.0000
# 4 0.0000 0.0000 0.0000 3.0624 0.0000 -9.8224
# 5 43.1498 4.4134 32.5472 0.0000 49.2536 0.0000
# 6 0.0000 0.0000 0.0000 -9.8224 0.0000 12.8806
#
#
#
# Elastic Compliance Matrix: (Units=1/GPa)
#
#
# Indices 1 2 3 4 5 6 
#
# 1 0.013791 -0.001025 -0.001748 0.000000 -0.010835 0.000000
# 2 -0.001025 0.009037 0.001776 0.000000 -0.001085 0.000000
# 3 -0.001748 0.001776 0.019948 0.000000 -0.011810 0.000000
# 4 0.000000 0.000000 0.000000 -0.225837 0.000000 -0.172218
# 5 -0.010835 -0.001085 -0.011810 0.000000 0.037696 0.000000
# 6 0.000000 0.000000 0.000000 -0.172218 0.000000 -0.053693
#
#
# Mechanical properties :
#
#
# Convention : Reuss Voigt Hill
#
# Bulk Modulus (GPa) = 24.52066 41.78672 33.15369
# Shear Modulus (GPa) = -27.25263 30.33380 1.54058
#
# Velocity S-wave (km/s) = -3.28535 3.46610 0.78112
# Velocity P-wave (km/s) = 2.16330 5.70686 3.73420
#
# Compressibility (1/GPa) = 0.04078194
#
# Stress axis : x y z
#
# Youngs Moduli (GPa) = 72.51100 110.65478 50.12947
#
# Poissons Ratio (x) = 0.11341 0.08764
# Poissons Ratio (y) = 0.07431 -0.08902
# Poissons Ratio (z) = 0.12676 -0.19650
#
# Static dielectric constant tensor:
#      x y z
#    x 1.968220 0.000000 0.115280 
#    y 0.000000 1.962980 0.000000 
#    z 0.115280 0.000000 2.113780 
# 
# From -- ./inp_files/360121.got.cif
#   From: 2010.05.17/outbox.cif.g08.bks.cpg/sg12_181_cif.got.tgz:360121.got - 2010.06.03 13:09:07.
