data_PCOD9214291
_publ_section_title
;
Structure prediction by ZEFSAII (Michael W. Deem and Ramdas Pophale) SiO2 
 PCOD9214291
Probable space group: C 2/M
;
_chemical_formula_sum "Si O2"
_cell_formula_units_Z 42
_cell_length_a 5.815626
_cell_length_b 26.625225
_cell_length_c 14.635858
_cell_angle_alpha 90.000000
_cell_angle_beta 56.881902
_cell_angle_gamma 90.000000
_cell_volume 1898.089577
_symmetry_space_group_name_H-M "C 2/M"
_symmetry_group_IT_number 12
_symmetry_cell_setting 'monoclinic'
loop_
_space_group_symop_operation_xyz
x,y,z
-x,y,-z
-x,-y,-z
x,-y,z
1/2+x,1/2+y,z
1/2-x,1/2+y,-z
1/2-x,1/2-y,-z
1/2+x,1/2-y,z
loop_
_atom_site_type_symbol
_atom_site_label
_atom_site_fract_x
_atom_site_fract_y
_atom_site_fract_z
Si Si1 0.873558 0.919574 0.836739
Si Si2 0.688284 0.224281 0.670960
Si Si3 0.180121 0.054298 0.592049
Si Si4 0.000000 0.891715 0.000000
Si Si5 0.500000 0.000000 0.000000
Si Si6 0.500000 0.640876 0.500000
Si Si7 0.473470 0.178861 0.106286
O O1 0.778127 0.861762 0.840977
O O2 0.089568 0.937286 0.715484
O O3 0.005611 0.924059 0.907896
O O4 0.611981 0.955844 0.904200
O O5 0.479972 0.254120 0.648125
O O6 0.540083 0.211699 0.799417
O O7 0.767131 0.176071 0.593532
O O8 0.500000 0.051948 0.500000
O O9 0.080263 0.103233 0.562226
O O10 0.058684 0.000000 0.590595
O O11 0.738105 0.856121 0.055791
O O12 0.500000 0.204280 0.000000
#
# Coordination Sequence:
#
# PCOD9214291 Si02
#       7
#     8   8   8   4   2   4   8
#     4  11  22  42  66 103 146 190 241 302 375 445
#     4  12  30  49  77 114 144 198 264 323 390 466
#     4  11  26  45  71 108 147 199 254 309 377 461
#     4  10  22  39  68 101 136 198 235 296 391 448
#     4  12  20  42  66 104 146 180 246 308 352 472
#     4  12  27  48  78  96 152 196 245 328 380 452
#     4  10  23  44  69 101 144 192 238 310 387 453
#
# _framework density 22.127514000000001
#
# number of rings (size 3 to 8) (size 9 to 14) (size 15 to 20)
#    0.000    0.952    5.714    0.857   10.667    1.143 
#    0.000    0.000    0.000    0.000    0.000    0.000 
#    0.000    0.000    0.000    0.000    0.000    0.000 
#
# Total GULP energy -116903.712963 kJ/mol
# GULP energy per Si atom -5566.843474 kJ/mol
# Density = 2.207715 g / cm^3
# Si number density = 22.127514 Si / 1000 Ang^3
#
#
#
# Elastic Constant Matrix: (Units=GPa)
#
#
# Indices 1 2 3 4 5 6 
#
# 1 70.0140 30.0916 40.8855 0.0000 16.4478 0.0000
# 2 30.0916 73.2886 32.1811 0.0000 11.8507 0.0000
# 3 40.8855 32.1811 168.8347 0.0000 7.3898 0.0000
# 4 0.0000 0.0000 0.0000 43.6659 0.0000 -4.7554
# 5 16.4478 11.8507 7.3898 0.0000 31.2254 0.0000
# 6 0.0000 0.0000 0.0000 -4.7554 0.0000 34.6125
#
#
#
# Elastic Compliance Matrix: (Units=1/GPa)
#
#
# Indices 1 2 3 4 5 6 
#
# 1 0.020648 -0.005629 -0.003582 0.000000 -0.007892 0.000000
# 2 -0.005629 0.017251 -0.001787 0.000000 -0.003159 0.000000
# 3 -0.003582 -0.001787 0.007092 0.000000 0.000886 0.000000
# 4 0.000000 0.000000 0.000000 0.023249 0.000000 0.003194
# 5 -0.007892 -0.003159 0.000886 0.000000 0.037172 0.000000
# 6 0.000000 0.000000 0.000000 0.003194 0.000000 0.029330
#
#
# Mechanical properties :
#
#
# Convention : Reuss Voigt Hill
#
# Bulk Modulus (GPa) = 43.48540 57.60597 50.54568
# Shear Modulus (GPa) = 30.41320 35.83270 33.12295
#
# Velocity S-wave (km/s) = 3.71138 4.02851 3.87319
# Velocity P-wave (km/s) = 6.16933 6.90859 6.54940
#
# Compressibility (1/GPa) = 0.02299622
#
# Stress axis : x y z
#
# Youngs Moduli (GPa) = 48.43145 57.96660 141.00159
#
# Poissons Ratio (x) = 0.32628 0.50504
# Poissons Ratio (y) = 0.27261 0.25195
# Poissons Ratio (z) = 0.17347 0.10358
#
# Static dielectric constant tensor:
#      x y z
#    x 1.894770 0.000000 0.043330 
#    y 0.000000 1.867670 0.000000 
#    z 0.043330 0.000000 1.709740 
# 
# From -- ./inp_files/192045.got.cif
#   From: 2010.05.17/outbox.cif.g08.bks.cpg/sg12_97_cif.got.tgz:192045.got - 2010.06.03 13:09:07.
