data_PCOD9214750
_publ_section_title
;
Structure prediction by ZEFSAII (Michael W. Deem and Ramdas Pophale) SiO2 
 PCOD9214750
Probable space group: C 2/M
;
_chemical_formula_sum "Si O2"
_cell_formula_units_Z 48
_cell_length_a 11.214272
_cell_length_b 14.901039
_cell_length_c 15.343819
_cell_angle_alpha 90.000000
_cell_angle_beta 56.188782
_cell_angle_gamma 90.000000
_cell_volume 2130.379996
_symmetry_space_group_name_H-M "C 2/M"
_symmetry_group_IT_number 12
_symmetry_cell_setting 'monoclinic'
loop_
_space_group_symop_operation_xyz
x,y,z
-x,y,-z
-x,-y,-z
x,-y,z
1/2+x,1/2+y,z
1/2-x,1/2+y,-z
1/2-x,1/2-y,-z
1/2+x,1/2-y,z
loop_
_atom_site_type_symbol
_atom_site_label
_atom_site_fract_x
_atom_site_fract_y
_atom_site_fract_z
Si Si1 0.136070 0.396147 0.157500
Si Si2 0.071012 0.104626 0.705075
Si Si3 0.079735 0.891572 0.053681
Si Si4 0.340051 0.271871 0.731876
Si Si5 0.110780 0.401311 0.876597
Si Si6 0.325895 0.210924 0.556676
O O1 0.167139 0.500000 0.171383
O O2 0.140944 0.326411 0.234655
O O3 0.983402 0.393886 0.172246
O O4 0.254449 0.371017 0.035135
O O5 0.237877 0.121115 0.617383
O O6 0.009408 0.136290 0.824858
O O7 0.983278 0.169125 0.676690
O O8 0.037812 0.000000 0.708695
O O9 0.071677 0.000000 0.058790
O O10 0.000000 0.857753 0.000000
O O11 0.226451 0.324831 0.835951
O O12 0.285395 0.272580 0.655641
O O13 0.181547 0.500000 0.850396
O O14 0.000000 0.397802 0.000000
O O15 0.500000 0.200978 0.500000
O O16 0.250000 0.250000 0.500000
#
# Coordination Sequence:
#
# PCOD9214750 Si02
#       6
#     8   8   8   8   8   8
#     4  10  22  40  64 100 144 187 231 279 333 408
#     4  11  24  44  72 105 139 184 235 288 349 422
#     4   9  18  35  60  95 140 181 223 276 332 401
#     4  12  24  42  72 100 140 182 234 287 355 414
#     4  10  22  40  63  99 146 189 228 273 334 415
#     4  12  27  51  75  99 137 178 232 303 365 418
#
# _framework density 22.531191
#
# number of rings (size 3 to 8) (size 9 to 14) (size 15 to 20)
#    0.000    1.333    1.667    3.500    0.000    9.667 
#    0.000    2.500    0.000    0.000    0.000    0.000 
#    0.000    0.000    0.000    0.000    0.000    0.000 
#
# Total GULP energy -133987.697445 kJ/mol
# GULP energy per Si atom -5582.820727 kJ/mol
# Density = 2.247991 g / cm^3
# Si number density = 22.531191 Si / 1000 Ang^3
#
#
#
# Elastic Constant Matrix: (Units=GPa)
#
#
# Indices 1 2 3 4 5 6 
#
# 1 107.3156 57.2661 49.8228 0.0000 0.9143 0.0000
# 2 57.2661 105.9986 48.7026 0.0000 -0.3955 0.0000
# 3 49.8228 48.7026 90.5263 0.0000 8.0626 0.0000
# 4 0.0000 0.0000 0.0000 25.3094 0.0000 -6.2743
# 5 0.9143 -0.3955 8.0626 0.0000 51.7451 0.0000
# 6 0.0000 0.0000 0.0000 -6.2743 0.0000 25.0206
#
#
#
# Elastic Compliance Matrix: (Units=1/GPa)
#
#
# Indices 1 2 3 4 5 6 
#
# 1 0.014661 -0.005567 -0.005118 0.000000 0.000496 0.000000
# 2 -0.005567 0.014715 -0.004940 0.000000 0.000981 0.000000
# 3 -0.005118 -0.004940 0.016749 0.000000 -0.002557 0.000000
# 4 0.000000 0.000000 0.000000 0.042130 0.000000 0.010565
# 5 0.000496 0.000981 -0.002557 0.000000 0.019723 0.000000
# 6 0.000000 0.000000 0.000000 0.010565 0.000000 0.042616
#
#
# Mechanical properties :
#
#
# Convention : Reuss Voigt Hill
#
# Bulk Modulus (GPa) = 67.22919 68.38039 67.80479
# Shear Modulus (GPa) = 26.76623 30.28494 28.52558
#
# Velocity S-wave (km/s) = 3.45042 3.67022 3.56202
# Velocity P-wave (km/s) = 6.76587 6.95527 6.86122
#
# Compressibility (1/GPa) = 0.01487449
#
# Stress axis : x y z
#
# Youngs Moduli (GPa) = 68.20820 67.95675 59.70623
#
# Poissons Ratio (x) = 0.37833 0.30557
# Poissons Ratio (y) = 0.37973 0.29495
# Poissons Ratio (z) = 0.34909 0.33571
#
# Static dielectric constant tensor:
#      x y z
#    x 1.927600 0.000000 -0.018340 
#    y 0.000000 1.818020 0.000000 
#    z -0.018340 0.000000 1.876470 
# 
# From -- ./inp_files/204863.got.cif
#   From: 2010.05.17/outbox.cif.g08.bks.cpg/sg12_103_cif.got.tgz:204863.got - 2010.06.03 13:09:07.
