data_PCOD9214387
_publ_section_title
;
Structure prediction by ZEFSAII (Michael W. Deem and Ramdas Pophale) SiO2 
 PCOD9214387
Probable space group: C 2/M
;
_chemical_formula_sum "Si O2"
_cell_formula_units_Z 32
_cell_length_a 6.712422
_cell_length_b 13.396209
_cell_length_c 12.154816
_cell_angle_alpha 90.000000
_cell_angle_beta 102.127030
_cell_angle_gamma 90.000000
_cell_volume 1068.582774
_symmetry_space_group_name_H-M "C 2/M"
_symmetry_group_IT_number 12
_symmetry_cell_setting 'monoclinic'
loop_
_space_group_symop_operation_xyz
x,y,z
-x,y,-z
-x,-y,-z
x,-y,z
1/2+x,1/2+y,z
1/2-x,1/2+y,-z
1/2-x,1/2-y,-z
1/2+x,1/2-y,z
loop_
_atom_site_type_symbol
_atom_site_label
_atom_site_fract_x
_atom_site_fract_y
_atom_site_fract_z
Si Si1 0.125781 0.881732 0.847272
Si Si2 0.579228 0.330866 0.393375
Si Si3 0.997148 0.385187 0.664094
Si Si4 0.309965 0.880758 0.085896
O O1 0.094321 0.844325 0.720597
O O2 0.908607 0.863527 0.881517
O O3 0.152759 0.000000 0.841659
O O4 0.287918 0.844029 0.957084
O O5 0.500000 0.370819 0.500000
O O6 0.779298 0.383287 0.367980
O O7 0.609705 0.210744 0.402405
O O8 0.922474 0.500000 0.645644
O O9 0.032696 0.358380 0.797578
O O10 0.329380 0.000000 0.076207
#
# Coordination Sequence:
#
# PCOD9214387 Si02
#       4
#     8   8   8   8
#     4   8  14  27  51  81 110 141 181 229 274 325
#     4  11  22  37  57  85 115 149 193 227 273 343
#     4  10  22  40  60  83 114 148 186 237 282 325
#     4   7  12  27  51  78 106 139 181 225 276 329
#
# _framework density 29.946204999999999
#
# number of rings (size 3 to 8) (size 9 to 14) (size 15 to 20)
#    0.000    3.000    0.000    4.500    0.000    3.500 
#    0.000    2.500    0.000    0.000    0.000   19.250 
#    0.000    0.000    0.000    0.000    0.000    0.000 
#
# Total GULP energy -89742.790350 kJ/mol
# GULP energy per Si atom -5608.924397 kJ/mol
# Density = 2.987805 g / cm^3
# Si number density = 29.946205 Si / 1000 Ang^3
#
#
#
# Elastic Constant Matrix: (Units=GPa)
#
#
# Indices 1 2 3 4 5 6 
#
# 1 99.1636 20.3328 47.9683 0.0000 2.4954 0.0000
# 2 20.3328 193.5915 47.9928 0.0000 3.8918 0.0000
# 3 47.9683 47.9928 289.5860 0.0000 -32.6884 0.0000
# 4 0.0000 0.0000 0.0000 -606.4363 0.0000 -263.9798
# 5 2.4954 3.8918 -32.6884 0.0000 64.8254 0.0000
# 6 0.0000 0.0000 0.0000 -263.9798 0.0000 -70.7696
#
#
#
# Elastic Compliance Matrix: (Units=1/GPa)
#
#
# Indices 1 2 3 4 5 6 
#
# 1 0.011171 -0.000678 -0.001890 0.000000 -0.001342 0.000000
# 2 -0.000678 0.005469 -0.000878 0.000000 -0.000745 0.000000
# 3 -0.001890 -0.000878 0.004163 0.000000 0.002225 0.000000
# 4 0.000000 0.000000 0.000000 0.002644 0.000000 -0.009862
# 5 -0.001342 -0.000745 0.002225 0.000000 0.016644 0.000000
# 6 0.000000 0.000000 0.000000 -0.009862 0.000000 0.022655
#
#
# Mechanical properties :
#
#
# Convention : Reuss Voigt Hill
#
# Bulk Modulus (GPa) = 71.88046 90.54765 81.21406
# Shear Modulus (GPa) = 67.31692 -91.40629 -12.04468
#
# Velocity S-wave (km/s) = 4.74638 -5.53080 -2.00769
# Velocity P-wave (km/s) = 7.35478 3.23789 4.66952
#
# Compressibility (1/GPa) = 0.01391199
#
# Stress axis : x y z
#
# Youngs Moduli (GPa) = 89.51610 182.83478 240.21858
#
# Poissons Ratio (x) = 0.12394 0.45392
# Poissons Ratio (y) = 0.06068 0.21098
# Poissons Ratio (z) = 0.16915 0.16058
#
# Static dielectric constant tensor:
#      x y z
#    x 2.429610 0.000000 0.030880 
#    y 0.000000 2.197750 0.000000 
#    z 0.030880 0.000000 2.289020 
# 
# From -- ./inp_files/117443.got.cif
#   From: 2010.05.17/outbox.cif.g08.bks.cpg/sg12_59_cif.got.tgz:117443.got - 2010.06.03 13:09:07.
