data_PCOD9214240
_publ_section_title
;
Structure prediction by ZEFSAII (Michael W. Deem and Ramdas Pophale) SiO2 
 PCOD9214240
Probable space group: C 2/M
;
_chemical_formula_sum "Si O2"
_cell_formula_units_Z 64
_cell_length_a 9.073257
_cell_length_b 31.353816
_cell_length_c 14.434883
_cell_angle_alpha 90.000000
_cell_angle_beta 136.085731
_cell_angle_gamma 90.000000
_cell_volume 2848.159012
_symmetry_space_group_name_H-M "C 2/M"
_symmetry_group_IT_number 12
_symmetry_cell_setting 'monoclinic'
loop_
_space_group_symop_operation_xyz
x,y,z
-x,y,-z
-x,-y,-z
x,-y,z
1/2+x,1/2+y,z
1/2-x,1/2+y,-z
1/2-x,1/2-y,-z
1/2+x,1/2-y,z
loop_
_atom_site_type_symbol
_atom_site_label
_atom_site_fract_x
_atom_site_fract_y
_atom_site_fract_z
Si Si1 0.806529 0.270153 0.339377
Si Si2 0.371270 0.050526 0.035828
Si Si3 0.015518 0.159092 0.290837
Si Si4 0.789237 0.881180 0.447034
Si Si5 0.774511 0.182269 0.876524
Si Si6 0.984347 0.451731 0.295696
Si Si7 0.376602 0.177779 0.790048
Si Si8 0.579278 0.596210 0.161215
O O1 0.614235 0.298634 0.292034
O O2 0.852043 0.292808 0.261252
O O3 0.728978 0.222740 0.284252
O O4 0.000000 0.271295 0.500000
O O5 0.158600 0.078151 0.955568
O O6 0.316079 0.000000 0.002038
O O7 0.500000 0.062153 0.000000
O O8 0.500625 0.054347 0.191069
O O9 0.123504 0.152166 0.439113
O O10 0.083879 0.118180 0.263254
O O11 0.762084 0.161773 0.186835
O O12 0.631945 0.917053 0.411612
O O13 0.670228 0.855314 0.313548
O O14 0.000000 0.902384 0.500000
O O15 0.630088 0.180846 0.902456
O O16 0.838128 0.135810 0.865053
O O17 0.000000 0.204197 0.000000
O O18 0.041220 0.500000 0.343414
O O19 0.744109 0.441334 0.216499
#
# Coordination Sequence:
#
# PCOD9214240 Si02
#       8
#     8   8   8   8   8   8   8   8
#     4  11  23  41  68  97 127 173 230 283 327 394
#     4  10  23  41  68  99 125 161 219 278 320 391
#     4  10  24  39  63 100 128 169 221 277 321 393
#     4  10  22  39  65  92 126 167 216 273 329 388
#     4  11  24  40  63  94 131 175 215 270 343 398
#     4  11  23  42  66  93 127 171 214 264 333 394
#     4  11  22  42  66  92 129 171 224 273 332 389
#     4  11  23  39  64  92 131 172 216 265 328 395
#
# _framework density 22.470654
#
# number of rings (size 3 to 8) (size 9 to 14) (size 15 to 20)
#    0.000    1.375    1.250    4.125    5.250    3.250 
#    0.000    3.750    0.000    0.000    0.000    0.000 
#    0.000    0.000    0.000    0.000    0.000    0.000 
#
# Total GULP energy -178832.202593 kJ/mol
# GULP energy per Si atom -5588.506331 kJ/mol
# Density = 2.241951 g / cm^3
# Si number density = 22.470654 Si / 1000 Ang^3
#
#
#
# Elastic Constant Matrix: (Units=GPa)
#
#
# Indices 1 2 3 4 5 6 
#
# 1 129.3802 16.8577 15.4914 0.0000 9.7980 0.0000
# 2 16.8577 107.5755 5.1575 0.0000 3.0568 0.0000
# 3 15.4914 5.1575 36.5060 0.0000 8.5026 0.0000
# 4 0.0000 0.0000 0.0000 14.3835 0.0000 0.1438
# 5 9.7980 3.0568 8.5026 0.0000 25.3123 0.0000
# 6 0.0000 0.0000 0.0000 0.1438 0.0000 28.9560
#
#
#
# Elastic Compliance Matrix: (Units=1/GPa)
#
#
# Indices 1 2 3 4 5 6 
#
# 1 0.008384 -0.001114 -0.002903 0.000000 -0.002136 0.000000
# 2 -0.001114 0.009520 -0.000765 0.000000 -0.000462 0.000000
# 3 -0.002903 -0.000765 0.030864 0.000000 -0.009151 0.000000
# 4 0.000000 0.000000 0.000000 0.069527 0.000000 -0.000345
# 5 -0.002136 -0.000462 -0.009151 0.000000 0.043463 0.000000
# 6 0.000000 0.000000 0.000000 -0.000345 0.000000 0.034537
#
#
# Mechanical properties :
#
#
# Convention : Reuss Voigt Hill
#
# Bulk Modulus (GPa) = 25.50710 38.71943 32.11326
# Shear Modulus (GPa) = 22.83874 29.46072 26.14973
#
# Velocity S-wave (km/s) = 3.19153 3.62481 3.41505
# Velocity P-wave (km/s) = 4.99571 5.89809 5.46555
#
# Compressibility (1/GPa) = 0.03920478
#
# Stress axis : x y z
#
# Youngs Moduli (GPa) = 119.28061 105.04056 32.40008
#
# Poissons Ratio (x) = 0.11700 0.09405
# Poissons Ratio (y) = 0.13287 0.02478
# Poissons Ratio (z) = 0.34625 0.08033
#
# Static dielectric constant tensor:
#      x y z
#    x 1.901220 0.000000 0.008800 
#    y 0.000000 1.793980 0.000000 
#    z 0.008800 0.000000 1.869630 
# 
# From -- ./inp_files/201341.got.cif
#   From: 2010.05.17/outbox.cif.g08.bks.cpg/sg12_101_cif.got.tgz:201341.got - 2010.06.03 13:09:07.
