data_PCOD9214058
_publ_section_title
;
Structure prediction by ZEFSAII (Michael W. Deem and Ramdas Pophale) SiO2 
 PCOD9214058
Probable space group: C 2/M
;
_chemical_formula_sum "Si O2"
_cell_formula_units_Z 50
_cell_length_a 18.384813
_cell_length_b 13.481963
_cell_length_c 18.655332
_cell_angle_alpha 90.000000
_cell_angle_beta 34.677415
_cell_angle_gamma 90.000000
_cell_volume 2630.834674
_symmetry_space_group_name_H-M "C 2/M"
_symmetry_group_IT_number 12
_symmetry_cell_setting 'monoclinic'
loop_
_space_group_symop_operation_xyz
x,y,z
-x,y,-z
-x,-y,-z
x,-y,z
1/2+x,1/2+y,z
1/2-x,1/2+y,-z
1/2-x,1/2-y,-z
1/2+x,1/2-y,z
loop_
_atom_site_type_symbol
_atom_site_label
_atom_site_fract_x
_atom_site_fract_y
_atom_site_fract_z
Si Si1 0.500000 0.500000 0.000000
Si Si2 0.803020 0.835902 0.098524
Si Si3 0.627818 0.887099 0.444606
Si Si4 0.070559 0.294932 0.106031
Si Si5 0.305379 0.217027 0.237053
Si Si6 0.386137 0.000000 0.991663
Si Si7 0.020440 0.387253 0.291336
Si Si8 0.188918 0.500000 0.786108
O O1 0.595000 0.414324 0.956558
O O2 0.808022 0.745284 0.151107
O O3 0.660774 0.879516 0.212768
O O4 0.838569 0.794555 0.991237
O O5 0.500000 0.882536 0.500000
O O6 0.723448 0.802687 0.341123
O O7 0.582884 0.871491 0.562675
O O8 0.680504 0.000000 0.393989
O O9 0.137197 0.399356 0.032536
O O10 0.020471 0.308486 0.227151
O O11 0.946947 0.281597 0.155207
O O12 0.255441 0.104362 0.286079
O O13 0.538730 0.000000 0.885574
O O14 0.312891 0.000000 0.126257
O O15 0.002096 0.500000 0.278386
#
# Coordination Sequence:
#
# PCOD9214058 Si02
#       8
#     2   8   8   8   8   4   8   4
#     4  12  24  34  60  98 128 154 208 244 314 356
#     4  12  22  37  60  91 124 158 195 249 307 361
#     4  10  22  39  62  87 115 160 211 252 295 358
#     4  11  21  36  59  90 120 154 191 249 306 359
#     4  11  21  36  63  87 118 156 205 253 293 358
#     4   9  16  31  54  84 118 139 192 233 286 369
#     4  11  23  39  60  85 122 161 199 248 302 365
#     4   9  18  32  55  87 113 149 195 244 297 345
#
# _framework density 19.005374
#
# number of rings (size 3 to 8) (size 9 to 14) (size 15 to 20)
#    0.000    1.280    6.400    0.480    1.120    0.640 
#    0.000    0.400    0.000    0.960    0.000    0.000 
#    0.000    0.000    0.000    0.000    0.000    0.000 
#
# Total GULP energy -139281.427594 kJ/mol
# GULP energy per Si atom -5571.257104 kJ/mol
# Density = 1.896212 g / cm^3
# Si number density = 19.005374 Si / 1000 Ang^3
#
#
#
# Elastic Constant Matrix: (Units=GPa)
#
#
# Indices 1 2 3 4 5 6 
#
# 1 30.0476 5.5611 6.5582 0.0000 8.2760 0.0000
# 2 5.5611 140.0871 55.1534 0.0000 -1.1198 0.0000
# 3 6.5582 55.1534 75.9554 0.0000 15.5473 0.0000
# 4 0.0000 0.0000 0.0000 23.8931 0.0000 -2.8583
# 5 8.2760 -1.1198 15.5473 0.0000 24.1426 0.0000
# 6 0.0000 0.0000 0.0000 -2.8583 0.0000 19.3280
#
#
#
# Elastic Compliance Matrix: (Units=1/GPa)
#
#
# Indices 1 2 3 4 5 6 
#
# 1 0.037136 -0.001965 0.000973 0.000000 -0.013448 0.000000
# 2 -0.001965 0.010892 -0.009193 0.000000 0.007099 0.000000
# 3 0.000973 -0.009193 0.022935 0.000000 -0.015530 0.000000
# 4 0.000000 0.000000 0.000000 0.042607 0.000000 0.006301
# 5 -0.013448 0.007099 -0.015530 0.000000 0.056360 0.000000
# 6 0.000000 0.000000 0.000000 0.006301 0.000000 0.052670
#
#
# Mechanical properties :
#
#
# Convention : Reuss Voigt Hill
#
# Bulk Modulus (GPa) = 19.76503 42.29283 31.02893
# Shear Modulus (GPa) = 19.24302 25.39392 22.31847
#
# Velocity S-wave (km/s) = 3.18544 3.65930 3.43056
# Velocity P-wave (km/s) = 4.89404 6.33682 5.66158
#
# Compressibility (1/GPa) = 0.05059440
#
# Stress axis : x y z
#
# Youngs Moduli (GPa) = 26.92830 91.80763 43.60076
#
# Poissons Ratio (x) = 0.18037 -0.04241
# Poissons Ratio (y) = 0.05291 0.40080
# Poissons Ratio (z) = -0.02619 0.84395
#
# Static dielectric constant tensor:
#      x y z
#    x 1.677550 0.000000 0.028860 
#    y 0.000000 1.667760 0.000000 
#    z 0.028860 0.000000 1.666810 
# 
# From -- ./inp_files/277592.got.cif
#   From: 2010.05.17/outbox.cif.g08.bks.cpg/sg12_139_cif.got.tgz:277592.got - 2010.06.03 13:09:07.
