data_PCOD9214596
_publ_section_title
;
Structure prediction by ZEFSAII (Michael W. Deem and Ramdas Pophale) SiO2 
 PCOD9214596
Probable space group: C 2/M
;
_chemical_formula_sum "Si O2"
_cell_formula_units_Z 56
_cell_length_a 13.919751
_cell_length_b 18.530765
_cell_length_c 11.934218
_cell_angle_alpha 90.000000
_cell_angle_beta 115.900342
_cell_angle_gamma 90.000000
_cell_volume 2769.150671
_symmetry_space_group_name_H-M "C 2/M"
_symmetry_group_IT_number 12
_symmetry_cell_setting 'monoclinic'
loop_
_space_group_symop_operation_xyz
x,y,z
-x,y,-z
-x,-y,-z
x,-y,z
1/2+x,1/2+y,z
1/2-x,1/2+y,-z
1/2-x,1/2-y,-z
1/2+x,1/2-y,z
loop_
_atom_site_type_symbol
_atom_site_label
_atom_site_fract_x
_atom_site_fract_y
_atom_site_fract_z
Si Si1 0.784845 0.832634 0.514669
Si Si2 0.175613 0.416326 0.881830
Si Si3 0.386791 0.154009 0.383289
Si Si4 0.500640 0.817203 0.880489
Si Si5 0.643219 0.579673 0.865031
Si Si6 0.983214 0.209850 0.308038
Si Si7 0.193843 0.580870 0.258467
O O1 0.750000 0.750000 0.500000
O O2 0.711350 0.858930 0.581384
O O3 0.750250 0.874415 0.385755
O O4 0.913403 0.829007 0.586914
O O5 0.144838 0.500000 0.886742
O O6 0.143257 0.393168 0.740330
O O7 0.112705 0.356908 0.921464
O O8 0.297823 0.410601 0.985640
O O9 0.500000 0.134386 0.500000
O O10 0.410668 0.237552 0.351443
O O11 0.475951 0.765766 0.764687
O O12 0.414014 0.879961 0.830757
O O13 0.500000 0.779244 0.000000
O O14 0.589680 0.500000 0.837305
O O15 0.576998 0.648138 0.791612
O O16 0.733479 0.576668 0.814526
O O17 0.172847 0.500000 0.288518
#
# Coordination Sequence:
#
# PCOD9214596 Si02
#       7
#     8   8   8   8   8   8   8
#     4  12  22  41  64  88 128 170 209 257 320 373
#     4  10  22  40  62  90 129 169 206 260 322 376
#     4  11  23  39  64  94 125 166 208 262 319 377
#     4  11  21  36  63  97 125 161 209 265 321 371
#     4  10  23  43  64  89 127 170 211 263 315 372
#     4  11  25  40  63  95 126 166 215 262 311 380
#     4  11  23  39  64  96 126 164 213 264 317 376
#
# _framework density 20.222807
#
# number of rings (size 3 to 8) (size 9 to 14) (size 15 to 20)
#    0.000    1.143    4.286    2.143    0.000    5.429 
#    0.000    1.429    0.000    2.143    0.000    0.000 
#    0.000    0.000    0.000    0.000    0.000    0.000 
#
# Total GULP energy -156105.891087 kJ/mol
# GULP energy per Si atom -5575.210396 kJ/mol
# Density = 2.017678 g / cm^3
# Si number density = 20.222807 Si / 1000 Ang^3
#
#
#
# Elastic Constant Matrix: (Units=GPa)
#
#
# Indices 1 2 3 4 5 6 
#
# 1 23.3418 -7.2064 1.3989 0.0000 1.2478 0.0000
# 2 -7.2064 48.1627 17.1948 0.0000 11.5183 0.0000
# 3 1.3989 17.1948 104.9030 0.0000 -0.0508 0.0000
# 4 0.0000 0.0000 0.0000 31.8923 0.0000 4.1638
# 5 1.2478 11.5183 -0.0508 0.0000 32.2255 0.0000
# 6 0.0000 0.0000 0.0000 4.1638 0.0000 10.1535
#
#
#
# Elastic Compliance Matrix: (Units=1/GPa)
#
#
# Indices 1 2 3 4 5 6 
#
# 1 0.045940 0.008784 -0.002055 0.000000 -0.004922 0.000000
# 2 0.008784 0.025939 -0.004373 0.000000 -0.009618 0.000000
# 3 -0.002055 -0.004373 0.010278 0.000000 0.001659 0.000000
# 4 0.000000 0.000000 0.000000 0.033129 0.000000 -0.013586
# 5 -0.004922 -0.009618 0.001659 0.000000 0.034662 0.000000
# 6 0.000000 0.000000 0.000000 -0.013586 0.000000 0.104059
#
#
# Mechanical properties :
#
#
# Convention : Reuss Voigt Hill
#
# Bulk Modulus (GPa) = 11.51162 22.13136 16.82149
# Shear Modulus (GPa) = 17.96935 25.85561 21.91248
#
# Velocity S-wave (km/s) = 2.98412 3.57954 3.29531
# Velocity P-wave (km/s) = 4.19262 5.29638 4.77649
#
# Compressibility (1/GPa) = 0.08686876
#
# Stress axis : x y z
#
# Youngs Moduli (GPa) = 21.76758 38.55200 97.29812
#
# Poissons Ratio (x) = -0.33866 0.19994
# Poissons Ratio (y) = -0.19122 0.42553
# Poissons Ratio (z) = 0.04473 0.16861
#
# Static dielectric constant tensor:
#      x y z
#    x 1.794350 0.000000 -0.031730 
#    y 0.000000 1.709290 0.000000 
#    z -0.031730 0.000000 1.746130 
# 
# From -- ./inp_files/145504.got.cif
#   From: 2010.05.17/outbox.cif.g08.bks.cpg/sg12_73_cif.got.tgz:145504.got - 2010.06.03 13:09:07.
