data_PCOD9214733
_publ_section_title
;
Structure prediction by ZEFSAII (Michael W. Deem and Ramdas Pophale) SiO2 
 PCOD9214733
Probable space group: C 2/M
;
_chemical_formula_sum "Si O2"
_cell_formula_units_Z 42
_cell_length_a 13.293468
_cell_length_b 32.586559
_cell_length_c 14.553659
_cell_angle_alpha 90.000000
_cell_angle_beta 20.007134
_cell_angle_gamma 90.000000
_cell_volume 2156.995394
_symmetry_space_group_name_H-M "C 2/M"
_symmetry_group_IT_number 12
_symmetry_cell_setting 'monoclinic'
loop_
_space_group_symop_operation_xyz
x,y,z
-x,y,-z
-x,-y,-z
x,-y,z
1/2+x,1/2+y,z
1/2-x,1/2+y,-z
1/2-x,1/2-y,-z
1/2+x,1/2-y,z
loop_
_atom_site_type_symbol
_atom_site_label
_atom_site_fract_x
_atom_site_fract_y
_atom_site_fract_z
Si Si1 0.049693 0.222588 0.105776
Si Si2 0.401371 0.880010 0.307343
Si Si3 0.749011 0.916389 0.853368
Si Si4 0.019033 0.330409 0.593396
Si Si5 0.324178 0.193595 0.243385
Si Si6 0.500000 0.000000 0.000000
O O1 0.836878 0.190556 0.338552
O O2 0.832971 0.257889 0.254922
O O3 0.250000 0.250000 0.000000
O O4 0.257427 0.199079 0.854888
O O5 0.479337 0.871275 0.346061
O O6 0.438527 0.835305 0.226726
O O7 0.071709 0.896896 0.573705
O O8 0.620239 0.910000 0.065664
O O9 0.500000 0.896370 0.000000
O O10 0.730167 0.963349 0.836335
O O11 0.000000 0.336286 0.500000
O O12 0.000000 0.179719 0.500000
O O13 0.500000 0.189179 0.000000
#
# Coordination Sequence:
#
# PCOD9214733 Si02
#       6
#     8   8   8   8   8   2
#     4  12  24  42  57  78 114 163 219 266 313 356
#     4  12  23  38  61  89 122 157 200 251 298 356
#     4  10  22  40  63  95 128 154 183 227 298 388
#     4  12  26  43  59  81 118 167 218 263 306 351
#     4  12  24  36  57  84 116 159 203 260 317 359
#     4   8  24  42  68  98 138 158 184 214 320 402
#
# _framework density 19.471530000000001
#
# number of rings (size 3 to 8) (size 9 to 14) (size 15 to 20)
#    0.571    0.000    1.905    8.571    2.667    1.524 
#    0.000    0.000    0.000    0.000    0.000    4.000 
#    0.000    0.000    0.000    0.000    0.000    0.000 
#
# Total GULP energy -117013.961823 kJ/mol
# GULP energy per Si atom -5572.093420 kJ/mol
# Density = 1.942721 g / cm^3
# Si number density = 19.471530 Si / 1000 Ang^3
#
#
#
# Elastic Constant Matrix: (Units=GPa)
#
#
# Indices 1 2 3 4 5 6 
#
# 1 67.4102 14.5640 5.0957 -0.0001 9.8213 0.0005
# 2 14.5640 78.6713 4.1662 0.0000 6.0426 0.0002
# 3 5.0957 4.1662 98.1481 -0.0005 4.4099 0.0012
# 4 -0.0001 0.0000 -0.0005 8.4776 0.0002 -11.4562
# 5 9.8213 6.0426 4.4099 0.0002 29.9094 -0.0006
# 6 0.0005 0.0002 0.0012 -11.4562 -0.0006 18.7869
#
#
#
# Elastic Compliance Matrix: (Units=1/GPa)
#
#
# Indices 1 2 3 4 5 6 
#
# 1 0.016118 -0.002596 -0.000516 -0.000002 -0.004692 -0.000002
# 2 -0.002596 0.013348 -0.000351 -0.000001 -0.001792 -0.000001
# 3 -0.000516 -0.000351 0.010288 -0.000002 -0.001276 -0.000002
# 4 -0.000002 -0.000001 -0.000002 0.670394 0.000005 0.408804
# 5 -0.004692 -0.001792 -0.001276 0.000005 0.035525 0.000004
# 6 -0.000002 -0.000001 -0.000002 0.408804 0.000004 0.302516
#
#
# Mechanical properties :
#
#
# Convention : Reuss Voigt Hill
#
# Bulk Modulus (GPa) = 30.46240 32.43126 31.44683
# Shear Modulus (GPa) = 4.69018 26.12834 15.40926
#
# Velocity S-wave (km/s) = 1.55369 3.66713 2.81619
# Velocity P-wave (km/s) = 4.34709 5.88408 5.17299
#
# Compressibility (1/GPa) = 0.03282735
#
# Stress axis : x y z
#
# Youngs Moduli (GPa) = 62.04220 74.91752 97.20320
#
# Poissons Ratio (x) = 0.19450 0.05014
# Poissons Ratio (y) = 0.16107 0.03415
# Poissons Ratio (z) = 0.03200 0.02632
#
# Static dielectric constant tensor:
#      x y z
#    x 1.774330 0.000000 0.000650 
#    y 0.000000 1.628210 0.000000 
#    z 0.000650 0.000000 1.710190 
# 
# From -- ./inp_files/219402.got.cif
#   From: 2010.05.17/outbox.cif.g08.bks.cpg/sg12_110_cif.got.tgz:219402.got - 2010.06.03 13:09:07.
