data_PCOD9214635
_publ_section_title
;
Structure prediction by ZEFSAII (Michael W. Deem and Ramdas Pophale) SiO2 
 PCOD9214635
Probable space group: C 2/M
;
_chemical_formula_sum "Si O2"
_cell_formula_units_Z 44
_cell_length_a 11.718224
_cell_length_b 18.296732
_cell_length_c 13.215340
_cell_angle_alpha 90.000000
_cell_angle_beta 55.014408
_cell_angle_gamma 90.000000
_cell_volume 2321.424868
_symmetry_space_group_name_H-M "C 2/M"
_symmetry_group_IT_number 12
_symmetry_cell_setting 'monoclinic'
loop_
_space_group_symop_operation_xyz
x,y,z
-x,y,-z
-x,-y,-z
x,-y,z
1/2+x,1/2+y,z
1/2-x,1/2+y,-z
1/2-x,1/2-y,-z
1/2+x,1/2-y,z
loop_
_atom_site_type_symbol
_atom_site_label
_atom_site_fract_x
_atom_site_fract_y
_atom_site_fract_z
Si Si1 0.074165 0.500000 0.850282
Si Si2 0.500000 0.743878 0.000000
Si Si3 0.904042 0.000000 0.149063
Si Si4 0.518029 0.350575 0.177834
Si Si5 0.264497 0.150923 0.211791
Si Si6 0.931815 0.500000 0.703095
Si Si7 0.500000 0.882596 0.500000
Si Si8 0.246313 0.732269 0.385434
O O1 0.166298 0.573383 0.798434
O O2 0.978158 0.500000 0.797391
O O3 0.000000 0.500000 0.000000
O O4 0.565054 0.690263 0.051294
O O5 0.381375 0.796523 0.103460
O O6 0.948212 0.072388 0.186686
O O7 0.737544 0.000000 0.214541
O O8 0.000000 0.000000 0.000000
O O9 0.641628 0.359198 0.193946
O O10 0.397596 0.298337 0.280639
O O11 0.213771 0.196394 0.334964
O O12 0.991075 0.432173 0.606092
O O13 0.366415 0.830741 0.573807
O O14 0.250000 0.750000 0.500000
#
# Coordination Sequence:
#
# PCOD9214635 Si02
#       8
#     4   4   4   8   8   4   4   8
#     4  12  26  43  62  95 136 184 222 271 334 402
#     4  10  22  40  62  94 128 178 216 270 320 400
#     4  12  24  41  67  98 135 177 214 274 327 391
#     4  11  23  40  63  97 132 166 222 267 335 384
#     4  11  24  42  63  96 132 173 220 272 333 392
#     4  11  26  44  69 100 132 180 231 271 327 404
#     4  11  22  46  72  95 132 172 232 275 324 400
#     4  11  23  42  68  96 128 172 218 277 333 387
#
# _framework density 18.953876999999999
#
# number of rings (size 3 to 8) (size 9 to 14) (size 15 to 20)
#    0.000    0.909    3.636    3.273    2.545    1.455 
#    0.000    0.000    0.000    3.818    0.000    0.000 
#    0.000    0.000    0.000    0.000    0.000    0.000 
#
# Total GULP energy -122889.029366 kJ/mol
# GULP energy per Si atom -5585.864971 kJ/mol
# Density = 1.891074 g / cm^3
# Si number density = 18.953877 Si / 1000 Ang^3
#
#
#
# Elastic Constant Matrix: (Units=GPa)
#
#
# Indices 1 2 3 4 5 6 
#
# 1 163.9900 75.9642 51.1309 0.0000 25.9839 0.0000
# 2 75.9642 155.4990 51.2114 0.0000 22.1505 0.0000
# 3 51.1309 51.2114 104.0590 0.0000 24.4991 0.0000
# 4 0.0000 0.0000 0.0000 33.7103 0.0000 -15.2305
# 5 25.9839 22.1505 24.4991 0.0000 35.8572 0.0000
# 6 0.0000 0.0000 0.0000 -15.2305 0.0000 44.6552
#
#
#
# Elastic Compliance Matrix: (Units=1/GPa)
#
#
# Indices 1 2 3 4 5 6 
#
# 1 0.008648 -0.003143 -0.002007 0.000000 -0.002954 0.000000
# 2 -0.003143 0.009022 -0.002526 0.000000 -0.001570 0.000000
# 3 -0.002007 -0.002526 0.013263 0.000000 -0.006047 0.000000
# 4 0.000000 0.000000 0.000000 0.035068 0.000000 0.011961
# 5 -0.002954 -0.001570 -0.006047 0.000000 0.035130 0.000000
# 6 0.000000 0.000000 0.000000 0.011961 0.000000 0.026473
#
#
# Mechanical properties :
#
#
# Convention : Reuss Voigt Hill
#
# Bulk Modulus (GPa) = 64.18293 86.68455 75.43374
# Shear Modulus (GPa) = 33.74976 39.19397 36.47186
#
# Velocity S-wave (km/s) = 4.22432 4.55231 4.39138
# Velocity P-wave (km/s) = 7.59799 8.57118 8.09921
#
# Compressibility (1/GPa) = 0.01558047
#
# Stress axis : x y z
#
# Youngs Moduli (GPa) = 115.64027 110.84319 75.39790
#
# Poissons Ratio (x) = 0.34835 0.15132
# Poissons Ratio (y) = 0.36343 0.19047
# Poissons Ratio (z) = 0.23209 0.28001
#
# Static dielectric constant tensor:
#      x y z
#    x 1.619140 0.000000 0.008320 
#    y 0.000000 1.663320 0.000000 
#    z 0.008320 0.000000 1.676750 
# 
# From -- ./inp_files/131622.got.cif
#   From: 2010.05.17/outbox.cif.g08.bks.cpg/sg12_66_cif.got.tgz:131622.got - 2010.06.03 13:09:07.
