data_PCOD9214610
_publ_section_title
;
Structure prediction by ZEFSAII (Michael W. Deem and Ramdas Pophale) SiO2 
 PCOD9214610
Probable space group: C 2/M
;
_chemical_formula_sum "Si O2"
_cell_formula_units_Z 64
_cell_length_a 32.454606
_cell_length_b 17.152155
_cell_length_c 8.899917
_cell_angle_alpha 90.000000
_cell_angle_beta 39.729343
_cell_angle_gamma 90.000000
_cell_volume 3166.589589
_symmetry_space_group_name_H-M "C 2/M"
_symmetry_group_IT_number 12
_symmetry_cell_setting 'monoclinic'
loop_
_space_group_symop_operation_xyz
x,y,z
-x,y,-z
-x,-y,-z
x,-y,z
1/2+x,1/2+y,z
1/2-x,1/2+y,-z
1/2-x,1/2-y,-z
1/2+x,1/2-y,z
loop_
_atom_site_type_symbol
_atom_site_label
_atom_site_fract_x
_atom_site_fract_y
_atom_site_fract_z
Si Si1 0.683154 0.254971 0.598575
Si Si2 0.469791 0.317799 0.234394
Si Si3 0.025818 0.589023 0.756499
Si Si4 0.872580 0.757694 0.745916
Si Si5 0.939090 0.275743 0.857445
Si Si6 0.140790 0.086723 0.562006
Si Si7 0.826375 0.354791 0.664499
Si Si8 0.691429 0.416521 0.083011
O O1 0.750000 0.250000 0.500000
O O2 0.665213 0.343041 0.597729
O O3 0.684151 0.201702 0.447666
O O4 0.626079 0.222843 0.863560
O O5 0.411858 0.275066 0.482666
O O6 0.526165 0.306607 0.196774
O O7 0.433734 0.394406 0.275866
O O8 0.500000 0.279540 0.000000
O O9 0.015596 0.500000 0.731385
O O10 0.102412 0.607589 0.539204
O O11 0.985351 0.653315 0.776912
O O12 0.000000 0.593005 0.000000
O O13 0.919254 0.724125 0.740524
O O14 0.821159 0.695354 0.833600
O O15 0.842629 0.839011 0.884335
O O16 0.179687 0.088064 0.295633
O O17 0.146002 0.000000 0.612435
O O18 0.766446 0.412583 0.835140
O O19 0.663864 0.500000 0.110036
#
# Coordination Sequence:
#
# PCOD9214610 Si02
#       8
#     8   8   8   8   8   8   8   8
#     4  12  24  40  66  94 122 168 215 262 308 383
#     4  11  19  39  67  93 121 168 211 254 307 375
#     4  11  23  41  66  95 129 168 208 264 322 373
#     4  11  23  37  67  93 129 171 210 257 315 377
#     4  12  22  41  61  99 130 160 214 259 309 385
#     4  10  22  42  63  93 127 163 210 263 320 371
#     4  12  21  41  66  93 121 172 221 247 318 387
#     4  10  22  40  62  91 127 164 212 268 313 370
#
# _framework density 20.211017999999999
#
# number of rings (size 3 to 8) (size 9 to 14) (size 15 to 20)
#    0.000    0.875    6.250    2.250    1.750    0.250 
#    0.000    6.250    0.000    3.000    0.000    0.000 
#    0.000    0.000    0.000    0.000    0.000    0.000 
#
# Total GULP energy -178505.321798 kJ/mol
# GULP energy per Si atom -5578.291306 kJ/mol
# Density = 2.016502 g / cm^3
# Si number density = 20.211018 Si / 1000 Ang^3
#
#
#
# Elastic Constant Matrix: (Units=GPa)
#
#
# Indices 1 2 3 4 5 6 
#
# 1 112.1638 48.4113 32.4420 0.0000 -7.1074 0.0000
# 2 48.4113 138.6326 39.5607 0.0000 -7.4801 0.0000
# 3 32.4420 39.5607 97.0570 0.0000 -19.2565 0.0000
# 4 0.0000 0.0000 0.0000 18.1319 0.0000 -2.7253
# 5 -7.1074 -7.4801 -19.2565 0.0000 32.6476 0.0000
# 6 0.0000 0.0000 0.0000 -2.7253 0.0000 16.5837
#
#
#
# Elastic Compliance Matrix: (Units=1/GPa)
#
#
# Indices 1 2 3 4 5 6 
#
# 1 0.010966 -0.003151 -0.002323 0.000000 0.000295 0.000000
# 2 -0.003151 0.009068 -0.002681 0.000000 -0.000189 0.000000
# 3 -0.002323 -0.002681 0.013534 0.000000 0.006863 0.000000
# 4 0.000000 0.000000 0.000000 0.056548 0.000000 0.009293
# 5 0.000295 -0.000189 0.006863 0.000000 0.034699 0.000000
# 6 0.000000 0.000000 0.000000 0.009293 0.000000 0.061827
#
#
# Mechanical properties :
#
#
# Convention : Reuss Voigt Hill
#
# Bulk Modulus (GPa) = 57.93692 65.40905 61.67299
# Shear Modulus (GPa) = 23.95742 28.63526 26.29634
#
# Velocity S-wave (km/s) = 3.44665 3.76814 3.61097
# Velocity P-wave (km/s) = 6.67588 7.16695 6.92577
#
# Compressibility (1/GPa) = 0.01726015
#
# Stress axis : x y z
#
# Youngs Moduli (GPa) = 91.19183 110.27440 73.88882
#
# Poissons Ratio (x) = 0.34743 0.17161
# Poissons Ratio (y) = 0.28731 0.19807
# Poissons Ratio (z) = 0.21180 0.29561
#
# Static dielectric constant tensor:
#      x y z
#    x 1.692450 0.000000 -0.006470 
#    y 0.000000 1.757150 0.000000 
#    z -0.006470 0.000000 1.758140 
# 
# From -- ./inp_files/112803.got.cif
#   From: 2010.05.17/outbox.cif.g08.bks.cpg/sg12_57_cif.got.tgz:112803.got - 2010.06.03 13:09:07.
