data_PCOD9214900
_publ_section_title
;
Structure prediction by ZEFSAII (Michael W. Deem and Ramdas Pophale) SiO2 
 PCOD9214900
Probable space group: C 2/M
;
_chemical_formula_sum "Si O2"
_cell_formula_units_Z 44
_cell_length_a 10.496242
_cell_length_b 14.690887
_cell_length_c 27.551069
_cell_angle_alpha 90.000000
_cell_angle_beta 149.969827
_cell_angle_gamma 90.000000
_cell_volume 2126.112321
_symmetry_space_group_name_H-M "C 2/M"
_symmetry_group_IT_number 12
_symmetry_cell_setting 'monoclinic'
loop_
_space_group_symop_operation_xyz
x,y,z
-x,y,-z
-x,-y,-z
x,-y,z
1/2+x,1/2+y,z
1/2-x,1/2+y,-z
1/2-x,1/2-y,-z
1/2+x,1/2-y,z
loop_
_atom_site_type_symbol
_atom_site_label
_atom_site_fract_x
_atom_site_fract_y
_atom_site_fract_z
Si Si1 0.491213 0.837835 0.182908
Si Si2 0.245544 0.818005 0.318857
Si Si3 0.500000 0.849188 0.500000
Si Si4 0.000000 0.717337 0.000000
Si Si5 0.512834 0.000000 0.366889
Si Si6 0.687071 0.896462 0.146820
Si Si7 0.357333 0.500000 0.572182
Si Si8 0.564781 0.000000 0.269677
O O1 0.713546 0.769588 0.274316
O O2 0.248739 0.778730 0.087597
O O3 0.575822 0.891914 0.163603
O O4 0.431652 0.908660 0.206172
O O5 0.403167 0.798015 0.420058
O O6 0.957132 0.845474 0.236682
O O7 0.362605 0.907237 0.331503
O O8 0.732140 0.914573 0.559167
O O9 0.002402 0.653833 0.048187
O O10 0.747510 0.000000 0.481474
O O11 0.579948 0.000000 0.332567
O O12 0.728927 0.000000 0.145179
O O13 0.657854 0.500000 0.664726
#
# Coordination Sequence:
#
# PCOD9214900 Si02
#       8
#     8   8   4   4   4   8   4   4
#     4  11  25  42  65  90 131 164 211 256 320 371
#     4  10  22  40  65  96 125 169 208 262 305 371
#     4   9  18  38  68  95 128 162 218 253 310 357
#     4  10  25  43  62  96 122 160 202 274 318 376
#     4  10  22  41  63  94 132 165 210 253 319 365
#     4  11  21  43  68  93 120 159 215 261 314 374
#     4   9  19  38  65  93 125 171 212 263 296 367
#     4  12  24  42  60  93 131 177 201 254 315 376
#
# _framework density 20.695049000000001
#
# number of rings (size 3 to 8) (size 9 to 14) (size 15 to 20)
#    0.000    1.636    1.818    2.727    5.091    0.364 
#    3.273    2.727    0.000    0.000    0.000    0.000 
#    0.000    0.000    0.000    0.000    0.000    0.000 
#
# Total GULP energy -122920.450380 kJ/mol
# GULP energy per Si atom -5587.293199 kJ/mol
# Density = 2.064795 g / cm^3
# Si number density = 20.695049 Si / 1000 Ang^3
#
#
#
# Elastic Constant Matrix: (Units=GPa)
#
#
# Indices 1 2 3 4 5 6 
#
# 1 69.4224 0.8582 28.7646 0.0000 -26.6771 0.0000
# 2 0.8582 78.1983 38.8123 0.0000 -17.3578 0.0000
# 3 28.7646 38.8123 120.7206 0.0002 -25.1643 0.0000
# 4 0.0000 0.0000 0.0002 9.3703 0.0000 -2.9930
# 5 -26.6771 -17.3578 -25.1643 0.0000 30.0603 -0.0001
# 6 0.0000 0.0000 0.0000 -2.9930 -0.0001 20.6278
#
#
#
# Elastic Compliance Matrix: (Units=1/GPa)
#
#
# Indices 1 2 3 4 5 6 
#
# 1 0.024294 0.006288 -0.003100 0.000000 0.022595 0.000000
# 2 0.006288 0.017689 -0.004716 0.000000 0.011847 0.000000
# 3 -0.003100 -0.004716 0.011384 0.000000 0.004055 0.000000
# 4 0.000000 0.000000 0.000000 0.111907 0.000000 0.016237
# 5 0.022595 0.011847 0.004055 0.000000 0.063554 0.000000
# 6 0.000000 0.000000 0.000000 0.016237 0.000000 0.050834
#
#
# Mechanical properties :
#
#
# Convention : Reuss Voigt Hill
#
# Bulk Modulus (GPa) = 19.87665 45.02349 32.45007
# Shear Modulus (GPa) = 16.69507 25.33875 21.01691
#
# Velocity S-wave (km/s) = 2.84336 3.50292 3.19023
# Velocity P-wave (km/s) = 4.51719 6.17766 5.41149
#
# Compressibility (1/GPa) = 0.05031029
#
# Stress axis : x y z
#
# Youngs Moduli (GPa) = 41.16216 56.53135 87.84400
#
# Poissons Ratio (x) = -0.35545 0.27233
# Poissons Ratio (y) = -0.25881 0.41427
# Poissons Ratio (z) = 0.12761 0.26660
#
# Static dielectric constant tensor:
#      x y z
#    x 1.709640 0.000000 0.000790 
#    y 0.000000 1.727520 0.000000 
#    z 0.000790 0.000000 1.724450 
# 
# From -- ./inp_files/358315.got.cif
#   From: 2010.05.17/outbox.cif.g08.bks.cpg/sg12_180_cif.got.tgz:358315.got - 2010.06.03 13:09:07.
