data_PCOD9214201
_publ_section_title
;
Structure prediction by ZEFSAII (Michael W. Deem and Ramdas Pophale) SiO2 
 PCOD9214201
Probable space group: C 2/M
;
_chemical_formula_sum "Si O2"
_cell_formula_units_Z 38
_cell_length_a 10.369682
_cell_length_b 17.288321
_cell_length_c 10.125451
_cell_angle_alpha 90.000000
_cell_angle_beta 66.238741
_cell_angle_gamma 90.000000
_cell_volume 1661.360881
_symmetry_space_group_name_H-M "C 2/M"
_symmetry_group_IT_number 12
_symmetry_cell_setting 'monoclinic'
loop_
_space_group_symop_operation_xyz
x,y,z
-x,y,-z
-x,-y,-z
x,-y,z
1/2+x,1/2+y,z
1/2-x,1/2+y,-z
1/2-x,1/2-y,-z
1/2+x,1/2-y,z
loop_
_atom_site_type_symbol
_atom_site_label
_atom_site_fract_x
_atom_site_fract_y
_atom_site_fract_z
Si Si1 0.777384 0.683501 0.790792
Si Si2 0.137543 0.873261 0.599154
Si Si3 0.331519 0.846058 0.061669
Si Si4 0.625400 0.000000 0.844184
Si Si5 0.124240 0.500000 0.551738
Si Si6 0.500000 0.500000 0.500000
Si Si7 0.000000 0.261866 0.500000
O O1 0.658775 0.648785 0.743236
O O2 0.742603 0.771122 0.848116
O O3 0.917757 0.688449 0.643283
O O4 0.795609 0.641210 0.922616
O O5 0.015706 0.931893 0.606880
O O6 0.110047 0.794618 0.529543
O O7 0.274027 0.925132 0.503413
O O8 0.293958 0.921168 0.161673
O O9 0.500000 0.832571 0.000000
O O10 0.566205 0.000000 0.722603
O O11 0.500000 0.000000 0.000000
O O12 0.000000 0.500000 0.500000
#
# Coordination Sequence:
#
# PCOD9214201 Si02
#       7
#     8   8   8   4   4   2   4
#     4  11  23  38  66  99 130 184 231 286 335 419
#     4  10  22  39  64  92 133 176 225 285 346 390
#     4  10  23  42  63  92 140 177 230 278 350 410
#     4  10  23  39  61  85 130 175 208 279 349 390
#     4  11  25  39  65  97 130 170 239 285 339 414
#     4   8  20  42  58  92 132 172 214 280 332 412
#     4  11  22  39  64  95 140 173 234 283 348 407
#
# _framework density 22.872814999999999
#
# number of rings (size 3 to 8) (size 9 to 14) (size 15 to 20)
#    0.000    1.684    0.000    3.158    7.368    0.842 
#    0.000    1.053    0.000    0.000    0.000   22.105 
#    0.000    0.000    0.000    0.000    0.000    0.000 
#
# Total GULP energy -105971.919859 kJ/mol
# GULP energy per Si atom -5577.469466 kJ/mol
# Density = 2.282076 g / cm^3
# Si number density = 22.872815 Si / 1000 Ang^3
#
#
#
# Elastic Constant Matrix: (Units=GPa)
#
#
# Indices 1 2 3 4 5 6 
#
# 1 79.9463 16.4657 52.6645 0.0000 17.1101 0.0000
# 2 16.4657 65.2285 31.1753 0.0000 17.0663 0.0000
# 3 52.6645 31.1753 166.5189 0.0000 45.1104 0.0000
# 4 0.0000 0.0000 0.0000 22.2945 0.0000 9.2658
# 5 17.1101 17.0663 45.1104 0.0000 57.2951 0.0000
# 6 0.0000 0.0000 0.0000 9.2658 0.0000 41.4218
#
#
#
# Elastic Compliance Matrix: (Units=1/GPa)
#
#
# Indices 1 2 3 4 5 6 
#
# 1 0.016007 -0.001680 -0.004561 0.000000 -0.000688 0.000000
# 2 -0.001680 0.017495 -0.001866 0.000000 -0.003240 0.000000
# 3 -0.004561 -0.001866 0.009251 0.000000 -0.005365 0.000000
# 4 0.000000 0.000000 0.000000 0.049452 0.000000 -0.011062
# 5 -0.000688 -0.003240 -0.005365 0.000000 0.022849 0.000000
# 6 0.000000 0.000000 0.000000 -0.011062 0.000000 0.026616
#
#
# Mechanical properties :
#
#
# Convention : Reuss Voigt Hill
#
# Bulk Modulus (GPa) = 37.68441 56.92272 47.30356
# Shear Modulus (GPa) = 29.98870 38.29483 34.14176
#
# Velocity S-wave (km/s) = 3.62485 4.09620 3.86771
# Velocity P-wave (km/s) = 5.83359 6.87841 6.37743
#
# Compressibility (1/GPa) = 0.02653618
#
# Stress axis : x y z
#
# Youngs Moduli (GPa) = 62.47440 57.16080 108.09866
#
# Poissons Ratio (x) = 0.09606 0.49307
# Poissons Ratio (y) = 0.10499 0.20172
# Poissons Ratio (z) = 0.28496 0.10667
#
# Static dielectric constant tensor:
#      x y z
#    x 1.938440 0.000000 -0.025310 
#    y 0.000000 1.877090 0.000000 
#    z -0.025310 0.000000 1.828700 
# 
# From -- ./inp_files/47014.got.cif
#   From: 2010.05.17/outbox.cif.g08.bks.cpg/sg12_24_cif.got.tgz:47014.got - 2010.06.03 13:09:07.
