data_PCOD9214334
_publ_section_title
;
Structure prediction by ZEFSAII (Michael W. Deem and Ramdas Pophale) SiO2 
 PCOD9214334
Probable space group: C 2/M
;
_chemical_formula_sum "Si O2"
_cell_formula_units_Z 56
_cell_length_a 9.426957
_cell_length_b 15.342776
_cell_length_c 22.101406
_cell_angle_alpha 90.000000
_cell_angle_beta 118.789267
_cell_angle_gamma 90.000000
_cell_volume 2801.536020
_symmetry_space_group_name_H-M "C 2/M"
_symmetry_group_IT_number 12
_symmetry_cell_setting 'monoclinic'
loop_
_space_group_symop_operation_xyz
x,y,z
-x,y,-z
-x,-y,-z
x,-y,z
1/2+x,1/2+y,z
1/2-x,1/2+y,-z
1/2-x,1/2-y,-z
1/2+x,1/2-y,z
loop_
_atom_site_type_symbol
_atom_site_label
_atom_site_fract_x
_atom_site_fract_y
_atom_site_fract_z
Si Si1 0.063574 0.633522 0.697709
Si Si2 0.572146 0.599276 0.198406
Si Si3 0.476623 0.784407 0.866019
Si Si4 0.173669 0.214661 0.047676
Si Si5 0.799522 0.593667 0.736499
Si Si6 0.636300 0.898572 0.574285
Si Si7 0.477111 0.664263 0.675656
O O1 0.922825 0.592122 0.707145
O O2 0.029378 0.736379 0.693509
O O3 0.233801 0.608706 0.762892
O O4 0.071851 0.606779 0.629615
O O5 0.525111 0.500000 0.172384
O O6 0.505739 0.681413 0.146903
O O7 0.531356 0.619380 0.259994
O O8 0.656644 0.826070 0.894106
O O9 0.391627 0.783504 0.914955
O O10 0.358307 0.831947 0.794906
O O11 0.250000 0.250000 0.000000
O O12 0.000000 0.166405 0.000000
O O13 0.797378 0.500000 0.767661
O O14 0.624321 0.615839 0.674197
O O15 0.500000 0.867021 0.500000
O O16 0.804115 0.846197 0.609070
O O17 0.671935 0.000000 0.567839
#
# Coordination Sequence:
#
# PCOD9214334 Si02
#       7
#     8   8   8   8   8   8   8
#     4  11  20  37  56  83 119 147 186 244 292 342
#     4  11  21  36  59  87 118 154 188 232 293 352
#     4  11  19  36  60  84 116 147 193 231 280 344
#     4   9  20  36  59  82 110 158 195 227 278 329
#     4  12  22  34  58  93 121 145 180 241 306 340
#     4  10  22  40  58  76 107 159 207 233 274 352
#     4  11  20  37  56  83 119 147 185 243 294 342
#
# _framework density 19.989035999999999
#
# number of rings (size 3 to 8) (size 9 to 14) (size 15 to 20)
#    0.000    1.286    2.857    6.000    0.000    0.571 
#    0.000    0.714    0.000   19.714    0.000    0.000 
#    0.000    0.000    0.000    0.000    0.000    0.000 
#
# Total GULP energy -156044.407851 kJ/mol
# GULP energy per Si atom -5573.014566 kJ/mol
# Density = 1.994354 g / cm^3
# Si number density = 19.989036 Si / 1000 Ang^3
#
#
#
# Elastic Constant Matrix: (Units=GPa)
#
#
# Indices 1 2 3 4 5 6 
#
# 1 121.5831 1.3247 25.6893 0.0000 22.4907 0.0000
# 2 1.3247 106.0588 3.5291 0.0000 12.3612 0.0000
# 3 25.6893 3.5291 73.3510 0.0000 15.2158 0.0000
# 4 0.0000 0.0000 0.0000 0.5821 0.0000 2.4520
# 5 22.4907 12.3612 15.2158 0.0000 24.5004 0.0000
# 6 0.0000 0.0000 0.0000 2.4520 0.0000 26.9080
#
#
#
# Elastic Compliance Matrix: (Units=1/GPa)
#
#
# Indices 1 2 3 4 5 6 
#
# 1 0.010212 0.000950 -0.001812 0.000000 -0.008728 0.000000
# 2 0.000950 0.010133 0.000483 0.000000 -0.006285 0.000000
# 3 -0.001812 0.000483 0.016013 0.000000 -0.008526 0.000000
# 4 0.000000 0.000000 0.000000 2.788098 0.000000 -0.254067
# 5 -0.008728 -0.006285 -0.008526 0.000000 0.057294 0.000000
# 6 0.000000 0.000000 0.000000 -0.254067 0.000000 0.060316
#
#
# Mechanical properties :
#
#
# Convention : Reuss Voigt Hill
#
# Bulk Modulus (GPa) = 28.08841 40.23100 34.15971
# Shear Modulus (GPa) = 1.69223 28.42810 15.06016
#
# Velocity S-wave (km/s) = 0.92109 3.77528 2.74783
# Velocity P-wave (km/s) = 3.90047 6.25890 5.21476
#
# Compressibility (1/GPa) = 0.03560187
#
# Stress axis : x y z
#
# Youngs Moduli (GPa) = 97.92551 98.68465 62.45013
#
# Poissons Ratio (x) = -0.09375 0.11313
# Poissons Ratio (y) = -0.09303 -0.03019
# Poissons Ratio (z) = 0.17739 -0.04771
#
# Static dielectric constant tensor:
#      x y z
#    x 1.742800 0.000000 0.024670 
#    y 0.000000 1.050340 0.000000 
#    z 0.024670 0.000000 1.759960 
# 
# From -- ./inp_files/300170.got.cif
#   From: 2010.05.17/outbox.cif.g08.bks.cpg/sg12_151_cif.got.tgz:300170.got - 2010.06.03 13:09:07.
