data_PCOD9214955
_publ_section_title
;
Structure prediction by ZEFSAII (Michael W. Deem and Ramdas Pophale) SiO2 
 PCOD9214955
Probable space group: C 2/M
;
_chemical_formula_sum "Si O2"
_cell_formula_units_Z 56
_cell_length_a 28.739448
_cell_length_b 15.607413
_cell_length_c 10.200944
_cell_angle_alpha 90.000000
_cell_angle_beta 35.465024
_cell_angle_gamma 90.000000
_cell_volume 2654.800126
_symmetry_space_group_name_H-M "C 2/M"
_symmetry_group_IT_number 12
_symmetry_cell_setting 'monoclinic'
loop_
_space_group_symop_operation_xyz
x,y,z
-x,y,-z
-x,-y,-z
x,-y,z
1/2+x,1/2+y,z
1/2-x,1/2+y,-z
1/2-x,1/2-y,-z
1/2+x,1/2-y,z
loop_
_atom_site_type_symbol
_atom_site_label
_atom_site_fract_x
_atom_site_fract_y
_atom_site_fract_z
Si Si1 0.062688 0.351374 0.239188
Si Si2 0.280400 0.099755 0.990502
Si Si3 0.101671 0.500000 0.657438
Si Si4 0.917020 0.500000 0.009913
Si Si5 0.793820 0.350075 0.672201
Si Si6 0.485609 0.731054 0.884365
Si Si7 0.348188 0.652519 0.517517
Si Si8 0.193883 0.832250 0.659727
O O1 0.018582 0.284326 0.242582
O O2 0.000000 0.375585 0.500000
O O3 0.091637 0.420025 0.064762
O O4 0.148208 0.339058 0.116882
O O5 0.199852 0.105452 0.259663
O O6 0.308575 0.000000 0.921892
O O7 0.261116 0.132303 0.890214
O O8 0.008053 0.500000 0.849102
O O9 0.133318 0.414802 0.516422
O O10 0.128620 0.500000 0.747879
O O11 0.822787 0.252888 0.589249
O O12 0.731684 0.373293 0.700698
O O13 0.555572 0.660095 0.708403
O O14 0.500000 0.772443 0.000000
O O15 0.395728 0.696996 0.103048
O O16 0.313640 0.618090 0.459160
O O17 0.250000 0.750000 0.500000
#
# Coordination Sequence:
#
# PCOD9214955 Si02
#       8
#     8   8   4   4   8   8   8   8
#     4  12  24  38  59  91 134 173 209 256 321 394
#     4  12  25  42  61  93 134 175 214 265 322 389
#     4  11  24  36  60  92 129 167 208 269 324 388
#     4  11  25  34  54  88 131 172 203 249 321 395
#     4  11  22  41  62  91 127 167 216 263 317 382
#     4  10  22  40  66  95 125 160 215 273 322 377
#     4  10  22  40  67  91 123 166 216 264 320 386
#     4   9  20  37  64  92 121 155 210 269 318 378
#
# _framework density 21.093865999999998
#
# number of rings (size 3 to 8) (size 9 to 14) (size 15 to 20)
#    0.000    1.286    1.429    4.929   10.000    1.143 
#    0.000    0.000    1.571    2.143    0.000    0.000 
#    0.000    0.000    0.000    0.000    0.000    0.000 
#
# Total GULP energy -156130.643471 kJ/mol
# GULP energy per Si atom -5576.094410 kJ/mol
# Density = 2.104586 g / cm^3
# Si number density = 21.093866 Si / 1000 Ang^3
#
#
#
# Elastic Constant Matrix: (Units=GPa)
#
#
# Indices 1 2 3 4 5 6 
#
# 1 128.1694 11.6660 51.2239 0.0000 12.8834 0.0000
# 2 11.6660 27.2825 -2.0243 0.0000 4.4720 0.0000
# 3 51.2239 -2.0243 119.0152 0.0000 9.8451 0.0000
# 4 0.0000 0.0000 0.0000 27.0044 0.0000 7.8601
# 5 12.8834 4.4720 9.8451 0.0000 46.9926 0.0000
# 6 0.0000 0.0000 0.0000 7.8601 0.0000 11.7305
#
#
#
# Elastic Compliance Matrix: (Units=1/GPa)
#
#
# Indices 1 2 3 4 5 6 
#
# 1 0.010058 -0.004382 -0.004284 0.000000 -0.001443 0.000000
# 2 -0.004382 0.039248 0.002812 0.000000 -0.003123 0.000000
# 3 -0.004284 0.002812 0.010399 0.000000 -0.001272 0.000000
# 4 0.000000 0.000000 0.000000 0.046003 0.000000 -0.030825
# 5 -0.001443 -0.003123 -0.001272 0.000000 0.022239 0.000000
# 6 0.000000 0.000000 0.000000 -0.030825 0.000000 0.105903
#
#
# Mechanical properties :
#
#
# Convention : Reuss Voigt Hill
#
# Bulk Modulus (GPa) = 20.83496 44.02203 32.42850
# Shear Modulus (GPa) = 19.11620 31.38559 25.25090
#
# Velocity S-wave (km/s) = 3.01366 3.86152 3.46363
# Velocity P-wave (km/s) = 4.69129 6.38723 5.60379
#
# Compressibility (1/GPa) = 0.04799625
#
# Stress axis : x y z
#
# Youngs Moduli (GPa) = 99.41999 25.47913 96.16076
#
# Poissons Ratio (x) = 0.11166 0.41198
# Poissons Ratio (y) = 0.43569 -0.27040
# Poissons Ratio (z) = 0.42594 -0.07165
#
# Static dielectric constant tensor:
#      x y z
#    x 1.819990 0.000000 0.024420 
#    y 0.000000 1.798120 0.000000 
#    z 0.024420 0.000000 1.774590 
# 
# From -- ./inp_files/106006.got.cif
#   From: 2010.05.17/outbox.cif.g08.bks.cpg/sg12_54_cif.got.tgz:106006.got - 2010.06.03 13:09:07.
