data_PCOD9214480
_publ_section_title
;
Structure prediction by ZEFSAII (Michael W. Deem and Ramdas Pophale) SiO2 
 PCOD9214480
Probable space group: C 2/M
;
_chemical_formula_sum "Si O2"
_cell_formula_units_Z 40
_cell_length_a 9.928417
_cell_length_b 9.130452
_cell_length_c 21.888904
_cell_angle_alpha 90.000000
_cell_angle_beta 84.913761
_cell_angle_gamma 90.000000
_cell_volume 1976.436403
_symmetry_space_group_name_H-M "C 2/M"
_symmetry_group_IT_number 12
_symmetry_cell_setting 'monoclinic'
loop_
_space_group_symop_operation_xyz
x,y,z
-x,y,-z
-x,-y,-z
x,-y,z
1/2+x,1/2+y,z
1/2-x,1/2+y,-z
1/2-x,1/2-y,-z
1/2+x,1/2-y,z
loop_
_atom_site_type_symbol
_atom_site_label
_atom_site_fract_x
_atom_site_fract_y
_atom_site_fract_z
Si Si1 0.640886 0.671430 0.256675
Si Si2 0.769900 0.174090 0.134362
Si Si3 0.102512 0.328417 0.669118
Si Si4 0.445932 0.673776 0.934311
Si Si5 0.628564 0.670200 0.539277
O O1 0.613795 0.500000 0.246179
O O2 0.711089 0.743227 0.195235
O O3 0.748649 0.683252 0.307513
O O4 0.505115 0.753475 0.281603
O O5 0.681672 0.231898 0.080954
O O6 0.927798 0.203906 0.115870
O O7 0.753590 0.000000 0.141501
O O8 0.070389 0.500000 0.663629
O O9 0.098760 0.248716 0.604357
O O10 0.413892 0.500000 0.932418
O O11 0.500000 0.704776 0.000000
O O12 0.500000 0.676574 0.500000
O O13 0.661652 0.500000 0.549175
O O14 0.750000 0.750000 0.500000
#
# Coordination Sequence:
#
# PCOD9214480 Si02
#       5
#     8   8   8   8   8
#     4  11  24  41  61  87 120 156 196 244 296 352
#     4  11  23  38  60  89 118 154 199 243 293 352
#     4  11  24  41  63  91 120 155 200 246 296 353
#     4  10  22  40  61  87 120 157 197 243 296 352
#     4  11  24  41  62  90 123 159 200 245 295 352
#
# _framework density 20.238446
#
# number of rings (size 3 to 8) (size 9 to 14) (size 15 to 20)
#    0.000    1.200    0.000    5.400    0.000   14.800 
#    0.000    0.000    0.000    0.000    0.000    0.000 
#    0.000    0.000    0.000    0.000    0.000    0.000 
#
# Total GULP energy -111957.610930 kJ/mol
# GULP energy per Si atom -5597.880547 kJ/mol
# Density = 2.019238 g / cm^3
# Si number density = 20.238446 Si / 1000 Ang^3
#
#
#
# Elastic Constant Matrix: (Units=GPa)
#
#
# Indices 1 2 3 4 5 6 
#
# 1 53.7074 37.6290 -14.2218 0.0000 -7.6139 0.0000
# 2 37.6290 105.3240 14.8242 0.0000 -1.7803 0.0000
# 3 -14.2218 14.8242 64.9627 0.0000 -4.4135 0.0000
# 4 0.0000 0.0000 0.0000 39.6809 0.0000 2.0638
# 5 -7.6139 -1.7803 -4.4135 0.0000 32.6362 0.0000
# 6 0.0000 0.0000 0.0000 2.0638 0.0000 28.7743
#
#
#
# Elastic Compliance Matrix: (Units=1/GPa)
#
#
# Indices 1 2 3 4 5 6 
#
# 1 0.031163 -0.012435 0.010201 0.000000 0.007971 0.000000
# 2 -0.012435 0.014773 -0.006294 0.000000 -0.002946 0.000000
# 3 0.010201 -0.006294 0.019379 0.000000 0.004657 0.000000
# 4 0.000000 0.000000 0.000000 0.025295 0.000000 -0.001814
# 5 0.007971 -0.002946 0.004657 0.000000 0.032970 0.000000
# 6 0.000000 0.000000 0.000000 -0.001814 0.000000 0.034883
#
#
# Mechanical properties :
#
#
# Convention : Reuss Voigt Hill
#
# Bulk Modulus (GPa) = 20.72039 33.38413 27.05226
# Shear Modulus (GPa) = 26.09544 32.60247 29.34895
#
# Velocity S-wave (km/s) = 3.59472 4.01798 3.81223
# Velocity P-wave (km/s) = 5.24306 6.16901 5.72479
#
# Compressibility (1/GPa) = 0.04826164
#
# Stress axis : x y z
#
# Youngs Moduli (GPa) = 32.08944 67.69097 51.60143
#
# Poissons Ratio (x) = 0.84171 -0.52640
# Poissons Ratio (y) = 0.39902 0.32475
# Poissons Ratio (z) = -0.32736 0.42601
#
# Static dielectric constant tensor:
#      x y z
#    x 1.689310 0.000000 0.016300 
#    y 0.000000 1.672460 0.000000 
#    z 0.016300 0.000000 1.706960 
# 
# From -- ./inp_files/303420.got.cif
#   From: 2010.05.17/outbox.cif.g08.bks.cpg/sg12_152_cif.got.tgz:303420.got - 2010.06.03 13:09:07.
