data_PCOD9214143
_publ_section_title
;
Structure prediction by ZEFSAII (Michael W. Deem and Ramdas Pophale) SiO2 
 PCOD9214143
Probable space group: C 2/M
;
_chemical_formula_sum "Si O2"
_cell_formula_units_Z 48
_cell_length_a 19.213767
_cell_length_b 8.097562
_cell_length_c 15.718161
_cell_angle_alpha 90.000000
_cell_angle_beta 84.991585
_cell_angle_gamma 90.000000
_cell_volume 2436.167670
_symmetry_space_group_name_H-M "C 2/M"
_symmetry_group_IT_number 12
_symmetry_cell_setting 'monoclinic'
loop_
_space_group_symop_operation_xyz
x,y,z
-x,y,-z
-x,-y,-z
x,-y,z
1/2+x,1/2+y,z
1/2-x,1/2+y,-z
1/2-x,1/2-y,-z
1/2+x,1/2-y,z
loop_
_atom_site_type_symbol
_atom_site_label
_atom_site_fract_x
_atom_site_fract_y
_atom_site_fract_z
Si Si1 0.957799 0.303524 0.422107
Si Si2 0.710547 0.807621 0.918640
Si Si3 0.223796 0.306364 0.257080
Si Si4 0.299021 0.304526 0.417430
Si Si5 0.455225 0.500000 0.874788
Si Si6 0.109132 0.000000 0.934657
Si Si7 0.427288 0.313648 0.716017
O O1 0.952889 0.500000 0.429867
O O2 0.879459 0.238189 0.424337
O O3 0.000000 0.239929 0.500000
O O4 0.004888 0.258239 0.336129
O O5 0.760529 0.790735 0.831196
O O6 0.650925 0.668709 0.910591
O O7 0.688426 0.000000 0.929419
O O8 0.750000 0.750000 0.000000
O O9 0.239135 0.500000 0.240500
O O10 0.270438 0.239649 0.329987
O O11 0.142741 0.288121 0.290703
O O12 0.292380 0.500000 0.412118
O O13 0.250000 0.250000 0.500000
O O14 0.535550 0.500000 0.894064
O O15 0.439997 0.344644 0.814907
O O16 0.407814 0.500000 0.962911
O O17 0.415643 0.500000 0.682890
#
# Coordination Sequence:
#
# PCOD9214143 Si02
#       7
#     8   8   8   8   4   4   8
#     4  11  24  41  62  90 128 172 215 266 329 393
#     4  12  24  40  68 101 133 176 225 276 337 398
#     4  11  23  41  64  96 133 172 218 282 332 391
#     4  11  25  42  65  94 132 170 218 274 330 384
#     4   9  24  42  67  90 134 175 205 277 329 391
#     4  11  22  46  68  94 142 172 217 279 335 391
#     4  10  22  39  63  90 128 163 223 256 326 388
#
# _framework density 19.703078999999999
#
# number of rings (size 3 to 8) (size 9 to 14) (size 15 to 20)
#    0.500    0.667    1.667    4.000    2.333    8.000 
#    0.000    3.333    0.000    0.000    0.000    0.000 
#    0.000    0.000    0.000    0.000    0.000    0.000 
#
# Total GULP energy -134033.068957 kJ/mol
# GULP energy per Si atom -5584.711207 kJ/mol
# Density = 1.965823 g / cm^3
# Si number density = 19.703079 Si / 1000 Ang^3
#
#
#
# Elastic Constant Matrix: (Units=GPa)
#
#
# Indices 1 2 3 4 5 6 
#
# 1 129.5611 18.1698 55.6766 0.0000 -6.5910 0.0000
# 2 18.1698 77.2588 10.0366 0.0000 2.5717 0.0000
# 3 55.6766 10.0366 106.0570 0.0000 6.6053 0.0000
# 4 0.0000 0.0000 0.0000 30.6210 0.0000 -8.0585
# 5 -6.5910 2.5717 6.6053 0.0000 29.0066 0.0000
# 6 0.0000 0.0000 0.0000 -8.0585 0.0000 31.6033
#
#
#
# Elastic Compliance Matrix: (Units=1/GPa)
#
#
# Indices 1 2 3 4 5 6 
#
# 1 0.010596 -0.001890 -0.005624 0.000000 0.003856 0.000000
# 2 -0.001890 0.013464 -0.000184 0.000000 -0.001581 0.000000
# 3 -0.005624 -0.000184 0.012657 0.000000 -0.004144 0.000000
# 4 0.000000 0.000000 0.000000 0.035006 0.000000 0.008926
# 5 0.003856 -0.001581 -0.004144 0.000000 0.036435 0.000000
# 6 0.000000 0.000000 0.000000 0.008926 0.000000 0.033918
#
#
# Mechanical properties :
#
#
# Convention : Reuss Voigt Hill
#
# Bulk Modulus (GPa) = 46.89853 53.40476 50.15165
# Shear Modulus (GPa) = 30.38036 33.51243 31.94640
#
# Velocity S-wave (km/s) = 3.93098 4.12864 4.03102
# Velocity P-wave (km/s) = 6.66766 7.06337 6.86837
#
# Compressibility (1/GPa) = 0.02132263
#
# Stress axis : x y z
#
# Youngs Moduli (GPa) = 94.37156 74.26966 79.00884
#
# Poissons Ratio (x) = 0.14036 0.44435
# Poissons Ratio (y) = 0.17834 0.01451
# Poissons Ratio (z) = 0.53075 0.01364
#
# Static dielectric constant tensor:
#      x y z
#    x 1.545370 0.000000 0.030780 
#    y 0.000000 1.692910 0.000000 
#    z 0.030780 0.000000 1.709450 
# 
# From -- ./inp_files/221770.got.cif
#   From: 2010.05.17/outbox.cif.g08.bks.cpg/sg12_111_cif.got.tgz:221770.got - 2010.06.03 13:09:07.
