data_PCOD9214446
_publ_section_title
;
Structure prediction by ZEFSAII (Michael W. Deem and Ramdas Pophale) SiO2 
 PCOD9214446
Probable space group: C 2/M
;
_chemical_formula_sum "Si O2"
_cell_formula_units_Z 42
_cell_length_a 18.575661
_cell_length_b 14.044519
_cell_length_c 7.560460
_cell_angle_alpha 90.000000
_cell_angle_beta 70.771043
_cell_angle_gamma 90.000000
_cell_volume 1862.378639
_symmetry_space_group_name_H-M "C 2/M"
_symmetry_group_IT_number 12
_symmetry_cell_setting 'monoclinic'
loop_
_space_group_symop_operation_xyz
x,y,z
-x,y,-z
-x,-y,-z
x,-y,z
1/2+x,1/2+y,z
1/2-x,1/2+y,-z
1/2-x,1/2-y,-z
1/2+x,1/2-y,z
loop_
_atom_site_type_symbol
_atom_site_label
_atom_site_fract_x
_atom_site_fract_y
_atom_site_fract_z
Si Si1 0.000000 0.000000 0.000000
Si Si2 0.221614 0.112103 0.853075
Si Si3 0.233846 0.887596 0.256955
Si Si4 0.146946 0.388707 0.543709
Si Si5 0.917545 0.221818 0.581132
Si Si6 0.930137 0.804889 0.961519
O O1 0.962639 0.913259 0.907805
O O2 0.290125 0.126378 0.662795
O O3 0.201012 0.000000 0.857065
O O4 0.241967 0.133042 0.041371
O O5 0.146997 0.173551 0.869733
O O6 0.308444 0.866849 0.311633
O O7 0.158211 0.838493 0.395691
O O8 0.221448 0.000000 0.283211
O O9 0.124341 0.500000 0.561469
O O10 0.082682 0.313614 0.544415
O O11 0.910363 0.244421 0.794604
O O12 0.000000 0.172877 0.500000
O O13 0.000000 0.753568 0.000000
#
# Coordination Sequence:
#
# PCOD9214446 Si02
#       6
#     2   8   8   8   8   8
#     4   8  16  32  54  84 118 152 172 210 294 366
#     4   9  16  33  59  84 109 145 193 234 283 345
#     4   9  20  37  59  88 117 145 185 242 298 349
#     4  10  22  40  61  82 112 158 202 241 287 332
#     4  11  24  38  54  87 120 151 195 240 286 347
#     4   9  18  33  55  83 118 146 179 224 287 350
#
# _framework density 22.551805999999999
#
# number of rings (size 3 to 8) (size 9 to 14) (size 15 to 20)
#    0.571    1.905    0.952    0.571    4.000    3.810 
#    6.857    0.000    0.000    0.571    0.000    0.000 
#    0.000    0.000    0.000    0.000    0.000    0.000 
#
# Total GULP energy -116946.718078 kJ/mol
# GULP energy per Si atom -5568.891337 kJ/mol
# Density = 2.250048 g / cm^3
# Si number density = 22.551806 Si / 1000 Ang^3
#
#
#
# Elastic Constant Matrix: (Units=GPa)
#
#
# Indices 1 2 3 4 5 6 
#
# 1 58.7288 40.1590 0.7388 0.0000 27.2640 0.0000
# 2 40.1590 94.0216 20.1784 0.0000 12.8391 0.0000
# 3 0.7388 20.1784 40.8381 0.0000 4.1410 0.0000
# 4 0.0000 0.0000 0.0000 15.3617 0.0000 10.8192
# 5 27.2640 12.8391 4.1410 0.0000 26.2344 0.0000
# 6 0.0000 0.0000 0.0000 10.8192 0.0000 12.0164
#
#
#
# Elastic Compliance Matrix: (Units=1/GPa)
#
#
# Indices 1 2 3 4 5 6 
#
# 1 0.050202 -0.017942 0.012558 0.000000 -0.045374 0.000000
# 2 -0.017942 0.018985 -0.010167 0.000000 0.010960 0.000000
# 3 0.012558 -0.010167 0.030592 0.000000 -0.012904 0.000000
# 4 0.000000 0.000000 0.000000 0.177923 0.000000 -0.160196
# 5 -0.045374 0.010960 -0.012904 0.000000 0.081945 0.000000
# 6 0.000000 0.000000 0.000000 -0.160196 0.000000 0.227456
#
#
# Mechanical properties :
#
#
# Convention : Reuss Voigt Hill
#
# Bulk Modulus (GPa) = 14.56101 35.08231 24.82166
# Shear Modulus (GPa) = 7.79914 19.55668 13.67791
#
# Velocity S-wave (km/s) = 1.86167 2.94800 2.46542
# Velocity P-wave (km/s) = 3.33044 5.21322 4.37433
#
# Compressibility (1/GPa) = 0.06867655
#
# Stress axis : x y z
#
# Youngs Moduli (GPa) = 19.91950 52.67421 32.68846
#
# Poissons Ratio (x) = 0.94506 -0.41050
# Poissons Ratio (y) = 0.35739 0.33235
# Poissons Ratio (z) = -0.25015 0.53555
#
# Static dielectric constant tensor:
#      x y z
#    x 1.932070 0.000000 0.000720 
#    y 0.000000 1.838010 0.000000 
#    z 0.000720 0.000000 1.862240 
# 
# From -- ./inp_files/72941.got.cif
#   From: 2010.05.17/outbox.cif.g08.bks.cpg/sg12_37_cif.got.tgz:72941.got - 2010.06.03 13:09:07.
