data_PCOD9214806
_publ_section_title
;
Structure prediction by ZEFSAII (Michael W. Deem and Ramdas Pophale) SiO2 
 PCOD9214806
Probable space group: C 2/M
;
_chemical_formula_sum "Si O2"
_cell_formula_units_Z 52
_cell_length_a 23.627247
_cell_length_b 19.539763
_cell_length_c 5.808195
_cell_angle_alpha 90.000000
_cell_angle_beta 122.890465
_cell_angle_gamma 90.000000
_cell_volume 2251.661253
_symmetry_space_group_name_H-M "C 2/M"
_symmetry_group_IT_number 12
_symmetry_cell_setting 'monoclinic'
loop_
_space_group_symop_operation_xyz
x,y,z
-x,y,-z
-x,-y,-z
x,-y,z
1/2+x,1/2+y,z
1/2-x,1/2+y,-z
1/2-x,1/2-y,-z
1/2+x,1/2-y,z
loop_
_atom_site_type_symbol
_atom_site_label
_atom_site_fract_x
_atom_site_fract_y
_atom_site_fract_z
Si Si1 0.500000 0.127479 0.500000
Si Si2 0.255306 0.689326 0.695910
Si Si3 0.075273 0.575003 0.058942
Si Si4 0.806857 0.925070 0.501998
Si Si5 0.373865 0.664032 0.286118
Si Si6 0.051749 0.921670 0.915665
Si Si7 0.110022 0.699510 0.443319
O O1 0.545008 0.175098 0.438490
O O2 0.556626 0.082711 0.750994
O O3 0.250000 0.750000 0.500000
O O4 0.260163 0.621700 0.553332
O O5 0.187098 0.686474 0.693419
O O6 0.323528 0.698491 0.990730
O O7 0.106926 0.500000 0.179746
O O8 0.105588 0.647772 0.212967
O O9 0.000000 0.572378 0.000000
O O10 0.827476 0.892423 0.305979
O O11 0.876727 0.927362 0.797539
O O12 0.778803 0.000000 0.407381
O O13 0.394039 0.717930 0.531581
O O14 0.432057 0.626674 0.267276
O O15 0.031620 0.000000 0.807586
O O16 0.000000 0.897308 0.000000
#
# Coordination Sequence:
#
# PCOD9214806 Si02
#       7
#     4   8   8   8   8   8   8
#     4  10  23  40  66  98 131 170 222 274 329 404
#     4  11  24  43  66  87 128 178 219 269 332 385
#     4   9  20  41  65  92 130 171 214 272 335 391
#     4  10  22  40  64  94 125 167 221 274 322 388
#     4  11  23  40  65  94 130 178 219 270 328 394
#     4   9  20  39  63  93 134 177 216 265 325 386
#     4  11  24  39  64  96 129 170 220 271 329 393
#
# _framework density 23.094061
#
# number of rings (size 3 to 8) (size 9 to 14) (size 15 to 20)
#    0.000    1.846    1.538    1.154    2.154    3.692 
#    0.000    3.077    0.000    0.000    0.000    0.000 
#    0.000    0.000    0.000    0.462    0.000    0.000 
#
# Total GULP energy -144855.242192 kJ/mol
# GULP energy per Si atom -5571.355469 kJ/mol
# Density = 2.304150 g / cm^3
# Si number density = 23.094061 Si / 1000 Ang^3
#
#
#
# Elastic Constant Matrix: (Units=GPa)
#
#
# Indices 1 2 3 4 5 6 
#
# 1 123.2396 40.2391 5.8734 0.0000 2.3596 0.0000
# 2 40.2391 181.4603 42.7387 0.0000 -15.8297 0.0000
# 3 5.8734 42.7387 66.0771 0.0000 -2.0588 0.0000
# 4 0.0000 0.0000 0.0000 19.0704 0.0000 -2.3147
# 5 2.3596 -15.8297 -2.0588 0.0000 26.7830 0.0000
# 6 0.0000 0.0000 0.0000 -2.3147 0.0000 23.6993
#
#
#
# Elastic Compliance Matrix: (Units=1/GPa)
#
#
# Indices 1 2 3 4 5 6 
#
# 1 0.008875 -0.002300 0.000633 0.000000 -0.002092 0.000000
# 2 -0.002300 0.007448 -0.004480 0.000000 0.004260 0.000000
# 3 0.000633 -0.004480 0.017934 0.000000 -0.001325 0.000000
# 4 0.000000 0.000000 0.000000 0.053066 0.000000 0.005183
# 5 -0.002092 0.004260 -0.001325 0.000000 0.039938 0.000000
# 6 0.000000 0.000000 0.000000 0.005183 0.000000 0.042702
#
#
# Mechanical properties :
#
#
# Convention : Reuss Voigt Hill
#
# Bulk Modulus (GPa) = 45.52920 60.94214 53.23567
# Shear Modulus (GPa) = 26.37467 32.70559 29.54013
#
# Velocity S-wave (km/s) = 3.38310 3.76731 3.58036
# Velocity P-wave (km/s) = 5.91759 6.73569 6.33985
#
# Compressibility (1/GPa) = 0.02196393
#
# Stress axis : x y z
#
# Youngs Moduli (GPa) = 112.67536 134.27142 55.76033
#
# Poissons Ratio (x) = 0.30880 -0.03532
# Poissons Ratio (y) = 0.25913 0.24980
# Poissons Ratio (z) = -0.07137 0.60153
#
# Static dielectric constant tensor:
#      x y z
#    x 1.882840 0.000000 -0.061520 
#    y 0.000000 1.923300 0.000000 
#    z -0.061520 0.000000 1.997460 
# 
# From -- ./inp_files/25702.got.cif
#   From: 2010.05.17/outbox.cif.g08.bks.cpg/sg12_13_cif.got.tgz:25702.got - 2010.06.03 13:09:07.
