data_PCOD9214974
_publ_section_title
;
Structure prediction by ZEFSAII (Michael W. Deem and Ramdas Pophale) SiO2 
 PCOD9214974
Probable space group: C 2/M
;
_chemical_formula_sum "Si O2"
_cell_formula_units_Z 24
_cell_length_a 20.459433
_cell_length_b 9.914094
_cell_length_c 5.306298
_cell_angle_alpha 90.000000
_cell_angle_beta 84.694556
_cell_angle_gamma 90.000000
_cell_volume 1071.701187
_symmetry_space_group_name_H-M "C 2/M"
_symmetry_group_IT_number 12
_symmetry_cell_setting 'monoclinic'
loop_
_space_group_symop_operation_xyz
x,y,z
-x,y,-z
-x,-y,-z
x,-y,z
1/2+x,1/2+y,z
1/2-x,1/2+y,-z
1/2-x,1/2-y,-z
1/2+x,1/2-y,z
loop_
_atom_site_type_symbol
_atom_site_label
_atom_site_fract_x
_atom_site_fract_y
_atom_site_fract_z
Si Si1 0.571561 0.255970 0.021407
Si Si2 0.124598 0.649045 0.494116
Si Si3 0.201969 0.151786 0.170473
O O1 0.574088 0.171816 0.280682
O O2 0.633171 0.353914 0.041189
O O3 0.500000 0.316095 0.000000
O O4 0.590615 0.167433 0.773422
O O5 0.153274 0.500000 0.458079
O O6 0.178387 0.765996 0.426593
O O7 0.226826 0.000000 0.199978
O O8 0.250000 0.250000 0.000000
#
# Coordination Sequence:
#
# PCOD9214974 Si02
#       3
#     8   8   8
#     4  10  23  41  66  99 130 169 213 265 318 377
#     4  10  22  40  66  98 131 168 214 264 318 377
#     4  10  24  44  67  95 130 170 217 264 323 383
#
# _framework density 22.394302
#
# number of rings (size 3 to 8) (size 9 to 14) (size 15 to 20)
#    2.000    0.000    0.000    3.000    0.000    7.333 
#    0.000    1.667    0.000    0.000    0.000    0.000 
#    0.000    0.000    0.000    0.000    0.000    0.000 
#
# Total GULP energy -66842.212598 kJ/mol
# GULP energy per Si atom -5570.184383 kJ/mol
# Density = 2.234333 g / cm^3
# Si number density = 22.394302 Si / 1000 Ang^3
#
#
#
# Elastic Constant Matrix: (Units=GPa)
#
#
# Indices 1 2 3 4 5 6 
#
# 1 124.3058 27.6082 7.8393 0.0000 25.0010 0.0000
# 2 27.6082 150.8955 7.7949 0.0000 0.1693 0.0000
# 3 7.8393 7.7949 123.5091 0.0000 10.4345 0.0000
# 4 0.0000 0.0000 0.0000 4.3132 0.0000 -5.8709
# 5 25.0010 0.1693 10.4345 0.0000 28.9922 0.0000
# 6 0.0000 0.0000 0.0000 -5.8709 0.0000 6.9974
#
#
#
# Elastic Compliance Matrix: (Units=1/GPa)
#
#
# Indices 1 2 3 4 5 6 
#
# 1 0.010236 -0.001874 0.000220 0.000000 -0.008895 0.000000
# 2 -0.001874 0.006992 -0.000470 0.000000 0.001744 0.000000
# 3 0.000220 -0.000470 0.008383 0.000000 -0.003204 0.000000
# 4 0.000000 0.000000 0.000000 -1.632665 0.000000 -1.369822
# 5 -0.008895 0.001744 -0.003204 0.000000 0.043306 0.000000
# 6 0.000000 0.000000 0.000000 -1.369822 0.000000 -1.006383
#
#
# Mechanical properties :
#
#
# Convention : Reuss Voigt Hill
#
# Bulk Modulus (GPa) = 46.80841 53.91058 50.35950
# Shear Modulus (GPa) = -1.95407 31.75842 14.90218
#
# Velocity S-wave (km/s) = -0.93513 3.76992 2.58242
# Velocity P-wave (km/s) = 4.44762 6.56318 5.60610
#
# Compressibility (1/GPa) = 0.02136368
#
# Stress axis : x y z
#
# Youngs Moduli (GPa) = 97.69338 143.01408 119.28986
#
# Poissons Ratio (x) = 0.26804 -0.02625
# Poissons Ratio (y) = 0.18310 0.05603
# Poissons Ratio (z) = -0.02150 0.06718
#
# Static dielectric constant tensor:
#      x y z
#    x 1.863920 0.000000 0.050680 
#    y 0.000000 1.676740 0.000000 
#    z 0.050680 0.000000 1.836200 
# 
# From -- ./inp_files/18833.got.cif
#   From: 2010.05.17/outbox.cif.g08.bks.cpg/sg12_10_cif.got.tgz:18833.got - 2010.06.03 13:09:07.
