data_PCOD9214151
_publ_section_title
;
Structure prediction by ZEFSAII (Michael W. Deem and Ramdas Pophale) SiO2 
 PCOD9214151
Probable space group: C 2/M
;
_chemical_formula_sum "Si O2"
_cell_formula_units_Z 60
_cell_length_a 19.418085
_cell_length_b 14.193676
_cell_length_c 24.467278
_cell_angle_alpha 90.000000
_cell_angle_beta 23.654625
_cell_angle_gamma 90.000000
_cell_volume 2705.653757
_symmetry_space_group_name_H-M "C 2/M"
_symmetry_group_IT_number 12
_symmetry_cell_setting 'monoclinic'
loop_
_space_group_symop_operation_xyz
x,y,z
-x,y,-z
-x,-y,-z
x,-y,z
1/2+x,1/2+y,z
1/2-x,1/2+y,-z
1/2-x,1/2-y,-z
1/2+x,1/2-y,z
loop_
_atom_site_type_symbol
_atom_site_label
_atom_site_fract_x
_atom_site_fract_y
_atom_site_fract_z
Si Si1 0.000000 0.824387 0.500000
Si Si2 0.882499 0.612541 0.930877
Si Si3 0.651667 0.731883 0.767775
Si Si4 0.508322 0.386962 0.777626
Si Si5 0.639395 0.887202 0.183709
Si Si6 0.970218 0.894088 0.639516
Si Si7 0.312520 0.746158 0.135170
Si Si8 0.273423 0.887003 0.492605
O O1 0.833534 0.761378 0.609555
O O2 0.959553 0.885599 0.582409
O O3 0.910353 0.500000 0.919012
O O4 0.884210 0.630047 0.863809
O O5 0.026225 0.677056 0.854407
O O6 0.689695 0.638787 0.090280
O O7 0.560803 0.652615 0.798168
O O8 0.698091 0.703457 0.795942
O O9 0.511752 0.500000 0.775598
O O10 0.651361 0.352587 0.630354
O O11 0.789728 0.829851 0.104011
O O12 0.467052 0.855748 0.341669
O O13 0.662415 0.000000 0.172833
O O14 0.832435 0.824119 0.764226
O O15 0.161037 0.869166 0.520368
O O16 0.936536 0.000000 0.683142
O O17 0.500000 0.790985 0.000000
O O18 0.286709 0.000000 0.489796
#
# Coordination Sequence:
#
# PCOD9214151 Si02
#       8
#     4   8   8   8   8   8   8   8
#     4  10  23  40  57  90 122 168 211 242 301 374
#     4  10  22  41  67  94 119 163 216 264 310 361
#     4  11  24  39  62  90 128 164 207 254 308 371
#     4  10  22  39  63  92 124 160 204 256 317 370
#     4  10  22  42  67  93 123 161 213 265 309 361
#     4  10  22  40  62  87 123 162 203 255 306 364
#     4  11  26  40  58  93 128 168 208 245 309 380
#     4   9  20  37  62  93 116 150 204 260 313 359
#
# _framework density 22.175787
#
# number of rings (size 3 to 8) (size 9 to 14) (size 15 to 20)
#    0.000    1.867    0.000    2.200    7.467    5.333 
#    0.000    0.333    0.000    0.000    0.000    0.000 
#    0.000    0.000    0.000    0.000    0.000    0.000 
#
# Total GULP energy -167730.965430 kJ/mol
# GULP energy per Si atom -5591.032181 kJ/mol
# Density = 2.212531 g / cm^3
# Si number density = 22.175787 Si / 1000 Ang^3
#
#
#
# Elastic Constant Matrix: (Units=GPa)
#
#
# Indices 1 2 3 4 5 6 
#
# 1 92.8070 25.0762 12.3827 0.0123 3.9204 -0.0015
# 2 25.0762 63.3178 16.6846 0.0130 -5.8260 0.0014
# 3 12.3827 16.6846 99.4978 0.0009 -8.2925 -0.0091
# 4 0.0123 0.0130 0.0009 12.6749 -0.0016 -5.3130
# 5 3.9204 -5.8260 -8.2925 -0.0016 41.6427 0.0062
# 6 -0.0015 0.0014 -0.0091 -5.3130 0.0062 21.8985
#
#
#
# Elastic Compliance Matrix: (Units=1/GPa)
#
#
# Indices 1 2 3 4 5 6 
#
# 1 0.012279 -0.004813 -0.000888 -0.000007 -0.002006 0.000000
# 2 -0.004813 0.018543 -0.002294 -0.000017 0.002590 -0.000007
# 3 -0.000888 -0.002294 0.010704 0.000005 0.001894 0.000005
# 4 -0.000007 -0.000017 0.000005 0.087828 0.000000 0.021309
# 5 -0.002006 0.002590 0.001894 0.000000 0.024942 -0.000007
# 6 0.000000 -0.000007 0.000005 0.021309 -0.000007 0.050835
#
#
# Mechanical properties :
#
#
# Convention : Reuss Voigt Hill
#
# Bulk Modulus (GPa) = 39.16503 40.43438 39.79971
# Shear Modulus (GPa) = 21.77381 28.67518 25.22449
#
# Velocity S-wave (km/s) = 3.13689 3.59985 3.37631
# Velocity P-wave (km/s) = 5.55154 5.96253 5.76070
#
# Compressibility (1/GPa) = 0.02553298
#
# Stress axis : x y z
#
# Youngs Moduli (GPa) = 81.44062 53.92986 93.42641
#
# Poissons Ratio (x) = 0.25959 0.08298
# Poissons Ratio (y) = 0.39201 0.21436
# Poissons Ratio (z) = 0.07233 0.12374
#
# Static dielectric constant tensor:
#      x y z
#    x 1.781520 0.000000 0.048370 
#    y 0.000000 1.794770 0.000010 
#    z 0.048370 0.000010 1.835860 
# 
# From -- ./inp_files/366542.got.cif
#   From: 2010.05.17/outbox.cif.g08.bks.cpg/sg12_184_cif.got.tgz:366542.got - 2010.06.03 13:09:07.
