data_PCOD9214343
_publ_section_title
;
Structure prediction by ZEFSAII (Michael W. Deem and Ramdas Pophale) SiO2 
 PCOD9214343
Probable space group: C 2/M
;
_chemical_formula_sum "Si O2"
_cell_formula_units_Z 52
_cell_length_a 25.853016
_cell_length_b 11.621058
_cell_length_c 11.894072
_cell_angle_alpha 90.000000
_cell_angle_beta 48.360209
_cell_angle_gamma 90.000000
_cell_volume 2670.569157
_symmetry_space_group_name_H-M "C 2/M"
_symmetry_group_IT_number 12
_symmetry_cell_setting 'monoclinic'
loop_
_space_group_symop_operation_xyz
x,y,z
-x,y,-z
-x,-y,-z
x,-y,z
1/2+x,1/2+y,z
1/2-x,1/2+y,-z
1/2-x,1/2-y,-z
1/2+x,1/2-y,z
loop_
_atom_site_type_symbol
_atom_site_label
_atom_site_fract_x
_atom_site_fract_y
_atom_site_fract_z
Si Si1 0.671227 0.131555 0.566408
Si Si2 0.426593 0.500000 0.041502
Si Si3 0.806040 0.756243 0.017570
Si Si4 0.422219 0.756199 0.488364
Si Si5 0.874596 0.000000 0.885721
Si Si6 0.572221 0.136817 0.277225
Si Si7 0.685200 0.699850 0.746446
Si Si8 0.577350 0.500000 0.435140
O O1 0.624583 0.193588 0.541110
O O2 0.663864 0.198904 0.693400
O O3 0.750282 0.138363 0.407887
O O4 0.650113 0.000000 0.607658
O O5 0.378358 0.610884 0.141813
O O6 0.500000 0.500000 0.000000
O O7 0.435985 0.500000 0.890867
O O8 0.787262 0.746290 0.175658
O O9 0.750000 0.750000 0.000000
O O10 0.867892 0.669840 0.895958
O O11 0.833448 0.885709 0.971508
O O12 0.404980 0.816720 0.632825
O O13 0.502243 0.792152 0.352315
O O14 0.412388 0.619327 0.514853
O O15 0.883249 0.000000 0.739919
O O16 0.559093 0.000000 0.300072
O O17 0.500000 0.500000 0.500000
#
# Coordination Sequence:
#
# PCOD9214343 Si02
#       8
#     8   4   8   8   4   8   8   4
#     4  11  23  44  66  90 136 174 214 275 327 393
#     4  10  22  44  70  94 131 173 220 277 338 396
#     4  11  23  40  63  90 127 170 213 271 333 386
#     4  11  22  39  64  94 127 175 211 264 340 378
#     4  10  22  40  58  94 129 162 213 273 326 387
#     4  11  22  38  60  93 128 165 222 265 316 404
#     4  10  24  42  64  97 126 169 227 266 325 399
#     4  12  20  38  62  98 136 157 214 282 312 383
#
# _framework density 19.471505000000001
#
# number of rings (size 3 to 8) (size 9 to 14) (size 15 to 20)
#    0.000    1.231    3.846    2.769    1.077    4.923 
#    1.385    0.000    0.000    2.308    0.000    0.000 
#    0.000    0.000    0.000    0.000    0.000    0.000 
#
# Total GULP energy -145137.373881 kJ/mol
# GULP energy per Si atom -5582.206688 kJ/mol
# Density = 1.942719 g / cm^3
# Si number density = 19.471505 Si / 1000 Ang^3
#
#
#
# Elastic Constant Matrix: (Units=GPa)
#
#
# Indices 1 2 3 4 5 6 
#
# 1 139.6747 72.6206 24.5551 0.0000 17.3211 0.0000
# 2 72.6206 171.3913 41.0660 0.0000 21.4023 0.0000
# 3 24.5551 41.0660 65.4931 0.0000 8.1967 0.0000
# 4 0.0000 0.0000 0.0000 22.6026 0.0000 0.9602
# 5 17.3211 21.4023 8.1967 0.0000 12.5862 0.0000
# 6 0.0000 0.0000 0.0000 0.9602 0.0000 31.0855
#
#
#
# Elastic Compliance Matrix: (Units=1/GPa)
#
#
# Indices 1 2 3 4 5 6 
#
# 1 0.009838 -0.002980 -0.000827 0.000000 -0.007934 0.000000
# 2 -0.002980 0.009048 -0.003423 0.000000 -0.009056 0.000000
# 3 -0.000827 -0.003423 0.018350 0.000000 -0.004991 0.000000
# 4 0.000000 0.000000 0.000000 0.044301 0.000000 -0.001368
# 5 -0.007934 -0.009056 -0.004991 0.000000 0.109021 0.000000
# 6 0.000000 0.000000 0.000000 -0.001368 0.000000 0.032212
#
#
# Mechanical properties :
#
#
# Convention : Reuss Voigt Hill
#
# Bulk Modulus (GPa) = 43.90508 72.56028 58.23268
# Shear Modulus (GPa) = 20.42312 29.14269 24.78291
#
# Velocity S-wave (km/s) = 3.24214 3.87290 3.57147
# Velocity P-wave (km/s) = 6.05084 7.57264 6.85411
#
# Compressibility (1/GPa) = 0.02277641
#
# Stress axis : x y z
#
# Youngs Moduli (GPa) = 101.64753 110.52050 54.49632
#
# Poissons Ratio (x) = 0.32930 0.04509
# Poissons Ratio (y) = 0.30286 0.18653
# Poissons Ratio (z) = 0.08410 0.37830
#
# Static dielectric constant tensor:
#      x y z
#    x 1.687560 0.000000 0.012180 
#    y 0.000000 1.699860 0.000000 
#    z 0.012180 0.000000 1.745780 
# 
# From -- ./inp_files/175216.got.cif
#   From: 2010.05.17/outbox.cif.g08.bks.cpg/sg12_88_cif.got.tgz:175216.got - 2010.06.03 13:09:07.
