data_PCOD9214740
_publ_section_title
;
Structure prediction by ZEFSAII (Michael W. Deem and Ramdas Pophale) SiO2 
 PCOD9214740
Probable space group: C 2/M
;
_chemical_formula_sum "Si O2"
_cell_formula_units_Z 40
_cell_length_a 23.760564
_cell_length_b 12.045010
_cell_length_c 20.291758
_cell_angle_alpha 90.000000
_cell_angle_beta 162.247597
_cell_angle_gamma 90.000000
_cell_volume 1770.708417
_symmetry_space_group_name_H-M "C 2/M"
_symmetry_group_IT_number 12
_symmetry_cell_setting 'monoclinic'
loop_
_space_group_symop_operation_xyz
x,y,z
-x,y,-z
-x,-y,-z
x,-y,z
1/2+x,1/2+y,z
1/2-x,1/2+y,-z
1/2-x,1/2-y,-z
1/2+x,1/2-y,z
loop_
_atom_site_type_symbol
_atom_site_label
_atom_site_fract_x
_atom_site_fract_y
_atom_site_fract_z
Si Si1 0.688351 0.123798 0.145706
Si Si2 0.749764 0.883215 0.944451
Si Si3 0.678345 0.632280 0.384288
Si Si4 0.788464 0.710592 0.689757
Si Si5 0.900448 0.156185 0.251101
O O1 0.727143 0.208629 0.248231
O O2 0.830906 0.122258 0.244800
O O3 0.687296 0.000000 0.173649
O O4 0.484544 0.153707 0.892139
O O5 0.768530 0.881778 0.044822
O O6 0.959351 0.867422 0.154018
O O7 0.678603 0.000000 0.842252
O O8 0.621649 0.787533 0.776503
O O9 0.738345 0.500000 0.463027
O O10 0.750000 0.750000 0.500000
O O11 0.712912 0.670851 0.347605
O O12 0.613693 0.635273 0.473353
#
# Coordination Sequence:
#
# PCOD9214740 Si02
#       5
#     8   8   8   8   8
#     4  11  25  42  65  96 135 177 229 285 336 398
#     4  10  22  40  63  95 135 172 218 277 338 408
#     4  11  23  44  70 101 137 179 225 280 343 405
#     4  11  23  42  63  96 131 173 223 276 337 396
#     4  11  22  41  65  95 132 171 227 270 346 396
#
# _framework density 22.589827
#
# number of rings (size 3 to 8) (size 9 to 14) (size 15 to 20)
#    0.000    1.200    4.000    2.400    0.000    6.400 
#    0.000    3.000    0.000    2.400    0.000    0.000 
#    0.000    0.000    0.000    0.000    0.000    0.000 
#
# Total GULP energy -111483.872397 kJ/mol
# GULP energy per Si atom -5574.193620 kJ/mol
# Density = 2.253841 g / cm^3
# Si number density = 22.589827 Si / 1000 Ang^3
#
#
#
# Elastic Constant Matrix: (Units=GPa)
#
#
# Indices 1 2 3 4 5 6 
#
# 1 119.7811 38.7599 4.3707 0.0015 6.6000 0.0007
# 2 38.7599 181.3579 29.3777 0.0013 -7.2733 -0.0035
# 3 4.3707 29.3777 53.4387 0.0051 4.0206 -0.0001
# 4 0.0015 0.0013 0.0051 22.4190 0.0001 -29.8458
# 5 6.6000 -7.2733 4.0206 0.0001 26.4195 -0.0012
# 6 0.0007 -0.0035 -0.0001 -29.8458 -0.0012 64.7464
#
#
#
# Elastic Compliance Matrix: (Units=1/GPa)
#
#
# Indices 1 2 3 4 5 6 
#
# 1 0.009200 -0.002197 0.000682 -0.000003 -0.003007 -0.000001
# 2 -0.002197 0.006707 -0.003730 0.000003 0.002963 0.000002
# 3 0.000682 -0.003730 0.021039 -0.000013 -0.004399 -0.000006
# 4 -0.000003 0.000003 -0.000013 0.115458 0.000005 0.053222
# 5 -0.003007 0.002963 -0.004399 0.000005 0.040087 0.000003
# 6 -0.000001 0.000002 -0.000006 0.053222 0.000003 0.039978
#
#
# Mechanical properties :
#
#
# Convention : Reuss Voigt Hill
#
# Bulk Modulus (GPa) = 37.80086 55.51046 46.65566
# Shear Modulus (GPa) = 19.85872 41.52162 30.69017
#
# Velocity S-wave (km/s) = 2.96818 4.29192 3.68990
# Velocity P-wave (km/s) = 5.34010 7.01337 6.23314
#
# Compressibility (1/GPa) = 0.02645443
#
# Stress axis : x y z
#
# Youngs Moduli (GPa) = 108.69071 149.10590 47.53102
#
# Poissons Ratio (x) = 0.32764 -0.03240
# Poissons Ratio (y) = 0.23883 0.17730
# Poissons Ratio (z) = -0.07410 0.55619
#
# Static dielectric constant tensor:
#      x y z
#    x 1.871290 0.000000 -0.030570 
#    y 0.000000 1.865380 0.000000 
#    z -0.030570 0.000000 1.886500 
# 
# From -- ./inp_files/325205.got.cif
#   From: 2010.05.17/outbox.cif.g08.bks.cpg/sg12_163_cif.got.tgz:325205.got - 2010.06.03 13:09:07.
