data_PCOD9214985
_publ_section_title
;
Structure prediction by ZEFSAII (Michael W. Deem and Ramdas Pophale) SiO2 
 PCOD9214985
Probable space group: C 2/M
;
_chemical_formula_sum "Si O2"
_cell_formula_units_Z 36
_cell_length_a 5.564966
_cell_length_b 22.081799
_cell_length_c 18.757966
_cell_angle_alpha 90.000000
_cell_angle_beta 49.431862
_cell_angle_gamma 90.000000
_cell_volume 1751.001761
_symmetry_space_group_name_H-M "C 2/M"
_symmetry_group_IT_number 12
_symmetry_cell_setting 'monoclinic'
loop_
_space_group_symop_operation_xyz
x,y,z
-x,y,-z
-x,-y,-z
x,-y,z
1/2+x,1/2+y,z
1/2-x,1/2+y,-z
1/2-x,1/2-y,-z
1/2+x,1/2-y,z
loop_
_atom_site_type_symbol
_atom_site_label
_atom_site_fract_x
_atom_site_fract_y
_atom_site_fract_z
Si Si1 0.241458 0.000000 0.713571
Si Si2 0.725285 0.391686 0.607419
Si Si3 0.466736 0.000000 0.092190
Si Si4 0.135849 0.366201 0.055350
Si Si5 0.824164 0.212603 0.757773
Si Si6 0.625109 0.500000 0.395219
O O1 0.317649 0.939403 0.652599
O O2 0.532612 0.000000 0.709921
O O3 0.897759 0.000000 0.812289
O O4 0.534239 0.335522 0.673996
O O5 0.510877 0.437054 0.604684
O O6 0.000000 0.373004 0.500000
O O7 0.613270 0.064046 0.086761
O O8 0.500000 0.000000 0.000000
O O9 0.898507 0.324289 0.145126
O O10 0.500000 0.346867 0.000000
O O11 0.000000 0.364712 0.000000
O O12 0.579679 0.247674 0.752848
O O13 0.500000 0.500000 0.500000
#
# Coordination Sequence:
#
# PCOD9214985 Si02
#       6
#     4   8   4   8   8   4
#     4  11  20  42  69 101 138 172 217 281 360 423
#     4  11  24  42  67 101 137 177 231 291 348 415
#     4  10  22  40  67 107 137 169 215 281 364 422
#     4  11  24  45  73 101 139 178 227 288 349 417
#     4  12  29  47  69 101 138 192 246 283 338 401
#     4  11  21  37  74 103 132 174 228 287 359 429
#
# _framework density 20.559659
#
# number of rings (size 3 to 8) (size 9 to 14) (size 15 to 20)
#    0.000    0.889    4.444    2.333    3.111    7.111 
#    0.000    0.000    0.000    0.000    0.000    0.000 
#    0.000    0.000    0.000    0.000    0.000    0.000 
#
# Total GULP energy -100317.684820 kJ/mol
# GULP energy per Si atom -5573.204712 kJ/mol
# Density = 2.051286 g / cm^3
# Si number density = 20.559659 Si / 1000 Ang^3
#
#
#
# Elastic Constant Matrix: (Units=GPa)
#
#
# Indices 1 2 3 4 5 6 
#
# 1 110.1966 59.3173 66.1316 0.0000 -20.2117 0.0000
# 2 59.3173 150.9354 79.5628 0.0000 -6.4051 0.0000
# 3 66.1316 79.5628 165.8321 0.0000 -34.0036 0.0000
# 4 0.0000 0.0000 0.0000 3037.1082 0.0000-2750.6722
# 5 -20.2117 -6.4051 -34.0036 0.0000 37.1844 0.0000
# 6 0.0000 0.0000 0.0000-2750.6722 0.0000 2564.7298
#
#
#
# Elastic Compliance Matrix: (Units=1/GPa)
#
#
# Indices 1 2 3 4 5 6 
#
# 1 0.013465 -0.003660 -0.002759 0.000000 0.004165 0.000000
# 2 -0.003660 0.010126 -0.004245 0.000000 -0.004127 0.000000
# 3 -0.002759 -0.004245 0.010720 0.000000 0.007572 0.000000
# 4 0.000000 0.000000 0.000000 0.011493 0.000000 0.012326
# 5 0.004165 -0.004127 0.007572 0.000000 0.035370 0.000000
# 6 0.000000 0.000000 0.000000 0.012326 0.000000 0.013609
#
#
# Mechanical properties :
#
#
# Convention : Reuss Voigt Hill
#
# Bulk Modulus (GPa) = 77.03216 92.99859 85.01537
# Shear Modulus (GPa) = 41.51447 1142.60129 592.05788
#
# Velocity S-wave (km/s) = 4.49845 23.59991 16.98811
# Velocity P-wave (km/s) = 8.03308 28.07026 20.64545
#
# Compressibility (1/GPa) = 0.01298159
#
# Stress axis : x y z
#
# Youngs Moduli (GPa) = 74.26691 98.75181 93.28474
#
# Poissons Ratio (x) = 0.36147 0.25741
# Poissons Ratio (y) = 0.27184 0.39599
# Poissons Ratio (z) = 0.20494 0.41920
#
# Static dielectric constant tensor:
#      x y z
#    x 1.863970 0.000000 0.007440 
#    y 0.000000 1.687940 0.000000 
#    z 0.007440 0.000000 1.674520 
# 
# From -- ./inp_files/253106.got.cif
#   From: 2010.05.17/outbox.cif.g08.bks.cpg/sg12_127_cif.got.tgz:253106.got - 2010.06.03 13:09:07.
