data_PCOD9214349
_publ_section_title
;
Structure prediction by ZEFSAII (Michael W. Deem and Ramdas Pophale) SiO2 
 PCOD9214349
Probable space group: C 2/M
;
_chemical_formula_sum "Si O2"
_cell_formula_units_Z 56
_cell_length_a 28.126860
_cell_length_b 9.893970
_cell_length_c 10.373179
_cell_angle_alpha 90.000000
_cell_angle_beta 107.452472
_cell_angle_gamma 90.000000
_cell_volume 2753.826904
_symmetry_space_group_name_H-M "C 2/M"
_symmetry_group_IT_number 12
_symmetry_cell_setting 'monoclinic'
loop_
_space_group_symop_operation_xyz
x,y,z
-x,y,-z
-x,-y,-z
x,-y,z
1/2+x,1/2+y,z
1/2-x,1/2+y,-z
1/2-x,1/2-y,-z
1/2+x,1/2-y,z
loop_
_atom_site_type_symbol
_atom_site_label
_atom_site_fract_x
_atom_site_fract_y
_atom_site_fract_z
Si Si1 0.020616 0.653066 0.372952
Si Si2 0.116637 0.143693 0.090375
Si Si3 0.296902 0.154877 0.567123
Si Si4 0.214948 0.719109 0.151739
Si Si5 0.888825 0.843312 0.607725
Si Si6 0.185437 0.347671 0.840235
Si Si7 0.081774 0.338924 0.851885
O O1 0.038806 0.500000 0.352187
O O2 0.062307 0.767210 0.401248
O O3 0.000000 0.644772 0.500000
O O4 0.972810 0.687709 0.246657
O O5 0.176271 0.155894 0.119167
O O6 0.106715 0.150106 0.233333
O O7 0.098989 0.000000 0.023623
O O8 0.091261 0.264337 0.993360
O O9 0.250000 0.250000 0.500000
O O10 0.299286 0.148701 0.725889
O O11 0.343159 0.239906 0.548363
O O12 0.293238 0.000000 0.517157
O O13 0.272765 0.759828 0.196263
O O14 0.202684 0.649070 0.005345
O O15 0.881849 0.000000 0.557876
O O16 0.186192 0.500000 0.789818
O O17 0.128371 0.296645 0.797771
O O18 0.087161 0.500000 0.870741
#
# Coordination Sequence:
#
# PCOD9214349 Si02
#       7
#     8   8   8   8   8   8   8
#     4  10  22  40  59  80 110 149 191 233 280 335
#     4   9  18  33  54  81 112 142 178 230 286 337
#     4  11  23  39  59  84 116 151 188 229 272 326
#     4   9  18  31  51  80 112 148 185 224 275 331
#     4  10  22  40  61  85 111 143 184 230 284 337
#     4   9  16  29  51  78 110 146 184 228 277 329
#     4   9  19  34  53  80 110 144 189 234 277 330
#
# _framework density 20.335339000000001
#
# number of rings (size 3 to 8) (size 9 to 14) (size 15 to 20)
#    0.000    2.429    0.000    1.714    0.000    8.286 
#    0.000    5.000    0.000    0.000    0.000    0.000 
#    0.000    0.000    0.000    0.000    0.000    0.000 
#
# Total GULP energy -156094.180867 kJ/mol
# GULP energy per Si atom -5574.792174 kJ/mol
# Density = 2.028905 g / cm^3
# Si number density = 20.335339 Si / 1000 Ang^3
#
#
#
# Elastic Constant Matrix: (Units=GPa)
#
#
# Indices 1 2 3 4 5 6 
#
# 1 98.9574 67.2842 8.0305 0.0000 11.8217 0.0000
# 2 67.2842 126.7271 16.7216 0.0000 16.3773 0.0000
# 3 8.0305 16.7216 26.4064 0.0000 9.3809 0.0000
# 4 0.0000 0.0000 0.0000 13.6618 0.0000 8.2578
# 5 11.8217 16.3773 9.3809 0.0000 28.1197 0.0000
# 6 0.0000 0.0000 0.0000 8.2578 0.0000 18.9485
#
#
#
# Elastic Compliance Matrix: (Units=1/GPa)
#
#
# Indices 1 2 3 4 5 6 
#
# 1 0.015943 -0.008335 0.001232 0.000000 -0.002259 0.000000
# 2 -0.008335 0.013307 -0.004973 0.000000 -0.002587 0.000000
# 3 0.001232 -0.004973 0.045150 0.000000 -0.012684 0.000000
# 4 0.000000 0.000000 0.000000 0.099373 0.000000 -0.043307
# 5 -0.002259 -0.002587 -0.012684 0.000000 0.042250 0.000000
# 6 0.000000 0.000000 0.000000 -0.043307 0.000000 0.071648
#
#
# Mechanical properties :
#
#
# Convention : Reuss Voigt Hill
#
# Bulk Modulus (GPa) = 19.90112 48.46262 34.18187
# Shear Modulus (GPa) = 15.21742 22.81631 19.01687
#
# Velocity S-wave (km/s) = 2.73852 3.35327 3.06136
# Velocity P-wave (km/s) = 4.45051 6.23506 5.41678
#
# Compressibility (1/GPa) = 0.05024842
#
# Stress axis : x y z
#
# Youngs Moduli (GPa) = 62.72523 75.14908 22.14849
#
# Poissons Ratio (x) = 0.62638 -0.02729
# Poissons Ratio (y) = 0.52283 0.11013
# Poissons Ratio (z) = -0.07730 0.37368
#
# Static dielectric constant tensor:
#      x y z
#    x 1.731950 0.000000 0.007370 
#    y 0.000000 1.680270 0.000000 
#    z 0.007370 0.000000 1.750210 
# 
# From -- ./inp_files/181037.got.cif
#   From: 2010.05.17/outbox.cif.g08.bks.cpg/sg12_91_cif.got.tgz:181037.got - 2010.06.03 13:09:07.
