data_PCOD9214132
_publ_section_title
;
Structure prediction by ZEFSAII (Michael W. Deem and Ramdas Pophale) SiO2 
 PCOD9214132
Probable space group: C 2/M
;
_chemical_formula_sum "Si O2"
_cell_formula_units_Z 40
_cell_length_a 13.987086
_cell_length_b 13.572845
_cell_length_c 16.304787
_cell_angle_alpha 90.000000
_cell_angle_beta 43.728869
_cell_angle_gamma 90.000000
_cell_volume 2139.667404
_symmetry_space_group_name_H-M "C 2/M"
_symmetry_group_IT_number 12
_symmetry_cell_setting 'monoclinic'
loop_
_space_group_symop_operation_xyz
x,y,z
-x,y,-z
-x,-y,-z
x,-y,z
1/2+x,1/2+y,z
1/2-x,1/2+y,-z
1/2-x,1/2-y,-z
1/2+x,1/2-y,z
loop_
_atom_site_type_symbol
_atom_site_label
_atom_site_fract_x
_atom_site_fract_y
_atom_site_fract_z
Si Si1 0.679278 0.616143 0.015914
Si Si2 0.317672 0.729830 0.823602
Si Si3 0.384754 0.213149 0.368783
Si Si4 0.378803 0.298287 0.191154
Si Si5 0.580121 0.000000 0.583171
Si Si6 0.285143 0.000000 0.676731
O O1 0.673963 0.500000 0.004812
O O2 0.695681 0.642442 0.101944
O O3 0.536802 0.669741 0.077317
O O4 0.797435 0.670988 0.891134
O O5 0.471670 0.735257 0.691363
O O6 0.199604 0.734947 0.828645
O O7 0.250000 0.250000 0.500000
O O8 0.373034 0.242019 0.281026
O O9 0.397987 0.097869 0.378322
O O10 0.297950 0.401702 0.249919
O O11 0.427121 0.000000 0.639197
O O12 0.680474 0.000000 0.441428
#
# Coordination Sequence:
#
# PCOD9214132 Si02
#       6
#     8   8   8   8   4   4
#     4  10  22  39  63  87 118 156 192 243 296 347
#     4  10  23  39  58  88 122 150 197 243 292 348
#     4  11  23  38  59  86 123 155 192 245 295 341
#     4  11  21  38  62  90 120 153 193 244 291 352
#     4  11  22  38  57  88 122 157 199 242 293 346
#     4  11  20  34  64  90 113 156 201 244 293 339
#
# _framework density 18.694493999999999
#
# number of rings (size 3 to 8) (size 9 to 14) (size 15 to 20)
#    0.000    1.400    5.000    0.600    2.800    1.600 
#    1.800    0.000    0.000    4.800    0.000    0.000 
#    0.000    0.000    0.000    0.000    0.000    0.000 
#
# Total GULP energy -111723.899897 kJ/mol
# GULP energy per Si atom -5586.194995 kJ/mol
# Density = 1.865194 g / cm^3
# Si number density = 18.694494 Si / 1000 Ang^3
#
#
#
# Elastic Constant Matrix: (Units=GPa)
#
#
# Indices 1 2 3 4 5 6 
#
# 1 92.7352 19.1156 15.1825 0.0000 -0.3229 0.0000
# 2 19.1156 54.5076 13.8965 0.0000 4.2084 0.0000
# 3 15.1825 13.8965 78.0001 0.0000 -20.3760 0.0000
# 4 0.0000 0.0000 0.0000 19.2086 0.0000 -3.5620
# 5 -0.3229 4.2084 -20.3760 0.0000 25.6079 0.0000
# 6 0.0000 0.0000 0.0000 -3.5620 0.0000 23.3359
#
#
#
# Elastic Compliance Matrix: (Units=1/GPa)
#
#
# Indices 1 2 3 4 5 6 
#
# 1 0.011830 -0.003622 -0.001847 0.000000 -0.000725 0.000000
# 2 -0.003622 0.021516 -0.005130 0.000000 -0.007664 0.000000
# 3 -0.001847 -0.005130 0.018063 0.000000 0.015192 0.000000
# 4 0.000000 0.000000 0.000000 0.053577 0.000000 0.008178
# 5 -0.000725 -0.007664 0.015192 0.000000 0.052389 0.000000
# 6 0.000000 0.000000 0.000000 0.008178 0.000000 0.044101
#
#
# Mechanical properties :
#
#
# Convention : Reuss Voigt Hill
#
# Bulk Modulus (GPa) = 33.10108 35.73687 34.41898
# Shear Modulus (GPa) = 21.48299 25.43370 23.45835
#
# Velocity S-wave (km/s) = 3.39361 3.69249 3.54620
# Velocity P-wave (km/s) = 5.75328 6.11040 5.93453
#
# Compressibility (1/GPa) = 0.03021049
#
# Stress axis : x y z
#
# Youngs Moduli (GPa) = 84.53232 46.47736 55.36300
#
# Poissons Ratio (x) = 0.16833 0.10224
# Poissons Ratio (y) = 0.30616 0.28403
# Poissons Ratio (z) = 0.15611 0.23844
#
# Static dielectric constant tensor:
#      x y z
#    x 1.660930 0.000000 -0.009600 
#    y 0.000000 1.607790 0.000000 
#    z -0.009600 0.000000 1.674120 
# 
# From -- ./inp_files/176571.got.cif
#   From: 2010.05.17/outbox.cif.g08.bks.cpg/sg12_89_cif.got.tgz:176571.got - 2010.06.03 13:09:07.
