data_PCOD9214104
_publ_section_title
;
Structure prediction by ZEFSAII (Michael W. Deem and Ramdas Pophale) SiO2 
 PCOD9214104
Probable space group: C 2/M
;
_chemical_formula_sum "Si O2"
_cell_formula_units_Z 64
_cell_length_a 17.386356
_cell_length_b 15.022771
_cell_length_c 15.035930
_cell_angle_alpha 90.000000
_cell_angle_beta 51.045846
_cell_angle_gamma 90.000000
_cell_volume 3054.025648
_symmetry_space_group_name_H-M "C 2/M"
_symmetry_group_IT_number 12
_symmetry_cell_setting 'monoclinic'
loop_
_space_group_symop_operation_xyz
x,y,z
-x,y,-z
-x,-y,-z
x,-y,z
1/2+x,1/2+y,z
1/2-x,1/2+y,-z
1/2-x,1/2-y,-z
1/2+x,1/2-y,z
loop_
_atom_site_type_symbol
_atom_site_label
_atom_site_fract_x
_atom_site_fract_y
_atom_site_fract_z
Si Si1 0.915705 0.396335 0.985571
Si Si2 0.510285 0.836503 0.734149
Si Si3 0.895607 0.856210 0.354623
Si Si4 0.783959 0.398199 0.386042
Si Si5 0.264305 0.797241 0.214137
Si Si6 0.435888 0.599939 0.635873
Si Si7 0.200773 0.099386 0.759988
Si Si8 0.924319 0.397166 0.622416
O O1 0.894644 0.500000 0.984000
O O2 0.957975 0.353712 0.865518
O O3 0.821248 0.347562 0.094503
O O4 0.000000 0.391194 0.000000
O O5 0.561361 0.741290 0.691635
O O6 0.606319 0.899017 0.653083
O O7 0.432821 0.852856 0.711893
O O8 0.798883 0.858991 0.488096
O O9 0.862792 0.894406 0.283408
O O10 0.985187 0.901748 0.341905
O O11 0.755382 0.500000 0.387151
O O12 0.790814 0.340498 0.290945
O O13 0.148518 0.825148 0.291715
O O14 0.303055 0.694554 0.185859
O O15 0.500000 0.616052 0.500000
O O16 0.391385 0.500000 0.661861
O O17 0.317773 0.101553 0.654834
O O18 0.182243 0.000000 0.814831
O O19 0.952996 0.500000 0.615973
O O20 0.000000 0.352458 0.500000
#
# Coordination Sequence:
#
# PCOD9214104 Si02
#       8
#     8   8   8   8   8   8   8   8
#     4  11  22  41  68 100 139 177 223 284 341 402
#     4  12  24  40  67 100 137 178 227 275 344 404
#     4  12  24  40  62  98 138 182 224 273 333 411
#     4  12  22  36  63 100 139 174 216 272 341 408
#     4  12  24  41  67 100 133 176 225 275 341 403
#     4  11  23  40  64  99 141 179 222 278 342 409
#     4  11  24  43  63  90 131 180 229 276 331 400
#     4  10  22  39  62  93 131 173 222 277 332 395
#
# _framework density 20.955946999999998
#
# number of rings (size 3 to 8) (size 9 to 14) (size 15 to 20)
#    0.000    0.625    3.750    5.250    1.750    2.000 
#    0.000    2.500    0.000    6.375    0.000    0.000 
#    0.000    0.000    0.000    0.000    0.000    0.000 
#
# Total GULP energy -178697.001789 kJ/mol
# GULP energy per Si atom -5584.281306 kJ/mol
# Density = 2.090825 g / cm^3
# Si number density = 20.955947 Si / 1000 Ang^3
#
#
#
# Elastic Constant Matrix: (Units=GPa)
#
#
# Indices 1 2 3 4 5 6 
#
# 1 119.7750 24.1680 9.1784 0.0000 -2.1786 0.0000
# 2 24.1680 153.6720 54.6346 0.0000 1.0412 0.0000
# 3 9.1784 54.6346 90.7272 0.0000 -2.0342 0.0000
# 4 0.0000 0.0000 0.0000 28.7358 0.0000 -20.1141
# 5 -2.1786 1.0412 -2.0342 0.0000 18.3478 0.0000
# 6 0.0000 0.0000 0.0000 -20.1141 0.0000 -5.6514
#
#
#
# Elastic Compliance Matrix: (Units=1/GPa)
#
#
# Indices 1 2 3 4 5 6 
#
# 1 0.008645 -0.001355 -0.000034 0.000000 0.001100 0.000000
# 2 -0.001355 0.008512 -0.005015 0.000000 -0.001200 0.000000
# 3 -0.000034 -0.005015 0.014087 0.000000 0.001842 0.000000
# 4 0.000000 0.000000 0.000000 0.009968 0.000000 -0.035476
# 5 0.001100 -0.001200 0.001842 0.000000 0.054905 0.000000
# 6 0.000000 0.000000 0.000000 -0.035476 0.000000 -0.050683
#
#
# Mechanical properties :
#
#
# Convention : Reuss Voigt Hill
#
# Bulk Modulus (GPa) = 54.24481 60.01514 57.12997
# Shear Modulus (GPa) = 77.65419 26.69932 52.17675
#
# Velocity S-wave (km/s) = 6.09396 3.57328 4.99523
# Velocity P-wave (km/s) = 8.68657 6.76205 7.78402
#
# Compressibility (1/GPa) = 0.01843494
#
# Stress axis : x y z
#
# Youngs Moduli (GPa) = 115.67383 117.48496 70.98719
#
# Poissons Ratio (x) = 0.15919 0.00241
# Poissons Ratio (y) = 0.15673 0.35603
# Poissons Ratio (z) = 0.00393 0.58924
#
# Static dielectric constant tensor:
#      x y z
#    x 1.786930 0.000000 0.001260 
#    y 0.000000 1.852240 0.000000 
#    z 0.001260 0.000000 1.720630 
# 
# From -- ./inp_files/225703.got.cif
#   From: 2010.05.17/outbox.cif.g08.bks.cpg/sg12_113_cif.got.tgz:225703.got - 2010.06.03 13:09:07.
