data_PCOD9214191
_publ_section_title
;
Structure prediction by ZEFSAII (Michael W. Deem and Ramdas Pophale) SiO2 
 PCOD9214191
Probable space group: C 2/M
;
_chemical_formula_sum "Si O2"
_cell_formula_units_Z 52
_cell_length_a 9.191718
_cell_length_b 28.704904
_cell_length_c 12.955211
_cell_angle_alpha 90.000000
_cell_angle_beta 51.206956
_cell_angle_gamma 90.000000
_cell_volume 2664.191888
_symmetry_space_group_name_H-M "C 2/M"
_symmetry_group_IT_number 12
_symmetry_cell_setting 'monoclinic'
loop_
_space_group_symop_operation_xyz
x,y,z
-x,y,-z
-x,-y,-z
x,-y,z
1/2+x,1/2+y,z
1/2-x,1/2+y,-z
1/2-x,1/2-y,-z
1/2+x,1/2-y,z
loop_
_atom_site_type_symbol
_atom_site_label
_atom_site_fract_x
_atom_site_fract_y
_atom_site_fract_z
Si Si1 0.159447 0.078891 0.352035
Si Si2 0.159117 0.700970 0.352227
Si Si3 0.151666 0.285396 0.851466
Si Si4 0.765904 0.000000 0.853371
Si Si5 0.481730 0.649870 0.753095
Si Si6 0.989046 0.362423 0.767066
Si Si7 0.351061 0.419903 0.982370
O O1 0.226724 0.040557 0.240401
O O2 0.337575 0.102523 0.327568
O O3 0.000000 0.060763 0.500000
O O4 0.063263 0.119647 0.327519
O O5 0.262281 0.743830 0.252348
O O6 0.316768 0.672484 0.342567
O O7 0.071371 0.666635 0.305928
O O8 0.000000 0.717990 0.500000
O O9 0.322861 0.310887 0.832153
O O10 0.054273 0.324624 0.823522
O O11 0.000000 0.267651 0.000000
O O12 0.771716 0.040651 0.941739
O O13 0.461871 0.616663 0.860836
O O14 0.817223 0.392507 0.887689
O O15 0.500000 0.438155 0.000000
#
# Coordination Sequence:
#
# PCOD9214191 Si02
#       7
#     8   8   8   4   8   8   8
#     4  10  22  42  65  92 129 167 207 253 315 386
#     4  12  26  41  60  91 132 173 217 261 315 370
#     4  11  24  39  63  95 126 165 221 269 310 363
#     4  10  24  39  70  97 126 156 204 263 321 387
#     4  10  22  39  64  89 125 170 212 260 309 375
#     4  11  24  40  68  92 125 171 212 260 317 371
#     4  11  21  41  66  98 127 157 206 265 325 372
#
# _framework density 19.518113
#
# number of rings (size 3 to 8) (size 9 to 14) (size 15 to 20)
#    0.000    1.231    3.077    2.308    2.154    7.385 
#    0.000    0.000    0.000    0.923    0.000    0.000 
#    0.000    0.000    0.000    0.000    0.000    0.000 
#
# Total GULP energy -144794.430489 kJ/mol
# GULP energy per Si atom -5569.016557 kJ/mol
# Density = 1.947369 g / cm^3
# Si number density = 19.518113 Si / 1000 Ang^3
#
#
#
# Elastic Constant Matrix: (Units=GPa)
#
#
# Indices 1 2 3 4 5 6 
#
# 1 70.5020 21.3127 31.9010 0.0000 -7.2732 0.0000
# 2 21.3127 100.5224 36.7730 0.0000 -2.5587 0.0000
# 3 31.9010 36.7730 102.0979 0.0000 -6.9662 0.0000
# 4 0.0000 0.0000 0.0000 -1.7098 0.0000 18.9347
# 5 -7.2732 -2.5587 -6.9662 0.0000 21.1280 0.0000
# 6 0.0000 0.0000 0.0000 18.9347 0.0000 -0.4756
#
#
#
# Elastic Compliance Matrix: (Units=1/GPa)
#
#
# Indices 1 2 3 4 5 6 
#
# 1 0.017190 -0.001932 -0.004386 0.000000 0.004237 0.000000
# 2 -0.001932 0.011675 -0.003632 0.000000 -0.000449 0.000000
# 3 -0.004386 -0.003632 0.012624 0.000000 0.002213 0.000000
# 4 0.000000 0.000000 0.000000 0.001330 0.000000 0.052933
# 5 0.004237 -0.000449 0.002213 0.000000 0.049464 0.000000
# 6 0.000000 0.000000 0.000000 0.052933 0.000000 0.004780
#
#
# Mechanical properties :
#
#
# Convention : Reuss Voigt Hill
#
# Bulk Modulus (GPa) = 46.32088 50.34395 48.33241
# Shear Modulus (GPa) = 40.27095 15.99757 28.13426
#
# Velocity S-wave (km/s) = 4.54724 2.86602 3.80075
# Velocity P-wave (km/s) = 7.16614 6.06643 6.63909
#
# Compressibility (1/GPa) = 0.02158854
#
# Stress axis : x y z
#
# Youngs Moduli (GPa) = 58.17398 85.65393 79.21416
#
# Poissons Ratio (x) = 0.16550 0.34743
# Poissons Ratio (y) = 0.11241 0.28770
# Poissons Ratio (z) = 0.25515 0.31108
#
# Static dielectric constant tensor:
#      x y z
#    x 1.693650 0.000000 -0.009340 
#    y 0.000000 1.649260 0.000000 
#    z -0.009340 0.000000 1.671990 
# 
# From -- ./inp_files/201187.got.cif
#   From: 2010.05.17/outbox.cif.g08.bks.cpg/sg12_101_cif.got.tgz:201187.got - 2010.06.03 13:09:07.
