data_PCOD9214112
_publ_section_title
;
Structure prediction by ZEFSAII (Michael W. Deem and Ramdas Pophale) SiO2 
 PCOD9214112
Probable space group: C 2/M
;
_chemical_formula_sum "Si O2"
_cell_formula_units_Z 32
_cell_length_a 11.752268
_cell_length_b 28.666752
_cell_length_c 5.140470
_cell_angle_alpha 90.000000
_cell_angle_beta 127.054372
_cell_angle_gamma 90.000000
_cell_volume 1382.104084
_symmetry_space_group_name_H-M "C 2/M"
_symmetry_group_IT_number 12
_symmetry_cell_setting 'monoclinic'
loop_
_space_group_symop_operation_xyz
x,y,z
-x,y,-z
-x,-y,-z
x,-y,z
1/2+x,1/2+y,z
1/2-x,1/2+y,-z
1/2-x,1/2-y,-z
1/2+x,1/2-y,z
loop_
_atom_site_type_symbol
_atom_site_label
_atom_site_fract_x
_atom_site_fract_y
_atom_site_fract_z
Si Si1 0.340193 0.447696 0.387151
Si Si2 0.587671 0.261392 0.365755
Si Si3 0.648689 0.122856 0.852090
Si Si4 0.287168 0.354301 0.546355
O O1 0.500000 0.448637 0.500000
O O2 0.300095 0.500000 0.411489
O O3 0.337412 0.407877 0.602935
O O4 0.229897 0.425904 0.024877
O O5 0.500000 0.245269 0.500000
O O6 0.750000 0.250000 0.500000
O O7 0.595732 0.317851 0.383094
O O8 0.500000 0.245205 0.000000
O O9 0.500000 0.115430 0.500000
O O10 0.735623 0.154281 0.766409
O O11 0.662067 0.146270 0.154973
#
# Coordination Sequence:
#
# PCOD9214112 Si02
#       4
#     8   8   8   8
#     4   9  21  39  63  94 132 173 223 272 328 404
#     4  12  27  48  75 107 141 183 231 291 351 419
#     4  10  22  39  62  94 128 175 222 277 329 397
#     4  10  23  40  68  93 133 174 220 270 340 400
#
# _framework density 23.153105
#
# number of rings (size 3 to 8) (size 9 to 14) (size 15 to 20)
#    1.500    0.250    0.000    3.750    3.500    4.500 
#    0.000    3.750    0.000    0.000    0.000    0.000 
#    0.000    0.000    0.000    0.000    0.000    0.000 
#
# Total GULP energy -89114.455740 kJ/mol
# GULP energy per Si atom -5569.653484 kJ/mol
# Density = 2.310041 g / cm^3
# Si number density = 23.153105 Si / 1000 Ang^3
#
#
#
# Elastic Constant Matrix: (Units=GPa)
#
#
# Indices 1 2 3 4 5 6 
#
# 1 122.9164 27.6551 39.1438 0.0000 -8.6633 0.0000
# 2 27.6551 101.0540 5.5602 0.0000 -1.8660 0.0000
# 3 39.1438 5.5602 106.8217 0.0000 10.2533 0.0000
# 4 0.0000 0.0000 0.0000 193.7069 0.0000 -67.2265
# 5 -8.6633 -1.8660 10.2533 0.0000 46.7879 0.0000
# 6 0.0000 0.0000 0.0000 -67.2265 0.0000 34.8317
#
#
#
# Elastic Compliance Matrix: (Units=1/GPa)
#
#
# Indices 1 2 3 4 5 6 
#
# 1 0.010100 -0.002506 -0.003821 0.000000 0.002608 0.000000
# 2 -0.002506 0.010558 0.000381 0.000000 -0.000126 0.000000
# 3 -0.003821 0.000381 0.011040 0.000000 -0.003112 0.000000
# 4 0.000000 0.000000 0.000000 0.015636 0.000000 0.030177
# 5 0.002608 -0.000126 -0.003112 0.000000 0.022533 0.000000
# 6 0.000000 0.000000 0.000000 0.030177 0.000000 0.086953
#
#
# Mechanical properties :
#
#
# Convention : Reuss Voigt Hill
#
# Bulk Modulus (GPa) = 50.48758 52.83448 51.66103
# Shear Modulus (GPa) = 28.52041 72.29416 50.40728
#
# Velocity S-wave (km/s) = 3.51353 5.59394 4.67103
# Velocity P-wave (km/s) = 6.18977 8.03692 7.17305
#
# Compressibility (1/GPa) = 0.01980685
#
# Stress axis : x y z
#
# Youngs Moduli (GPa) = 99.01060 94.71380 90.57657
#
# Poissons Ratio (x) = 0.23732 0.34608
# Poissons Ratio (y) = 0.24808 -0.03448
# Poissons Ratio (z) = 0.37831 -0.03606
#
# Static dielectric constant tensor:
#      x y z
#    x 1.966520 0.000000 0.030290 
#    y 0.000000 1.938760 0.000000 
#    z 0.030290 0.000000 1.886900 
# 
# From -- ./inp_files/8270.got.cif
#   From: 2010.05.17/outbox.cif.g08.bks.cpg/sg12_5_cif.got.tgz:8270.got - 2010.06.03 13:09:07.
