data_PCOD9214981
_publ_section_title
;
Structure prediction by ZEFSAII (Michael W. Deem and Ramdas Pophale) SiO2 
 PCOD9214981
Probable space group: C 2/M
;
_chemical_formula_sum "Si O2"
_cell_formula_units_Z 40
_cell_length_a 19.874595
_cell_length_b 17.967977
_cell_length_c 5.256674
_cell_angle_alpha 90.000000
_cell_angle_beta 118.807618
_cell_angle_gamma 90.000000
_cell_volume 1644.874953
_symmetry_space_group_name_H-M "C 2/M"
_symmetry_group_IT_number 12
_symmetry_cell_setting 'monoclinic'
loop_
_space_group_symop_operation_xyz
x,y,z
-x,y,-z
-x,-y,-z
x,-y,z
1/2+x,1/2+y,z
1/2-x,1/2+y,-z
1/2-x,1/2-y,-z
1/2+x,1/2-y,z
loop_
_atom_site_type_symbol
_atom_site_label
_atom_site_fract_x
_atom_site_fract_y
_atom_site_fract_z
Si Si1 0.086361 0.091019 0.090392
Si Si2 0.846266 0.412015 0.929561
Si Si3 0.080805 0.723276 0.763571
Si Si4 0.823326 0.910297 0.243585
Si Si5 0.666714 0.220301 0.418979
O O1 0.142314 0.111651 0.422494
O O2 0.084299 0.000000 0.078589
O O3 0.121945 0.114359 0.885585
O O4 0.000000 0.114369 0.000000
O O5 0.854889 0.500000 0.924935
O O6 0.914347 0.366882 0.189037
O O7 0.766566 0.392283 0.930154
O O8 0.836115 0.368981 0.641704
O O9 0.143139 0.739856 0.659941
O O10 0.000000 0.746348 0.500000
O O11 0.105793 0.747709 0.092127
O O12 0.825703 0.000000 0.242574
O O13 0.750000 0.250000 0.500000
#
# Coordination Sequence:
#
# PCOD9214981 Si02
#       5
#     8   8   8   8   8
#     4   9  16  26  42  64  95 141 196 251 300 346
#     4   9  22  36  61  95 135 176 217 263 327 400
#     4  10  22  40  66  99 132 169 216 274 334 396
#     4   9  17  28  44  71 104 147 197 241 294 368
#     4  10  22  41  67  95 129 177 223 271 321 390
#
# _framework density 24.317958000000001
#
# number of rings (size 3 to 8) (size 9 to 14) (size 15 to 20)
#    1.200    1.400    0.000    1.800    2.800    3.600 
#    0.000    1.000    0.000    4.800    0.000    0.000 
#    0.000    0.800    0.000    0.000    0.000    0.000 
#
# Total GULP energy -111783.118144 kJ/mol
# GULP energy per Si atom -5589.155907 kJ/mol
# Density = 2.426261 g / cm^3
# Si number density = 24.317958 Si / 1000 Ang^3
#
#
#
# Elastic Constant Matrix: (Units=GPa)
#
#
# Indices 1 2 3 4 5 6 
#
# 1 60.2392 7.8106 31.4305 0.0000 -24.0670 0.0000
# 2 7.8106 98.3205 11.1026 0.0000 -5.0494 0.0000
# 3 31.4305 11.1026 124.8886 0.0000 -7.5097 0.0000
# 4 0.0000 0.0000 0.0000 42.7328 0.0000 -4.3255
# 5 -24.0670 -5.0494 -7.5097 0.0000 47.7611 0.0000
# 6 0.0000 0.0000 0.0000 -4.3255 0.0000 32.3649
#
#
#
# Elastic Compliance Matrix: (Units=1/GPa)
#
#
# Indices 1 2 3 4 5 6 
#
# 1 0.023899 -0.000730 -0.005280 0.000000 0.011135 0.000000
# 2 -0.000730 0.010339 -0.000698 0.000000 0.000615 0.000000
# 3 -0.005280 -0.000698 0.009322 0.000000 -0.001269 0.000000
# 4 0.000000 0.000000 0.000000 0.023722 0.000000 0.003170
# 5 0.011135 0.000615 -0.001269 0.000000 0.026414 0.000000
# 6 0.000000 0.000000 0.000000 0.003170 0.000000 0.031321
#
#
# Mechanical properties :
#
#
# Convention : Reuss Voigt Hill
#
# Bulk Modulus (GPa) = 33.17595 42.68174 37.92885
# Shear Modulus (GPa) = 33.67387 40.11206 36.89296
#
# Velocity S-wave (km/s) = 3.72524 4.06579 3.89923
# Velocity P-wave (km/s) = 5.67233 6.29527 5.99191
#
# Compressibility (1/GPa) = 0.03014231
#
# Stress axis : x y z
#
# Youngs Moduli (GPa) = 41.84272 96.71832 107.27583
#
# Poissons Ratio (x) = 0.07065 0.56643
# Poissons Ratio (y) = 0.03056 0.07492
# Poissons Ratio (z) = 0.22093 0.06754
#
# Static dielectric constant tensor:
#      x y z
#    x 1.881730 0.000000 -0.005750 
#    y 0.000000 2.057410 0.000000 
#    z -0.005750 0.000000 1.880070 
# 
# From -- ./inp_files/16751.got.cif
#   From: 2010.05.17/outbox.cif.g08.bks.cpg/sg12_9_cif.got.tgz:16751.got - 2010.06.03 13:09:07.
