data_PCOD9214999
_publ_section_title
;
Structure prediction by ZEFSAII (Michael W. Deem and Ramdas Pophale) SiO2 
 PCOD9214999
Probable space group: C 2/M
;
_chemical_formula_sum "Si O2"
_cell_formula_units_Z 48
_cell_length_a 19.640532
_cell_length_b 22.094427
_cell_length_c 13.799815
_cell_angle_alpha 90.000000
_cell_angle_beta 158.286438
_cell_angle_gamma 90.000000
_cell_volume 2215.500538
_symmetry_space_group_name_H-M "C 2/M"
_symmetry_group_IT_number 12
_symmetry_cell_setting 'monoclinic'
loop_
_space_group_symop_operation_xyz
x,y,z
-x,y,-z
-x,-y,-z
x,-y,z
1/2+x,1/2+y,z
1/2-x,1/2+y,-z
1/2-x,1/2-y,-z
1/2+x,1/2-y,z
loop_
_atom_site_type_symbol
_atom_site_label
_atom_site_fract_x
_atom_site_fract_y
_atom_site_fract_z
Si Si1 0.837355 0.067742 0.563244
Si Si2 0.203271 0.113548 0.123315
Si Si3 0.382604 0.362729 0.443613
Si Si4 0.915185 0.771658 0.149172
Si Si5 0.490383 0.853505 0.156282
Si Si6 0.010282 0.571376 0.659950
O O1 0.905720 0.079148 0.543633
O O2 0.679293 0.116779 0.371878
O O3 0.766538 0.000000 0.481927
O O4 0.008470 0.080072 0.860387
O O5 0.321529 0.104368 0.376343
O O6 0.335648 0.083833 0.217141
O O7 0.163911 0.181898 0.036010
O O8 0.500000 0.364447 0.500000
O O9 0.451987 0.308382 0.603715
O O10 0.170750 0.354340 0.135208
O O11 0.006393 0.713897 0.219615
O O12 0.750000 0.750000 0.000000
O O13 0.424467 0.897126 0.156212
O O14 0.978772 0.500000 0.627125
#
# Coordination Sequence:
#
# PCOD9214999 Si02
#       6
#     8   8   8   8   8   8
#     4  11  25  46  66  95 141 182 226 286 350 416
#     4  10  22  40  67  97 129 181 229 291 339 400
#     4  11  24  42  69 101 129 177 230 282 338 411
#     4  11  22  42  70  97 135 172 232 285 342 408
#     4  12  25  40  67 100 135 181 220 277 355 409
#     4  11  22  39  67 101 133 176 236 284 338 410
#
# _framework density 21.665534000000001
#
# number of rings (size 3 to 8) (size 9 to 14) (size 15 to 20)
#    0.000    1.000    3.333    4.000    2.333    5.667 
#    0.000    1.667    0.000    0.000    0.000    0.000 
#    0.000    0.000    0.000    0.000    0.000    0.000 
#
# Total GULP energy -134254.097567 kJ/mol
# GULP energy per Si atom -5593.920732 kJ/mol
# Density = 2.161622 g / cm^3
# Si number density = 21.665534 Si / 1000 Ang^3
#
#
#
# Elastic Constant Matrix: (Units=GPa)
#
#
# Indices 1 2 3 4 5 6 
#
# 1 31.6734 31.7309 13.0713 0.0000 3.4118 0.0000
# 2 31.7309 169.6762 51.8141 0.0000 -1.1030 0.0000
# 3 13.0713 51.8141 153.0991 0.0000 -4.2369 0.0000
# 4 0.0000 0.0000 0.0000 20.3477 0.0000 7.2697
# 5 3.4118 -1.1030 -4.2369 0.0000 28.4509 0.0000
# 6 0.0000 0.0000 0.0000 7.2697 0.0000 -0.7541
#
#
#
# Elastic Compliance Matrix: (Units=1/GPa)
#
#
# Indices 1 2 3 4 5 6 
#
# 1 0.039731 -0.007120 -0.001127 0.000000 -0.005208 0.000000
# 2 -0.007120 0.007849 -0.002025 0.000000 0.000857 0.000000
# 3 -0.001127 -0.002025 0.007345 0.000000 0.001150 0.000000
# 4 0.000000 0.000000 0.000000 0.011058 0.000000 0.106605
# 5 -0.005208 0.000857 0.001150 0.000000 0.035977 0.000000
# 6 0.000000 0.000000 0.000000 0.106605 0.000000 -0.298381
#
#
# Mechanical properties :
#
#
# Convention : Reuss Voigt Hill
#
# Bulk Modulus (GPa) = 29.08471 60.85346 44.96908
# Shear Modulus (GPa) = -30.41040 26.79772 -1.80634
#
# Velocity S-wave (km/s) = -3.75057 3.52075 -0.91408
# Velocity P-wave (km/s) = 2.30264 6.68403 4.43701
#
# Compressibility (1/GPa) = 0.03438233
#
# Stress axis : x y z
#
# Youngs Moduli (GPa) = 25.16927 127.40597 136.14705
#
# Poissons Ratio (x) = 0.90711 0.15339
# Poissons Ratio (y) = 0.17920 0.27567
# Poissons Ratio (z) = 0.02836 0.25797
#
# Static dielectric constant tensor:
#      x y z
#    x 1.855810 0.000000 0.011440 
#    y 0.000000 1.759240 0.000000 
#    z 0.011440 0.000000 1.767060 
# 
# From -- ./inp_files/235555.got.cif
#   From: 2010.05.17/outbox.cif.g08.bks.cpg/sg12_118_cif.got.tgz:235555.got - 2010.06.03 13:09:07.
