data_PCOD9214019
_publ_section_title
;
Structure prediction by ZEFSAII (Michael W. Deem and Ramdas Pophale) SiO2 
 PCOD9214019
Probable space group: C 2/M
;
_chemical_formula_sum "Si O2"
_cell_formula_units_Z 58
_cell_length_a 14.300762
_cell_length_b 11.500852
_cell_length_c 20.983736
_cell_angle_alpha 90.000000
_cell_angle_beta 55.013083
_cell_angle_gamma 90.000000
_cell_volume 2827.521707
_symmetry_space_group_name_H-M "C 2/M"
_symmetry_group_IT_number 12
_symmetry_cell_setting 'monoclinic'
loop_
_space_group_symop_operation_xyz
x,y,z
-x,y,-z
-x,-y,-z
x,-y,z
1/2+x,1/2+y,z
1/2-x,1/2+y,-z
1/2-x,1/2-y,-z
1/2+x,1/2-y,z
loop_
_atom_site_type_symbol
_atom_site_label
_atom_site_fract_x
_atom_site_fract_y
_atom_site_fract_z
Si Si1 0.175597 0.132809 0.543569
Si Si2 0.038448 0.721524 0.394382
Si Si3 0.008784 0.635982 0.263637
Si Si4 0.205013 0.791811 0.672351
Si Si5 0.000000 0.500000 0.500000
Si Si6 0.785332 0.256118 0.882854
Si Si7 0.649553 0.366741 0.832453
Si Si8 0.384100 0.369657 0.950745
O O1 0.250000 0.250000 0.500000
O O2 0.183779 0.132925 0.617357
O O3 0.051372 0.172653 0.566772
O O4 0.206354 0.000000 0.510291
O O5 0.046218 0.692776 0.316118
O O6 0.163403 0.746170 0.374064
O O7 0.996075 0.604391 0.446576
O O8 0.004188 0.500000 0.274171
O O9 0.101376 0.666880 0.173247
O O10 0.885204 0.687448 0.295715
O O11 0.176923 0.861420 0.747366
O O12 0.721736 0.269127 0.840874
O O13 0.834877 0.143460 0.898412
O O14 0.691051 0.299076 0.970041
O O15 0.675305 0.500000 0.844536
O O16 0.517214 0.340755 0.896748
O O17 0.374880 0.500000 0.976630
#
# Coordination Sequence:
#
# PCOD9214019 Si02
#       8
#     8   8   8   8   2   8   8   8
#     4  11  27  47  71 103 138 173 221 276 336 402
#     4  11  25  42  70  97 133 173 222 270 330 400
#     4  11  22  40  63  96 131 169 216 270 325 386
#     4  11  24  41  64  99 129 174 214 269 331 397
#     4  12  24  44  74 104 124 176 230 270 338 412
#     4  11  21  37  64  93 127 161 220 267 318 380
#     4  11  21  37  63  91 124 167 219 265 316 383
#     4  10  22  39  61  90 126 170 211 265 326 379
#
# _framework density 20.512661000000001
#
# number of rings (size 3 to 8) (size 9 to 14) (size 15 to 20)
#    0.000    1.103    3.448    2.897    4.828    2.207 
#    0.000    3.103    0.000    1.655    0.000    0.000 
#    0.000    0.000    0.000    0.000    0.000    0.000 
#
# Total GULP energy -161449.579603 kJ/mol
# GULP energy per Si atom -5567.226883 kJ/mol
# Density = 2.046597 g / cm^3
# Si number density = 20.512661 Si / 1000 Ang^3
#
#
#
# Elastic Constant Matrix: (Units=GPa)
#
#
# Indices 1 2 3 4 5 6 
#
# 1 88.5959 6.9275 3.4764 0.0000 -8.4519 0.0000
# 2 6.9275 51.3584 13.0456 0.0000 -12.7798 0.0000
# 3 3.4764 13.0456 64.6888 0.0000 9.2268 0.0000
# 4 0.0000 0.0000 0.0000 -6.6597 0.0000 27.0107
# 5 -8.4519 -12.7798 9.2268 0.0000 34.9214 0.0000
# 6 0.0000 0.0000 0.0000 27.0107 0.0000 -4.1284
#
#
#
# Elastic Compliance Matrix: (Units=1/GPa)
#
#
# Indices 1 2 3 4 5 6 
#
# 1 0.011642 -0.000640 -0.000899 0.000000 0.002821 0.000000
# 2 -0.000640 0.023648 -0.006180 0.000000 0.010132 0.000000
# 3 -0.000899 -0.006180 0.017777 0.000000 -0.007176 0.000000
# 4 0.000000 0.000000 0.000000 0.005880 0.000000 0.038472
# 5 0.002821 0.010132 -0.007176 0.000000 0.034923 0.000000
# 6 0.000000 0.000000 0.000000 0.038472 0.000000 0.009486
#
#
# Mechanical properties :
#
#
# Convention : Reuss Voigt Hill
#
# Bulk Modulus (GPa) = 26.57516 27.94911 27.26213
# Shear Modulus (GPa) = 38.07032 16.90624 27.48828
#
# Velocity S-wave (km/s) = 4.31274 2.87398 3.66466
# Velocity P-wave (km/s) = 6.14681 4.96668 5.58798
#
# Compressibility (1/GPa) = 0.03762913
#
# Stress axis : x y z
#
# Youngs Moduli (GPa) = 85.89864 42.28618 56.25318
#
# Poissons Ratio (x) = 0.02706 0.05057
# Poissons Ratio (y) = 0.05498 0.34764
# Poissons Ratio (z) = 0.07722 0.26132
#
# Static dielectric constant tensor:
#      x y z
#    x 1.777570 0.000000 -0.017890 
#    y 0.000000 1.711840 0.000000 
#    z -0.017890 0.000000 1.799870 
# 
# From -- ./inp_files/309809.got.cif
#   From: 2010.05.17/outbox.cif.g08.bks.cpg/sg12_155_cif.got.tgz:309809.got - 2010.06.03 13:09:07.
