data_PCOD9214830
_publ_section_title
;
Structure prediction by ZEFSAII (Michael W. Deem and Ramdas Pophale) SiO2 
 PCOD9214830
Probable space group: C 2/M
;
_chemical_formula_sum "Si O2"
_cell_formula_units_Z 20
_cell_length_a 21.336492
_cell_length_b 8.201091
_cell_length_c 5.141609
_cell_angle_alpha 90.000000
_cell_angle_beta 121.523912
_cell_angle_gamma 90.000000
_cell_volume 766.916991
_symmetry_space_group_name_H-M "C 2/M"
_symmetry_group_IT_number 12
_symmetry_cell_setting 'monoclinic'
loop_
_space_group_symop_operation_xyz
x,y,z
-x,y,-z
-x,-y,-z
x,-y,z
1/2+x,1/2+y,z
1/2-x,1/2+y,-z
1/2-x,1/2-y,-z
1/2+x,1/2-y,z
loop_
_atom_site_type_symbol
_atom_site_label
_atom_site_fract_x
_atom_site_fract_y
_atom_site_fract_z
Si Si1 0.552536 0.500000 0.367379
Si Si2 0.912653 0.676851 0.768476
Si Si3 0.296361 0.694571 0.853638
O O1 0.500000 0.500000 0.500000
O O2 0.598938 0.334727 0.438388
O O3 0.500000 0.500000 0.000000
O O4 0.886612 0.500000 0.614062
O O5 0.873309 0.716843 0.955373
O O6 0.000000 0.666047 0.000000
O O7 0.307571 0.500000 0.880147
O O8 0.250000 0.750000 0.500000
O O9 0.250000 0.750000 0.000000
#
# Coordination Sequence:
#
# PCOD9214830 Si02
#       3
#     4   8   8
#     4  10  22  40  64  96 134 174 221 278 343 402
#     4  10  22  44  72 104 141 183 236 292 353 423
#     4  12  26  47  73 105 146 191 241 298 361 433
#
# _framework density 26.078437999999998
#
# number of rings (size 3 to 8) (size 9 to 14) (size 15 to 20)
#    0.000    1.200    2.000    3.600    0.000    7.200 
#    0.000    8.000    0.000    0.000    0.000    0.000 
#    0.000    0.000    0.000    0.000    0.000    0.000 
#
# Total GULP energy -56060.757816 kJ/mol
# GULP energy per Si atom -5606.075782 kJ/mol
# Density = 2.601908 g / cm^3
# Si number density = 26.078438 Si / 1000 Ang^3
#
#
#
# Elastic Constant Matrix: (Units=GPa)
#
#
# Indices 1 2 3 4 5 6 
#
# 1 260.9149 80.5572 62.9087 0.0000 -41.7284 0.0000
# 2 80.5572 310.6644 19.0749 0.0000 -37.3109 0.0000
# 3 62.9087 19.0749 94.7264 0.0000 -35.9296 0.0000
# 4 0.0000 0.0000 0.0000 30.5009 0.0000 -7.6209
# 5 -41.7284 -37.3109 -35.9296 0.0000 61.7337 0.0000
# 6 0.0000 0.0000 0.0000 -7.6209 0.0000 48.4367
#
#
#
# Elastic Compliance Matrix: (Units=1/GPa)
#
#
# Indices 1 2 3 4 5 6 
#
# 1 0.004967 -0.000978 -0.002634 0.000000 0.001233 0.000000
# 2 -0.000978 0.003665 0.000643 0.000000 0.001928 0.000000
# 3 -0.002634 0.000643 0.014948 0.000000 0.007308 0.000000
# 4 0.000000 0.000000 0.000000 0.034128 0.000000 0.005370
# 5 0.001233 0.001928 0.007308 0.000000 0.022451 0.000000
# 6 0.000000 0.000000 0.000000 0.005370 0.000000 0.021490
#
#
# Mechanical properties :
#
#
# Convention : Reuss Voigt Hill
#
# Bulk Modulus (GPa) = 56.68346 110.15413 83.41879
# Shear Modulus (GPa) = 44.06541 61.71858 52.89200
#
# Velocity S-wave (km/s) = 4.11509 4.87010 4.50843
# Velocity P-wave (km/s) = 6.66045 8.59972 7.69144
#
# Compressibility (1/GPa) = 0.01764183
#
# Stress axis : x y z
#
# Youngs Moduli (GPa) = 201.33107 272.88096 66.89639
#
# Poissons Ratio (x) = 0.26691 0.17619
# Poissons Ratio (y) = 0.19693 -0.04301
# Poissons Ratio (z) = 0.53028 -0.17543
#
# Static dielectric constant tensor:
#      x y z
#    x 2.056330 0.000000 0.205460 
#    y 0.000000 2.111920 0.000000 
#    z 0.205460 0.000000 2.722800 
# 
# From -- ./inp_files/13441.got.cif
#   From: 2010.05.17/outbox.cif.g08.bks.cpg/sg12_7_cif.got.tgz:13441.got - 2010.06.03 13:09:07.
