data_PCOD9214653
_publ_section_title
;
Structure prediction by ZEFSAII (Michael W. Deem and Ramdas Pophale) SiO2 
 PCOD9214653
Probable space group: C 2/M
;
_chemical_formula_sum "Si O2"
_cell_formula_units_Z 56
_cell_length_a 23.447978
_cell_length_b 8.663191
_cell_length_c 15.191222
_cell_angle_alpha 90.000000
_cell_angle_beta 114.262939
_cell_angle_gamma 90.000000
_cell_volume 2813.282297
_symmetry_space_group_name_H-M "C 2/M"
_symmetry_group_IT_number 12
_symmetry_cell_setting 'monoclinic'
loop_
_space_group_symop_operation_xyz
x,y,z
-x,y,-z
-x,-y,-z
x,-y,z
1/2+x,1/2+y,z
1/2-x,1/2+y,-z
1/2-x,1/2-y,-z
1/2+x,1/2-y,z
loop_
_atom_site_type_symbol
_atom_site_label
_atom_site_fract_x
_atom_site_fract_y
_atom_site_fract_z
Si Si1 0.989968 0.813945 0.595994
Si Si2 0.063458 0.316850 0.800846
Si Si3 0.318982 0.317217 0.032523
Si Si4 0.159508 0.683253 0.143575
Si Si5 0.968159 0.180572 0.883741
Si Si6 0.763170 0.314065 0.645760
Si Si7 0.348590 0.686249 0.544939
O O1 0.920129 0.764391 0.580462
O O2 0.000000 0.778671 0.500000
O O3 0.040462 0.735686 0.690716
O O4 0.994285 0.000000 0.609236
O O5 0.061005 0.500000 0.808483
O O6 0.132111 0.257036 0.868968
O O7 0.015672 0.240840 0.840577
O O8 0.318780 0.500000 0.043857
O O9 0.250000 0.250000 0.000000
O O10 0.340837 0.273471 0.948019
O O11 0.163100 0.500000 0.128291
O O12 0.095555 0.722882 0.153750
O O13 0.216595 0.731368 0.243375
O O14 0.954195 0.000000 0.858913
O O15 0.000000 0.194311 0.000000
O O16 0.766181 0.500000 0.644935
O O17 0.695267 0.267383 0.565770
O O18 0.813809 0.250095 0.608699
O O19 0.348241 0.500000 0.549062
#
# Coordination Sequence:
#
# PCOD9214653 Si02
#       7
#     8   8   8   8   8   8   8
#     4  10  22  40  63  89 119 161 209 255 307 369
#     4  12  25  42  65  93 126 163 205 260 318 372
#     4  12  26  45  65  88 121 161 205 251 303 370
#     4  11  22  37  60  92 126 161 202 251 307 369
#     4  11  22  37  61  91 124 163 205 255 310 370
#     4   9  19  34  55  85 119 154 193 241 299 357
#     4   9  18  35  57  83 116 153 197 245 297 356
#
# _framework density 19.905574999999999
#
# number of rings (size 3 to 8) (size 9 to 14) (size 15 to 20)
#    0.000    1.429    1.429    4.286    0.000    6.000 
#    0.000    2.857    0.000    0.000    0.000    0.000 
#    0.000    0.000    0.000    0.000    0.000    0.000 
#
# Total GULP energy -156567.335660 kJ/mol
# GULP energy per Si atom -5591.690559 kJ/mol
# Density = 1.986027 g / cm^3
# Si number density = 19.905575 Si / 1000 Ang^3
#
#
#
# Elastic Constant Matrix: (Units=GPa)
#
#
# Indices 1 2 3 4 5 6 
#
# 1 66.7698 3.0948 30.2114 0.0000 17.0895 0.0000
# 2 3.0948 48.3590 34.9792 0.0000 -3.3769 0.0000
# 3 30.2114 34.9792 131.9801 0.0000 19.6874 0.0000
# 4 0.0000 0.0000 0.0000 28.9848 0.0000 -0.4069
# 5 17.0895 -3.3769 19.6874 0.0000 25.0097 0.0000
# 6 0.0000 0.0000 0.0000 -0.4069 0.0000 29.1832
#
#
#
# Elastic Compliance Matrix: (Units=1/GPa)
#
#
# Indices 1 2 3 4 5 6 
#
# 1 0.018982 0.000007 -0.002733 0.000000 -0.010818 0.000000
# 2 0.000007 0.027978 -0.009041 0.000000 0.010890 0.000000
# 3 -0.002733 -0.009041 0.011900 0.000000 -0.008720 0.000000
# 4 0.000000 0.000000 0.000000 0.034508 0.000000 0.000481
# 5 -0.010818 0.010890 -0.008720 0.000000 0.055712 0.000000
# 6 0.000000 0.000000 0.000000 0.000481 0.000000 0.034273
#
#
# Mechanical properties :
#
#
# Convention : Reuss Voigt Hill
#
# Bulk Modulus (GPa) = 28.30874 42.63107 35.46990
# Shear Modulus (GPa) = 22.86621 28.55710 25.71166
#
# Velocity S-wave (km/s) = 3.39298 3.79176 3.59790
# Velocity P-wave (km/s) = 5.44078 6.37441 5.92601
#
# Compressibility (1/GPa) = 0.03532478
#
# Stress axis : x y z
#
# Youngs Moduli (GPa) = 52.68107 35.74176 84.03638
#
# Poissons Ratio (x) = -0.00024 0.22969
# Poissons Ratio (y) = -0.00036 0.75980
# Poissons Ratio (z) = 0.14399 0.32315
#
# Static dielectric constant tensor:
#      x y z
#    x 1.918960 0.000000 0.012370 
#    y 0.000000 1.667300 0.000000 
#    z 0.012370 0.000000 1.713120 
# 
# From -- ./inp_files/238957.got.cif
#   From: 2010.05.17/outbox.cif.g08.bks.cpg/sg12_120_cif.got.tgz:238957.got - 2010.06.03 13:09:07.
