data_PCOD9214333
_publ_section_title
;
Structure prediction by ZEFSAII (Michael W. Deem and Ramdas Pophale) SiO2 
 PCOD9214333
Probable space group: C 2/M
;
_chemical_formula_sum "Si O2"
_cell_formula_units_Z 44
_cell_length_a 32.146196
_cell_length_b 7.292137
_cell_length_c 6.835897
_cell_angle_alpha 90.000000
_cell_angle_beta 83.082232
_cell_angle_gamma 90.000000
_cell_volume 1590.767488
_symmetry_space_group_name_H-M "C 2/M"
_symmetry_group_IT_number 12
_symmetry_cell_setting 'monoclinic'
loop_
_space_group_symop_operation_xyz
x,y,z
-x,y,-z
-x,-y,-z
x,-y,z
1/2+x,1/2+y,z
1/2-x,1/2+y,-z
1/2-x,1/2-y,-z
1/2+x,1/2-y,z
loop_
_atom_site_type_symbol
_atom_site_label
_atom_site_fract_x
_atom_site_fract_y
_atom_site_fract_z
Si Si1 0.394936 0.715193 0.330142
Si Si2 0.058035 0.500000 0.217612
Si Si3 0.216058 0.219195 0.250300
Si Si4 0.805874 0.218758 0.299145
Si Si5 0.627142 0.714922 0.194561
Si Si6 0.989009 0.214491 0.236107
O O1 0.399580 0.500000 0.279578
O O2 0.353441 0.785473 0.241638
O O3 0.382518 0.729430 0.565916
O O4 0.441719 0.789357 0.283110
O O5 0.091497 0.340434 0.127327
O O6 0.024913 0.338992 0.306021
O O7 0.207700 0.288410 0.477392
O O8 0.265075 0.255635 0.187142
O O9 0.175431 0.279672 0.151078
O O10 0.212008 0.000000 0.254152
O O11 0.810428 0.000000 0.310053
O O12 0.623904 0.500000 0.142534
O O13 0.991220 0.000000 0.291677
O O14 0.000000 0.227781 0.000000
#
# Coordination Sequence:
#
# PCOD9214333 Si02
#       6
#     8   4   8   8   8   8
#     4   8  16  33  51  74 107 139 167 212 259 310
#     4  12  23  35  54  80 103 141 176 210 255 320
#     4   8  14  25  39  65 103 137 161 195 238 303
#     4   8  13  23  43  66  98 134 165 197 247 294
#     4   9  19  33  49  75 114 142 165 199 255 316
#     4  10  22  40  58  74 100 131 178 228 265 296
#
# _framework density 27.659606
#
# number of rings (size 3 to 8) (size 9 to 14) (size 15 to 20)
#    0.000    3.091    0.000    3.000    1.273    2.182 
#    6.545    2.727    0.000    0.000    0.000    1.273 
#    0.000    0.000    0.000    0.000    0.000    0.000 
#
# Total GULP energy -122575.927314 kJ/mol
# GULP energy per Si atom -5571.633060 kJ/mol
# Density = 2.759665 g / cm^3
# Si number density = 27.659606 Si / 1000 Ang^3
#
#
#
# Elastic Constant Matrix: (Units=GPa)
#
#
# Indices 1 2 3 4 5 6 
#
# 1 321.6811 66.8745 69.4799 0.0000 -54.8916 0.0000
# 2 66.8745 149.8255 -9.2840 0.0000 -12.6680 0.0000
# 3 69.4799 -9.2840 100.3313 0.0000 -11.3742 0.0000
# 4 0.0000 0.0000 0.0000 -18.8282 0.0000 8.4560
# 5 -54.8916 -12.6680 -11.3742 0.0000 61.6128 0.0000
# 6 0.0000 0.0000 0.0000 8.4560 0.0000 -26.9591
#
#
#
# Elastic Compliance Matrix: (Units=1/GPa)
#
#
# Indices 1 2 3 4 5 6 
#
# 1 0.004761 -0.002044 -0.003118 0.000000 0.003246 0.000000
# 2 -0.002044 0.007734 0.002150 0.000000 0.000166 0.000000
# 3 -0.003118 0.002150 0.012318 0.000000 -0.000062 0.000000
# 4 0.000000 0.000000 0.000000 -0.061820 0.000000 -0.019391
# 5 0.003246 0.000166 -0.000062 0.000000 0.019145 0.000000
# 6 0.000000 0.000000 0.000000 -0.019391 0.000000 -0.043175
#
#
# Mechanical properties :
#
#
# Convention : Reuss Voigt Hill
#
# Bulk Modulus (GPa) = 53.22299 91.77542 72.49920
# Shear Modulus (GPa) = -102.56238 32.81625 -34.87307
#
# Velocity S-wave (km/s) = -6.09596 3.44820 -3.55462
# Velocity P-wave (km/s) = 5.50124 7.00755 3.06937
#
# Compressibility (1/GPa) = 0.01878887
#
# Stress axis : x y z
#
# Youngs Moduli (GPa) = 210.04548 129.30008 81.18080
#
# Poissons Ratio (x) = 0.26426 0.25313
# Poissons Ratio (y) = 0.42929 -0.17452
# Poissons Ratio (z) = 0.65494 -0.27797
#
# Static dielectric constant tensor:
#      x y z
#    x 2.151010 0.000000 0.060800 
#    y 0.000000 2.069970 0.000000 
#    z 0.060800 0.000000 2.299810 
# 
# From -- ./inp_files/108002.got.cif
#   From: 2010.05.17/outbox.cif.g08.bks.cpg/sg12_55_cif.got.tgz:108002.got - 2010.06.03 13:09:07.
