data_PCOD9214693
_publ_section_title
;
Structure prediction by ZEFSAII (Michael W. Deem and Ramdas Pophale) SiO2 
 PCOD9214693
Probable space group: C 2/M
;
_chemical_formula_sum "Si O2"
_cell_formula_units_Z 64
_cell_length_a 23.983299
_cell_length_b 21.297759
_cell_length_c 20.659461
_cell_angle_alpha 90.000000
_cell_angle_beta 162.774474
_cell_angle_gamma 90.000000
_cell_volume 3124.996368
_symmetry_space_group_name_H-M "C 2/M"
_symmetry_group_IT_number 12
_symmetry_cell_setting 'monoclinic'
loop_
_space_group_symop_operation_xyz
x,y,z
-x,y,-z
-x,-y,-z
x,-y,z
1/2+x,1/2+y,z
1/2-x,1/2+y,-z
1/2-x,1/2-y,-z
1/2+x,1/2-y,z
loop_
_atom_site_type_symbol
_atom_site_label
_atom_site_fract_x
_atom_site_fract_y
_atom_site_fract_z
Si Si1 0.785786 0.927486 0.978230
Si Si2 0.620364 0.333884 0.316289
Si Si3 0.217553 0.828881 0.634809
Si Si4 0.923565 0.430512 0.487338
Si Si5 0.306424 0.618027 0.145875
Si Si6 0.048583 0.692996 0.236222
Si Si7 0.272824 0.569175 0.247801
Si Si8 0.302028 0.306553 0.746553
O O1 0.773151 0.916649 0.041320
O O2 0.953516 0.882527 0.140806
O O3 0.832763 0.000000 0.017223
O O4 0.591534 0.914853 0.724244
O O5 0.564136 0.264499 0.278441
O O6 0.663035 0.321337 0.289467
O O7 0.813966 0.349701 0.567465
O O8 0.368627 0.818775 0.744335
O O9 0.283094 0.875223 0.765152
O O10 0.183306 0.757774 0.622046
O O11 0.023596 0.859843 0.393285
O O12 0.844930 0.500000 0.419187
O O13 0.787661 0.371252 0.329838
O O14 0.000000 0.437510 0.500000
O O15 0.236588 0.579980 0.131719
O O16 0.167626 0.676746 0.995345
O O17 0.500000 0.569366 0.500000
O O18 0.207388 0.500000 0.196152
O O19 0.500000 0.293921 0.000000
#
# Coordination Sequence:
#
# PCOD9214693 Si02
#       8
#     8   8   8   8   8   8   8   8
#     4  11  23  41  66  95 131 171 217 267 322 398
#     4  10  22  41  60  91 126 164 205 266 327 377
#     4  10  23  41  62  98 130 172 217 268 319 378
#     4  10  23  42  64  94 128 165 216 270 337 409
#     4  11  22  39  67  93 128 177 213 267 315 374
#     4  10  22  40  63  92 126 161 218 266 313 386
#     4   9  20  39  62  90 131 174 216 258 312 377
#     4  11  24  40  66  94 128 166 215 276 325 396
#
# _framework density 20.480025000000001
#
# number of rings (size 3 to 8) (size 9 to 14) (size 15 to 20)
#    0.000    1.750    1.250    1.875    5.250    3.250 
#    0.000    3.125    0.000    0.000    0.000    0.000 
#    0.000    0.000    0.000    0.000    0.000    0.000 
#
# Total GULP energy -178441.720716 kJ/mol
# GULP energy per Si atom -5576.303772 kJ/mol
# Density = 2.043341 g / cm^3
# Si number density = 20.480025 Si / 1000 Ang^3
#
#
#
# Elastic Constant Matrix: (Units=GPa)
#
#
# Indices 1 2 3 4 5 6 
#
# 1 72.2337 16.1949 10.8676 0.0116 -18.3044 0.0118
# 2 16.1949 86.9931 11.2018 0.0460 1.8388 0.0279
# 3 10.8676 11.2018 38.4517 0.0743 -2.9431 0.0184
# 4 0.0116 0.0460 0.0743 -3.9334 0.0360 4.1743
# 5 -18.3044 1.8388 -2.9431 0.0360 28.9499 0.0092
# 6 0.0118 0.0279 0.0184 4.1743 0.0092 27.7667
#
#
#
# Elastic Compliance Matrix: (Units=1/GPa)
#
#
# Indices 1 2 3 4 5 6 
#
# 1 0.017871 -0.003140 -0.003282 0.000043 0.011165 -0.000012
# 2 -0.003140 0.012531 -0.002999 0.000038 -0.003087 -0.000014
# 3 -0.003282 -0.002999 0.027880 0.000410 0.000950 -0.000076
# 4 0.000043 0.000038 0.000410 -0.219244 0.000328 0.032959
# 5 0.011165 -0.003087 0.000950 0.000328 0.041894 -0.000066
# 6 -0.000012 -0.000014 -0.000076 0.032959 -0.000066 0.031060
#
#
# Mechanical properties :
#
#
# Convention : Reuss Voigt Hill
#
# Bulk Modulus (GPa) = 25.35526 30.46747 27.91137
# Shear Modulus (GPa) = -89.25531 21.18425 -34.03553
#
# Velocity S-wave (km/s) = -6.60880 3.21968 -4.08105
# Velocity P-wave (km/s) = 6.76961 5.36010 2.92377
#
# Compressibility (1/GPa) = 0.03943954
#
# Stress axis : x y z
#
# Youngs Moduli (GPa) = 55.95633 79.80061 35.86831
#
# Poissons Ratio (x) = 0.25061 0.11770
# Poissons Ratio (y) = 0.17573 0.10758
# Poissons Ratio (z) = 0.18362 0.23935
#
# Static dielectric constant tensor:
#      x y z
#    x 1.748810 0.000000 -0.023020 
#    y 0.000000 1.804580 0.000000 
#    z -0.023020 0.000000 1.763170 
# 
# From -- ./inp_files/286448.got.cif
#   From: 2010.05.17/outbox.cif.g08.bks.cpg/sg12_144_cif.got.tgz:286448.got - 2010.06.03 13:09:07.
