data_PCOD9214811
_publ_section_title
;
Structure prediction by ZEFSAII (Michael W. Deem and Ramdas Pophale) SiO2 
 PCOD9214811
Probable space group: C 2/M
;
_chemical_formula_sum "Si O2"
_cell_formula_units_Z 56
_cell_length_a 26.149910
_cell_length_b 17.620992
_cell_length_c 6.919250
_cell_angle_alpha 90.000000
_cell_angle_beta 59.822184
_cell_angle_gamma 90.000000
_cell_volume 2756.190613
_symmetry_space_group_name_H-M "C 2/M"
_symmetry_group_IT_number 12
_symmetry_cell_setting 'monoclinic'
loop_
_space_group_symop_operation_xyz
x,y,z
-x,y,-z
-x,-y,-z
x,-y,z
1/2+x,1/2+y,z
1/2-x,1/2+y,-z
1/2-x,1/2-y,-z
1/2+x,1/2-y,z
loop_
_atom_site_type_symbol
_atom_site_label
_atom_site_fract_x
_atom_site_fract_y
_atom_site_fract_z
Si Si1 0.143440 0.658714 0.364101
Si Si2 0.154370 0.915963 0.570590
Si Si3 0.929296 0.689583 0.112900
Si Si4 0.729019 0.407374 0.782286
Si Si5 0.127739 0.827957 0.234673
Si Si6 0.939230 0.144465 0.992418
Si Si7 0.056193 0.414422 0.274210
O O1 0.105588 0.667873 0.630758
O O2 0.209488 0.633211 0.285455
O O3 0.136174 0.737531 0.255910
O O4 0.111536 0.591734 0.309240
O O5 0.210846 0.892860 0.592244
O O6 0.132913 0.863303 0.438235
O O7 0.102891 0.916798 0.829751
O O8 0.164524 0.000000 0.472052
O O9 0.909938 0.773948 0.094936
O O10 0.924020 0.630408 0.951334
O O11 0.000000 0.694364 0.000000
O O12 0.729998 0.500000 0.805935
O O13 0.680178 0.366800 0.010809
O O14 0.068199 0.852263 0.227054
O O15 0.000000 0.140153 0.000000
O O16 0.039603 0.500000 0.253770
O O17 0.000000 0.380549 0.500000
#
# Coordination Sequence:
#
# PCOD9214811 Si02
#       7
#     8   8   8   8   8   8   8
#     4  12  23  40  67  96 127 171 227 266 316 391
#     4  10  22  42  64  93 129 168 213 272 334 384
#     4  11  22  40  63  92 129 169 209 264 321 380
#     4  10  24  43  63  91 132 171 216 276 329 382
#     4  11  22  41  67  95 126 173 216 272 325 378
#     4  10  22  40  64  94 130 169 212 262 325 391
#     4  11  24  40  61  92 131 172 216 266 321 381
#
# _framework density 20.317896999999999
#
# number of rings (size 3 to 8) (size 9 to 14) (size 15 to 20)
#    0.000    1.286    4.286    1.286    0.000    4.571 
#    0.000    2.143    0.000    0.000    0.000    0.000 
#    0.000    0.000    0.000    0.000    0.000    0.000 
#
# Total GULP energy -156012.822946 kJ/mol
# GULP energy per Si atom -5571.886534 kJ/mol
# Density = 2.027165 g / cm^3
# Si number density = 20.317897 Si / 1000 Ang^3
#
#
#
# Elastic Constant Matrix: (Units=GPa)
#
#
# Indices 1 2 3 4 5 6 
#
# 1 127.7129 22.8946 32.5117 0.0000 16.5372 0.0000
# 2 22.8946 77.9786 38.2130 0.0000 8.2831 0.0000
# 3 32.5117 38.2130 96.3834 0.0000 11.5865 0.0000
# 4 0.0000 0.0000 0.0000 13.2149 0.0000 -4.9204
# 5 16.5372 8.2831 11.5865 0.0000 32.6473 0.0000
# 6 0.0000 0.0000 0.0000 -4.9204 0.0000 16.8369
#
#
#
# Elastic Compliance Matrix: (Units=1/GPa)
#
#
# Indices 1 2 3 4 5 6 
#
# 1 0.009051 -0.001235 -0.002141 0.000000 -0.003512 0.000000
# 2 -0.001235 0.016196 -0.005835 0.000000 -0.001413 0.000000
# 3 -0.002141 -0.005835 0.013686 0.000000 -0.002292 0.000000
# 4 0.000000 0.000000 0.000000 0.084912 0.000000 0.024814
# 5 -0.003512 -0.001413 -0.002292 0.000000 0.033581 0.000000
# 6 0.000000 0.000000 0.000000 0.024814 0.000000 0.066645
#
#
# Mechanical properties :
#
#
# Convention : Reuss Voigt Hill
#
# Bulk Modulus (GPa) = 48.75364 54.36818 51.56091
# Shear Modulus (GPa) = 20.05367 26.43687 23.24527
#
# Velocity S-wave (km/s) = 3.14506 3.61108 3.38609
# Velocity P-wave (km/s) = 6.10213 6.64856 6.38120
#
# Compressibility (1/GPa) = 0.02051129
#
# Stress axis : x y z
#
# Youngs Moduli (GPa) = 110.48144 61.74353 73.06533
#
# Poissons Ratio (x) = 0.07626 0.15646
# Poissons Ratio (y) = 0.13646 0.42632
# Poissons Ratio (z) = 0.23658 0.36026
#
# Static dielectric constant tensor:
#      x y z
#    x 1.239660 0.000000 -0.031080 
#    y 0.000000 1.728500 0.000000 
#    z -0.031080 0.000000 1.724300 
# 
# From -- ./inp_files/28752.got.cif
#   From: 2010.05.17/outbox.cif.g08.bks.cpg/sg12_15_cif.got.tgz:28752.got - 2010.06.03 13:09:07.
