data_PCOD9214940
_publ_section_title
;
Structure prediction by ZEFSAII (Michael W. Deem and Ramdas Pophale) SiO2 
 PCOD9214940
Probable space group: C 2/M
;
_chemical_formula_sum "Si O2"
_cell_formula_units_Z 42
_cell_length_a 19.978036
_cell_length_b 7.787046
_cell_length_c 10.878853
_cell_angle_alpha 90.000000
_cell_angle_beta 104.253796
_cell_angle_gamma 90.000000
_cell_volume 1640.320027
_symmetry_space_group_name_H-M "C 2/M"
_symmetry_group_IT_number 12
_symmetry_cell_setting 'monoclinic'
loop_
_space_group_symop_operation_xyz
x,y,z
-x,y,-z
-x,-y,-z
x,-y,z
1/2+x,1/2+y,z
1/2-x,1/2+y,-z
1/2-x,1/2-y,-z
1/2+x,1/2-y,z
loop_
_atom_site_type_symbol
_atom_site_label
_atom_site_fract_x
_atom_site_fract_y
_atom_site_fract_z
Si Si1 0.519663 0.196459 0.237709
Si Si2 0.000000 0.500000 0.500000
Si Si3 0.225723 0.292750 0.673744
Si Si4 0.362347 0.298003 0.856080
Si Si5 0.362793 0.793652 0.126688
Si Si6 0.596371 0.686581 0.504233
O O1 0.566334 0.200599 0.137379
O O2 0.442899 0.258287 0.178951
O O3 0.563597 0.304112 0.354449
O O4 0.518189 0.000000 0.291868
O O5 0.058960 0.346332 0.551472
O O6 0.226858 0.500000 0.664024
O O7 0.303050 0.233846 0.736793
O O8 0.182545 0.243315 0.777268
O O9 0.178587 0.215633 0.545210
O O10 0.373557 0.500000 0.842441
O O11 0.337819 0.274613 0.984566
O O12 0.362092 0.000000 0.119783
O O13 0.581330 0.500000 0.551982
#
# Coordination Sequence:
#
# PCOD9214940 Si02
#       6
#     8   2   8   8   8   8
#     4  11  23  42  67  94 135 179 221 285 340 399
#     4  12  22  44  64  98 146 168 212 282 324 394
#     4  10  22  43  67  93 136 179 220 283 342 399
#     4  11  24  40  63  96 134 178 225 278 341 406
#     4  10  22  40  66  92 124 177 228 278 342 397
#     4  12  25  41  70 103 134 180 224 274 341 400
#
# _framework density 25.604761
#
# number of rings (size 3 to 8) (size 9 to 14) (size 15 to 20)
#    0.000    1.143    1.905    3.714    2.667    6.857 
#    0.000    0.000    0.000    0.000    0.000    0.000 
#    0.000    0.000    0.000    0.000    0.000    0.000 
#
# Total GULP energy -117482.074069 kJ/mol
# GULP energy per Si atom -5594.384479 kJ/mol
# Density = 2.554648 g / cm^3
# Si number density = 25.604761 Si / 1000 Ang^3
#
#
#
# Elastic Constant Matrix: (Units=GPa)
#
#
# Indices 1 2 3 4 5 6 
#
# 1 106.6458 18.7155 5.2645 0.0000 23.0046 0.0000
# 2 18.7155 125.1426 11.2617 0.0000 4.7402 0.0000
# 3 5.2645 11.2617 96.1143 0.0000 17.4314 0.0000
# 4 0.0000 0.0000 0.0000 28.3831 0.0000 0.3668
# 5 23.0046 4.7402 17.4314 0.0000 48.7521 0.0000
# 6 0.0000 0.0000 0.0000 0.3668 0.0000 9.6902
#
#
#
# Elastic Compliance Matrix: (Units=1/GPa)
#
#
# Indices 1 2 3 4 5 6 
#
# 1 0.010705 -0.001454 0.000507 0.000000 -0.005092 0.000000
# 2 -0.001454 0.008284 -0.000930 0.000000 0.000213 0.000000
# 3 0.000507 -0.000930 0.011241 0.000000 -0.004168 0.000000
# 4 0.000000 0.000000 0.000000 0.035249 0.000000 -0.001334
# 5 -0.005092 0.000213 -0.004168 0.000000 0.024384 0.000000
# 6 0.000000 0.000000 0.000000 -0.001334 0.000000 0.103248
#
#
# Mechanical properties :
#
#
# Convention : Reuss Voigt Hill
#
# Bulk Modulus (GPa) = 37.76658 44.26513 41.01586
# Shear Modulus (GPa) = 24.30840 36.87581 30.59211
#
# Velocity S-wave (km/s) = 3.08453 3.79911 3.46031
# Velocity P-wave (km/s) = 5.24095 6.04728 5.65850
#
# Compressibility (1/GPa) = 0.02647844
#
# Stress axis : x y z
#
# Youngs Moduli (GPa) = 93.41246 120.71613 88.95688
#
# Poissons Ratio (x) = 0.17550 -0.04513
# Poissons Ratio (y) = 0.13580 0.08270
# Poissons Ratio (z) = -0.04740 0.11222
#
# Static dielectric constant tensor:
#      x y z
#    x 1.991850 0.000000 0.061660 
#    y 0.000000 1.942250 0.000000 
#    z 0.061660 0.000000 1.858250 
# 
# From -- ./inp_files/163295.got.cif
#   From: 2010.05.17/outbox.cif.g08.bks.cpg/sg12_82_cif.got.tgz:163295.got - 2010.06.03 13:09:07.
