data_PCOD9214712
_publ_section_title
;
Structure prediction by ZEFSAII (Michael W. Deem and Ramdas Pophale) SiO2 
 PCOD9214712
Probable space group: C 2/M
;
_chemical_formula_sum "Si O2"
_cell_formula_units_Z 64
_cell_length_a 32.790501
_cell_length_b 8.131665
_cell_length_c 15.144515
_cell_angle_alpha 90.000000
_cell_angle_beta 132.719075
_cell_angle_gamma 90.000000
_cell_volume 2966.786597
_symmetry_space_group_name_H-M "C 2/M"
_symmetry_group_IT_number 12
_symmetry_cell_setting 'monoclinic'
loop_
_space_group_symop_operation_xyz
x,y,z
-x,y,-z
-x,-y,-z
x,-y,z
1/2+x,1/2+y,z
1/2-x,1/2+y,-z
1/2-x,1/2-y,-z
1/2+x,1/2-y,z
loop_
_atom_site_type_symbol
_atom_site_label
_atom_site_fract_x
_atom_site_fract_y
_atom_site_fract_z
Si Si1 0.706160 0.695104 0.071070
Si Si2 0.865922 0.192505 0.487920
Si Si3 0.651724 0.195451 0.160201
Si Si4 0.185985 0.197083 0.402999
Si Si5 0.027093 0.700707 0.948553
Si Si6 0.602099 0.307253 0.805040
Si Si7 0.484928 0.805849 0.698832
Si Si8 0.171906 0.693278 0.753136
O O1 0.707417 0.500000 0.056623
O O2 0.696166 0.724905 0.160146
O O3 0.766638 0.760545 0.133654
O O4 0.652496 0.761491 0.940132
O O5 0.844628 0.252773 0.552328
O O6 0.838185 0.283845 0.365366
O O7 0.932098 0.216019 0.581003
O O8 0.851645 0.000000 0.459809
O O9 0.660062 0.233860 0.274993
O O10 0.654967 0.000000 0.152832
O O11 0.590914 0.254187 0.040585
O O12 0.250000 0.250000 0.500000
O O13 0.182452 0.000000 0.394274
O O14 0.027067 0.500000 0.948331
O O15 0.994657 0.753297 0.813829
O O16 0.000000 0.755837 0.000000
O O17 0.594744 0.500000 0.814089
O O18 0.543534 0.222116 0.736766
O O19 0.624865 0.283550 0.739991
O O20 0.472638 0.000000 0.681715
O O21 0.169365 0.500000 0.770910
#
# Coordination Sequence:
#
# PCOD9214712 Si02
#       8
#     8   8   8   8   8   8   8   8
#     4  10  22  40  63  93 130 165 204 257 315 375
#     4  11  25  44  63  90 126 166 211 261 317 372
#     4  11  21  35  60  91 124 163 204 251 305 367
#     4  11  24  41  62  90 126 167 212 259 310 371
#     4   9  18  33  55  86 120 155 198 245 296 354
#     4  11  23  41  65  94 129 165 203 258 319 373
#     4  11  22  40  65  92 126 166 209 258 307 372
#     4  11  24  42  65  92 121 162 213 261 312 376
#
# _framework density 21.572163
#
# number of rings (size 3 to 8) (size 9 to 14) (size 15 to 20)
#    0.000    1.375    1.250    4.125    0.000    7.000 
#    0.000    2.500    0.000    3.000    0.000    0.000 
#    0.000    0.000    0.000    0.000    0.000    0.000 
#
# Total GULP energy -178974.329745 kJ/mol
# GULP energy per Si atom -5592.947805 kJ/mol
# Density = 2.152306 g / cm^3
# Si number density = 21.572163 Si / 1000 Ang^3
#
#
#
# Elastic Constant Matrix: (Units=GPa)
#
#
# Indices 1 2 3 4 5 6 
#
# 1 87.7270 -9.2504 4.4113 0.0000 8.2260 0.0000
# 2 -9.2504 24.8311 -4.2075 0.0000 3.0456 0.0000
# 3 4.4113 -4.2075 71.0062 0.0000 6.9847 0.0000
# 4 0.0000 0.0000 0.0000 23.2945 0.0000 -4.6624
# 5 8.2260 3.0456 6.9847 0.0000 34.5001 0.0000
# 6 0.0000 0.0000 0.0000 -4.6624 0.0000 15.6999
#
#
#
# Elastic Compliance Matrix: (Units=1/GPa)
#
#
# Indices 1 2 3 4 5 6 
#
# 1 0.012239 0.004944 -0.000140 0.000000 -0.003326 0.000000
# 2 0.004944 0.043272 0.002805 0.000000 -0.005566 0.000000
# 3 -0.000140 0.002805 0.014569 0.000000 -0.003164 0.000000
# 4 0.000000 0.000000 0.000000 0.045642 0.000000 0.013554
# 5 -0.003326 -0.005566 -0.003164 0.000000 0.030910 0.000000
# 6 0.000000 0.000000 0.000000 0.013554 0.000000 0.067720
#
#
# Mechanical properties :
#
#
# Convention : Reuss Voigt Hill
#
# Bulk Modulus (GPa) = 11.72381 18.38568 15.05474
# Shear Modulus (GPa) = 21.97141 27.53962 24.75551
#
# Velocity S-wave (km/s) = 3.19487 3.57687 3.39125
# Velocity P-wave (km/s) = 4.36533 5.05965 4.72526
#
# Compressibility (1/GPa) = 0.08529652
#
# Stress axis : x y z
#
# Youngs Moduli (GPa) = 81.70445 23.10974 68.63707
#
# Poissons Ratio (x) = -0.11425 0.00962
# Poissons Ratio (y) = -0.40392 -0.19250
# Poissons Ratio (z) = 0.01146 -0.06481
#
# Static dielectric constant tensor:
#      x y z
#    x 1.777720 0.000000 -0.003500 
#    y 0.000000 1.752950 0.000000 
#    z -0.003500 0.000000 1.781960 
# 
# From -- ./inp_files/249808.got.cif
#   From: 2010.05.17/outbox.cif.g08.bks.cpg/sg12_125_cif.got.tgz:249808.got - 2010.06.03 13:09:07.
