data_PCOD9214514
_publ_section_title
;
Structure prediction by ZEFSAII (Michael W. Deem and Ramdas Pophale) SiO2 
 PCOD9214514
Probable space group: C 2/M
;
_chemical_formula_sum "Si O2"
_cell_formula_units_Z 64
_cell_length_a 32.494061
_cell_length_b 8.220183
_cell_length_c 15.191447
_cell_angle_alpha 90.000000
_cell_angle_beta 131.666773
_cell_angle_gamma 90.000000
_cell_volume 3031.231327
_symmetry_space_group_name_H-M "C 2/M"
_symmetry_group_IT_number 12
_symmetry_cell_setting 'monoclinic'
loop_
_space_group_symop_operation_xyz
x,y,z
-x,y,-z
-x,-y,-z
x,-y,z
1/2+x,1/2+y,z
1/2-x,1/2+y,-z
1/2-x,1/2-y,-z
1/2+x,1/2-y,z
loop_
_atom_site_type_symbol
_atom_site_label
_atom_site_fract_x
_atom_site_fract_y
_atom_site_fract_z
Si Si1 0.964354 0.194083 0.363821
Si Si2 0.134812 0.304756 0.674735
Si Si3 0.744396 0.695620 0.092955
Si Si4 0.382894 0.688292 0.542167
Si Si5 0.238037 0.304812 0.581815
Si Si6 0.453270 0.311802 0.997542
Si Si7 0.830326 0.800857 0.856027
Si Si8 0.007673 0.316275 0.240888
O O1 0.901860 0.242381 0.296955
O O2 0.985283 0.279804 0.306218
O O3 0.000000 0.244160 0.500000
O O4 0.969562 0.000000 0.360862
O O5 0.131403 0.500000 0.663162
O O6 0.198431 0.258357 0.777722
O O7 0.110845 0.227300 0.552070
O O8 0.741859 0.500000 0.088292
O O9 0.693823 0.752841 0.082993
O O10 0.750000 0.750000 0.000000
O O11 0.394468 0.500000 0.574562
O O12 0.320494 0.731232 0.475285
O O13 0.426901 0.789235 0.660348
O O14 0.234037 0.500000 0.580927
O O15 0.250000 0.250000 0.500000
O O16 0.285976 0.255352 0.718168
O O17 0.446329 0.500000 0.959225
O O18 0.391439 0.242167 0.917187
O O19 0.500000 0.237290 0.000000
O O20 0.479228 0.301678 0.131179
O O21 0.832412 0.000000 0.861897
O O22 0.994839 0.500000 0.196555
#
# Coordination Sequence:
#
# PCOD9214514 Si02
#       8
#     8   8   8   8   8   8   8   8
#     4  11  23  39  61  92 127 167 213 257 308 383
#     4  11  22  39  62  90 127 166 208 264 327 385
#     4  10  22  40  61  89 125 169 214 259 317 385
#     4  12  24  41  65  95 128 168 217 268 324 392
#     4  11  23  42  67  98 131 168 211 265 328 390
#     4  10  23  44  70  96 127 173 223 271 323 387
#     4   9  20  42  66  92 130 173 213 261 322 385
#     4  12  26  43  65  94 131 172 216 272 328 386
#
# _framework density 21.113531999999999
#
# number of rings (size 3 to 8) (size 9 to 14) (size 15 to 20)
#    0.000    1.250    2.500    3.375    3.500    1.750 
#    0.000    1.250    0.000    0.000    0.000    0.000 
#    0.000    0.000    0.000    0.000    0.000    0.000 
#
# Total GULP energy -178868.123396 kJ/mol
# GULP energy per Si atom -5589.628856 kJ/mol
# Density = 2.106548 g / cm^3
# Si number density = 21.113532 Si / 1000 Ang^3
#
#
#
# Elastic Constant Matrix: (Units=GPa)
#
#
# Indices 1 2 3 4 5 6 
#
# 1 158.6366 0.0595 48.2375 0.0000 14.4723 0.0000
# 2 0.0595 30.6572 -11.3301 0.0000 1.8921 0.0000
# 3 48.2375 -11.3301 53.1075 0.0000 4.9063 0.0000
# 4 0.0000 0.0000 0.0000 0.6676 0.0000 -8.0443
# 5 14.4723 1.8921 4.9063 0.0000 37.7738 0.0000
# 6 0.0000 0.0000 0.0000 -8.0443 0.0000 26.2472
#
#
#
# Elastic Compliance Matrix: (Units=1/GPa)
#
#
# Indices 1 2 3 4 5 6 
#
# 1 0.009185 -0.003136 -0.008807 0.000000 -0.002218 0.000000
# 2 -0.003136 0.036774 0.010883 0.000000 -0.002054 0.000000
# 3 -0.008807 0.010883 0.029241 0.000000 -0.000969 0.000000
# 4 0.000000 0.000000 0.000000 -0.556204 0.000000 -0.170467
# 5 -0.002218 -0.002054 -0.000969 0.000000 0.027552 0.000000
# 6 0.000000 0.000000 0.000000 -0.170467 0.000000 -0.014146
#
#
# Mechanical properties :
#
#
# Convention : Reuss Voigt Hill
#
# Bulk Modulus (GPa) = 13.68344 35.14833 24.41589
# Shear Modulus (GPa) = -11.33480 26.63334 7.64927
#
# Velocity S-wave (km/s) = -2.31952 3.55552 1.90546
# Velocity P-wave (km/s) = 0.82376 5.79129 4.05342
#
# Compressibility (1/GPa) = 0.07308106
#
# Stress axis : x y z
#
# Youngs Moduli (GPa) = 108.87016 27.19321 34.19903
#
# Poissons Ratio (x) = 0.08527 0.30119
# Poissons Ratio (y) = 0.34139 -0.37220
# Poissons Ratio (z) = 0.95882 -0.29596
#
# Static dielectric constant tensor:
#      x y z
#    x 1.799240 0.000000 0.023040 
#    y 0.000000 1.745650 0.000000 
#    z 0.023040 0.000000 1.731760 
# 
# From -- ./inp_files/250079.got.cif
#   From: 2010.05.17/outbox.cif.g08.bks.cpg/sg12_126_cif.got.tgz:250079.got - 2010.06.03 13:09:07.
