data_PCOD9214469
_publ_section_title
;
Structure prediction by ZEFSAII (Michael W. Deem and Ramdas Pophale) SiO2 
 PCOD9214469
Probable space group: C 2/M
;
_chemical_formula_sum "Si O2"
_cell_formula_units_Z 40
_cell_length_a 16.471943
_cell_length_b 13.912899
_cell_length_c 12.431316
_cell_angle_alpha 90.000000
_cell_angle_beta 38.668343
_cell_angle_gamma 90.000000
_cell_volume 1780.034769
_symmetry_space_group_name_H-M "C 2/M"
_symmetry_group_IT_number 12
_symmetry_cell_setting 'monoclinic'
loop_
_space_group_symop_operation_xyz
x,y,z
-x,y,-z
-x,-y,-z
x,-y,z
1/2+x,1/2+y,z
1/2-x,1/2+y,-z
1/2-x,1/2-y,-z
1/2+x,1/2-y,z
loop_
_atom_site_type_symbol
_atom_site_label
_atom_site_fract_x
_atom_site_fract_y
_atom_site_fract_z
Si Si1 0.739192 0.112429 0.773378
Si Si2 0.646970 0.810021 0.328461
Si Si3 0.379341 0.111327 0.864954
Si Si4 0.379031 0.791979 0.311595
Si Si5 0.607727 0.604069 0.798007
O O1 0.847511 0.195434 0.657303
O O2 0.648712 0.147014 0.767701
O O3 0.774830 0.000000 0.723339
O O4 0.671866 0.122996 0.960043
O O5 0.500000 0.845139 0.500000
O O6 0.684586 0.830104 0.165636
O O7 0.757204 0.860354 0.287803
O O8 0.529333 0.143562 0.711350
O O9 0.365117 0.000000 0.851984
O O10 0.250000 0.750000 0.500000
O O11 0.447741 0.691055 0.214979
O O12 0.626742 0.500000 0.724546
O O13 0.500000 0.593936 0.000000
#
# Coordination Sequence:
#
# PCOD9214469 Si02
#       5
#     8   8   8   8   8
#     4  10  22  40  61  86 121 164 206 249 303 370
#     4  11  23  40  63  93 127 159 201 257 310 363
#     4  11  22  38  63  90 120 163 209 254 305 363
#     4  11  22  37  59  88 122 159 202 254 306 363
#     4  10  22  41  63  86 117 159 203 248 300 361
#
# _framework density 22.471471000000001
#
# number of rings (size 3 to 8) (size 9 to 14) (size 15 to 20)
#    0.000    1.400    0.000    7.200    0.000    6.800 
#    0.000    3.000    0.000    0.000    0.000    0.000 
#    0.000    0.000    0.000    0.000    0.000    0.000 
#
# Total GULP energy -111608.088707 kJ/mol
# GULP energy per Si atom -5580.404435 kJ/mol
# Density = 2.242033 g / cm^3
# Si number density = 22.471471 Si / 1000 Ang^3
#
#
#
# Elastic Constant Matrix: (Units=GPa)
#
#
# Indices 1 2 3 4 5 6 
#
# 1 70.0594 16.9183 -1.0591 0.0000 11.5015 0.0000
# 2 16.9183 140.5356 0.3280 0.0000 5.6710 0.0000
# 3 -1.0591 0.3280 45.3145 0.0000 -5.1022 0.0000
# 4 0.0000 0.0000 0.0000 60.0163 0.0000 -15.1348
# 5 11.5015 5.6710 -5.1022 0.0000 42.2616 0.0000
# 6 0.0000 0.0000 0.0000 -15.1348 0.0000 1.6125
#
#
#
# Elastic Compliance Matrix: (Units=1/GPa)
#
#
# Indices 1 2 3 4 5 6 
#
# 1 0.015329 -0.001686 -0.000075 0.000000 -0.003955 0.000000
# 2 -0.001686 0.007341 -0.000154 0.000000 -0.000545 0.000000
# 3 -0.000075 -0.000154 0.022376 0.000000 0.002742 0.000000
# 4 0.000000 0.000000 0.000000 -0.012190 0.000000 -0.114410
# 5 -0.003955 -0.000545 0.002742 0.000000 0.025143 0.000000
# 6 0.000000 0.000000 0.000000 -0.114410 0.000000 -0.453687
#
#
# Mechanical properties :
#
#
# Convention : Reuss Voigt Hill
#
# Bulk Modulus (GPa) = 24.26171 32.03155 28.14663
# Shear Modulus (GPa) = -13.22329 36.75957 11.76814
#
# Velocity S-wave (km/s) = -2.42843 4.04893 2.29092
# Velocity P-wave (km/s) = 1.71962 6.01196 4.42158
#
# Compressibility (1/GPa) = 0.04121722
#
# Stress axis : x y z
#
# Youngs Moduli (GPa) = 65.23698 136.22306 44.69047
#
# Poissons Ratio (x) = 0.22962 0.00334
# Poissons Ratio (y) = 0.10996 0.00688
# Poissons Ratio (z) = 0.00488 0.02096
#
# Static dielectric constant tensor:
#      x y z
#    x 1.829440 0.000000 0.009990 
#    y 0.000000 1.988600 0.000000 
#    z 0.009990 0.000000 1.967830 
# 
# From -- ./inp_files/155753.got.cif
#   From: 2010.05.17/outbox.cif.g08.bks.cpg/sg12_78_cif.got.tgz:155753.got - 2010.06.03 13:09:07.
