data_PCOD9214881
_publ_section_title
;
Structure prediction by ZEFSAII (Michael W. Deem and Ramdas Pophale) SiO2 
 PCOD9214881
Probable space group: C 2/M
;
_chemical_formula_sum "Si O2"
_cell_formula_units_Z 56
_cell_length_a 11.502085
_cell_length_b 17.219102
_cell_length_c 17.369730
_cell_angle_alpha 90.000000
_cell_angle_beta 44.920820
_cell_angle_gamma 90.000000
_cell_volume 2429.204836
_symmetry_space_group_name_H-M "C 2/M"
_symmetry_group_IT_number 12
_symmetry_cell_setting 'monoclinic'
loop_
_space_group_symop_operation_xyz
x,y,z
-x,y,-z
-x,-y,-z
x,-y,z
1/2+x,1/2+y,z
1/2-x,1/2+y,-z
1/2-x,1/2-y,-z
1/2+x,1/2-y,z
loop_
_atom_site_type_symbol
_atom_site_label
_atom_site_fract_x
_atom_site_fract_y
_atom_site_fract_z
Si Si1 0.401370 0.411505 0.709702
Si Si2 0.315436 0.132897 0.330412
Si Si3 0.819860 0.815423 0.349318
Si Si4 0.307183 0.170622 0.068371
Si Si5 0.290093 0.412336 0.219031
Si Si6 0.907102 0.584447 0.448365
Si Si7 0.310254 0.845757 0.888236
O O1 0.461603 0.500000 0.689542
O O2 0.313728 0.399017 0.669502
O O3 0.539919 0.346842 0.659332
O O4 0.267195 0.391262 0.837962
O O5 0.297340 0.224603 0.352691
O O6 0.306862 0.091788 0.416268
O O7 0.502146 0.126245 0.211377
O O8 0.864491 0.851818 0.244863
O O9 0.657463 0.852328 0.462615
O O10 0.216611 0.254378 0.118425
O O11 0.500000 0.181792 0.000000
O O12 0.277408 0.145113 0.994092
O O13 0.349971 0.500000 0.203353
O O14 0.297392 0.389327 0.126054
O O15 0.095921 0.409396 0.333070
O O16 0.876992 0.500000 0.497438
#
# Coordination Sequence:
#
# PCOD9214881 Si02
#       7
#     8   8   8   8   8   8   8
#     4  12  26  43  66  99 134 170 214 271 330 384
#     4  11  23  42  65  94 130 169 216 264 315 388
#     4  12  24  42  67  92 133 174 218 261 319 387
#     4  11  22  41  66  96 127 169 214 268 323 393
#     4  10  22  40  65  93 128 168 213 265 319 380
#     4  10  22  42  66  96 129 169 216 266 322 379
#     4  10  22  40  67  94 123 166 216 265 323 379
#
# _framework density 23.052810999999998
#
# number of rings (size 3 to 8) (size 9 to 14) (size 15 to 20)
#    0.000    1.143    2.857    3.429    2.000    3.143 
#    2.571    1.429    0.000    2.143    0.000    0.000 
#    0.000    0.000    0.000    0.000    0.000    0.000 
#
# Total GULP energy -156693.785221 kJ/mol
# GULP energy per Si atom -5596.206615 kJ/mol
# Density = 2.300034 g / cm^3
# Si number density = 23.052811 Si / 1000 Ang^3
#
#
#
# Elastic Constant Matrix: (Units=GPa)
#
#
# Indices 1 2 3 4 5 6 
#
# 1 115.0016 6.8244 23.8168 0.0000 29.0825 -0.0003
# 2 6.8244 86.2107 2.1497 -0.0001 18.3977 -0.0004
# 3 23.8168 2.1497 47.1239 0.0000 11.2373 -0.0010
# 4 0.0000 -0.0001 0.0000 3.4887 0.0002 37.6821
# 5 29.0825 18.3977 11.2373 0.0002 44.8084 0.0006
# 6 -0.0003 -0.0004 -0.0010 37.6821 0.0006 77.8076
#
#
#
# Elastic Compliance Matrix: (Units=1/GPa)
#
#
# Indices 1 2 3 4 5 6 
#
# 1 0.011143 0.000596 -0.004123 0.000000 -0.006443 0.000000
# 2 0.000596 0.012767 0.000488 0.000000 -0.005751 0.000000
# 3 -0.004123 0.000488 0.024135 0.000001 -0.003577 0.000000
# 4 0.000000 0.000000 0.000001 -0.067748 0.000000 0.032810
# 5 -0.006443 -0.005751 -0.003577 0.000000 0.029758 0.000000
# 6 0.000000 0.000000 0.000000 0.032810 0.000000 -0.003038
#
#
# Mechanical properties :
#
#
# Convention : Reuss Voigt Hill
#
# Bulk Modulus (GPa) = 23.82771 34.87975 29.35373
# Shear Modulus (GPa) = 184.60082 39.59064 112.09573
#
# Velocity S-wave (km/s) = 8.95830 4.14863 6.98077
# Velocity P-wave (km/s) = 10.83329 6.17345 8.81679
#
# Compressibility (1/GPa) = 0.04196794
#
# Stress axis : x y z
#
# Youngs Moduli (GPa) = 89.73929 78.32393 41.43346
#
# Poissons Ratio (x) = -0.04666 0.17082
# Poissons Ratio (y) = -0.05346 -0.02022
# Poissons Ratio (z) = 0.36996 -0.03822
#
# Static dielectric constant tensor:
#      x y z
#    x 1.894700 0.000000 -0.034840 
#    y 0.000000 1.803900 0.000000 
#    z -0.034840 0.000000 1.865860 
# 
# From -- ./inp_files/264172.got.cif
#   From: 2010.05.17/outbox.cif.g08.bks.cpg/sg12_133_cif.got.tgz:264172.got - 2010.06.03 13:09:07.
