data_PCOD9214725
_publ_section_title
;
Structure prediction by ZEFSAII (Michael W. Deem and Ramdas Pophale) SiO2 
 PCOD9214725
Probable space group: C 2/M
;
_chemical_formula_sum "Si O2"
_cell_formula_units_Z 56
_cell_length_a 26.908326
_cell_length_b 18.243315
_cell_length_c 9.241518
_cell_angle_alpha 90.000000
_cell_angle_beta 38.826952
_cell_angle_gamma 90.000000
_cell_volume 2844.335030
_symmetry_space_group_name_H-M "C 2/M"
_symmetry_group_IT_number 12
_symmetry_cell_setting 'monoclinic'
loop_
_space_group_symop_operation_xyz
x,y,z
-x,y,-z
-x,-y,-z
x,-y,z
1/2+x,1/2+y,z
1/2-x,1/2+y,-z
1/2-x,1/2-y,-z
1/2+x,1/2-y,z
loop_
_atom_site_type_symbol
_atom_site_label
_atom_site_fract_x
_atom_site_fract_y
_atom_site_fract_z
Si Si1 0.950944 0.693146 0.834316
Si Si2 0.186743 0.821935 0.346137
Si Si3 0.740511 0.413530 0.988769
Si Si4 0.581792 0.320877 0.861551
Si Si5 0.213980 0.913627 0.720287
Si Si6 0.321071 0.087530 0.212405
Si Si7 0.877497 0.305442 0.692758
O O1 0.906942 0.719184 0.785517
O O2 0.042645 0.683945 0.581928
O O3 0.938516 0.751377 0.991461
O O4 0.908063 0.618250 0.981955
O O5 0.125511 0.804937 0.611802
O O6 0.262283 0.856510 0.259529
O O7 0.180809 0.750347 0.258800
O O8 0.175505 0.884645 0.250080
O O9 0.745084 0.500000 0.985407
O O10 0.722933 0.390602 0.864845
O O11 0.825697 0.378224 0.831165
O O12 0.641697 0.371379 0.812928
O O13 0.500000 0.358103 0.000000
O O14 0.292191 0.902468 0.444061
O O15 0.197714 0.000000 0.753651
O O16 0.311501 0.000000 0.199344
#
# Coordination Sequence:
#
# PCOD9214725 Si02
#       7
#     8   8   8   8   8   8   8
#     4  11  24  40  62  92 135 168 212 264 321 382
#     4  11  22  39  66  91 125 165 215 268 313 378
#     4  11  23  42  65  95 129 167 214 264 320 383
#     4  11  23  41  64  93 126 169 212 269 320 381
#     4   9  22  40  63  91 126 166 213 267 320 377
#     4  10  22  40  63  94 125 169 218 264 314 377
#     4  11  24  40  61  96 130 172 208 263 324 382
#
# _framework density 19.688257
#
# number of rings (size 3 to 8) (size 9 to 14) (size 15 to 20)
#    0.000    1.429    2.857    1.714    4.000    2.571 
#    0.000    1.429    0.000    4.714    0.000    0.000 
#    0.000    0.000    0.000    0.000    0.000    0.000 
#
# Total GULP energy -156019.183802 kJ/mol
# GULP energy per Si atom -5572.113707 kJ/mol
# Density = 1.964345 g / cm^3
# Si number density = 19.688257 Si / 1000 Ang^3
#
#
#
# Elastic Constant Matrix: (Units=GPa)
#
#
# Indices 1 2 3 4 5 6 
#
# 1 64.3163 28.9884 44.3097 0.0000 18.0946 0.0000
# 2 28.9884 53.0864 33.5054 0.0000 -4.7486 0.0000
# 3 44.3097 33.5054 138.9938 0.0000 17.6826 0.0000
# 4 0.0000 0.0000 0.0000 27.3422 0.0000 4.3212
# 5 18.0946 -4.7486 17.6826 0.0000 29.0503 0.0000
# 6 0.0000 0.0000 0.0000 4.3212 0.0000 0.9415
#
#
#
# Elastic Compliance Matrix: (Units=1/GPa)
#
#
# Indices 1 2 3 4 5 6 
#
# 1 0.030916 -0.016567 -0.003325 0.000000 -0.019941 0.000000
# 2 -0.016567 0.032699 -0.004979 0.000000 0.018695 0.000000
# 3 -0.003325 -0.004979 0.010075 0.000000 -0.004875 0.000000
# 4 0.000000 0.000000 0.000000 0.133168 0.000000 -0.611201
# 5 -0.019941 0.018695 -0.004875 0.000000 0.052867 0.000000
# 6 0.000000 0.000000 0.000000 -0.611201 0.000000 3.867383
#
#
# Mechanical properties :
#
#
# Convention : Reuss Voigt Hill
#
# Bulk Modulus (GPa) = 41.75899 52.22260 46.99080
# Shear Modulus (GPa) = 1.19479 21.43968 11.31724
#
# Velocity S-wave (km/s) = 0.77985 3.30352 2.40015
# Velocity P-wave (km/s) = 4.69756 6.41352 5.62140
#
# Compressibility (1/GPa) = 0.02394694
#
# Stress axis : x y z
#
# Youngs Moduli (GPa) = 32.34549 30.58226 99.25433
#
# Poissons Ratio (x) = 0.50666 0.33005
# Poissons Ratio (y) = 0.53587 0.49421
# Poissons Ratio (z) = 0.10756 0.15227
#
# Static dielectric constant tensor:
#      x y z
#    x 1.726400 0.000000 0.030560 
#    y 0.000000 1.674330 0.000000 
#    z 0.030560 0.000000 1.724940 
# 
# From -- ./inp_files/105946.got.cif
#   From: 2010.05.17/outbox.cif.g08.bks.cpg/sg12_53_cif.got.tgz:105946.got - 2010.06.03 13:09:07.
