data_PCOD9214455
_publ_section_title
;
Structure prediction by ZEFSAII (Michael W. Deem and Ramdas Pophale) SiO2 
 PCOD9214455
Probable space group: C 2/M
;
_chemical_formula_sum "Si O2"
_cell_formula_units_Z 48
_cell_length_a 26.438242
_cell_length_b 8.835755
_cell_length_c 15.236196
_cell_angle_alpha 90.000000
_cell_angle_beta 40.633625
_cell_angle_gamma 90.000000
_cell_volume 2317.823261
_symmetry_space_group_name_H-M "C 2/M"
_symmetry_group_IT_number 12
_symmetry_cell_setting 'monoclinic'
loop_
_space_group_symop_operation_xyz
x,y,z
-x,y,-z
-x,-y,-z
x,-y,z
1/2+x,1/2+y,z
1/2-x,1/2+y,-z
1/2-x,1/2-y,-z
1/2+x,1/2-y,z
loop_
_atom_site_type_symbol
_atom_site_label
_atom_site_fract_x
_atom_site_fract_y
_atom_site_fract_z
Si Si1 0.575642 0.679767 0.959869
Si Si2 0.738829 0.820809 0.741039
Si Si3 0.981487 0.179652 0.252596
Si Si4 0.965973 0.675497 0.637042
Si Si5 0.780151 0.674910 0.871372
Si Si6 0.816230 0.680077 0.474483
O O1 0.593876 0.500000 0.930711
O O2 0.548688 0.718063 0.094212
O O3 0.500000 0.706848 0.000000
O O4 0.650968 0.772507 0.833056
O O5 0.752943 0.764025 0.821216
O O6 0.797147 0.737625 0.597787
O O7 0.748869 0.000000 0.720606
O O8 0.900918 0.261135 0.335947
O O9 0.006233 0.229440 0.316776
O O10 0.969141 0.000000 0.263489
O O11 0.991617 0.500000 0.615430
O O12 0.873320 0.677246 0.752358
O O13 0.000000 0.730789 0.500000
O O14 0.753924 0.500000 0.899856
O O15 0.750000 0.750000 0.000000
O O16 0.813050 0.500000 0.474984
O O17 0.750000 0.750000 0.500000
#
# Coordination Sequence:
#
# PCOD9214455 Si02
#       6
#     8   8   8   8   8   8
#     4  10  22  41  64  90 124 164 204 251 308 367
#     4  12  25  41  64  94 127 164 209 257 309 370
#     4  11  23  39  63  94 125 160 204 253 307 366
#     4  10  22  40  61  85 116 159 206 252 305 361
#     4  11  23  40  63  91 125 164 207 256 309 366
#     4  12  25  43  66  92 126 164 206 256 310 369
#
# _framework density 20.709085999999999
#
# number of rings (size 3 to 8) (size 9 to 14) (size 15 to 20)
#    0.000    1.000    0.000    7.000    0.000    8.667 
#    0.000    0.000    0.000    0.000    0.000    0.000 
#    0.000    0.000    0.000    0.000    0.000    0.000 
#
# Total GULP energy -134398.047560 kJ/mol
# GULP energy per Si atom -5599.918648 kJ/mol
# Density = 2.066195 g / cm^3
# Si number density = 20.709086 Si / 1000 Ang^3
#
#
#
# Elastic Constant Matrix: (Units=GPa)
#
#
# Indices 1 2 3 4 5 6 
#
# 1 48.5745 8.4455 -12.1255 0.0000 4.9279 0.0001
# 2 8.4455 105.9413 21.8028 0.0007 -5.9153 -0.0003
# 3 -12.1255 21.8028 69.0847 0.0005 8.4377 -0.0001
# 4 0.0000 0.0007 0.0005 33.9500 -0.0002 -1.6965
# 5 4.9279 -5.9153 8.4377 -0.0002 38.1717 0.0001
# 6 0.0001 -0.0003 -0.0001 -1.6965 0.0001 38.8729
#
#
#
# Elastic Compliance Matrix: (Units=1/GPa)
#
#
# Indices 1 2 3 4 5 6 
#
# 1 0.023046 -0.003265 0.005653 0.000000 -0.004731 0.000000
# 2 -0.003265 0.010763 -0.004342 0.000000 0.003049 0.000000
# 3 0.005653 -0.004342 0.017481 0.000000 -0.005267 0.000000
# 4 0.000000 0.000000 0.000000 0.029519 0.000000 0.001288
# 5 -0.004731 0.003049 -0.005267 0.000000 0.028445 0.000000
# 6 0.000000 0.000000 0.000000 0.001288 0.000000 0.025781
#
#
# Mechanical properties :
#
#
# Convention : Reuss Voigt Hill
#
# Bulk Modulus (GPa) = 21.10513 28.87179 24.98846
# Shear Modulus (GPa) = 32.31284 35.89743 34.10514
#
# Velocity S-wave (km/s) = 3.95438 4.16795 4.06256
# Velocity P-wave (km/s) = 5.57340 6.09379 5.83939
#
# Compressibility (1/GPa) = 0.04738185
#
# Stress axis : x y z
#
# Youngs Moduli (GPa) = 43.39215 92.90788 57.20544
#
# Poissons Ratio (x) = 0.30332 -0.32338
# Poissons Ratio (y) = 0.14166 0.24840
# Poissons Ratio (z) = -0.24530 0.40343
#
# Static dielectric constant tensor:
#      x y z
#    x 1.727410 0.000000 0.013000 
#    y 0.000000 1.701380 0.000000 
#    z 0.013000 0.000000 1.724880 
# 
# From -- ./inp_files/244665.got.cif
#   From: 2010.05.17/outbox.cif.g08.bks.cpg/sg12_123_cif.got.tgz:244665.got - 2010.06.03 13:09:07.
