data_PCOD9214854
_publ_section_title
;
Structure prediction by ZEFSAII (Michael W. Deem and Ramdas Pophale) SiO2 
 PCOD9214854
Probable space group: C 2/M
;
_chemical_formula_sum "Si O2"
_cell_formula_units_Z 56
_cell_length_a 8.187173
_cell_length_b 16.030448
_cell_length_c 20.598074
_cell_angle_alpha 90.000000
_cell_angle_beta 66.944095
_cell_angle_gamma 90.000000
_cell_volume 2487.437673
_symmetry_space_group_name_H-M "C 2/M"
_symmetry_group_IT_number 12
_symmetry_cell_setting 'monoclinic'
loop_
_space_group_symop_operation_xyz
x,y,z
-x,y,-z
-x,-y,-z
x,-y,z
1/2+x,1/2+y,z
1/2-x,1/2+y,-z
1/2-x,1/2-y,-z
1/2+x,1/2-y,z
loop_
_atom_site_type_symbol
_atom_site_label
_atom_site_fract_x
_atom_site_fract_y
_atom_site_fract_z
Si Si1 0.429669 0.672592 0.851123
Si Si2 0.002354 0.147945 0.696735
Si Si3 0.473321 0.500000 0.111098
Si Si4 0.517855 0.840959 0.892264
Si Si5 0.798676 0.500000 0.964653
Si Si6 0.053222 0.240709 0.554308
Si Si7 0.097916 0.595575 0.365160
Si Si8 0.594364 0.096437 0.740980
O O1 0.481738 0.695475 0.768700
O O2 0.531708 0.586235 0.849047
O O3 0.463291 0.743521 0.899890
O O4 0.220938 0.654685 0.882310
O O5 0.808698 0.106793 0.713948
O O6 0.030059 0.200771 0.627567
O O7 0.187895 0.098409 0.675241
O O8 0.322595 0.500000 0.080656
O O9 0.663289 0.500000 0.045256
O O10 0.409525 0.913940 0.944475
O O11 0.510692 0.860923 0.816708
O O12 0.250000 0.250000 0.500000
O O13 0.000000 0.185406 0.500000
O O14 0.958249 0.330922 0.576783
O O15 0.047841 0.500000 0.390345
O O16 0.993887 0.618428 0.314281
O O17 0.553958 0.000000 0.755707
#
# Coordination Sequence:
#
# PCOD9214854 Si02
#       8
#     8   8   4   8   4   8   8   8
#     4  11  26  41  71 105 141 179 246 287 355 410
#     4  11  25  42  69 102 137 178 238 288 347 420
#     4  11  27  47  71 109 138 193 233 290 342 439
#     4  11  23  42  67 103 141 191 226 301 340 426
#     4  11  25  47  73  99 153 186 235 280 361 414
#     4  12  24  45  66  94 135 182 229 282 352 429
#     4  11  25  42  68  98 131 184 224 296 345 419
#     4  10  22  40  65 104 141 176 233 292 354 404
#
# _framework density 22.513127999999998
#
# number of rings (size 3 to 8) (size 9 to 14) (size 15 to 20)
#    0.000    1.000    2.143    3.429   12.000    2.000 
#    0.000    0.000    0.000    3.000    0.000    0.000 
#    0.000    0.000    0.000    0.000    0.000    0.000 
#
# Total GULP energy -156209.886182 kJ/mol
# GULP energy per Si atom -5578.924506 kJ/mol
# Density = 2.246189 g / cm^3
# Si number density = 22.513128 Si / 1000 Ang^3
#
#
#
# Elastic Constant Matrix: (Units=GPa)
#
#
# Indices 1 2 3 4 5 6 
#
# 1 70.0981 7.1050 20.5960 0.0000 12.9218 0.0000
# 2 7.1050 95.3869 30.8392 0.0000 14.0345 0.0000
# 3 20.5960 30.8392 88.0754 0.0000 1.7039 0.0000
# 4 0.0000 0.0000 0.0000 -18.4182 0.0000 -10.8492
# 5 12.9218 14.0345 1.7039 0.0000 38.0240 0.0000
# 6 0.0000 0.0000 0.0000 -10.8492 0.0000 24.5885
#
#
#
# Elastic Compliance Matrix: (Units=1/GPa)
#
#
# Indices 1 2 3 4 5 6 
#
# 1 0.016421 0.000933 -0.004056 0.000000 -0.005743 0.000000
# 2 0.000933 0.012579 -0.004531 0.000000 -0.004757 0.000000
# 3 -0.004056 -0.004531 0.013842 0.000000 0.002430 0.000000
# 4 0.000000 0.000000 0.000000 -0.043094 0.000000 -0.019014
# 5 -0.005743 -0.004757 0.002430 0.000000 0.029898 0.000000
# 6 0.000000 0.000000 0.000000 -0.019014 0.000000 0.032280
#
#
# Mechanical properties :
#
#
# Convention : Reuss Voigt Hill
#
# Bulk Modulus (GPa) = 36.31668 41.18228 38.74948
# Shear Modulus (GPa) = 57.86348 21.84022 39.85185
#
# Velocity S-wave (km/s) = 5.07522 3.11804 4.21189
# Velocity P-wave (km/s) = 7.10705 5.59421 6.39552
#
# Compressibility (1/GPa) = 0.02753556
#
# Stress axis : x y z
#
# Youngs Moduli (GPa) = 60.89582 79.49911 72.24571
#
# Poissons Ratio (x) = -0.07418 0.29301
# Poissons Ratio (y) = -0.05682 0.32731
# Poissons Ratio (z) = 0.24697 0.36018
#
# Static dielectric constant tensor:
#      x y z
#    x 1.818500 0.000000 -0.006210 
#    y 0.000000 1.846370 0.000000 
#    z -0.006210 0.000000 1.768950 
# 
# From -- ./inp_files/332879.got.cif
#   From: 2010.05.17/outbox.cif.g08.bks.cpg/sg12_167_cif.got.tgz:332879.got - 2010.06.03 13:09:07.
