data_PCOD9214784
_publ_section_title
;
Structure prediction by ZEFSAII (Michael W. Deem and Ramdas Pophale) SiO2 
 PCOD9214784
Probable space group: C 2/M
;
_chemical_formula_sum "Si O2"
_cell_formula_units_Z 58
_cell_length_a 20.554536
_cell_length_b 7.693111
_cell_length_c 17.740463
_cell_angle_alpha 90.000000
_cell_angle_beta 69.858880
_cell_angle_gamma 90.000000
_cell_volume 2633.720120
_symmetry_space_group_name_H-M "C 2/M"
_symmetry_group_IT_number 12
_symmetry_cell_setting 'monoclinic'
loop_
_space_group_symop_operation_xyz
x,y,z
-x,y,-z
-x,-y,-z
x,-y,z
1/2+x,1/2+y,z
1/2-x,1/2+y,-z
1/2-x,1/2-y,-z
1/2+x,1/2-y,z
loop_
_atom_site_type_symbol
_atom_site_label
_atom_site_fract_x
_atom_site_fract_y
_atom_site_fract_z
Si Si1 0.171098 0.291612 0.050981
Si Si2 0.405293 0.201369 0.067938
Si Si3 0.604373 0.795218 0.231361
Si Si4 0.821062 0.799895 0.647879
Si Si5 0.329094 0.702724 0.238313
Si Si6 0.553781 0.710530 0.693124
Si Si7 0.500000 0.500000 0.000000
Si Si8 0.570411 0.712784 0.514142
O O1 0.164025 0.500000 0.055171
O O2 0.145530 0.225941 0.142083
O O3 0.250000 0.250000 0.000000
O O4 0.122949 0.231255 0.001418
O O5 0.342849 0.208567 0.152763
O O6 0.427522 0.000000 0.054788
O O7 0.462985 0.342908 0.065636
O O8 0.629170 0.710073 0.299029
O O9 0.522578 0.770928 0.253189
O O10 0.619827 0.000000 0.232714
O O11 0.747903 0.719709 0.699101
O O12 0.863798 0.725340 0.560396
O O13 0.806401 0.000000 0.636532
O O14 0.341712 0.500000 0.221113
O O15 0.386265 0.770290 0.274386
O O16 0.553496 0.500000 0.693043
O O17 0.568668 0.767739 0.601489
O O18 0.500000 0.766503 0.500000
O O19 0.571371 0.500000 0.512355
#
# Coordination Sequence:
#
# PCOD9214784 Si02
#       8
#     8   8   8   8   8   8   2   8
#     4  10  24  41  62  90 124 165 214 273 327 388
#     4  11  25  45  68  97 133 175 225 273 328 391
#     4  11  23  39  61  92 125 158 207 267 326 384
#     4  11  22  39  65  92 124 172 219 261 324 395
#     4  11  24  42  63  94 134 171 215 269 327 388
#     4  10  22  40  64  92 124 166 212 263 320 389
#     4  12  26  44  68  98 128 180 218 270 328 394
#     4   9  17  36  64  92 123 161 212 266 320 386
#
# _framework density 22.022079999999999
#
# number of rings (size 3 to 8) (size 9 to 14) (size 15 to 20)
#    0.000    1.517    2.069    2.276    2.897    4.966 
#    0.000    2.069    0.000    0.000    0.000    0.000 
#    0.000    0.000    0.000    0.000    0.000    0.000 
#
# Total GULP energy -161886.870099 kJ/mol
# GULP energy per Si atom -5582.305865 kJ/mol
# Density = 2.197196 g / cm^3
# Si number density = 22.022080 Si / 1000 Ang^3
#
#
#
# Elastic Constant Matrix: (Units=GPa)
#
#
# Indices 1 2 3 4 5 6 
#
# 1 66.6422 -1.6967 10.3023 0.0000 -21.1125 0.0000
# 2 -1.6967 71.4321 7.6592 0.0001 -2.2160 0.0001
# 3 10.3023 7.6592 132.6698 0.0000 -27.9917 0.0000
# 4 0.0000 0.0001 0.0000 14.8279 0.0000 -13.2765
# 5 -21.1125 -2.2160 -27.9917 0.0000 41.3820 0.0000
# 6 0.0000 0.0001 0.0000 -13.2765 0.0000 16.1734
#
#
#
# Elastic Compliance Matrix: (Units=1/GPa)
#
#
# Indices 1 2 3 4 5 6 
#
# 1 0.017974 0.000661 0.000593 0.000000 0.009607 0.000000
# 2 0.000661 0.014113 -0.000741 -0.000001 0.000592 -0.000001
# 3 0.000593 -0.000741 0.008853 0.000000 0.006251 0.000000
# 4 0.000000 -0.000001 0.000000 0.254490 0.000000 0.208907
# 5 0.009607 0.000592 0.006251 0.000000 0.033326 0.000000
# 6 0.000000 -0.000001 0.000000 0.208907 0.000000 0.233319
#
#
# Mechanical properties :
#
#
# Convention : Reuss Voigt Hill
#
# Bulk Modulus (GPa) = 23.82871 33.69709 28.76290
# Shear Modulus (GPa) = 8.69508 31.44195 20.06852
#
# Velocity S-wave (km/s) = 1.98920 3.78265 3.02203
# Velocity P-wave (km/s) = 4.01494 5.86623 5.02655
#
# Compressibility (1/GPa) = 0.04196618
#
# Stress axis : x y z
#
# Youngs Moduli (GPa) = 55.63572 70.85742 112.95345
#
# Poissons Ratio (x) = -0.04686 -0.06697
# Poissons Ratio (y) = -0.03680 0.08373
# Poissons Ratio (z) = -0.03299 0.05252
#
# Static dielectric constant tensor:
#      x y z
#    x 1.817210 0.000000 0.003610 
#    y 0.000000 1.812300 0.000000 
#    z 0.003610 0.000000 1.827690 
# 
# From -- ./inp_files/282150.got.cif
#   From: 2010.05.17/outbox.cif.g08.bks.cpg/sg12_142_cif.got.tgz:282150.got - 2010.06.03 13:09:07.
