data_PCOD9214285
_publ_section_title
;
Structure prediction by ZEFSAII (Michael W. Deem and Ramdas Pophale) SiO2 
 PCOD9214285
Probable space group: C 2/M
;
_chemical_formula_sum "Si O2"
_cell_formula_units_Z 42
_cell_length_a 21.620210
_cell_length_b 17.001271
_cell_length_c 5.187455
_cell_angle_alpha 90.000000
_cell_angle_beta 78.450214
_cell_angle_gamma 90.000000
_cell_volume 1868.148516
_symmetry_space_group_name_H-M "C 2/M"
_symmetry_group_IT_number 12
_symmetry_cell_setting 'monoclinic'
loop_
_space_group_symop_operation_xyz
x,y,z
-x,y,-z
-x,-y,-z
x,-y,z
1/2+x,1/2+y,z
1/2-x,1/2+y,-z
1/2-x,1/2-y,-z
1/2+x,1/2-y,z
loop_
_atom_site_type_symbol
_atom_site_label
_atom_site_fract_x
_atom_site_fract_y
_atom_site_fract_z
Si Si1 0.432033 0.297032 0.079721
Si Si2 0.243352 0.159884 0.244194
Si Si3 0.000000 0.500000 0.000000
Si Si4 0.182945 0.908773 0.776031
Si Si5 0.559876 0.133112 0.634721
Si Si6 0.347945 0.796554 0.794848
O O1 0.378491 0.355447 0.223807
O O2 0.442765 0.220344 0.246117
O O3 0.500000 0.336623 0.000000
O O4 0.404343 0.261029 0.837294
O O5 0.232533 0.111811 0.510803
O O6 0.205659 0.243052 0.295412
O O7 0.210736 0.115727 0.029694
O O8 0.314042 0.175169 0.086093
O O9 0.949563 0.568999 0.136834
O O10 0.167380 0.000000 0.786007
O O11 0.500000 0.116629 0.500000
O O12 0.621945 0.135704 0.403565
#
# Coordination Sequence:
#
# PCOD9214285 Si02
#       6
#     8   8   2   8   8   8
#     4  11  22  40  69  99 131 179 227 276 338 415
#     4  10  23  41  68  96 131 182 229 286 340 401
#     4  12  26  40  64  94 134 176 222 288 350 400
#     4  11  24  44  66  99 143 180 229 289 343 398
#     4  12  22  42  63  93 133 175 218 279 338 414
#     4  10  22  39  67  94 129 173 234 276 339 411
#
# _framework density 22.482151000000002
#
# number of rings (size 3 to 8) (size 9 to 14) (size 15 to 20)
#    0.000    1.143    4.762    0.857    2.667    2.667 
#    3.429    0.000    0.000    4.000    0.000    0.000 
#    0.000    0.000    0.000    0.000    0.000    0.000 
#
# Total GULP energy -117228.795723 kJ/mol
# GULP energy per Si atom -5582.323606 kJ/mol
# Density = 2.243098 g / cm^3
# Si number density = 22.482151 Si / 1000 Ang^3
#
#
#
# Elastic Constant Matrix: (Units=GPa)
#
#
# Indices 1 2 3 4 5 6 
#
# 1 96.7125 16.9404 35.1869 0.0000 -25.9020 0.0000
# 2 16.9404 122.4639 44.3266 0.0000 -23.4478 0.0000
# 3 35.1869 44.3266 116.8621 0.0000 -27.6090 0.0000
# 4 0.0000 0.0000 0.0000 9.9816 0.0000 -18.2233
# 5 -25.9020 -23.4478 -27.6090 0.0000 42.6914 0.0000
# 6 0.0000 0.0000 0.0000 -18.2233 0.0000 20.8788
#
#
#
# Elastic Compliance Matrix: (Units=1/GPa)
#
#
# Indices 1 2 3 4 5 6 
#
# 1 0.012905 0.000347 -0.002505 0.000000 0.006400 0.000000
# 2 0.000347 0.009911 -0.002984 0.000000 0.003724 0.000000
# 3 -0.002505 -0.002984 0.011446 0.000000 0.004243 0.000000
# 4 0.000000 0.000000 0.000000 -0.168806 0.000000 -0.147336
# 5 0.006400 0.003724 0.004243 0.000000 0.032097 0.000000
# 6 0.000000 0.000000 0.000000 -0.147336 0.000000 -0.080702
#
#
# Mechanical properties :
#
#
# Convention : Reuss Voigt Hill
#
# Bulk Modulus (GPa) = 41.70625 58.77180 50.23903
# Shear Modulus (GPa) = -30.32622 30.68269 0.17823
#
# Velocity S-wave (km/s) = -3.67672 3.69827 0.28187
# Velocity P-wave (km/s) = 0.75279 6.66593 4.74348
#
# Compressibility (1/GPa) = 0.02397722
#
# Stress axis : x y z
#
# Youngs Moduli (GPa) = 77.49123 100.90043 87.36930
#
# Poissons Ratio (x) = -0.03502 0.21888
# Poissons Ratio (y) = -0.02690 0.26070
# Poissons Ratio (z) = 0.19413 0.30107
#
# Static dielectric constant tensor:
#      x y z
#    x 1.875080 0.000000 0.007620 
#    y 0.000000 3.212350 0.000000 
#    z 0.007620 0.000000 1.932630 
# 
# From -- ./inp_files/20332.got.cif
#   From: 2010.05.17/outbox.cif.g08.bks.cpg/sg12_11_cif.got.tgz:20332.got - 2010.06.03 13:09:07.
