data_PCOD9214862
_publ_section_title
;
Structure prediction by ZEFSAII (Michael W. Deem and Ramdas Pophale) SiO2 
 PCOD9214862
Probable space group: C 2/M
;
_chemical_formula_sum "Si O2"
_cell_formula_units_Z 58
_cell_length_a 28.087404
_cell_length_b 7.765099
_cell_length_c 23.365531
_cell_angle_alpha 90.000000
_cell_angle_beta 30.970533
_cell_angle_gamma 90.000000
_cell_volume 2622.416362
_symmetry_space_group_name_H-M "C 2/M"
_symmetry_group_IT_number 12
_symmetry_cell_setting 'monoclinic'
loop_
_space_group_symop_operation_xyz
x,y,z
-x,y,-z
-x,-y,-z
x,-y,z
1/2+x,1/2+y,z
1/2-x,1/2+y,-z
1/2-x,1/2-y,-z
1/2+x,1/2-y,z
loop_
_atom_site_type_symbol
_atom_site_label
_atom_site_fract_x
_atom_site_fract_y
_atom_site_fract_z
Si Si1 0.667442 0.288453 0.205931
Si Si2 0.526749 0.297788 0.253938
Si Si3 0.866748 0.306908 0.628599
Si Si4 0.680119 0.707091 0.521277
Si Si5 0.005838 0.797295 0.929222
Si Si6 0.715541 0.792651 0.699949
Si Si7 0.500000 0.500000 0.500000
Si Si8 0.626072 0.800515 0.036410
O O1 0.664986 0.500000 0.213687
O O2 0.594796 0.229917 0.232919
O O3 0.642661 0.217983 0.293640
O O4 0.770585 0.234482 0.081544
O O5 0.518215 0.500000 0.275642
O O6 0.423236 0.224137 0.361639
O O7 0.573474 0.282712 0.143835
O O8 0.897952 0.500000 0.582249
O O9 0.766480 0.276352 0.703734
O O10 0.934245 0.153289 0.539522
O O11 0.675481 0.500000 0.523473
O O12 0.750000 0.750000 0.500000
O O13 0.723140 0.766062 0.417044
O O14 0.111169 0.771385 0.801114
O O15 0.935004 0.715443 0.957691
O O16 0.983968 0.000000 0.953258
O O17 0.000000 0.728189 0.000000
O O18 0.713426 0.000000 0.704267
O O19 0.636083 0.000000 0.041458
#
# Coordination Sequence:
#
# PCOD9214862 Si02
#       8
#     8   8   8   8   8   8   2   8
#     4  10  22  42  67  93 133 173 217 279 339 394
#     4  10  22  40  65  90 124 173 216 265 336 397
#     4  12  26  43  71 102 133 181 226 273 338 401
#     4  10  23  40  62  89 124 169 213 267 334 392
#     4  11  24  41  64  93 126 166 219 275 330 403
#     4  11  23  42  67  96 134 172 215 277 335 393
#     4  12  26  48  68  94 150 172 226 284 330 394
#     4  11  23  39  62  95 130 171 217 273 339 400
#
# _framework density 22.117007999999998
#
# number of rings (size 3 to 8) (size 9 to 14) (size 15 to 20)
#    0.000    1.241    1.379    3.517    1.931    8.828 
#    0.000    0.000    0.000    0.000    0.000    0.000 
#    0.000    0.000    0.000    0.000    0.000    0.000 
#
# Total GULP energy -162000.420928 kJ/mol
# GULP energy per Si atom -5586.221411 kJ/mol
# Density = 2.206667 g / cm^3
# Si number density = 22.117008 Si / 1000 Ang^3
#
#
#
# Elastic Constant Matrix: (Units=GPa)
#
#
# Indices 1 2 3 4 5 6 
#
# 1 157.0769 -2.6225 60.0801 -0.0001 -13.0337 0.0021
# 2 -2.6225 69.9968 15.8132 -0.0090 -4.4840 0.0186
# 3 60.0801 15.8132 109.6167 -0.0283 -17.6227 0.0085
# 4 -0.0001 -0.0090 -0.0283 13.4619 0.0062 2.1208
# 5 -13.0337 -4.4840 -17.6227 0.0062 44.9600 -0.0049
# 6 0.0021 0.0186 0.0085 2.1208 -0.0049 22.4580
#
#
#
# Elastic Compliance Matrix: (Units=1/GPa)
#
#
# Indices 1 2 3 4 5 6 
#
# 1 0.008201 0.001388 -0.004579 -0.000009 0.000721 0.000001
# 2 0.001388 0.015022 -0.002799 0.000006 0.000804 -0.000012
# 3 -0.004579 -0.002799 0.012570 0.000024 0.003320 -0.000004
# 4 -0.000009 0.000006 0.000024 0.075406 -0.000004 -0.007121
# 5 0.000721 0.000804 0.003320 -0.000004 0.023833 0.000004
# 6 0.000001 -0.000012 -0.000004 -0.007121 0.000004 0.045200
#
#
# Mechanical properties :
#
#
# Convention : Reuss Voigt Hill
#
# Bulk Modulus (GPa) = 41.99332 53.69245 47.84288
# Shear Modulus (GPa) = 24.98148 33.73729 29.35939
#
# Velocity S-wave (km/s) = 3.36447 3.90987 3.64738
# Velocity P-wave (km/s) = 5.84132 6.68671 6.27826
#
# Compressibility (1/GPa) = 0.02381331
#
# Stress axis : x y z
#
# Youngs Moduli (GPa) = 121.94008 66.56870 79.55454
#
# Poissons Ratio (x) = -0.09239 0.36429
# Poissons Ratio (y) = -0.16924 0.22264
# Poissons Ratio (z) = 0.55837 0.18630
#
# Static dielectric constant tensor:
#      x y z
#    x 1.778540 0.000000 -0.004910 
#    y 0.000000 1.815420 0.000010 
#    z -0.004910 0.000010 1.827140 
# 
# From -- ./inp_files/351436.got.cif
#   From: 2010.05.17/outbox.cif.g08.bks.cpg/sg12_176_cif.got.tgz:351436.got - 2010.06.03 13:09:07.
