data_PCOD9214639
_publ_section_title
;
Structure prediction by ZEFSAII (Michael W. Deem and Ramdas Pophale) SiO2 
 PCOD9214639
Probable space group: C 2/M
;
_chemical_formula_sum "Si O2"
_cell_formula_units_Z 42
_cell_length_a 11.823239
_cell_length_b 22.006192
_cell_length_c 7.407952
_cell_angle_alpha 90.000000
_cell_angle_beta 110.052030
_cell_angle_gamma 90.000000
_cell_volume 1810.596168
_symmetry_space_group_name_H-M "C 2/M"
_symmetry_group_IT_number 12
_symmetry_cell_setting 'monoclinic'
loop_
_space_group_symop_operation_xyz
x,y,z
-x,y,-z
-x,-y,-z
x,-y,z
1/2+x,1/2+y,z
1/2-x,1/2+y,-z
1/2-x,1/2-y,-z
1/2+x,1/2-y,z
loop_
_atom_site_type_symbol
_atom_site_label
_atom_site_fract_x
_atom_site_fract_y
_atom_site_fract_z
Si Si1 0.639299 0.930630 0.015390
Si Si2 0.318187 0.931551 0.384112
Si Si3 0.467323 0.409264 0.779873
Si Si4 0.683792 0.163544 0.327847
Si Si5 0.500000 0.500000 0.500000
Si Si6 0.074035 0.219986 0.367585
O O1 0.703480 0.877758 0.163772
O O2 0.680457 0.000000 0.077407
O O3 0.500000 0.927231 0.000000
O O4 0.652947 0.920849 0.809203
O O5 0.173043 0.927495 0.325555
O O6 0.368840 0.882204 0.549572
O O7 0.355966 0.000000 0.454717
O O8 0.535591 0.447124 0.666936
O O9 0.485309 0.337554 0.761572
O O10 0.500000 0.426222 0.000000
O O11 0.804318 0.191447 0.480495
O O12 0.601068 0.222581 0.256712
O O13 0.000000 0.241529 0.500000
#
# Coordination Sequence:
#
# PCOD9214639 Si02
#       6
#     8   8   8   8   2   8
#     4  10  23  41  65  96 124 165 220 266 321 376
#     4  10  22  40  62  97 128 162 216 261 324 381
#     4  11  24  41  64 100 133 167 208 260 315 393
#     4  10  23  43  64  90 129 170 211 269 319 372
#     4  12  22  40  64  98 134 166 210 240 334 390
#     4  10  23  43  63  94 127 170 219 254 319 389
#
# _framework density 23.196781000000001
#
# number of rings (size 3 to 8) (size 9 to 14) (size 15 to 20)
#    0.000    1.714    1.905    0.857    5.333    0.762 
#    6.857    5.714    0.000    0.000    0.000    0.000 
#    0.000    0.000    0.000    0.000    0.000    0.000 
#
# Total GULP energy -117228.009314 kJ/mol
# GULP energy per Si atom -5582.286158 kJ/mol
# Density = 2.314398 g / cm^3
# Si number density = 23.196781 Si / 1000 Ang^3
#
#
#
# Elastic Constant Matrix: (Units=GPa)
#
#
# Indices 1 2 3 4 5 6 
#
# 1 44.6827 10.9543 -10.7957 0.0000 -2.6622 0.0000
# 2 10.9543 173.8930 53.9482 0.0000 5.8412 0.0000
# 3 -10.7957 53.9482 78.1349 0.0000 -3.3870 0.0000
# 4 0.0000 0.0000 0.0000 65.3279 0.0000 -1.7464
# 5 -2.6622 5.8412 -3.3870 0.0000 21.7845 0.0000
# 6 0.0000 0.0000 0.0000 -1.7464 0.0000 9.5178
#
#
#
# Elastic Compliance Matrix: (Units=1/GPa)
#
#
# Indices 1 2 3 4 5 6 
#
# 1 0.025085 -0.003680 0.006224 0.000000 0.005020 0.000000
# 2 -0.003680 0.008028 -0.006206 0.000000 -0.003567 0.000000
# 3 0.006224 -0.006206 0.018171 0.000000 0.005250 0.000000
# 4 0.000000 0.000000 0.000000 0.015383 0.000000 0.002823
# 5 0.005020 -0.003567 0.005250 0.000000 0.048290 0.000000
# 6 0.000000 0.000000 0.000000 0.002823 0.000000 0.105584
#
#
# Mechanical properties :
#
#
# Convention : Reuss Voigt Hill
#
# Bulk Modulus (GPa) = 22.74754 44.99157 33.86955
# Shear Modulus (GPa) = 20.61718 35.49964 28.05841
#
# Velocity S-wave (km/s) = 2.98450 3.91624 3.48168
# Velocity P-wave (km/s) = 4.65875 6.31561 5.54936
#
# Compressibility (1/GPa) = 0.04396080
#
# Stress axis : x y z
#
# Youngs Moduli (GPa) = 39.86434 124.57148 55.03390
#
# Poissons Ratio (x) = 0.45841 -0.34255
# Poissons Ratio (y) = 0.14670 0.34152
# Poissons Ratio (z) = -0.24813 0.77305
#
# Static dielectric constant tensor:
#      x y z
#    x 1.957260 0.000000 0.012240 
#    y 0.000000 1.874880 0.000000 
#    z 0.012240 0.000000 1.806920 
# 
# From -- ./inp_files/11676.got.cif
#   From: 2010.05.17/outbox.cif.g08.bks.cpg/sg12_6_cif.got.tgz:11676.got - 2010.06.03 13:09:07.
