data_PCOD9214659
_publ_section_title
;
Structure prediction by ZEFSAII (Michael W. Deem and Ramdas Pophale) SiO2 
 PCOD9214659
Probable space group: C 2/M
;
_chemical_formula_sum "Si O2"
_cell_formula_units_Z 56
_cell_length_a 16.619411
_cell_length_b 17.799215
_cell_length_c 9.773340
_cell_angle_alpha 90.000000
_cell_angle_beta 68.097294
_cell_angle_gamma 90.000000
_cell_volume 2682.394047
_symmetry_space_group_name_H-M "C 2/M"
_symmetry_group_IT_number 12
_symmetry_cell_setting 'monoclinic'
loop_
_space_group_symop_operation_xyz
x,y,z
-x,y,-z
-x,-y,-z
x,-y,z
1/2+x,1/2+y,z
1/2-x,1/2+y,-z
1/2-x,1/2-y,-z
1/2+x,1/2-y,z
loop_
_atom_site_type_symbol
_atom_site_label
_atom_site_fract_x
_atom_site_fract_y
_atom_site_fract_z
Si Si1 0.489810 0.671117 0.162132
Si Si2 0.294989 0.692659 0.613056
Si Si3 0.552356 0.798192 0.600709
Si Si4 0.845086 0.089468 0.831989
Si Si5 0.292255 0.338923 0.317345
Si Si6 0.307491 0.910401 0.861476
Si Si7 0.501396 0.909875 0.160463
O O1 0.494968 0.736339 0.272789
O O2 0.565331 0.612777 0.151814
O O3 0.392073 0.638800 0.231817
O O4 0.500000 0.698665 0.000000
O O5 0.368312 0.751255 0.513926
O O6 0.331011 0.637753 0.704259
O O7 0.271572 0.649011 0.489605
O O8 0.218597 0.749247 0.706565
O O9 0.500000 0.824116 0.500000
O O10 0.565143 0.866480 0.698525
O O11 0.843083 0.000000 0.808179
O O12 0.764838 0.110816 0.981047
O O13 0.225966 0.379261 0.260166
O O14 0.403544 0.887034 0.843634
O O15 0.308559 0.000000 0.854966
O O16 0.490595 0.000000 0.178511
O O17 0.500000 0.891496 0.000000
#
# Coordination Sequence:
#
# PCOD9214659 Si02
#       7
#     8   8   8   8   8   8   8
#     4  11  22  39  63  98 127 168 222 263 326 383
#     4  10  23  41  61  94 128 172 220 264 327 388
#     4  11  21  38  63  91 130 165 215 270 311 387
#     4  11  24  42  66  96 134 175 219 273 331 392
#     4  10  22  40  63  89 129 168 209 271 315 386
#     4  10  22  40  64  96 125 165 215 261 324 388
#     4  10  23  43  67  96 130 169 215 269 327 385
#
# _framework density 20.876874000000001
#
# number of rings (size 3 to 8) (size 9 to 14) (size 15 to 20)
#    0.000    1.571    2.857    1.286    0.000    6.857 
#    0.000    5.714    0.000    0.000    0.000    0.000 
#    0.000    0.000    0.000    0.000    0.000    0.000 
#
# Total GULP energy -156338.476055 kJ/mol
# GULP energy per Si atom -5583.517002 kJ/mol
# Density = 2.082936 g / cm^3
# Si number density = 20.876874 Si / 1000 Ang^3
#
#
#
# Elastic Constant Matrix: (Units=GPa)
#
#
# Indices 1 2 3 4 5 6 
#
# 1 103.9116 34.2601 54.5753 0.0000 11.0833 0.0000
# 2 34.2601 40.5096 34.3728 0.0000 1.1695 0.0000
# 3 54.5753 34.3728 118.2349 0.0000 20.5394 0.0000
# 4 0.0000 0.0000 0.0000 42.2337 0.0000 3.3314
# 5 11.0833 1.1695 20.5394 0.0000 40.3038 0.0000
# 6 0.0000 0.0000 0.0000 3.3314 0.0000 29.5584
#
#
#
# Elastic Compliance Matrix: (Units=1/GPa)
#
#
# Indices 1 2 3 4 5 6 
#
# 1 0.014909 -0.009280 -0.003860 0.000000 -0.001863 0.000000
# 2 -0.009280 0.039233 -0.008083 0.000000 0.005533 0.000000
# 3 -0.003860 -0.008083 0.013565 0.000000 -0.005617 0.000000
# 4 0.000000 0.000000 0.000000 0.023890 0.000000 -0.002693
# 5 -0.001863 0.005533 -0.005617 0.000000 0.028026 0.000000
# 6 0.000000 0.000000 0.000000 -0.002693 0.000000 0.034135
#
#
# Mechanical properties :
#
#
# Convention : Reuss Voigt Hill
#
# Bulk Modulus (GPa) = 39.58777 56.56359 48.07568
# Shear Modulus (GPa) = 24.43479 31.71570 28.07524
#
# Velocity S-wave (km/s) = 3.42486 3.90189 3.67113
# Velocity P-wave (km/s) = 5.88585 6.88857 6.40686
#
# Compressibility (1/GPa) = 0.02526032
#
# Stress axis : x y z
#
# Youngs Moduli (GPa) = 67.07137 25.48881 73.71706
#
# Poissons Ratio (x) = 0.23653 0.28458
# Poissons Ratio (y) = 0.62242 0.59588
# Poissons Ratio (z) = 0.25892 0.20603
#
# Static dielectric constant tensor:
#      x y z
#    x 1.809900 0.000000 -0.027040 
#    y 0.000000 1.742820 0.000000 
#    z -0.027040 0.000000 1.756540 
# 
# From -- ./inp_files/75837.got.cif
#   From: 2010.05.17/outbox.cif.g08.bks.cpg/sg12_38_cif.got.tgz:75837.got - 2010.06.03 13:09:07.
