data_PCOD9214283
_publ_section_title
;
Structure prediction by ZEFSAII (Michael W. Deem and Ramdas Pophale) SiO2 
 PCOD9214283
Probable space group: C 2/M
;
_chemical_formula_sum "Si O2"
_cell_formula_units_Z 38
_cell_length_a 8.923569
_cell_length_b 16.918045
_cell_length_c 13.712559
_cell_angle_alpha 90.000000
_cell_angle_beta 65.862619
_cell_angle_gamma 90.000000
_cell_volume 1889.175509
_symmetry_space_group_name_H-M "C 2/M"
_symmetry_group_IT_number 12
_symmetry_cell_setting 'monoclinic'
loop_
_space_group_symop_operation_xyz
x,y,z
-x,y,-z
-x,-y,-z
x,-y,z
1/2+x,1/2+y,z
1/2-x,1/2+y,-z
1/2-x,1/2-y,-z
1/2+x,1/2-y,z
loop_
_atom_site_type_symbol
_atom_site_label
_atom_site_fract_x
_atom_site_fract_y
_atom_site_fract_z
Si Si1 0.606336 0.748406 0.203035
Si Si2 0.441762 0.500000 0.125842
Si Si3 0.196360 0.500000 0.447803
Si Si4 0.310907 0.500000 0.756271
Si Si5 0.403460 0.139864 0.117630
Si Si6 0.000000 0.000000 0.500000
Si Si7 0.800548 0.861968 0.278044
O O1 0.529324 0.809926 0.148384
O O2 0.763333 0.701499 0.120438
O O3 0.669033 0.797188 0.279626
O O4 0.465337 0.684661 0.263024
O O5 0.585976 0.500000 0.169237
O O6 0.340903 0.420385 0.176700
O O7 0.500000 0.500000 0.000000
O O8 0.304854 0.500000 0.516521
O O9 0.243987 0.420727 0.376586
O O10 0.000000 0.500000 0.500000
O O11 0.192538 0.575822 0.792641
O O12 0.437524 0.500000 0.632873
O O13 0.500000 0.104787 0.000000
#
# Coordination Sequence:
#
# PCOD9214283 Si02
#       7
#     8   4   4   4   8   2   8
#     4  10  22  39  67  91 144 179 210 282 351 434
#     4  11  23  40  67  95 139 173 231 284 346 419
#     4  11  25  46  77 101 130 186 246 293 358 415
#     4  12  25  44  68 100 130 190 232 294 349 405
#     4  11  23  39  63  98 136 174 227 275 352 420
#     4  12  24  48  76  94 144 178 248 300 346 404
#     4  10  22  45  64 101 133 179 230 278 356 422
#
# _framework density 20.114595999999999
#
# number of rings (size 3 to 8) (size 9 to 14) (size 15 to 20)
#    0.000    1.263    4.211    0.947    5.895    4.211 
#    0.000    1.053    9.263    0.000    0.000    0.000 
#    0.000    0.000    0.000    0.000    0.000    0.000 
#
# Total GULP energy -105861.428908 kJ/mol
# GULP energy per Si atom -5571.654153 kJ/mol
# Density = 2.006881 g / cm^3
# Si number density = 20.114596 Si / 1000 Ang^3
#
#
#
# Elastic Constant Matrix: (Units=GPa)
#
#
# Indices 1 2 3 4 5 6 
#
# 1 139.5659 39.9775 45.2884 0.0000 -7.9608 0.0000
# 2 39.9775 99.2512 24.7911 0.0000 -2.4171 0.0000
# 3 45.2884 24.7911 79.2138 0.0000 10.0733 0.0000
# 4 0.0000 0.0000 0.0000 5.6223 0.0000 -1.7894
# 5 -7.9608 -2.4171 10.0733 0.0000 14.4219 0.0000
# 6 0.0000 0.0000 0.0000 -1.7894 0.0000 6.1024
#
#
#
# Elastic Compliance Matrix: (Units=1/GPa)
#
#
# Indices 1 2 3 4 5 6 
#
# 1 0.010541 -0.002364 -0.006559 0.000000 0.010004 0.000000
# 2 -0.002364 0.011749 -0.002645 0.000000 0.002512 0.000000
# 3 -0.006559 -0.002645 0.019446 0.000000 -0.017646 0.000000
# 4 0.000000 0.000000 0.000000 0.196170 0.000000 0.057522
# 5 0.010004 0.002512 -0.017646 0.000000 0.087607 0.000000
# 6 0.000000 0.000000 0.000000 0.057522 0.000000 0.180737
#
#
# Mechanical properties :
#
#
# Convention : Reuss Voigt Hill
#
# Bulk Modulus (GPa) = 53.76196 59.79388 56.77792
# Shear Modulus (GPa) = 9.33556 19.09425 14.21490
#
# Velocity S-wave (km/s) = 2.15668 3.08437 2.66126
# Velocity P-wave (km/s) = 5.74348 6.51733 6.14260
#
# Compressibility (1/GPa) = 0.01860051
#
# Stress axis : x y z
#
# Youngs Moduli (GPa) = 94.86626 85.11012 51.42514
#
# Poissons Ratio (x) = 0.20120 0.33729
# Poissons Ratio (y) = 0.22426 0.13602
# Poissons Ratio (z) = 0.62222 0.22512
#
# Static dielectric constant tensor:
#      x y z
#    x 1.729450 0.000000 -0.011700 
#    y 0.000000 1.728170 0.000000 
#    z -0.011700 0.000000 1.696790 
# 
# From -- ./inp_files/118995.got.cif
#   From: 2010.05.17/outbox.cif.g08.bks.cpg/sg12_60_cif.got.tgz:118995.got - 2010.06.03 13:09:07.
