data_PCOD9214795
_publ_section_title
;
Structure prediction by ZEFSAII (Michael W. Deem and Ramdas Pophale) SiO2 
 PCOD9214795
Probable space group: C 2/M
;
_chemical_formula_sum "Si O2"
_cell_formula_units_Z 48
_cell_length_a 15.820082
_cell_length_b 27.098359
_cell_length_c 9.028947
_cell_angle_alpha 90.000000
_cell_angle_beta 37.861587
_cell_angle_gamma 90.000000
_cell_volume 2375.661725
_symmetry_space_group_name_H-M "C 2/M"
_symmetry_group_IT_number 12
_symmetry_cell_setting 'monoclinic'
loop_
_space_group_symop_operation_xyz
x,y,z
-x,y,-z
-x,-y,-z
x,-y,z
1/2+x,1/2+y,z
1/2-x,1/2+y,-z
1/2-x,1/2-y,-z
1/2+x,1/2-y,z
loop_
_atom_site_type_symbol
_atom_site_label
_atom_site_fract_x
_atom_site_fract_y
_atom_site_fract_z
Si Si1 0.251743 0.149456 0.239406
Si Si2 0.853642 0.557979 0.619570
Si Si3 0.724505 0.350348 0.925192
Si Si4 0.532364 0.284756 0.715757
Si Si5 0.000000 0.710458 0.500000
Si Si6 0.500000 0.212609 0.000000
Si Si7 0.653185 0.055928 0.721422
O O1 0.143686 0.181921 0.480300
O O2 0.397158 0.177470 0.054256
O O3 0.263388 0.096537 0.302511
O O4 0.218249 0.147282 0.112445
O O5 0.823189 0.500000 0.682859
O O6 0.740430 0.594459 0.842753
O O7 0.861246 0.567709 0.433049
O O8 0.000000 0.567370 0.500000
O O9 0.862931 0.322463 0.679157
O O10 0.592045 0.319542 0.058324
O O11 0.477288 0.246368 0.669887
O O12 0.581799 0.249314 0.778620
O O13 0.708298 0.000000 0.659215
O O14 0.500000 0.056148 0.000000
#
# Coordination Sequence:
#
# PCOD9214795 Si02
#       7
#     8   8   8   8   4   4   8
#     4  12  24  42  64  94 126 165 209 255 312 366
#     4  10  22  40  64  94 123 159 207 257 309 369
#     4  12  24  41  67  92 123 169 209 256 308 364
#     4  12  26  43  61  90 131 167 209 254 305 370
#     4  12  22  42  63  88 123 168 210 254 298 362
#     4  12  26  40  61  96 123 170 208 258 306 362
#     4  10  22  40  64  93 125 159 203 260 313 365
#
# _framework density 20.204896999999999
#
# number of rings (size 3 to 8) (size 9 to 14) (size 15 to 20)
#    0.000    0.667    5.000    3.000    4.667    2.000 
#    0.000    0.833    0.000    4.000    0.000    0.000 
#    0.000    0.000    0.000    0.000    0.000    0.000 
#
# Total GULP energy -134182.685834 kJ/mol
# GULP energy per Si atom -5590.945243 kJ/mol
# Density = 2.015891 g / cm^3
# Si number density = 20.204897 Si / 1000 Ang^3
#
#
#
# Elastic Constant Matrix: (Units=GPa)
#
#
# Indices 1 2 3 4 5 6 
#
# 1 39.5789 28.0478 -9.7727 0.0000 15.4005 0.0000
# 2 28.0478 109.5360 25.2016 0.0000 11.3923 0.0000
# 3 -9.7727 25.2016 61.3435 0.0000 2.9049 0.0000
# 4 0.0000 0.0000 0.0000 43.0852 0.0000 0.4101
# 5 15.4005 11.3923 2.9049 0.0000 31.3400 0.0000
# 6 0.0000 0.0000 0.0000 0.4101 0.0000 49.8878
#
#
#
# Elastic Compliance Matrix: (Units=1/GPa)
#
#
# Indices 1 2 3 4 5 6 
#
# 1 0.044603 -0.012507 0.013124 0.000000 -0.018588 0.000000
# 2 -0.012507 0.013940 -0.007805 0.000000 0.001802 0.000000
# 3 0.013124 -0.007805 0.021866 0.000000 -0.005639 0.000000
# 4 0.000000 0.000000 0.000000 0.023212 0.000000 -0.000191
# 5 -0.018588 0.001802 -0.005639 0.000000 0.040910 0.000000
# 6 0.000000 0.000000 0.000000 -0.000191 0.000000 0.020047
#
#
# Mechanical properties :
#
#
# Convention : Reuss Voigt Hill
#
# Bulk Modulus (GPa) = 15.14390 33.04575 24.09482
# Shear Modulus (GPa) = 24.88003 35.99471 30.43737
#
# Velocity S-wave (km/s) = 3.51292 4.22534 3.88549
# Velocity P-wave (km/s) = 4.89546 6.33999 5.66397
#
# Compressibility (1/GPa) = 0.06603318
#
# Stress axis : x y z
#
# Youngs Moduli (GPa) = 22.42010 71.73406 45.73301
#
# Poissons Ratio (x) = 0.89721 -0.60022
# Poissons Ratio (y) = 0.28042 0.35695
# Poissons Ratio (z) = -0.29425 0.55988
#
# Static dielectric constant tensor:
#      x y z
#    x 1.714140 0.000000 0.022160 
#    y 0.000000 1.716690 0.000000 
#    z 0.022160 0.000000 1.715740 
# 
# From -- ./inp_files/67368.got.cif
#   From: 2010.05.17/outbox.cif.g08.bks.cpg/sg12_34_cif.got.tgz:67368.got - 2010.06.03 13:09:07.
