data_PCOD9214415
_publ_section_title
;
Structure prediction by ZEFSAII (Michael W. Deem and Ramdas Pophale) SiO2 
 PCOD9214415
Probable space group: C 2/M
;
_chemical_formula_sum "Si O2"
_cell_formula_units_Z 56
_cell_length_a 10.091148
_cell_length_b 9.016637
_cell_length_c 33.336333
_cell_angle_alpha 90.000000
_cell_angle_beta 112.895450
_cell_angle_gamma 90.000000
_cell_volume 2794.245774
_symmetry_space_group_name_H-M "C 2/M"
_symmetry_group_IT_number 12
_symmetry_cell_setting 'monoclinic'
loop_
_space_group_symop_operation_xyz
x,y,z
-x,y,-z
-x,-y,-z
x,-y,z
1/2+x,1/2+y,z
1/2-x,1/2+y,-z
1/2-x,1/2-y,-z
1/2+x,1/2-y,z
loop_
_atom_site_type_symbol
_atom_site_label
_atom_site_fract_x
_atom_site_fract_y
_atom_site_fract_z
Si Si1 0.042857 0.677887 0.668044
Si Si2 0.933268 0.176491 0.184716
Si Si3 0.829293 0.327478 0.472374
Si Si4 0.878976 0.323034 0.952547
Si Si5 0.215967 0.176817 0.618516
Si Si6 0.416176 0.176989 0.095609
Si Si7 0.239585 0.677587 0.765860
O O1 0.057560 0.500000 0.665424
O O2 0.875030 0.710808 0.654383
O O3 0.099109 0.753958 0.634368
O O4 0.141188 0.725999 0.716961
O O5 0.092377 0.208844 0.220884
O O6 0.927665 0.245681 0.139927
O O7 0.816089 0.245129 0.200483
O O8 0.914008 0.000000 0.179721
O O9 0.786449 0.500000 0.464778
O O10 0.750000 0.250000 0.500000
O O11 0.795143 0.245954 0.426840
O O12 0.000000 0.320694 0.500000
O O13 0.849337 0.500000 0.950255
O O14 0.732617 0.233941 0.941208
O O15 0.950953 0.286870 0.918045
O O16 0.000000 0.291215 0.000000
O O17 0.199182 0.000000 0.614282
O O18 0.411807 0.000000 0.099623
O O19 0.223768 0.500000 0.768526
#
# Coordination Sequence:
#
# PCOD9214415 Si02
#       7
#     8   8   8   8   8   8   8
#     4  10  22  40  60  86 120 153 190 238 288 341
#     4  11  23  38  59  86 115 151 194 238 286 340
#     4  11  24  41  61  86 117 153 194 241 291 344
#     4  10  22  40  61  87 118 151 191 239 288 341
#     4  11  23  38  60  89 118 153 195 237 287 346
#     4  11  23  38  59  86 116 153 193 235 287 343
#     4  10  22  40  61  86 117 153 193 238 288 342
#
# _framework density 20.041184999999999
#
# number of rings (size 3 to 8) (size 9 to 14) (size 15 to 20)
#    0.000    1.429    0.000    4.714    0.000   11.143 
#    0.000    0.000    0.000    0.000    0.000    0.000 
#    0.000    0.000    0.000    0.000    0.000    0.000 
#
# Total GULP energy -156658.714213 kJ/mol
# GULP energy per Si atom -5594.954079 kJ/mol
# Density = 1.999557 g / cm^3
# Si number density = 20.041185 Si / 1000 Ang^3
#
#
#
# Elastic Constant Matrix: (Units=GPa)
#
#
# Indices 1 2 3 4 5 6 
#
# 1 56.8387 18.2774 -23.1332 0.0000 -6.1854 0.0000
# 2 18.2774 15.4684 -4.6775 0.0000 4.0294 0.0000
# 3 -23.1332 -4.6775 50.5837 0.0000 -2.4892 0.0000
# 4 0.0000 0.0000 0.0000 27.0054 0.0000 3.9635
# 5 -6.1854 4.0294 -2.4892 0.0000 36.1303 0.0000
# 6 0.0000 0.0000 0.0000 3.9635 0.0000 28.1391
#
#
#
# Elastic Compliance Matrix: (Units=1/GPa)
#
#
# Indices 1 2 3 4 5 6 
#
# 1 0.039637 -0.045801 0.014526 0.000000 0.012895 0.000000
# 2 -0.045801 0.121253 -0.010822 0.000000 -0.022109 0.000000
# 3 0.014526 -0.010822 0.025681 0.000000 0.005463 0.000000
# 4 0.000000 0.000000 0.000000 0.037811 0.000000 -0.005326
# 5 0.012895 -0.022109 0.005463 0.000000 0.032727 0.000000
# 6 0.000000 0.000000 0.000000 -0.005326 0.000000 0.036288
#
#
# Mechanical properties :
#
#
# Convention : Reuss Voigt Hill
#
# Bulk Modulus (GPa) = 9.76778 11.53603 10.65190
# Shear Modulus (GPa) = 12.14426 27.08324 19.61375
#
# Velocity S-wave (km/s) = 2.46431 3.68010 3.13177
# Velocity P-wave (km/s) = 3.60299 4.88121 4.28997
#
# Compressibility (1/GPa) = 0.10237745
#
# Stress axis : x y z
#
# Youngs Moduli (GPa) = 25.22880 8.24719 38.93985
#
# Poissons Ratio (x) = 0.37773 -0.56566
# Poissons Ratio (y) = 1.15551 0.42140
# Poissons Ratio (z) = -0.36648 0.08925
#
# Static dielectric constant tensor:
#      x y z
#    x 1.672680 0.000000 0.028680 
#    y 0.000000 1.664970 0.000000 
#    z 0.028680 0.000000 1.699480 
# 
# From -- ./inp_files/373633.got.cif
#   From: 2010.05.17/outbox.cif.g08.bks.cpg/sg12_187_cif.got.tgz:373633.got - 2010.06.03 13:09:07.
