data_PCOD9214547
_publ_section_title
;
Structure prediction by ZEFSAII (Michael W. Deem and Ramdas Pophale) SiO2 
 PCOD9214547
Probable space group: C 2/M
;
_chemical_formula_sum "Si O2"
_cell_formula_units_Z 48
_cell_length_a 10.337205
_cell_length_b 29.852899
_cell_length_c 18.219886
_cell_angle_alpha 90.000000
_cell_angle_beta 152.338032
_cell_angle_gamma 90.000000
_cell_volume 2610.304480
_symmetry_space_group_name_H-M "C 2/M"
_symmetry_group_IT_number 12
_symmetry_cell_setting 'monoclinic'
loop_
_space_group_symop_operation_xyz
x,y,z
-x,y,-z
-x,-y,-z
x,-y,z
1/2+x,1/2+y,z
1/2-x,1/2+y,-z
1/2-x,1/2-y,-z
1/2+x,1/2-y,z
loop_
_atom_site_type_symbol
_atom_site_label
_atom_site_fract_x
_atom_site_fract_y
_atom_site_fract_z
Si Si1 0.670753 0.051978 0.161576
Si Si2 0.963142 0.725997 0.160978
Si Si3 0.687348 0.875499 0.751186
Si Si4 0.168336 0.623393 0.916673
Si Si5 0.039080 0.272781 0.666231
Si Si6 0.669479 0.949384 0.509087
O O1 0.529706 0.086682 0.146360
O O2 0.001071 0.060500 0.316335
O O3 0.641861 0.000000 0.171470
O O4 0.500000 0.056245 0.000000
O O5 0.949504 0.673561 0.134438
O O6 0.900423 0.733187 0.215851
O O7 0.250487 0.748030 0.282175
O O8 0.750000 0.750000 0.000000
O O9 0.683958 0.881994 0.836993
O O10 0.571217 0.826289 0.672437
O O11 0.488206 0.912896 0.618037
O O12 0.014117 0.878884 0.893200
O O13 0.750000 0.250000 0.500000
O O14 0.500000 0.949459 0.500000
O O15 0.649180 0.000000 0.468025
#
# Coordination Sequence:
#
# PCOD9214547 Si02
#       6
#     8   8   8   8   8   8
#     4  10  22  40  62  90 120 154 201 250 299 363
#     4  11  22  42  63  86 123 166 207 251 306 363
#     4  10  22  41  60  86 123 160 200 247 305 364
#     4  10  22  40  62  86 119 162 203 247 299 363
#     4  11  24  40  61  92 125 162 207 258 306 363
#     4  10  22  40  62  89 122 156 194 250 309 360
#
# _framework density 18.388660000000002
#
# number of rings (size 3 to 8) (size 9 to 14) (size 15 to 20)
#    0.000    1.667    1.667    2.000    2.333    6.000 
#    0.000    3.333    0.000    0.000    0.000    0.000 
#    0.000    0.000    0.000    0.000    0.000    0.000 
#
# Total GULP energy -133896.947618 kJ/mol
# GULP energy per Si atom -5579.039484 kJ/mol
# Density = 1.834681 g / cm^3
# Si number density = 18.388660 Si / 1000 Ang^3
#
#
#
# Elastic Constant Matrix: (Units=GPa)
#
#
# Indices 1 2 3 4 5 6 
#
# 1 54.9911 61.7068 12.1409 0.0000 13.3629 0.0000
# 2 61.7068 141.1151 72.3375 0.0000 3.6226 0.0000
# 3 12.1409 72.3375 106.5585 0.0000 7.6294 0.0001
# 4 0.0000 0.0000 0.0000 39.5694 0.0000 -0.8081
# 5 13.3629 3.6226 7.6294 0.0000 29.6730 0.0000
# 6 0.0000 0.0000 0.0001 -0.8081 0.0000 38.4822
#
#
#
# Elastic Compliance Matrix: (Units=1/GPa)
#
#
# Indices 1 2 3 4 5 6 
#
# 1 0.061082 -0.035970 0.019472 0.000000 -0.028123 0.000000
# 2 -0.035970 0.032060 -0.018893 0.000000 0.017142 0.000000
# 3 0.019472 -0.018893 0.020838 0.000000 -0.011820 0.000000
# 4 0.000000 0.000000 0.000000 0.025283 0.000000 0.000531
# 5 -0.028123 0.017142 -0.011820 0.000000 0.047312 0.000000
# 6 0.000000 0.000000 0.000000 0.000531 0.000000 0.025997
#
#
# Mechanical properties :
#
#
# Convention : Reuss Voigt Hill
#
# Bulk Modulus (GPa) = 23.14884 66.11501 44.63193
# Shear Modulus (GPa) = 16.79246 31.97689 24.38468
#
# Velocity S-wave (km/s) = 3.02519 4.17459 3.64548
# Velocity P-wave (km/s) = 4.98180 7.69861 6.48409
#
# Compressibility (1/GPa) = 0.04319870
#
# Stress axis : x y z
#
# Youngs Moduli (GPa) = 16.37143 31.19149 47.98948
#
# Poissons Ratio (x) = 1.12195 -0.93446
# Poissons Ratio (y) = 0.58887 0.90667
# Poissons Ratio (z) = -0.31879 0.58931
#
# Static dielectric constant tensor:
#      x y z
#    x 1.632080 0.000000 0.032620 
#    y 0.000000 1.606780 0.000000 
#    z 0.032620 0.000000 1.696370 
# 
# From -- ./inp_files/52406.got.cif
#   From: 2010.05.17/outbox.cif.g08.bks.cpg/sg12_27_cif.got.tgz:52406.got - 2010.06.03 13:09:07.
