data_PCOD9214582
_publ_section_title
;
Structure prediction by ZEFSAII (Michael W. Deem and Ramdas Pophale) SiO2 
 PCOD9214582
Probable space group: C 2/M
;
_chemical_formula_sum "Si O2"
_cell_formula_units_Z 48
_cell_length_a 9.112812
_cell_length_b 23.150296
_cell_length_c 19.764256
_cell_angle_alpha 90.000000
_cell_angle_beta 39.412011
_cell_angle_gamma 90.000000
_cell_volume 2647.217459
_symmetry_space_group_name_H-M "C 2/M"
_symmetry_group_IT_number 12
_symmetry_cell_setting 'monoclinic'
loop_
_space_group_symop_operation_xyz
x,y,z
-x,y,-z
-x,-y,-z
x,-y,z
1/2+x,1/2+y,z
1/2-x,1/2+y,-z
1/2-x,1/2-y,-z
1/2+x,1/2-y,z
loop_
_atom_site_type_symbol
_atom_site_label
_atom_site_fract_x
_atom_site_fract_y
_atom_site_fract_z
Si Si1 0.741529 0.931248 0.609112
Si Si2 0.062991 0.145635 0.203790
Si Si3 0.215032 0.437347 0.976062
Si Si4 0.062873 0.380330 0.812805
Si Si5 0.879408 0.432429 0.616227
Si Si6 0.730747 0.765758 0.084894
O O1 0.652248 0.904055 0.710292
O O2 0.566449 0.922272 0.609004
O O3 0.000000 0.910011 0.500000
O O4 0.756760 0.000000 0.614398
O O5 0.131371 0.112770 0.109941
O O6 0.231734 0.129025 0.205910
O O7 0.120477 0.212495 0.166682
O O8 0.816305 0.117050 0.309127
O O9 0.329988 0.500000 0.934377
O O10 0.000000 0.439454 0.000000
O O11 0.114255 0.422560 0.085043
O O12 0.929765 0.320798 0.848373
O O13 0.793195 0.500000 0.653743
O O14 0.000000 0.429239 0.500000
O O15 0.750000 0.750000 0.000000
O O16 0.000000 0.778437 0.000000
#
# Coordination Sequence:
#
# PCOD9214582 Si02
#       6
#     8   8   8   8   8   8
#     4  10  22  40  62  90 122 157 197 245 303 356
#     4  11  21  37  58  87 118 159 203 241 297 357
#     4   9  17  30  51  82 116 149 189 235 289 353
#     4  11  22  36  60  87 120 157 200 248 297 352
#     4  10  22  40  63  90 121 158 198 244 299 360
#     4  12  23  41  60  86 122 163 206 246 296 357
#
# _framework density 18.132245999999999
#
# number of rings (size 3 to 8) (size 9 to 14) (size 15 to 20)
#    0.000    1.500    3.333    2.500    2.333    3.333 
#    0.000    0.833    0.000    8.000    0.000    0.000 
#    0.000    0.000    0.000    0.000    0.000    0.000 
#
# Total GULP energy -133789.235863 kJ/mol
# GULP energy per Si atom -5574.551494 kJ/mol
# Density = 1.809098 g / cm^3
# Si number density = 18.132246 Si / 1000 Ang^3
#
#
#
# Elastic Constant Matrix: (Units=GPa)
#
#
# Indices 1 2 3 4 5 6 
#
# 1 102.2362 36.5175 61.4205 -0.0002 9.8539 -0.0001
# 2 36.5175 90.1642 56.5755 0.0000 -4.1585 0.0000
# 3 61.4205 56.5755 138.0559 -0.0003 12.5725 -0.0003
# 4 -0.0002 0.0000 -0.0003 25.8045 0.0002 -5.6527
# 5 9.8539 -4.1585 12.5725 0.0002 38.6866 0.0001
# 6 -0.0001 0.0000 -0.0003 -5.6527 0.0001 20.9552
#
#
#
# Elastic Compliance Matrix: (Units=1/GPa)
#
#
# Indices 1 2 3 4 5 6 
#
# 1 0.013880 -0.002662 -0.004880 0.000000 -0.002235 0.000000
# 2 -0.002662 0.015974 -0.005750 0.000000 0.004264 0.000000
# 3 -0.004880 -0.005750 0.012071 0.000000 -0.003298 0.000000
# 4 0.000000 0.000000 0.000000 0.041187 0.000000 0.011110
# 5 -0.002235 0.004264 -0.003298 0.000000 0.027948 0.000000
# 6 0.000000 0.000000 0.000000 0.011110 0.000000 0.050718
#
#
# Mechanical properties :
#
#
# Convention : Reuss Voigt Hill
#
# Bulk Modulus (GPa) = 65.19075 71.05369 68.12222
# Shear Modulus (GPa) = 25.84302 28.81879 27.33090
#
# Velocity S-wave (km/s) = 3.77935 3.99101 3.88662
# Velocity P-wave (km/s) = 7.42129 7.77875 7.60212
#
# Compressibility (1/GPa) = 0.01533960
#
# Stress axis : x y z
#
# Youngs Moduli (GPa) = 72.04783 62.60319 82.84035
#
# Poissons Ratio (x) = 0.16666 0.40430
# Poissons Ratio (y) = 0.19180 0.47633
# Poissons Ratio (z) = 0.35163 0.35996
#
# Static dielectric constant tensor:
#      x y z
#    x 1.571170 0.000000 -0.018170 
#    y 0.000000 1.619050 0.000000 
#    z -0.018170 0.000000 1.600800 
# 
# From -- ./inp_files/122565.got.cif
#   From: 2010.05.17/outbox.cif.g08.bks.cpg/sg12_62_cif.got.tgz:122565.got - 2010.06.03 13:09:07.
