data_PCOD9214134
_publ_section_title
;
Structure prediction by ZEFSAII (Michael W. Deem and Ramdas Pophale) SiO2 
 PCOD9214134
Probable space group: C 2/M
;
_chemical_formula_sum "Si O2"
_cell_formula_units_Z 40
_cell_length_a 9.847705
_cell_length_b 13.861365
_cell_length_c 12.399791
_cell_angle_alpha 90.000000
_cell_angle_beta 95.101107
_cell_angle_gamma 90.000000
_cell_volume 1685.900309
_symmetry_space_group_name_H-M "C 2/M"
_symmetry_group_IT_number 12
_symmetry_cell_setting 'monoclinic'
loop_
_space_group_symop_operation_xyz
x,y,z
-x,y,-z
-x,-y,-z
x,-y,z
1/2+x,1/2+y,z
1/2-x,1/2+y,-z
1/2-x,1/2-y,-z
1/2+x,1/2-y,z
loop_
_atom_site_type_symbol
_atom_site_label
_atom_site_fract_x
_atom_site_fract_y
_atom_site_fract_z
Si Si1 0.379253 0.500000 0.270438
Si Si2 0.818389 0.000000 0.620745
Si Si3 0.857617 0.500000 0.176854
Si Si4 0.240245 0.705064 0.314230
Si Si5 0.141692 0.657559 0.531982
Si Si6 0.436523 0.166156 0.888516
Si Si7 0.233858 0.000000 0.954023
O O1 0.527391 0.500000 0.332547
O O2 0.297690 0.597304 0.297722
O O3 0.387599 0.500000 0.139965
O O4 0.773260 0.909204 0.548828
O O5 0.710948 0.000000 0.712201
O O6 0.953271 0.593905 0.160032
O O7 0.733448 0.500000 0.082095
O O8 0.156637 0.711269 0.419289
O O9 0.357983 0.779174 0.358442
O O10 0.144257 0.728955 0.205450
O O11 0.000000 0.604206 0.500000
O O12 0.325142 0.092675 0.929468
O O13 0.500000 0.215819 0.000000
#
# Coordination Sequence:
#
# PCOD9214134 Si02
#       7
#     4   4   4   8   8   8   4
#     4  10  22  39  63  88 122 159 204 234 297 370
#     4  12  25  38  60  88 120 161 199 247 299 352
#     4   9  16  31  58  88 123 153 198 247 291 345
#     4  10  22  39  63  88 122 156 194 250 295 349
#     4  11  25  40  60  87 119 156 199 248 300 349
#     4   8  14  31  62  91 114 151 203 244 288 350
#     4   7  14  30  56  90 115 156 196 242 294 345
#
# _framework density 23.726195000000001
#
# number of rings (size 3 to 8) (size 9 to 14) (size 15 to 20)
#    0.000    2.400    0.000    3.900    5.600    1.200 
#    0.000    0.000    4.400    4.800    0.000    0.000 
#    0.000    0.000    0.000    0.000    0.000    0.000 
#
# Total GULP energy -111468.221935 kJ/mol
# GULP energy per Si atom -5573.411097 kJ/mol
# Density = 2.367219 g / cm^3
# Si number density = 23.726195 Si / 1000 Ang^3
#
#
#
# Elastic Constant Matrix: (Units=GPa)
#
#
# Indices 1 2 3 4 5 6 
#
# 1 74.5784 17.0315 47.8069 0.0000 43.9592 0.0000
# 2 17.0315 72.0831 22.7782 0.0000 24.9773 0.0000
# 3 47.8069 22.7782 167.4720 0.0000 53.0117 0.0000
# 4 0.0000 0.0000 0.0000 -95.9568 0.0000 -128.8423
# 5 43.9592 24.9773 53.0117 0.0000 54.7586 0.0000
# 6 0.0000 0.0000 0.0000 -128.8423 0.0000 -139.3899
#
#
#
# Elastic Compliance Matrix: (Units=1/GPa)
#
#
# Indices 1 2 3 4 5 6 
#
# 1 0.025702 0.001252 -0.001147 0.000000 -0.020094 0.000000
# 2 0.001252 0.016543 0.000143 0.000000 -0.008690 0.000000
# 3 -0.001147 0.000143 0.008663 0.000000 -0.007531 0.000000
# 4 0.000000 0.000000 0.000000 0.043223 0.000000 -0.039952
# 5 -0.020094 -0.008690 -0.007531 0.000000 0.045648 0.000000
# 6 0.000000 0.000000 0.000000 -0.039952 0.000000 0.029755
#
#
# Mechanical properties :
#
#
# Convention : Reuss Voigt Hill
#
# Bulk Modulus (GPa) = 19.45310 54.37408 36.91359
# Shear Modulus (GPa) = 26.85702 -21.01651 2.92026
#
# Velocity S-wave (km/s) = 3.36811 -2.97946 1.11062
# Velocity P-wave (km/s) = 4.83139 3.33629 4.15170
#
# Compressibility (1/GPa) = 0.05140570
#
# Stress axis : x y z
#
# Youngs Moduli (GPa) = 38.90734 60.44931 115.43331
#
# Poissons Ratio (x) = -0.07571 0.13236
# Poissons Ratio (y) = -0.04873 -0.01652
# Poissons Ratio (z) = 0.04461 -0.00865
#
# Static dielectric constant tensor:
#      x y z
#    x 1.963690 0.000000 0.025050 
#    y 0.000000 1.944340 0.000000 
#    z 0.025050 0.000000 1.913870 
# 
# From -- ./inp_files/130519.got.cif
#   From: 2010.05.17/outbox.cif.g08.bks.cpg/sg12_66_cif.got.tgz:130519.got - 2010.06.03 13:09:07.
