data_PCOD9214544
_publ_section_title
;
Structure prediction by ZEFSAII (Michael W. Deem and Ramdas Pophale) SiO2 
 PCOD9214544
Probable space group: C 2/M
;
_chemical_formula_sum "Si O2"
_cell_formula_units_Z 42
_cell_length_a 9.755907
_cell_length_b 21.011137
_cell_length_c 11.003890
_cell_angle_alpha 90.000000
_cell_angle_beta 114.035733
_cell_angle_gamma 90.000000
_cell_volume 2060.027021
_symmetry_space_group_name_H-M "C 2/M"
_symmetry_group_IT_number 12
_symmetry_cell_setting 'monoclinic'
loop_
_space_group_symop_operation_xyz
x,y,z
-x,y,-z
-x,-y,-z
x,-y,z
1/2+x,1/2+y,z
1/2-x,1/2+y,-z
1/2-x,1/2-y,-z
1/2+x,1/2-y,z
loop_
_atom_site_type_symbol
_atom_site_label
_atom_site_fract_x
_atom_site_fract_y
_atom_site_fract_z
Si Si1 0.572263 0.230417 0.159456
Si Si2 0.744685 0.883515 0.120898
Si Si3 0.000000 0.500000 0.000000
Si Si4 0.149123 0.423984 0.622765
Si Si5 0.705782 0.171507 0.840179
Si Si6 0.468605 0.576774 0.625376
O O1 0.670905 0.166503 0.188400
O O2 0.434818 0.219405 0.199421
O O3 0.672222 0.293002 0.198362
O O4 0.500000 0.233321 0.000000
O O5 0.905723 0.901884 0.233064
O O6 0.631317 0.943246 0.064940
O O7 0.757932 0.847720 0.994816
O O8 0.142631 0.500000 0.632482
O O9 0.155808 0.392469 0.756566
O O10 0.300205 0.407136 0.605331
O O11 0.000000 0.402285 0.500000
O O12 0.500000 0.600338 0.500000
O O13 0.476818 0.500000 0.625228
#
# Coordination Sequence:
#
# PCOD9214544 Si02
#       6
#     8   8   2   8   8   8
#     4  10  22  40  61  96 128 180 213 263 338 381
#     4  11  22  38  66 101 137 169 219 270 332 385
#     4  12  20  36  62 110 136 164 228 266 322 404
#     4  10  25  45  66  97 135 176 214 271 345 391
#     4  11  24  41  69  96 130 174 221 276 323 399
#     4  10  23  41  64  94 132 174 212 262 324 399
#
# _framework density 20.388083000000002
#
# number of rings (size 3 to 8) (size 9 to 14) (size 15 to 20)
#    0.000    1.524    3.810    2.286    9.333    0.000 
#    3.429    3.810    0.000    0.000    0.000    0.000 
#    0.000    0.000    0.000    0.000    0.000    0.000 
#
# Total GULP energy -116975.404690 kJ/mol
# GULP energy per Si atom -5570.257366 kJ/mol
# Density = 2.034168 g / cm^3
# Si number density = 20.388083 Si / 1000 Ang^3
#
#
#
# Elastic Constant Matrix: (Units=GPa)
#
#
# Indices 1 2 3 4 5 6 
#
# 1 125.2328 37.1366 72.1108 0.0000 29.1136 0.0000
# 2 37.1366 64.4043 21.4549 0.0000 11.5926 0.0000
# 3 72.1108 21.4549 91.6210 0.0000 15.1888 0.0000
# 4 0.0000 0.0000 0.0000 -11.5817 0.0000 -10.0156
# 5 29.1136 11.5926 15.1888 0.0000 33.2433 0.0000
# 6 0.0000 0.0000 0.0000 -10.0156 0.0000 26.8636
#
#
#
# Elastic Compliance Matrix: (Units=1/GPa)
#
#
# Indices 1 2 3 4 5 6 
#
# 1 0.018329 -0.005044 -0.011767 0.000000 -0.008917 0.000000
# 2 -0.005044 0.018847 -0.000093 0.000000 -0.002112 0.000000
# 3 -0.011767 -0.000093 0.019999 0.000000 0.001200 0.000000
# 4 0.000000 0.000000 0.000000 -0.065292 0.000000 -0.024343
# 5 -0.008917 -0.002112 0.001200 0.000000 0.038079 0.000000
# 6 0.000000 0.000000 0.000000 -0.024343 0.000000 0.028149
#
#
# Mechanical properties :
#
#
# Convention : Reuss Voigt Hill
#
# Bulk Modulus (GPa) = 42.79656 60.29584 51.54620
# Shear Modulus (GPa) = 50.14655 19.74210 34.94432
#
# Velocity S-wave (km/s) = 4.96482 3.11515 4.14449
# Velocity P-wave (km/s) = 7.34183 6.52512 6.94549
#
# Compressibility (1/GPa) = 0.02336636
#
# Stress axis : x y z
#
# Youngs Moduli (GPa) = 54.55694 53.05981 50.00370
#
# Poissons Ratio (x) = 0.26764 0.58839
# Poissons Ratio (y) = 0.27519 0.00466
# Poissons Ratio (z) = 0.64196 0.00494
#
# Static dielectric constant tensor:
#      x y z
#    x 1.771670 0.000000 0.002120 
#    y 0.000000 1.751050 0.000000 
#    z 0.002120 0.000000 1.699350 
# 
# From -- ./inp_files/120913.got.cif
#   From: 2010.05.17/outbox.cif.g08.bks.cpg/sg12_61_cif.got.tgz:120913.got - 2010.06.03 13:09:07.
