data_PCOD9214098
_publ_section_title
;
Structure prediction by ZEFSAII (Michael W. Deem and Ramdas Pophale) SiO2 
 PCOD9214098
Probable space group: C 2/M
;
_chemical_formula_sum "Si O2"
_cell_formula_units_Z 36
_cell_length_a 22.477449
_cell_length_b 14.045115
_cell_length_c 5.404714
_cell_angle_alpha 90.000000
_cell_angle_beta 87.690542
_cell_angle_gamma 90.000000
_cell_volume 1704.873428
_symmetry_space_group_name_H-M "C 2/M"
_symmetry_group_IT_number 12
_symmetry_cell_setting 'monoclinic'
loop_
_space_group_symop_operation_xyz
x,y,z
-x,y,-z
-x,-y,-z
x,-y,z
1/2+x,1/2+y,z
1/2-x,1/2+y,-z
1/2-x,1/2-y,-z
1/2+x,1/2-y,z
loop_
_atom_site_type_symbol
_atom_site_label
_atom_site_fract_x
_atom_site_fract_y
_atom_site_fract_z
Si Si1 0.000000 0.760358 0.000000
Si Si2 0.215307 0.611337 0.554079
Si Si3 0.383071 0.743859 0.261227
Si Si4 0.790434 0.112668 0.045240
Si Si5 0.063736 0.895665 0.360077
O O1 0.051605 0.713009 0.824216
O O2 0.956535 0.829357 0.857226
O O3 0.198944 0.500000 0.547860
O O4 0.158163 0.676095 0.611883
O O5 0.247810 0.633843 0.289047
O O6 0.258101 0.623437 0.786522
O O7 0.343394 0.688904 0.061940
O O8 0.395348 0.660497 0.457502
O O9 0.807026 0.000000 0.070013
O O10 0.000000 0.908462 0.500000
O O11 0.087225 0.000000 0.289761
#
# Coordination Sequence:
#
# PCOD9214098 Si02
#       5
#     4   8   8   8   8
#     4  10  23  36  57  88 122 160 201 242 303 368
#     4  10  23  41  63  90 123 159 206 255 301 350
#     4  11  22  37  61  87 122 161 202 247 302 361
#     4  10  22  39  62  93 121 158 202 250 306 363
#     4   9  19  35  53  81 118 155 194 239 293 358
#
# _framework density 21.115936999999999
#
# number of rings (size 3 to 8) (size 9 to 14) (size 15 to 20)
#    0.000    2.000    0.000    2.333    6.222    2.667 
#    0.000    0.556    0.000    6.000    0.000    0.000 
#    0.000    0.000    0.000    0.000    0.000    0.000 
#
# Total GULP energy -100437.632205 kJ/mol
# GULP energy per Si atom -5579.868456 kJ/mol
# Density = 2.106788 g / cm^3
# Si number density = 21.115937 Si / 1000 Ang^3
#
#
#
# Elastic Constant Matrix: (Units=GPa)
#
#
# Indices 1 2 3 4 5 6 
#
# 1 134.2948 53.5543 29.3692 0.0000 -44.0996 0.0000
# 2 53.5543 60.2559 -2.3862 0.0000 -12.9490 0.0000
# 3 29.3692 -2.3862 68.9961 0.0000 -15.7722 0.0000
# 4 0.0000 0.0000 0.0000 18.8087 0.0000 13.5502
# 5 -44.0996 -12.9490 -15.7722 0.0000 45.7954 0.0000
# 6 0.0000 0.0000 0.0000 13.5502 0.0000 38.2925
#
#
#
# Elastic Compliance Matrix: (Units=1/GPa)
#
#
# Indices 1 2 3 4 5 6 
#
# 1 0.017807 -0.013585 -0.005436 0.000000 0.011435 0.000000
# 2 -0.013585 0.028266 0.006075 0.000000 -0.002997 0.000000
# 3 -0.005436 0.006075 0.017599 0.000000 0.002544 0.000000
# 4 0.000000 0.000000 0.000000 0.071358 0.000000 -0.025251
# 5 0.011435 -0.002997 0.002544 0.000000 0.032876 0.000000
# 6 0.000000 0.000000 0.000000 -0.025251 0.000000 0.035050
#
#
# Mechanical properties :
#
#
# Convention : Reuss Voigt Hill
#
# Bulk Modulus (GPa) = 26.46793 47.18018 36.82405
# Shear Modulus (GPa) = 20.70888 32.77995 26.74442
#
# Velocity S-wave (km/s) = 3.13505 3.94430 3.56272
# Velocity P-wave (km/s) = 5.06621 6.56774 5.86522
#
# Compressibility (1/GPa) = 0.03778157
#
# Stress axis : x y z
#
# Youngs Moduli (GPa) = 56.15667 35.37782 56.82081
#
# Poissons Ratio (x) = 0.48060 0.30887
# Poissons Ratio (y) = 0.76288 -0.34519
# Poissons Ratio (z) = 0.30526 -0.21492
#
# Static dielectric constant tensor:
#      x y z
#    x 1.821120 0.000000 -0.195580 
#    y 0.000000 1.808920 0.000000 
#    z -0.195580 0.000000 1.928740 
# 
# From -- ./inp_files/19675.got.cif
#   From: 2010.05.17/outbox.cif.g08.bks.cpg/sg12_10_cif.got.tgz:19675.got - 2010.06.03 13:09:07.
