data_PCOD9214347
_publ_section_title
;
Structure prediction by ZEFSAII (Michael W. Deem and Ramdas Pophale) SiO2 
 PCOD9214347
Probable space group: C 2/M
;
_chemical_formula_sum "Si O2"
_cell_formula_units_Z 56
_cell_length_a 9.170903
_cell_length_b 14.368965
_cell_length_c 22.348964
_cell_angle_alpha 90.000000
_cell_angle_beta 120.578917
_cell_angle_gamma 90.000000
_cell_volume 2535.493263
_symmetry_space_group_name_H-M "C 2/M"
_symmetry_group_IT_number 12
_symmetry_cell_setting 'monoclinic'
loop_
_space_group_symop_operation_xyz
x,y,z
-x,y,-z
-x,-y,-z
x,-y,z
1/2+x,1/2+y,z
1/2-x,1/2+y,-z
1/2-x,1/2-y,-z
1/2+x,1/2-y,z
loop_
_atom_site_type_symbol
_atom_site_label
_atom_site_fract_x
_atom_site_fract_y
_atom_site_fract_z
Si Si1 0.876882 0.387325 0.417450
Si Si2 0.958851 0.658879 0.851541
Si Si3 0.041310 0.600585 0.283667
Si Si4 0.120823 0.099946 0.766247
Si Si5 0.346535 0.367658 0.805799
Si Si6 0.827701 0.104403 0.941426
Si Si7 0.549647 0.737846 0.359114
O O1 0.857381 0.500000 0.394011
O O2 0.696842 0.339974 0.400324
O O3 0.967287 0.308383 0.391928
O O4 0.000000 0.391461 0.500000
O O5 0.786333 0.618213 0.842450
O O6 0.912998 0.763796 0.828449
O O7 0.958529 0.607027 0.787648
O O8 0.145418 0.649208 0.917022
O O9 0.097278 0.500000 0.316552
O O10 0.843128 0.616480 0.256246
O O11 0.135526 0.686026 0.332889
O O12 0.084832 0.180565 0.710387
O O13 0.966540 0.095920 0.779524
O O14 0.135489 0.000000 0.738649
O O15 0.346911 0.403166 0.873864
O O16 0.821749 0.000000 0.966022
O O17 0.000000 0.152116 0.000000
#
# Coordination Sequence:
#
# PCOD9214347 Si02
#       7
#     8   8   8   8   8   8   8
#     4  11  26  47  70  98 137 185 230 273 326 387
#     4  11  20  37  55  85 123 153 200 262 320 386
#     4  11  21  37  61  89 124 166 203 253 324 395
#     4  12  22  35  60  95 127 157 197 265 338 388
#     4  11  20  38  58  86 123 158 201 260 328 390
#     4  10  22  40  59  78 110 165 220 255 304 390
#     4  12  22  42  68 102 133 174 222 279 322 401
#
# _framework density 22.086431999999999
#
# number of rings (size 3 to 8) (size 9 to 14) (size 15 to 20)
#    0.000    0.857    2.857    7.286    0.000    0.571 
#    0.000    2.857    0.000    7.714    0.000    0.000 
#    0.000    0.000    0.000    0.000    0.000    0.000 
#
# Total GULP energy -155888.485942 kJ/mol
# GULP energy per Si atom -5567.445927 kJ/mol
# Density = 2.203616 g / cm^3
# Si number density = 22.086432 Si / 1000 Ang^3
#
#
#
# Elastic Constant Matrix: (Units=GPa)
#
#
# Indices 1 2 3 4 5 6 
#
# 1 103.8980 12.8069 7.1135 0.0000 14.8767 0.0000
# 2 12.8069 170.5426 9.6895 0.0000 13.1325 0.0000
# 3 7.1135 9.6895 65.8305 0.0000 20.3117 0.0000
# 4 0.0000 0.0000 0.0000 17.5787 0.0000 31.6447
# 5 14.8767 13.1325 20.3117 0.0000 33.9630 0.0000
# 6 0.0000 0.0000 0.0000 31.6447 0.0000 -41.4051
#
#
#
# Elastic Compliance Matrix: (Units=1/GPa)
#
#
# Indices 1 2 3 4 5 6 
#
# 1 0.010308 -0.000443 0.000358 0.000000 -0.004557 0.000000
# 2 -0.000443 0.006065 -0.000222 0.000000 -0.002018 0.000000
# 3 0.000358 -0.000222 0.018647 0.000000 -0.011223 0.000000
# 4 0.000000 0.000000 0.000000 0.023944 0.000000 0.018300
# 5 -0.004557 -0.002018 -0.011223 0.000000 0.038932 0.000000
# 6 0.000000 0.000000 0.000000 0.018300 0.000000 -0.010166
#
#
# Mechanical properties :
#
#
# Convention : Reuss Voigt Hill
#
# Bulk Modulus (GPa) = 29.06635 44.38787 36.72711
# Shear Modulus (GPa) = 50.09286 22.73806 36.41546
#
# Velocity S-wave (km/s) = 4.76756 3.21207 4.06491
# Velocity P-wave (km/s) = 6.59507 5.82216 6.22063
#
# Compressibility (1/GPa) = 0.03440405
#
# Stress axis : x y z
#
# Youngs Moduli (GPa) = 97.01626 164.88161 53.62689
#
# Poissons Ratio (x) = 0.07311 -0.01918
# Poissons Ratio (y) = 0.04302 0.01191
# Poissons Ratio (z) = -0.03469 0.03662
#
# Static dielectric constant tensor:
#      x y z
#    x 1.917360 0.000000 0.004010 
#    y 0.000000 1.882460 0.000000 
#    z 0.004010 0.000000 1.815080 
# 
# From -- ./inp_files/333011.got.cif
#   From: 2010.05.17/outbox.cif.g08.bks.cpg/sg12_167_cif.got.tgz:333011.got - 2010.06.03 13:09:07.
