data_PCOD9214870
_publ_section_title
;
Structure prediction by ZEFSAII (Michael W. Deem and Ramdas Pophale) SiO2 
 PCOD9214870
Probable space group: C 2/M
;
_chemical_formula_sum "Si O2"
_cell_formula_units_Z 56
_cell_length_a 20.392699
_cell_length_b 8.782850
_cell_length_c 26.724349
_cell_angle_alpha 90.000000
_cell_angle_beta 141.424796
_cell_angle_gamma 90.000000
_cell_volume 2984.575339
_symmetry_space_group_name_H-M "C 2/M"
_symmetry_group_IT_number 12
_symmetry_cell_setting 'monoclinic'
loop_
_space_group_symop_operation_xyz
x,y,z
-x,y,-z
-x,-y,-z
x,-y,z
1/2+x,1/2+y,z
1/2-x,1/2+y,-z
1/2-x,1/2-y,-z
1/2+x,1/2-y,z
loop_
_atom_site_type_symbol
_atom_site_label
_atom_site_fract_x
_atom_site_fract_y
_atom_site_fract_z
Si Si1 0.987897 0.818528 0.237841
Si Si2 0.657531 0.681758 0.479333
Si Si3 0.365580 0.317030 0.063790
Si Si4 0.789214 0.318452 0.652547
Si Si5 0.734859 0.817364 0.245397
Si Si6 0.562501 0.181344 0.688004
Si Si7 0.523426 0.315676 0.071218
O O1 0.933497 0.775080 0.153128
O O2 0.934802 0.736372 0.252958
O O3 0.109095 0.769190 0.306940
O O4 0.980237 0.000000 0.239725
O O5 0.651761 0.500000 0.467888
O O6 0.750000 0.750000 0.500000
O O7 0.692615 0.710186 0.557520
O O8 0.546675 0.755579 0.399529
O O9 0.358089 0.500000 0.058054
O O10 0.428931 0.268668 0.052005
O O11 0.250000 0.250000 0.000000
O O12 0.811541 0.500000 0.663651
O O13 0.769382 0.276845 0.698228
O O14 0.838479 0.748627 0.282237
O O15 0.631181 0.754054 0.156279
O O16 0.737163 0.000000 0.242878
O O17 0.563226 0.000000 0.686208
O O18 0.531996 0.500000 0.078449
O O19 0.500000 0.272372 0.000000
#
# Coordination Sequence:
#
# PCOD9214870 Si02
#       7
#     8   8   8   8   8   8   8
#     4  11  22  39  64  92 124 162 210 260 304 365
#     4  11  22  39  63  94 127 162 207 257 311 367
#     4  10  23  40  61  93 127 162 204 253 306 365
#     4  10  22  40  65  92 123 164 204 251 311 372
#     4  11  24  43  65  92 125 164 209 257 311 370
#     4  12  26  42  62  91 127 167 210 258 314 368
#     4  10  22  42  64  90 125 166 206 251 310 370
#
# _framework density 18.763138000000001
#
# number of rings (size 3 to 8) (size 9 to 14) (size 15 to 20)
#    0.000    1.286    2.857    2.571    2.000    3.714 
#    0.000    2.857    0.000    0.000    0.000    0.000 
#    0.000    0.000    0.000    0.000    0.000    0.000 
#
# Total GULP energy -156548.077337 kJ/mol
# GULP energy per Si atom -5591.002762 kJ/mol
# Density = 1.872043 g / cm^3
# Si number density = 18.763138 Si / 1000 Ang^3
#
#
#
# Elastic Constant Matrix: (Units=GPa)
#
#
# Indices 1 2 3 4 5 6 
#
# 1 146.3190 50.0013 72.9714 0.0000 0.3935 0.0000
# 2 50.0013 50.0661 37.2739 0.0000 -6.1105 0.0000
# 3 72.9714 37.2739 118.9106 0.0000 -6.7828 0.0000
# 4 0.0000 0.0000 0.0000 33.1482 0.0000 8.5597
# 5 0.3935 -6.1105 -6.7828 0.0000 40.0054 0.0000
# 6 0.0000 0.0000 0.0000 8.5597 0.0000 30.5034
#
#
#
# Elastic Compliance Matrix: (Units=1/GPa)
#
#
# Indices 1 2 3 4 5 6 
#
# 1 0.012349 -0.008969 -0.004899 0.000000 -0.002322 0.000000
# 2 -0.008969 0.032843 -0.004544 0.000000 0.004334 0.000000
# 3 -0.004899 -0.004544 0.012929 0.000000 0.001546 0.000000
# 4 0.000000 0.000000 0.000000 0.032524 0.000000 -0.009127
# 5 -0.002322 0.004334 0.001546 0.000000 0.025944 0.000000
# 6 0.000000 0.000000 0.000000 -0.009127 0.000000 0.035344
#
#
# Mechanical properties :
#
#
# Convention : Reuss Voigt Hill
#
# Bulk Modulus (GPa) = 46.95597 70.64323 58.79960
# Shear Modulus (GPa) = 25.52914 31.06801 28.29857
#
# Velocity S-wave (km/s) = 3.69263 4.07357 3.88777
# Velocity P-wave (km/s) = 6.57729 7.73673 7.18045
#
# Compressibility (1/GPa) = 0.02129655
#
# Stress axis : x y z
#
# Youngs Moduli (GPa) = 80.97966 30.44820 77.34802
#
# Poissons Ratio (x) = 0.27309 0.37893
# Poissons Ratio (y) = 0.72630 0.35145
# Poissons Ratio (z) = 0.39673 0.13835
#
# Static dielectric constant tensor:
#      x y z
#    x 1.628220 0.000000 -0.025890 
#    y 0.000000 1.630860 0.000000 
#    z -0.025890 0.000000 1.629160 
# 
# From -- ./inp_files/363128.got.cif
#   From: 2010.05.17/outbox.cif.g08.bks.cpg/sg12_182_cif.got.tgz:363128.got - 2010.06.03 13:09:07.
