data_PCOD9214378
_publ_section_title
;
Structure prediction by ZEFSAII (Michael W. Deem and Ramdas Pophale) SiO2 
 PCOD9214378
Probable space group: C 2/M
;
_chemical_formula_sum "Si O2"
_cell_formula_units_Z 48
_cell_length_a 10.609505
_cell_length_b 19.769932
_cell_length_c 20.447481
_cell_angle_alpha 90.000000
_cell_angle_beta 27.476467
_cell_angle_gamma 90.000000
_cell_volume 1978.804455
_symmetry_space_group_name_H-M "C 2/M"
_symmetry_group_IT_number 12
_symmetry_cell_setting 'monoclinic'
loop_
_space_group_symop_operation_xyz
x,y,z
-x,y,-z
-x,-y,-z
x,-y,z
1/2+x,1/2+y,z
1/2-x,1/2+y,-z
1/2-x,1/2-y,-z
1/2+x,1/2-y,z
loop_
_atom_site_type_symbol
_atom_site_label
_atom_site_fract_x
_atom_site_fract_y
_atom_site_fract_z
Si Si1 0.811715 0.500000 0.688429
Si Si2 0.832202 0.576672 0.281004
Si Si3 0.874143 0.397637 0.126051
Si Si4 0.669366 0.599183 0.860824
Si Si5 0.611154 0.500000 0.634009
Si Si6 0.674182 0.275149 0.359613
Si Si7 0.199502 0.254990 0.203601
O O1 0.674314 0.562902 0.789279
O O2 0.733694 0.500000 0.649593
O O3 0.143946 0.500000 0.531359
O O4 0.721290 0.500000 0.333325
O O5 0.017192 0.584875 0.129347
O O6 0.643940 0.643283 0.367101
O O7 0.020759 0.587202 0.256896
O O8 0.586711 0.434585 0.273686
O O9 0.842548 0.317418 0.134576
O O10 0.000000 0.422492 0.000000
O O11 0.613380 0.678780 0.882474
O O12 0.500000 0.571647 0.000000
O O13 0.500000 0.248548 0.500000
O O14 0.589138 0.244302 0.329374
O O15 0.983027 0.261460 0.243797
#
# Coordination Sequence:
#
# PCOD9214378 Si02
#       7
#     4   8   8   8   4   8   8
#     4  11  27  45  65  99 136 176 222 272 331 392
#     4  10  22  40  59  97 125 162 228 271 329 375
#     4  11  24  43  70  96 132 176 222 273 329 394
#     4  11  24  43  70  96 132 176 222 273 329 394
#     4  11  27  45  65  99 136 176 222 272 331 392
#     4  10  22  40  63  90 130 179 218 267 336 398
#     4  10  24  42  62 100 129 168 225 280 325 392
#
# _framework density 24.257072000000001
#
# number of rings (size 3 to 8) (size 9 to 14) (size 15 to 20)
#    0.000    1.500    1.667    1.500    4.667    7.000 
#    0.000    5.000    0.000    0.000    0.000    0.000 
#    0.000    0.000    0.000    0.000    0.000    0.000 
#
# Total GULP energy -133913.607790 kJ/mol
# GULP energy per Si atom -5579.733658 kJ/mol
# Density = 2.420186 g / cm^3
# Si number density = 24.257072 Si / 1000 Ang^3
#
#
#
# Elastic Constant Matrix: (Units=GPa)
#
#
# Indices 1 2 3 4 5 6 
#
# 1 86.6231 7.3914 4.8194 0.1049 24.4566 0.0415
# 2 7.3914 157.8527 15.8042 0.1054 4.5663 0.0529
# 3 4.8194 15.8042 106.2492 0.1426 36.3955 0.1028
# 4 0.1049 0.1054 0.1426 4.8610 -0.0403 11.5055
# 5 24.4566 4.5663 36.3955 -0.0403 37.6493 0.0320
# 6 0.0415 0.0529 0.1028 11.5055 0.0320 12.5248
#
#
#
# Elastic Compliance Matrix: (Units=1/GPa)
#
#
# Indices 1 2 3 4 5 6 
#
# 1 0.015291 -0.000732 0.004167 0.000376 -0.013871 -0.000392
# 2 -0.000732 0.006467 -0.001230 0.000035 0.000881 -0.000049
# 3 0.004167 -0.001230 0.015372 0.000379 -0.017417 -0.000438
# 4 0.000376 0.000035 0.000379 -0.175168 -0.000939 0.160911
# 5 -0.013871 0.000881 -0.017417 -0.000939 0.052300 0.000915
# 6 -0.000392 -0.000049 -0.000438 0.160911 0.000915 -0.067971
#
#
# Mechanical properties :
#
#
# Convention : Reuss Voigt Hill
#
# Bulk Modulus (GPa) = 24.07405 45.19501 34.63453
# Shear Modulus (GPa) = -34.65665 32.52102 -1.06781
#
# Velocity S-wave (km/s) = -3.78395 3.66550 -0.66420
# Velocity P-wave (km/s) = 3.02406 6.04869 3.70417
#
# Compressibility (1/GPa) = 0.04153851
#
# Stress axis : x y z
#
# Youngs Moduli (GPa) = 65.39796 154.63111 65.05412
#
# Poissons Ratio (x) = 0.11320 -0.27107
# Poissons Ratio (y) = 0.04787 0.08004
# Poissons Ratio (z) = -0.27250 0.19026
#
# Static dielectric constant tensor:
#      x y z
#    x 2.040130 -0.000020 -0.045580 
#    y -0.000020 1.911190 0.000080 
#    z -0.045580 0.000080 1.981490 
# 
# From -- ./inp_files/306747.got.cif
#   From: 2010.05.17/outbox.cif.g08.bks.cpg/sg12_154_cif.got.tgz:306747.got - 2010.06.03 13:09:07.
