data_PCOD9214705
_publ_section_title
;
Structure prediction by ZEFSAII (Michael W. Deem and Ramdas Pophale) SiO2 
 PCOD9214705
Probable space group: C 2/M
;
_chemical_formula_sum "Si O2"
_cell_formula_units_Z 48
_cell_length_a 9.549253
_cell_length_b 28.720137
_cell_length_c 16.195788
_cell_angle_alpha 90.000000
_cell_angle_beta 34.158811
_cell_angle_gamma 90.000000
_cell_volume 2494.014524
_symmetry_space_group_name_H-M "C 2/M"
_symmetry_group_IT_number 12
_symmetry_cell_setting 'monoclinic'
loop_
_space_group_symop_operation_xyz
x,y,z
-x,y,-z
-x,-y,-z
x,-y,z
1/2+x,1/2+y,z
1/2-x,1/2+y,-z
1/2-x,1/2-y,-z
1/2+x,1/2-y,z
loop_
_atom_site_type_symbol
_atom_site_label
_atom_site_fract_x
_atom_site_fract_y
_atom_site_fract_z
Si Si1 0.707381 0.620421 0.136040
Si Si2 0.201285 0.551287 0.157162
Si Si3 0.238711 0.555191 0.332212
Si Si4 0.489279 0.694519 0.365982
Si Si5 0.745608 0.646166 0.935529
Si Si6 0.133742 0.284775 0.674885
O O1 0.498881 0.580494 0.225671
O O2 0.618294 0.651592 0.256875
O O3 0.692951 0.649999 0.058029
O O4 0.000000 0.606364 0.000000
O O5 0.095857 0.500000 0.187164
O O6 0.170435 0.560688 0.269201
O O7 0.117935 0.596043 0.145674
O O8 0.500000 0.547531 0.000000
O O9 0.268099 0.500000 0.333555
O O10 0.000000 0.572735 0.500000
O O11 0.677508 0.716560 0.340685
O O12 0.250118 0.685693 0.541347
O O13 0.418522 0.733768 0.334457
O O14 0.898285 0.688679 0.825220
O O15 0.500000 0.643287 0.000000
#
# Coordination Sequence:
#
# PCOD9214705 Si02
#       6
#     8   8   8   8   8   8
#     4  12  24  40  60  96 132 161 200 262 326 363
#     4   9  17  34  58  86 118 157 205 248 291 357
#     4  10  22  40  63  93 126 165 214 257 299 369
#     4  10  24  42  64  84 123 161 204 258 310 376
#     4  11  22  37  60  91 120 163 209 247 306 375
#     4  10  23  44  61  88 117 163 208 253 312 371
#
# _framework density 19.246079000000002
#
# number of rings (size 3 to 8) (size 9 to 14) (size 15 to 20)
#    0.000    1.667    5.000    0.000    4.667    1.667 
#    3.000    0.000    0.000    0.000    0.000    5.833 
#    0.000    0.000    0.000    0.000    0.000    0.000 
#
# Total GULP energy -133797.478896 kJ/mol
# GULP energy per Si atom -5574.894954 kJ/mol
# Density = 1.920227 g / cm^3
# Si number density = 19.246079 Si / 1000 Ang^3
#
#
#
# Elastic Constant Matrix: (Units=GPa)
#
#
# Indices 1 2 3 4 5 6 
#
# 1 60.2108 5.9611 17.7560 0.0000 8.8319 0.0000
# 2 5.9611 18.3946 7.3954 0.0000 2.7015 0.0000
# 3 17.7560 7.3954 103.4972 0.0000 6.3744 0.0000
# 4 0.0000 0.0000 0.0000 29.1235 0.0000 14.4278
# 5 8.8319 2.7015 6.3744 0.0000 30.8585 0.0000
# 6 0.0000 0.0000 0.0000 14.4278 0.0000 -44.6428
#
#
#
# Elastic Compliance Matrix: (Units=1/GPa)
#
#
# Indices 1 2 3 4 5 6 
#
# 1 0.018437 -0.004293 -0.002587 0.000000 -0.004366 0.000000
# 2 -0.004293 0.057495 -0.003178 0.000000 -0.003148 0.000000
# 3 -0.002587 -0.003178 0.010403 0.000000 -0.001130 0.000000
# 4 0.000000 0.000000 0.000000 0.029598 0.000000 0.009565
# 5 -0.004366 -0.003148 -0.001130 0.000000 0.034165 0.000000
# 6 0.000000 0.000000 0.000000 0.009565 0.000000 -0.019309
#
#
# Mechanical properties :
#
#
# Convention : Reuss Voigt Hill
#
# Bulk Modulus (GPa) = 15.10170 27.14750 21.12460
# Shear Modulus (GPa) = 28.90539 13.13385 21.01962
#
# Velocity S-wave (km/s) = 3.87962 2.61514 3.30836
# Velocity P-wave (km/s) = 5.28510 4.82232 5.05900
#
# Compressibility (1/GPa) = 0.06621773
#
# Stress axis : x y z
#
# Youngs Moduli (GPa) = 54.23923 17.39277 96.12925
#
# Poissons Ratio (x) = 0.07467 0.24872
# Poissons Ratio (y) = 0.23287 0.30548
# Poissons Ratio (z) = 0.14033 0.05527
#
# Static dielectric constant tensor:
#      x y z
#    x 1.656350 0.000000 -0.005830 
#    y 0.000000 1.698000 0.000000 
#    z -0.005830 0.000000 1.716000 
# 
# From -- ./inp_files/200762.got.cif
#   From: 2010.05.17/outbox.cif.g08.bks.cpg/sg12_101_cif.got.tgz:200762.got - 2010.06.03 13:09:07.
