data_PCOD9214028
_publ_section_title
;
Structure prediction by ZEFSAII (Michael W. Deem and Ramdas Pophale) SiO2 
 PCOD9214028
Probable space group: C 2/M
;
_chemical_formula_sum "Si O2"
_cell_formula_units_Z 50
_cell_length_a 9.803515
_cell_length_b 24.396889
_cell_length_c 13.300870
_cell_angle_alpha 90.000000
_cell_angle_beta 123.973264
_cell_angle_gamma 90.000000
_cell_volume 2638.196587
_symmetry_space_group_name_H-M "C 2/M"
_symmetry_group_IT_number 12
_symmetry_cell_setting 'monoclinic'
loop_
_space_group_symop_operation_xyz
x,y,z
-x,y,-z
-x,-y,-z
x,-y,z
1/2+x,1/2+y,z
1/2-x,1/2+y,-z
1/2-x,1/2-y,-z
1/2+x,1/2-y,z
loop_
_atom_site_type_symbol
_atom_site_label
_atom_site_fract_x
_atom_site_fract_y
_atom_site_fract_z
Si Si1 0.652493 0.285837 0.632045
Si Si2 0.506493 0.247050 0.772345
Si Si3 0.254294 0.589892 0.304391
Si Si4 0.426234 0.357533 0.858254
Si Si5 0.895174 0.371724 0.161391
Si Si6 0.000000 0.000000 0.500000
Si Si7 0.697824 0.435707 0.907405
O O1 0.500000 0.271122 0.500000
O O2 0.629034 0.259120 0.731776
O O3 0.825018 0.267234 0.657004
O O4 0.661288 0.350728 0.652877
O O5 0.479588 0.301834 0.825267
O O6 0.565388 0.191654 0.852220
O O7 0.364955 0.547375 0.410166
O O8 0.245726 0.572613 0.183704
O O9 0.065626 0.599076 0.260746
O O10 0.233929 0.368041 0.799533
O O11 0.517768 0.408174 0.842986
O O12 0.500000 0.353774 0.000000
O O13 0.812206 0.403683 0.034248
O O14 0.694196 0.500000 0.930023
#
# Coordination Sequence:
#
# PCOD9214028 Si02
#       7
#     8   8   8   8   8   2   8
#     4  11  22  38  61  91 119 166 214 258 310 376
#     4  11  21  39  62  89 128 163 204 264 318 381
#     4  11  23  40  66  91 124 161 215 258 311 367
#     4  10  22  39  61  91 128 164 199 252 324 387
#     4  10  24  39  62  97 126 162 207 260 322 376
#     4  12  24  44  66  90 128 168 208 268 304 354
#     4  11  23  41  65  91 123 168 212 263 316 379
#
# _framework density 18.952338999999998
#
# number of rings (size 3 to 8) (size 9 to 14) (size 15 to 20)
#    0.000    1.280    4.800    0.960    1.120    8.640 
#    0.000    0.000    0.000    0.960    0.000    0.000 
#    0.000    0.000    0.000    0.000    0.000    0.000 
#
# Total GULP energy -139244.521572 kJ/mol
# GULP energy per Si atom -5569.780863 kJ/mol
# Density = 1.890920 g / cm^3
# Si number density = 18.952339 Si / 1000 Ang^3
#
#
#
# Elastic Constant Matrix: (Units=GPa)
#
#
# Indices 1 2 3 4 5 6 
#
# 1 101.6583 40.3112 32.8221 0.0000 18.4215 0.0000
# 2 40.3112 129.5825 30.8692 0.0000 11.1988 0.0000
# 3 32.8221 30.8692 33.2347 0.0000 13.5863 0.0000
# 4 0.0000 0.0000 0.0000 26.4202 0.0000 8.9726
# 5 18.4215 11.1988 13.5863 0.0000 21.6073 0.0000
# 6 0.0000 0.0000 0.0000 8.9726 0.0000 14.8492
#
#
#
# Elastic Compliance Matrix: (Units=1/GPa)
#
#
# Indices 1 2 3 4 5 6 
#
# 1 0.015007 -0.001529 -0.011433 0.000000 -0.004813 0.000000
# 2 -0.001529 0.010078 -0.008410 0.000000 0.001368 0.000000
# 3 -0.011433 -0.008410 0.058449 0.000000 -0.022646 0.000000
# 4 0.000000 0.000000 0.000000 0.047622 0.000000 -0.028776
# 5 -0.004813 0.001368 -0.022646 0.000000 0.063914 0.000000
# 6 0.000000 0.000000 0.000000 -0.028776 0.000000 0.084732
#
#
# Mechanical properties :
#
#
# Convention : Reuss Voigt Hill
#
# Bulk Modulus (GPa) = 24.51583 52.49784 38.50684
# Shear Modulus (GPa) = 14.87472 23.27355 19.07413
#
# Velocity S-wave (km/s) = 2.80455 3.50809 3.17586
# Velocity P-wave (km/s) = 4.84262 6.64598 5.81463
#
# Compressibility (1/GPa) = 0.04078997
#
# Stress axis : x y z
#
# Youngs Moduli (GPa) = 66.63779 99.22711 17.10898
#
# Poissons Ratio (x) = 0.15170 0.19560
# Poissons Ratio (y) = 0.10188 0.14389
# Poissons Ratio (z) = 0.76185 0.83451
#
# Static dielectric constant tensor:
#      x y z
#    x 1.690400 0.000000 0.024250 
#    y 0.000000 1.652760 0.000000 
#    z 0.024250 0.000000 1.646910 
# 
# From -- ./inp_files/198553.got.cif
#   From: 2010.05.17/outbox.cif.g08.bks.cpg/sg12_100_cif.got.tgz:198553.got - 2010.06.03 13:09:07.
