data_PCOD9214157
_publ_section_title
;
Structure prediction by ZEFSAII (Michael W. Deem and Ramdas Pophale) SiO2 
 PCOD9214157
Probable space group: C 2/M
;
_chemical_formula_sum "Si O2"
_cell_formula_units_Z 64
_cell_length_a 28.490091
_cell_length_b 14.255593
_cell_length_c 11.469320
_cell_angle_alpha 90.000000
_cell_angle_beta 41.455397
_cell_angle_gamma 90.000000
_cell_volume 3083.890368
_symmetry_space_group_name_H-M "C 2/M"
_symmetry_group_IT_number 12
_symmetry_cell_setting 'monoclinic'
loop_
_space_group_symop_operation_xyz
x,y,z
-x,y,-z
-x,-y,-z
x,-y,z
1/2+x,1/2+y,z
1/2-x,1/2+y,-z
1/2-x,1/2-y,-z
1/2+x,1/2-y,z
loop_
_atom_site_type_symbol
_atom_site_label
_atom_site_fract_x
_atom_site_fract_y
_atom_site_fract_z
Si Si1 0.380568 0.605451 0.125902
Si Si2 0.433464 0.260582 0.695020
Si Si3 0.351772 0.889994 0.699282
Si Si4 0.617895 0.804463 0.602133
Si Si5 0.671646 0.606131 0.512083
Si Si6 0.330418 0.109999 0.267020
Si Si7 0.040638 0.714858 0.086308
Si Si8 0.310026 0.389122 0.012659
O O1 0.409026 0.500000 0.055062
O O2 0.344112 0.607694 0.319490
O O3 0.439897 0.684656 0.005901
O O4 0.326313 0.625181 0.120594
O O5 0.500000 0.300056 0.500000
O O6 0.403075 0.171837 0.682235
O O7 0.458031 0.229367 0.777341
O O8 0.369681 0.333233 0.832397
O O9 0.369236 0.869858 0.531965
O O10 0.358383 0.000000 0.712104
O O11 0.269763 0.860700 0.868977
O O12 0.630040 0.696154 0.541772
O O13 0.668619 0.831647 0.614676
O O14 0.538172 0.816585 0.797831
O O15 0.653533 0.500000 0.504754
O O16 0.755623 0.622020 0.341111
O O17 0.337439 0.000000 0.281799
O O18 0.396428 0.145904 0.068603
O O19 0.316307 0.500000 0.979593
#
# Coordination Sequence:
#
# PCOD9214157 Si02
#       8
#     8   8   8   8   8   8   8   8
#     4   9  18  36  62  91 125 161 199 247 305 373
#     4  11  23  44  63  88 124 163 205 252 311 365
#     4  11  24  42  65  92 120 164 211 251 297 361
#     4  12  23  39  63  92 127 161 203 252 300 362
#     4  10  22  39  63  93 126 161 200 248 309 367
#     4  11  24  40  60  92 125 162 203 249 306 361
#     4  11  24  39  60  90 123 165 203 249 308 363
#     4   9  20  39  67  96 119 154 209 257 307 361
#
# _framework density 20.753007
#
# number of rings (size 3 to 8) (size 9 to 14) (size 15 to 20)
#    0.000    1.500    2.500    2.250    3.500    5.000 
#    0.000    1.875    0.000    0.000    0.000    0.000 
#    0.000    0.000    0.000    0.000    0.000    0.000 
#
# Total GULP energy -178897.350455 kJ/mol
# GULP energy per Si atom -5590.542202 kJ/mol
# Density = 2.070577 g / cm^3
# Si number density = 20.753007 Si / 1000 Ang^3
#
#
#
# Elastic Constant Matrix: (Units=GPa)
#
#
# Indices 1 2 3 4 5 6 
#
# 1 19.6502 -5.4351 8.8573 0.0000 -2.5939 0.0000
# 2 -5.4351 47.7459 16.9621 0.0000 -7.4735 0.0000
# 3 8.8573 16.9621 86.9211 0.0000 -17.5519 0.0000
# 4 0.0000 0.0000 0.0000 1.0828 0.0000 18.6818
# 5 -2.5939 -7.4735 -17.5519 0.0000 17.1101 0.0000
# 6 0.0000 0.0000 0.0000 18.6818 0.0000 7.7082
#
#
#
# Elastic Compliance Matrix: (Units=1/GPa)
#
#
# Indices 1 2 3 4 5 6 
#
# 1 0.057367 0.009826 -0.006483 0.000000 0.006338 0.000000
# 2 0.009826 0.024816 -0.004231 0.000000 0.007989 0.000000
# 3 -0.006483 -0.004231 0.015664 0.000000 0.013238 0.000000
# 4 0.000000 0.000000 0.000000 -0.022627 0.000000 0.054840
# 5 0.006338 0.007989 0.013238 0.000000 0.076475 0.000000
# 6 0.000000 0.000000 0.000000 0.054840 0.000000 -0.003179
#
#
# Mechanical properties :
#
#
# Convention : Reuss Voigt Hill
#
# Bulk Modulus (GPa) = 10.40908 21.67620 16.04264
# Shear Modulus (GPa) = 27.42488 14.10909 20.76699
#
# Velocity S-wave (km/s) = 3.63917 2.61024 3.16677
# Velocity P-wave (km/s) = 4.76285 4.42176 4.59547
#
# Compressibility (1/GPa) = 0.09606999
#
# Stress axis : x y z
#
# Youngs Moduli (GPa) = 17.43171 40.29629 63.84067
#
# Poissons Ratio (x) = -0.39593 0.41389
# Poissons Ratio (y) = -0.17128 0.27009
# Poissons Ratio (z) = 0.11301 0.17048
#
# Static dielectric constant tensor:
#      x y z
#    x 1.741730 0.000000 -0.010540 
#    y 0.000000 1.732260 0.000000 
#    z -0.010540 0.000000 1.736400 
# 
# From -- ./inp_files/183752.got.cif
#   From: 2010.05.17/outbox.cif.g08.bks.cpg/sg12_92_cif.got.tgz:183752.got - 2010.06.03 13:09:07.
