data_PCOD9214746
_publ_section_title
;
Structure prediction by ZEFSAII (Michael W. Deem and Ramdas Pophale) SiO2 
 PCOD9214746
Probable space group: C 2/M
;
_chemical_formula_sum "Si O2"
_cell_formula_units_Z 40
_cell_length_a 19.553504
_cell_length_b 22.446004
_cell_length_c 8.728178
_cell_angle_alpha 90.000000
_cell_angle_beta 149.182961
_cell_angle_gamma 90.000000
_cell_volume 1962.502088
_symmetry_space_group_name_H-M "C 2/M"
_symmetry_group_IT_number 12
_symmetry_cell_setting 'monoclinic'
loop_
_space_group_symop_operation_xyz
x,y,z
-x,y,-z
-x,-y,-z
x,-y,z
1/2+x,1/2+y,z
1/2-x,1/2+y,-z
1/2-x,1/2-y,-z
1/2+x,1/2-y,z
loop_
_atom_site_type_symbol
_atom_site_label
_atom_site_fract_x
_atom_site_fract_y
_atom_site_fract_z
Si Si1 0.252501 0.928212 0.841117
Si Si2 0.618913 0.737661 0.848868
Si Si3 0.025749 0.649930 0.870863
Si Si4 0.998772 0.068543 0.165174
Si Si5 0.751455 0.118770 0.824368
O O1 0.108290 0.908661 0.496593
O O2 0.259858 0.000000 0.869388
O O3 0.365141 0.901795 0.946304
O O4 0.272844 0.898823 0.046357
O O5 0.500000 0.728360 0.500000
O O6 0.579836 0.791712 0.885591
O O7 0.750000 0.750000 0.000000
O O8 0.658130 0.678081 0.013337
O O9 0.887592 0.629654 0.526569
O O10 0.000000 0.661386 0.000000
O O11 0.041798 0.000000 0.227378
O O12 0.000000 0.097905 0.000000
O O13 0.849227 0.070279 0.939925
#
# Coordination Sequence:
#
# PCOD9214746 Si02
#       5
#     8   8   8   8   8
#     4  11  23  42  68  96 128 172 219 263 316 384
#     4  12  23  45  68  93 128 166 212 267 317 380
#     4  12  27  44  63  96 132 168 215 267 327 385
#     4  10  22  40  63  97 134 167 211 265 320 378
#     4  12  24  41  69  92 129 169 217 268 318 383
#
# _framework density 20.382144
#
# number of rings (size 3 to 8) (size 9 to 14) (size 15 to 20)
#    0.000    0.600    4.000    4.200    0.000    6.000 
#    0.000    0.000    0.000    0.000    0.000    0.000 
#    0.000    0.000    0.000    0.000    0.000    0.000 
#
# Total GULP energy -111760.123027 kJ/mol
# GULP energy per Si atom -5588.006151 kJ/mol
# Density = 2.033575 g / cm^3
# Si number density = 20.382144 Si / 1000 Ang^3
#
#
#
# Elastic Constant Matrix: (Units=GPa)
#
#
# Indices 1 2 3 4 5 6 
#
# 1 127.5743 17.0234 48.8853 0.0000 -4.2625 0.0000
# 2 17.0234 75.9002 37.4885 0.0000 -3.1496 0.0000
# 3 48.8853 37.4885 136.3594 0.0000 9.2929 0.0000
# 4 0.0000 0.0000 0.0000 17.8993 0.0000 12.4728
# 5 -4.2625 -3.1496 9.2929 0.0000 32.6245 0.0000
# 6 0.0000 0.0000 0.0000 12.4728 0.0000 32.1697
#
#
#
# Elastic Compliance Matrix: (Units=1/GPa)
#
#
# Indices 1 2 3 4 5 6 
#
# 1 0.009245 -0.000319 -0.003372 0.000000 0.002138 0.000000
# 2 -0.000319 0.015497 -0.004329 0.000000 0.002687 0.000000
# 3 -0.003372 -0.004329 0.009985 0.000000 -0.003703 0.000000
# 4 0.000000 0.000000 0.000000 0.076550 0.000000 -0.029680
# 5 0.002138 0.002687 -0.003703 0.000000 0.032245 0.000000
# 6 0.000000 0.000000 0.000000 -0.029680 0.000000 0.042592
#
#
# Mechanical properties :
#
#
# Convention : Reuss Voigt Hill
#
# Bulk Modulus (GPa) = 53.51783 60.73647 57.12715
# Shear Modulus (GPa) = 23.99426 32.30115 28.14770
#
# Velocity S-wave (km/s) = 3.43479 3.98524 3.72021
# Velocity P-wave (km/s) = 6.48418 7.14421 6.82218
#
# Compressibility (1/GPa) = 0.01868536
#
# Stress axis : x y z
#
# Youngs Moduli (GPa) = 108.16910 64.53058 100.14999
#
# Poissons Ratio (x) = 0.02060 0.33773
# Poissons Ratio (y) = 0.03452 0.43356
# Poissons Ratio (z) = 0.36477 0.27936
#
# Static dielectric constant tensor:
#      x y z
#    x 1.728750 0.000000 0.006660 
#    y 0.000000 1.861820 0.000000 
#    z 0.006660 0.000000 1.704630 
# 
# From -- ./inp_files/39244.got.cif
#   From: 2010.05.17/outbox.cif.g08.bks.cpg/sg12_20_cif.got.tgz:39244.got - 2010.06.03 13:09:07.
