data_PCOD9214651
_publ_section_title
;
Structure prediction by ZEFSAII (Michael W. Deem and Ramdas Pophale) SiO2 
 PCOD9214651
Probable space group: C 2/M
;
_chemical_formula_sum "Si O2"
_cell_formula_units_Z 64
_cell_length_a 14.547170
_cell_length_b 8.580877
_cell_length_c 29.770989
_cell_angle_alpha 90.000000
_cell_angle_beta 57.957155
_cell_angle_gamma 90.000000
_cell_volume 3150.074575
_symmetry_space_group_name_H-M "C 2/M"
_symmetry_group_IT_number 12
_symmetry_cell_setting 'monoclinic'
loop_
_space_group_symop_operation_xyz
x,y,z
-x,y,-z
-x,-y,-z
x,-y,z
1/2+x,1/2+y,z
1/2-x,1/2+y,-z
1/2-x,1/2-y,-z
1/2+x,1/2-y,z
loop_
_atom_site_type_symbol
_atom_site_label
_atom_site_fract_x
_atom_site_fract_y
_atom_site_fract_z
Si Si1 0.690506 0.184612 0.148711
Si Si2 0.151970 0.686446 0.495231
Si Si3 0.157374 0.320140 0.763743
Si Si4 0.120162 0.317727 0.313567
Si Si5 0.086713 0.185861 0.419907
Si Si6 0.849215 0.314082 0.945480
Si Si7 0.571802 0.683368 0.874509
Si Si8 0.992704 0.817633 0.740273
O O1 0.670748 0.223004 0.101915
O O2 0.816327 0.209194 0.128040
O O3 0.612532 0.281093 0.201650
O O4 0.665968 0.000000 0.162036
O O5 0.148626 0.500000 0.498384
O O6 0.250000 0.750000 0.500000
O O7 0.157079 0.740238 0.441943
O O8 0.036945 0.755159 0.541734
O O9 0.191136 0.500000 0.755876
O O10 0.262081 0.210773 0.738729
O O11 0.082822 0.280968 0.825733
O O12 0.089515 0.280314 0.737082
O O13 0.096695 0.500000 0.323170
O O14 0.123462 0.240704 0.361528
O O15 0.034936 0.235561 0.302768
O O16 0.089719 0.000000 0.423035
O O17 0.855555 0.500000 0.948438
O O18 0.964359 0.237724 0.927867
O O19 0.750000 0.250000 0.000000
O O20 0.563614 0.500000 0.865864
O O21 0.018064 0.000000 0.735623
#
# Coordination Sequence:
#
# PCOD9214651 Si02
#       8
#     8   8   8   8   8   8   8   8
#     4  10  22  40  63  88 122 161 201 250 310 374
#     4  11  22  41  68  98 130 173 220 265 320 379
#     4  12  24  40  62  92 126 165 210 257 311 375
#     4  12  25  43  64  93 132 170 212 265 320 376
#     4  11  23  42  65  96 132 170 215 268 322 378
#     4  11  24  42  63  89 123 161 205 260 318 373
#     4  11  22  39  64  91 120 158 203 252 310 374
#     4  12  24  39  63  93 124 165 211 256 310 376
#
# _framework density 20.316980999999998
#
# number of rings (size 3 to 8) (size 9 to 14) (size 15 to 20)
#    0.000    0.750    2.500    7.125    0.000    2.500 
#    0.000    7.500    0.000    0.000    0.000    0.000 
#    0.000    0.000    0.000    0.000    0.000    0.000 
#
# Total GULP energy -179091.465259 kJ/mol
# GULP energy per Si atom -5596.608289 kJ/mol
# Density = 2.027074 g / cm^3
# Si number density = 20.316981 Si / 1000 Ang^3
#
#
#
# Elastic Constant Matrix: (Units=GPa)
#
#
# Indices 1 2 3 4 5 6 
#
# 1 71.4818 5.8853 -9.8144 0.0000 14.2803 0.0000
# 2 5.8853 100.2497 9.1922 0.0000 10.2239 0.0000
# 3 -9.8144 9.1922 38.7804 0.0000 10.7972 0.0000
# 4 0.0000 0.0000 0.0000 34.9340 0.0000 -0.8374
# 5 14.2803 10.2239 10.7972 0.0000 20.0583 0.0000
# 6 0.0000 0.0000 0.0000 -0.8374 0.0000 31.4165
#
#
#
# Elastic Compliance Matrix: (Units=1/GPa)
#
#
# Indices 1 2 3 4 5 6 
#
# 1 0.019223 -0.000115 0.010217 0.000000 -0.019127 0.000000
# 2 -0.000115 0.010569 -0.001243 0.000000 -0.004636 0.000000
# 3 0.010217 -0.001243 0.035895 0.000000 -0.025963 0.000000
# 4 0.000000 0.000000 0.000000 0.028644 0.000000 0.000764
# 5 -0.019127 -0.004636 -0.025963 0.000000 0.079810 0.000000
# 6 0.000000 0.000000 0.000000 0.000764 0.000000 0.031851
#
#
# Mechanical properties :
#
#
# Convention : Reuss Voigt Hill
#
# Bulk Modulus (GPa) = 11.98961 24.55978 18.27469
# Shear Modulus (GPa) = 23.14013 30.96502 27.05257
#
# Velocity S-wave (km/s) = 3.37850 3.90820 3.65297
# Velocity P-wave (km/s) = 4.59708 5.69912 5.17750
#
# Compressibility (1/GPa) = 0.08340557
#
# Stress axis : x y z
#
# Youngs Moduli (GPa) = 52.02100 94.61961 27.85884
#
# Poissons Ratio (x) = 0.01085 -0.28465
# Poissons Ratio (y) = 0.00597 0.03464
# Poissons Ratio (z) = -0.53152 0.11765
#
# Static dielectric constant tensor:
#      x y z
#    x 1.721750 0.000000 -0.004760 
#    y 0.000000 1.682100 0.000000 
#    z -0.004760 0.000000 1.741260 
# 
# From -- ./inp_files/375009.got.cif
#   From: 2010.05.17/outbox.cif.g08.bks.cpg/sg12_188_cif.got.tgz:375009.got - 2010.06.03 13:09:07.
