data_PCOD9214764
_publ_section_title
;
Structure prediction by ZEFSAII (Michael W. Deem and Ramdas Pophale) SiO2 
 PCOD9214764
Probable space group: C 2/M
;
_chemical_formula_sum "Si O2"
_cell_formula_units_Z 40
_cell_length_a 24.551840
_cell_length_b 7.334867
_cell_length_c 28.323583
_cell_angle_alpha 90.000000
_cell_angle_beta 160.593550
_cell_angle_gamma 90.000000
_cell_volume 1694.775192
_symmetry_space_group_name_H-M "C 2/M"
_symmetry_group_IT_number 12
_symmetry_cell_setting 'monoclinic'
loop_
_space_group_symop_operation_xyz
x,y,z
-x,y,-z
-x,-y,-z
x,-y,z
1/2+x,1/2+y,z
1/2-x,1/2+y,-z
1/2-x,1/2-y,-z
1/2+x,1/2-y,z
loop_
_atom_site_type_symbol
_atom_site_label
_atom_site_fract_x
_atom_site_fract_y
_atom_site_fract_z
Si Si1 0.513912 0.779369 0.784347
Si Si2 0.163291 0.217758 0.517981
Si Si3 0.657140 0.205931 0.998717
Si Si4 0.663265 0.500000 0.164495
Si Si5 0.700615 0.718078 0.791259
Si Si6 0.665371 0.000000 0.603501
O O1 0.325709 0.731590 0.621498
O O2 0.655824 0.701705 0.867746
O O3 0.532448 0.000000 0.797918
O O4 0.555879 0.716229 0.872273
O O5 0.167350 0.326639 0.570396
O O6 0.988836 0.259956 0.351775
O O7 0.170299 0.000000 0.531872
O O8 0.678833 0.284294 0.068525
O O9 0.595089 0.000000 0.954229
O O10 0.757486 0.321171 0.222303
O O11 0.681226 0.500000 0.235219
O O12 0.500000 0.500000 0.000000
O O13 0.716938 0.500000 0.800299
O O14 0.500000 0.000000 0.500000
#
# Coordination Sequence:
#
# PCOD9214764 Si02
#       6
#     8   8   8   4   8   4
#     4   9  19  35  56  88 119 159 204 243 301 364
#     4  10  22  40  64  90 122 160 203 251 306 362
#     4   9  19  35  56  86 122 160 199 247 301 359
#     4  12  28  44  62  96 120 160 212 254 312 362
#     4  10  22  42  63  88 125 159 200 255 306 362
#     4  12  24  44  64  92 122 158 210 258 302 368
#
# _framework density 23.601952000000001
#
# number of rings (size 3 to 8) (size 9 to 14) (size 15 to 20)
#    0.000    2.000    2.000    0.000    5.600    2.400 
#    0.000    0.000    0.000    0.000    0.000    0.000 
#    0.000    0.000    0.000    0.000    0.000    0.000 
#
# Total GULP energy -111724.488707 kJ/mol
# GULP energy per Si atom -5586.224435 kJ/mol
# Density = 2.354823 g / cm^3
# Si number density = 23.601952 Si / 1000 Ang^3
#
#
#
# Elastic Constant Matrix: (Units=GPa)
#
#
# Indices 1 2 3 4 5 6 
#
# 1 29.3377 -7.1947 -11.7641 -0.0010 -17.9864 0.0011
# 2 -7.1947 76.4340 3.8321 0.0010 -3.6205 -0.0012
# 3 -11.7641 3.8321 96.9380 0.0015 -8.1301 0.0060
# 4 -0.0010 0.0010 0.0015 16.3709 0.0009 1.6396
# 5 -17.9864 -3.6205 -8.1301 0.0009 49.1479 0.0023
# 6 0.0011 -0.0012 0.0060 1.6396 0.0023 31.0528
#
#
#
# Elastic Compliance Matrix: (Units=1/GPa)
#
#
# Indices 1 2 3 4 5 6 
#
# 1 0.050925 0.005371 0.007670 0.000001 0.020301 -0.000005
# 2 0.005371 0.013714 0.000364 -0.000001 0.003036 0.000000
# 3 0.007670 0.000364 0.011631 -0.000001 0.004758 -0.000003
# 4 0.000001 -0.000001 -0.000001 0.061409 -0.000001 -0.003242
# 5 0.020301 0.003036 0.004758 -0.000001 0.028787 -0.000004
# 6 -0.000005 0.000000 -0.000003 -0.003242 -0.000004 0.032374
#
#
# Mechanical properties :
#
#
# Convention : Reuss Voigt Hill
#
# Bulk Modulus (GPa) = 9.70110 19.16181 14.43145
# Shear Modulus (GPa) = 24.22591 33.83675 29.03133
#
# Velocity S-wave (km/s) = 3.20728 3.79045 3.51100
# Velocity P-wave (km/s) = 4.22312 5.22428 4.75015
#
# Compressibility (1/GPa) = 0.10308112
#
# Stress axis : x y z
#
# Youngs Moduli (GPa) = 19.63675 72.91686 85.97418
#
# Poissons Ratio (x) = -0.39161 -0.65946
# Poissons Ratio (y) = -0.10546 -0.03132
# Poissons Ratio (z) = -0.15062 -0.02656
#
# Static dielectric constant tensor:
#      x y z
#    x 1.856900 0.000000 0.026410 
#    y 0.000000 1.866370 0.000000 
#    z 0.026410 0.000000 1.923370 
# 
# From -- ./inp_files/101139.got.cif
#   From: 2010.05.17/outbox.cif.g08.bks.cpg/sg12_51_cif.got.tgz:101139.got - 2010.06.03 13:09:07.
