data_PCOD9214887
_publ_section_title
;
Structure prediction by ZEFSAII (Michael W. Deem and Ramdas Pophale) SiO2 
 PCOD9214887
Probable space group: C 2/M
;
_chemical_formula_sum "Si O2"
_cell_formula_units_Z 64
_cell_length_a 20.444807
_cell_length_b 8.917967
_cell_length_c 31.652085
_cell_angle_alpha 90.000000
_cell_angle_beta 143.592651
_cell_angle_gamma 90.000000
_cell_volume 3425.217146
_symmetry_space_group_name_H-M "C 2/M"
_symmetry_group_IT_number 12
_symmetry_cell_setting 'monoclinic'
loop_
_space_group_symop_operation_xyz
x,y,z
-x,y,-z
-x,-y,-z
x,-y,z
1/2+x,1/2+y,z
1/2-x,1/2+y,-z
1/2-x,1/2-y,-z
1/2+x,1/2-y,z
loop_
_atom_site_type_symbol
_atom_site_label
_atom_site_fract_x
_atom_site_fract_y
_atom_site_fract_z
Si Si1 0.300171 0.820104 0.683988
Si Si2 0.343592 0.679243 0.309977
Si Si3 0.692923 0.821612 0.150588
Si Si4 0.969382 0.179114 0.062464
Si Si5 0.764493 0.679471 0.101680
Si Si6 0.770999 0.178446 0.578327
Si Si7 0.474496 0.679553 0.164922
Si Si8 0.922741 0.321802 0.588799
O O1 0.212183 0.779429 0.674571
O O2 0.266488 0.757490 0.621041
O O3 0.417097 0.750925 0.758181
O O4 0.308985 0.000000 0.687403
O O5 0.363632 0.500000 0.320403
O O6 0.257215 0.711332 0.227544
O O7 0.457029 0.763231 0.360211
O O8 0.568500 0.763119 0.090781
O O9 0.752367 0.740099 0.142779
O O10 0.693881 0.000000 0.144337
O O11 0.972455 0.214690 0.113866
O O12 0.985893 0.000000 0.065999
O O13 0.850263 0.216756 0.981550
O O14 0.777521 0.500000 0.108307
O O15 0.866434 0.754792 0.130963
O O16 0.873340 0.240347 0.604235
O O17 0.662568 0.209925 0.493771
O O18 0.781118 0.000000 0.588808
O O19 0.477051 0.500000 0.170957
O O20 0.923331 0.500000 0.596275
#
# Coordination Sequence:
#
# PCOD9214887 Si02
#       8
#     8   8   8   8   8   8   8   8
#     4  11  23  41  63  89 121 161 203 245 300 359
#     4  10  23  41  61  87 122 161 202 250 300 354
#     4  11  23  40  61  88 121 159 204 252 303 357
#     4  10  22  41  63  87 119 158 200 250 307 362
#     4  11  24  40  60  88 121 158 202 251 303 363
#     4  10  22  41  64  93 127 160 198 247 296 351
#     4  11  23  40  62  89 120 157 201 251 304 357
#     4  10  22  40  65  94 124 161 202 244 296 353
#
# _framework density 18.684947999999999
#
# number of rings (size 3 to 8) (size 9 to 14) (size 15 to 20)
#    0.000    1.500    1.250    3.000    1.750    7.000 
#    0.000    2.500    0.000    0.000    0.000    0.000 
#    0.000    0.000    0.000    0.000    0.000    0.000 
#
# Total GULP energy -178946.610503 kJ/mol
# GULP energy per Si atom -5592.081578 kJ/mol
# Density = 1.864242 g / cm^3
# Si number density = 18.684948 Si / 1000 Ang^3
#
#
#
# Elastic Constant Matrix: (Units=GPa)
#
#
# Indices 1 2 3 4 5 6 
#
# 1 70.7365 29.2004 24.9651 0.0000 7.1004 0.0000
# 2 29.2004 43.3363 33.5360 0.0000 0.3415 0.0000
# 3 24.9651 33.5360 61.9766 0.0000 2.4350 0.0000
# 4 0.0000 0.0000 0.0000 32.0696 0.0000 3.4845
# 5 7.1004 0.3415 2.4350 0.0000 40.5534 0.0000
# 6 0.0000 0.0000 0.0000 3.4845 0.0000 37.7660
#
#
#
# Elastic Compliance Matrix: (Units=1/GPa)
#
#
# Indices 1 2 3 4 5 6 
#
# 1 0.020086 -0.012642 -0.001119 0.000000 -0.003343 0.000000
# 2 -0.012642 0.047693 -0.020835 0.000000 0.003063 0.000000
# 3 -0.001119 -0.020835 0.027911 0.000000 -0.001305 0.000000
# 4 0.000000 0.000000 0.000000 0.031498 0.000000 -0.002906
# 5 -0.003343 0.003063 -0.001305 0.000000 0.025297 0.000000
# 6 0.000000 0.000000 0.000000 -0.002906 0.000000 0.026747
#
#
# Mechanical properties :
#
#
# Convention : Reuss Voigt Hill
#
# Bulk Modulus (GPa) = 37.73834 39.05027 38.39430
# Shear Modulus (GPa) = 19.43593 27.96766 23.70180
#
# Velocity S-wave (km/s) = 3.22870 3.87305 3.56546
# Velocity P-wave (km/s) = 5.84298 6.39886 6.12722
#
# Compressibility (1/GPa) = 0.02649825
#
# Stress axis : x y z
#
# Youngs Moduli (GPa) = 49.78550 20.96765 35.82822
#
# Poissons Ratio (x) = 0.26507 0.04009
# Poissons Ratio (y) = 0.62939 0.74647
# Poissons Ratio (z) = 0.05571 0.43686
#
# Static dielectric constant tensor:
#      x y z
#    x 1.608590 0.000000 -0.012670 
#    y 0.000000 1.622620 0.000000 
#    z -0.012670 0.000000 1.624880 
# 
# From -- ./inp_files/378525.got.cif
#   From: 2010.05.17/outbox.cif.g08.bks.cpg/sg12_190_cif.got.tgz:378525.got - 2010.06.03 13:09:07.
