data_PCOD9214300
_publ_section_title
;
Structure prediction by ZEFSAII (Michael W. Deem and Ramdas Pophale) SiO2 
 PCOD9214300
Probable space group: C 2/M
;
_chemical_formula_sum "Si O2"
_cell_formula_units_Z 48
_cell_length_a 17.830242
_cell_length_b 14.294571
_cell_length_c 17.647370
_cell_angle_alpha 90.000000
_cell_angle_beta 31.029776
_cell_angle_gamma 90.000000
_cell_volume 2318.585390
_symmetry_space_group_name_H-M "C 2/M"
_symmetry_group_IT_number 12
_symmetry_cell_setting 'monoclinic'
loop_
_space_group_symop_operation_xyz
x,y,z
-x,y,-z
-x,-y,-z
x,-y,z
1/2+x,1/2+y,z
1/2-x,1/2+y,-z
1/2-x,1/2-y,-z
1/2+x,1/2-y,z
loop_
_atom_site_type_symbol
_atom_site_label
_atom_site_fract_x
_atom_site_fract_y
_atom_site_fract_z
Si Si1 0.002606 0.000000 0.765803
Si Si2 0.274356 0.000000 0.416803
Si Si3 0.874288 0.677553 0.414961
Si Si4 0.865361 0.000000 0.176112
Si Si5 0.168294 0.326569 0.376357
Si Si6 0.054643 0.500000 0.866273
Si Si7 0.558296 0.787735 0.865346
Si Si8 0.095437 0.795416 0.144622
O O1 0.910481 0.094445 0.836167
O O2 0.072990 0.000000 0.790073
O O3 0.124100 0.000000 0.593728
O O4 0.360495 0.909875 0.372130
O O5 0.287154 0.000000 0.314276
O O6 0.750000 0.750000 0.500000
O O7 0.843150 0.644815 0.525997
O O8 0.019425 0.736699 0.277424
O O9 0.761184 0.090959 0.256051
O O10 0.000000 0.000000 0.000000
O O11 0.268516 0.233718 0.283467
O O12 0.000000 0.314602 0.500000
O O13 0.009062 0.393097 0.886848
O O14 0.000000 0.500000 0.000000
O O15 0.495213 0.722298 0.854154
O O16 0.500000 0.766657 0.000000
O O17 0.250000 0.750000 0.000000
#
# Coordination Sequence:
#
# PCOD9214300 Si02
#       8
#     4   4   8   4   8   4   8   8
#     4  12  24  43  69 102 138 182 229 288 357 423
#     4  12  18  38  74  94 131 184 234 284 342 413
#     4  12  21  42  68  96 133 183 236 288 348 412
#     4  12  23  42  70  96 143 186 224 282 360 425
#     4  12  25  41  67 102 136 182 238 285 349 427
#     4  10  22  39  69  98 129 180 239 280 342 407
#     4  11  23  44  65  95 138 184 224 290 355 408
#     4  12  27  43  70 103 139 179 234 293 353 417
#
# _framework density 20.702279000000001
#
# number of rings (size 3 to 8) (size 9 to 14) (size 15 to 20)
#    0.000    0.333    8.333    0.750    2.333    1.333 
#    0.000    0.417    0.000    0.000    0.000    0.000 
#    0.000    0.000    0.000    0.000    0.000    0.000 
#
# Total GULP energy -133763.875035 kJ/mol
# GULP energy per Si atom -5573.494793 kJ/mol
# Density = 2.065516 g / cm^3
# Si number density = 20.702279 Si / 1000 Ang^3
#
#
#
# Elastic Constant Matrix: (Units=GPa)
#
#
# Indices 1 2 3 4 5 6 
#
# 1 48.5574 0.0856 42.0192 0.0001 8.2971 0.0000
# 2 0.0856 158.3029 36.8314 0.0002 -6.8395 0.0000
# 3 42.0192 36.8314 168.3151 0.0006 11.3153 -0.0001
# 4 0.0001 0.0002 0.0006 27.9287 -0.0002 3.8163
# 5 8.2971 -6.8395 11.3153 -0.0002 49.0150 0.0000
# 6 0.0000 0.0000 -0.0001 3.8163 0.0000 12.4275
#
#
#
# Elastic Compliance Matrix: (Units=1/GPa)
#
#
# Indices 1 2 3 4 5 6 
#
# 1 0.027020 0.001466 -0.006879 0.000000 -0.002781 0.000000
# 2 0.001466 0.006816 -0.001935 0.000000 0.001150 0.000000
# 3 -0.006879 -0.001935 0.008148 0.000000 -0.000987 0.000000
# 4 0.000000 0.000000 0.000000 0.037374 0.000000 -0.011477
# 5 -0.002781 0.001150 -0.000987 0.000000 0.021261 0.000000
# 6 0.000000 0.000000 0.000000 -0.011477 0.000000 0.083991
#
#
# Mechanical properties :
#
#
# Convention : Reuss Voigt Hill
#
# Bulk Modulus (GPa) = 36.64637 59.22752 47.93695
# Shear Modulus (GPa) = 23.99208 37.62351 30.80779
#
# Velocity S-wave (km/s) = 3.40797 4.26768 3.86182
# Velocity P-wave (km/s) = 5.76418 7.27704 6.56434
#
# Compressibility (1/GPa) = 0.02728783
#
# Stress axis : x y z
#
# Youngs Moduli (GPa) = 37.00997 146.71314 122.72530
#
# Poissons Ratio (x) = -0.21505 0.84425
# Poissons Ratio (y) = -0.05425 0.23744
# Poissons Ratio (z) = 0.25460 0.28385
#
# Static dielectric constant tensor:
#      x y z
#    x 1.775920 0.000000 0.042450 
#    y 0.000000 1.745400 0.000000 
#    z 0.042450 0.000000 1.768950 
# 
# From -- ./inp_files/278096.got.cif
#   From: 2010.05.17/outbox.cif.g08.bks.cpg/sg12_140_cif.got.tgz:278096.got - 2010.06.03 13:09:07.
