data_PCOD9214083
_publ_section_title
;
Structure prediction by ZEFSAII (Michael W. Deem and Ramdas Pophale) SiO2 
 PCOD9214083
Probable space group: C 2/M
;
_chemical_formula_sum "Si O2"
_cell_formula_units_Z 56
_cell_length_a 14.112733
_cell_length_b 31.545359
_cell_length_c 6.331605
_cell_angle_alpha 90.000000
_cell_angle_beta 83.596473
_cell_angle_gamma 90.000000
_cell_volume 2801.188830
_symmetry_space_group_name_H-M "C 2/M"
_symmetry_group_IT_number 12
_symmetry_cell_setting 'monoclinic'
loop_
_space_group_symop_operation_xyz
x,y,z
-x,y,-z
-x,-y,-z
x,-y,z
1/2+x,1/2+y,z
1/2-x,1/2+y,-z
1/2-x,1/2-y,-z
1/2+x,1/2-y,z
loop_
_atom_site_type_symbol
_atom_site_label
_atom_site_fract_x
_atom_site_fract_y
_atom_site_fract_z
Si Si1 0.896032 0.580560 0.087179
Si Si2 0.227794 0.298118 0.257509
Si Si3 0.768801 0.952575 0.586210
Si Si4 0.913032 0.333685 0.359548
Si Si5 0.249173 0.106892 0.800850
Si Si6 0.599712 0.755322 0.931266
Si Si7 0.105345 0.047515 0.067672
O O1 0.819696 0.551336 0.227916
O O2 0.902446 0.622881 0.231283
O O3 0.849091 0.593299 0.876765
O O4 0.000000 0.563548 0.000000
O O5 0.176558 0.315269 0.482797
O O6 0.257495 0.343368 0.154953
O O7 0.323862 0.270333 0.229642
O O8 0.154212 0.271692 0.128819
O O9 0.758689 0.913571 0.428496
O O10 0.868321 0.949090 0.690977
O O11 0.765294 0.000000 0.490827
O O12 0.931729 0.296664 0.189443
O O13 0.000000 0.338684 0.500000
O O14 0.166850 0.083616 0.947456
O O15 0.500000 0.731433 0.000000
O O16 0.139453 0.000000 0.002228
O O17 0.000000 0.050750 0.000000
#
# Coordination Sequence:
#
# PCOD9214083 Si02
#       7
#     8   8   8   8   8   8   8
#     4  11  23  37  60  91 123 162 213 255 300 361
#     4  11  23  38  63  87 123 163 199 251 314 363
#     4  10  22  39  62  90 124 163 205 252 309 367
#     4  12  21  38  64  89 116 163 213 255 300 368
#     4  11  21  39  61  90 121 160 202 257 306 367
#     4  11  23  41  60  91 121 158 206 254 304 368
#     4   9  20  39  63  90 121 160 207 255 303 363
#
# _framework density 19.991513000000001
#
# number of rings (size 3 to 8) (size 9 to 14) (size 15 to 20)
#    0.000    1.286    4.286    2.143    0.000    2.000 
#    0.000    2.857    3.143    0.000    0.000    0.000 
#    0.000    0.000    0.000    0.000    0.000    0.000 
#
# Total GULP energy -156036.806230 kJ/mol
# GULP energy per Si atom -5572.743080 kJ/mol
# Density = 1.994601 g / cm^3
# Si number density = 19.991513 Si / 1000 Ang^3
#
#
#
# Elastic Constant Matrix: (Units=GPa)
#
#
# Indices 1 2 3 4 5 6 
#
# 1 106.3180 28.4791 26.2049 0.0000 16.1450 0.0000
# 2 28.4791 49.5996 -0.7983 0.0000 4.9677 0.0000
# 3 26.2049 -0.7983 55.5765 0.0000 9.3072 0.0000
# 4 0.0000 0.0000 0.0000 90.3507 0.0000 -1.7964
# 5 16.1450 4.9677 9.3072 0.0000 29.9040 0.0000
# 6 0.0000 0.0000 0.0000 -1.7964 0.0000 23.4556
#
#
#
# Elastic Compliance Matrix: (Units=1/GPa)
#
#
# Indices 1 2 3 4 5 6 
#
# 1 0.013442 -0.007385 -0.005733 0.000000 -0.004246 0.000000
# 2 -0.007385 0.024604 0.004064 0.000000 -0.001365 0.000000
# 3 -0.005733 0.004064 0.021468 0.000000 -0.004262 0.000000
# 4 0.000000 0.000000 0.000000 0.011085 0.000000 0.000849
# 5 -0.004246 -0.001365 -0.004262 0.000000 0.037286 0.000000
# 6 0.000000 0.000000 0.000000 0.000849 0.000000 0.042699
#
#
# Mechanical properties :
#
#
# Convention : Reuss Voigt Hill
#
# Bulk Modulus (GPa) = 24.15085 35.47393 29.81239
# Shear Modulus (GPa) = 27.39824 39.24927 33.32375
#
# Velocity S-wave (km/s) = 3.70603 4.43572 4.08719
# Velocity P-wave (km/s) = 5.51540 6.63454 6.10069
#
# Compressibility (1/GPa) = 0.04140642
#
# Stress axis : x y z
#
# Youngs Moduli (GPa) = 74.39504 40.64398 46.58003
#
# Poissons Ratio (x) = 0.30016 0.26704
# Poissons Ratio (y) = 0.54941 -0.18931
# Poissons Ratio (z) = 0.42650 -0.16518
#
# Static dielectric constant tensor:
#      x y z
#    x 1.738660 0.000000 -0.010250 
#    y 0.000000 1.694810 0.000000 
#    z -0.010250 0.000000 1.771220 
# 
# From -- ./inp_files/13153.got.cif
#   From: 2010.05.17/outbox.cif.g08.bks.cpg/sg12_7_cif.got.tgz:13153.got - 2010.06.03 13:09:07.
