data_PCOD9214775
_publ_section_title
;
Structure prediction by ZEFSAII (Michael W. Deem and Ramdas Pophale) SiO2 
 PCOD9214775
Probable space group: C 2/M
;
_chemical_formula_sum "Si O2"
_cell_formula_units_Z 34
_cell_length_a 10.180904
_cell_length_b 7.761606
_cell_length_c 18.170554
_cell_angle_alpha 90.000000
_cell_angle_beta 83.969425
_cell_angle_gamma 90.000000
_cell_volume 1427.894208
_symmetry_space_group_name_H-M "C 2/M"
_symmetry_group_IT_number 12
_symmetry_cell_setting 'monoclinic'
loop_
_space_group_symop_operation_xyz
x,y,z
-x,y,-z
-x,-y,-z
x,-y,z
1/2+x,1/2+y,z
1/2-x,1/2+y,-z
1/2-x,1/2-y,-z
1/2+x,1/2-y,z
loop_
_atom_site_type_symbol
_atom_site_label
_atom_site_fract_x
_atom_site_fract_y
_atom_site_fract_z
Si Si1 0.000000 0.000000 0.500000
Si Si2 0.103333 0.299601 0.676846
Si Si3 0.140121 0.689914 0.421727
Si Si4 0.283834 0.293725 0.081761
Si Si5 0.482236 0.797516 0.833355
O O1 0.889067 0.847267 0.522628
O O2 0.142899 0.500000 0.684029
O O3 0.224012 0.206626 0.630742
O O4 0.057968 0.224481 0.758064
O O5 0.976165 0.292900 0.632042
O O6 0.131606 0.500000 0.456166
O O7 0.290674 0.500000 0.087739
O O8 0.421708 0.221264 0.102637
O O9 0.162136 0.226885 0.139025
O O10 0.250000 0.250000 0.000000
O O11 0.463413 0.000000 0.818420
#
# Coordination Sequence:
#
# PCOD9214775 Si02
#       5
#     2   8   8   8   8
#     4  12  26  48  68 100 136 176 214 266 344 394
#     4  10  22  44  67  97 131 167 221 273 326 389
#     4  11  25  45  69  99 133 174 217 275 324 397
#     4  11  23  39  59  92 130 169 217 266 320 383
#     4  10  22  40  64  91 126 169 211 268 321 376
#
# _framework density 23.811288999999999
#
# number of rings (size 3 to 8) (size 9 to 14) (size 15 to 20)
#    0.000    1.412    1.176    3.176    1.647    8.471 
#    0.000    0.000    0.000    0.000    0.000    0.000 
#    0.000    0.000    0.000    0.000    0.000    0.000 
#
# Total GULP energy -94953.530144 kJ/mol
# GULP energy per Si atom -5585.501773 kJ/mol
# Density = 2.375709 g / cm^3
# Si number density = 23.811289 Si / 1000 Ang^3
#
#
#
# Elastic Constant Matrix: (Units=GPa)
#
#
# Indices 1 2 3 4 5 6 
#
# 1 107.0686 15.6530 -3.0226 0.0000 -20.8004 0.0000
# 2 15.6530 120.1278 19.0336 0.0000 -16.2652 0.0000
# 3 -3.0226 19.0336 62.4990 0.0000 -17.3808 0.0000
# 4 0.0000 0.0000 0.0000 19.2944 0.0000 -6.8961
# 5 -20.8004 -16.2652 -17.3808 0.0000 43.6387 0.0000
# 6 0.0000 0.0000 0.0000 -6.8961 0.0000 15.6927
#
#
#
# Elastic Compliance Matrix: (Units=1/GPa)
#
#
# Indices 1 2 3 4 5 6 
#
# 1 0.010653 -0.001001 0.002394 0.000000 0.005658 0.000000
# 2 -0.001001 0.009085 -0.002256 0.000000 0.002010 0.000000
# 3 0.002394 -0.002256 0.018990 0.000000 0.007863 0.000000
# 4 0.000000 0.000000 0.000000 0.061486 0.000000 0.027020
# 5 0.005658 0.002010 0.007863 0.000000 0.029493 0.000000
# 6 0.000000 0.000000 0.000000 0.027020 0.000000 0.075598
#
#
# Mechanical properties :
#
#
# Convention : Reuss Voigt Hill
#
# Bulk Modulus (GPa) = 27.02713 39.22482 33.12597
# Shear Modulus (GPa) = 22.79303 32.92725 27.86014
#
# Velocity S-wave (km/s) = 3.09728 3.72269 3.42429
# Velocity P-wave (km/s) = 4.91590 5.91497 5.43843
#
# Compressibility (1/GPa) = 0.03699987
#
# Stress axis : x y z
#
# Youngs Moduli (GPa) = 93.87102 110.07665 52.65962
#
# Poissons Ratio (x) = 0.11022 -0.12604
# Poissons Ratio (y) = 0.09399 0.11880
# Poissons Ratio (z) = -0.22469 0.24834
#
# Static dielectric constant tensor:
#      x y z
#    x 1.885490 0.000000 0.000170 
#    y 0.000000 1.891700 0.000000 
#    z 0.000170 0.000000 1.927390 
# 
# From -- ./inp_files/298733.got.cif
#   From: 2010.05.17/outbox.cif.g08.bks.cpg/sg12_150_cif.got.tgz:298733.got - 2010.06.03 13:09:07.
