data_PCOD9214118
_publ_section_title
;
Structure prediction by ZEFSAII (Michael W. Deem and Ramdas Pophale) SiO2 
 PCOD9214118
Probable space group: C 2/M
;
_chemical_formula_sum "Si O2"
_cell_formula_units_Z 56
_cell_length_a 9.285412
_cell_length_b 15.094970
_cell_length_c 26.080777
_cell_angle_alpha 90.000000
_cell_angle_beta 54.087091
_cell_angle_gamma 90.000000
_cell_volume 2960.673085
_symmetry_space_group_name_H-M "C 2/M"
_symmetry_group_IT_number 12
_symmetry_cell_setting 'monoclinic'
loop_
_space_group_symop_operation_xyz
x,y,z
-x,y,-z
-x,-y,-z
x,-y,z
1/2+x,1/2+y,z
1/2-x,1/2+y,-z
1/2-x,1/2-y,-z
1/2+x,1/2-y,z
loop_
_atom_site_type_symbol
_atom_site_label
_atom_site_fract_x
_atom_site_fract_y
_atom_site_fract_z
Si Si1 0.712284 0.308768 0.457307
Si Si2 0.810875 0.605991 0.067673
Si Si3 0.085511 0.817703 0.663041
Si Si4 0.025104 0.096297 0.934634
Si Si5 0.753843 0.000000 0.404738
Si Si6 0.198465 0.248259 0.748790
Si Si7 0.858266 0.500000 0.453166
Si Si8 0.698479 0.231212 0.159648
O O1 0.500000 0.314009 0.500000
O O2 0.750000 0.250000 0.500000
O O3 0.804003 0.256554 0.391286
O O4 0.789459 0.408076 0.443966
O O5 0.815698 0.500000 0.079970
O O6 0.654731 0.619672 0.058274
O O7 0.753998 0.670103 0.127262
O O8 0.000000 0.627112 0.000000
O O9 0.140622 0.912130 0.630402
O O10 0.143038 0.809195 0.710732
O O11 0.874688 0.804051 0.698596
O O12 0.176005 0.167553 0.897361
O O13 0.081756 0.000000 0.902227
O O14 0.000000 0.089028 0.000000
O O15 0.570990 0.000000 0.410998
O O16 0.705800 0.000000 0.474539
O O17 0.260099 0.207994 0.789802
O O18 0.009041 0.289725 0.803762
#
# Coordination Sequence:
#
# PCOD9214118 Si02
#       8
#     8   8   8   8   4   8   4   8
#     4  12  23  40  69  97 133 167 205 271 327 382
#     4  10  22  39  64  96 126 160 207 259 320 379
#     4  11  23  44  64  91 126 167 208 264 309 377
#     4  10  22  39  62  95 127 159 198 257 323 375
#     4  11  22  40  68  96 130 160 211 260 321 392
#     4  10  24  42  61  85 120 167 223 248 303 361
#     4  11  23  38  64 108 124 164 208 252 340 400
#     4  11  21  42  64  88 122 169 209 265 300 378
#
# _framework density 18.914618000000001
#
# number of rings (size 3 to 8) (size 9 to 14) (size 15 to 20)
#    0.000    1.286    2.857    3.214    2.000    1.143 
#    7.714    0.000    3.143    0.000    0.000    0.000 
#    0.000    0.000    0.000    0.000    0.000    0.000 
#
# Total GULP energy -156062.894906 kJ/mol
# GULP energy per Si atom -5573.674818 kJ/mol
# Density = 1.887157 g / cm^3
# Si number density = 18.914618 Si / 1000 Ang^3
#
#
#
# Elastic Constant Matrix: (Units=GPa)
#
#
# Indices 1 2 3 4 5 6 
#
# 1 91.1935 32.3884 27.4021 0.0000 -25.2665 0.0000
# 2 32.3884 114.8076 45.7016 0.0001 -20.1551 0.0000
# 3 27.4021 45.7016 78.5897 0.0002 -19.5517 0.0000
# 4 0.0000 0.0001 0.0002 67.0455 -0.0001 30.0538
# 5 -25.2665 -20.1551 -19.5517 -0.0001 47.3552 0.0000
# 6 0.0000 0.0000 0.0000 30.0538 0.0000 -0.0549
#
#
#
# Elastic Compliance Matrix: (Units=1/GPa)
#
#
# Indices 1 2 3 4 5 6 
#
# 1 0.013931 -0.002038 -0.002273 0.000000 0.005628 0.000000
# 2 -0.002038 0.011870 -0.005802 0.000000 0.001570 0.000000
# 3 -0.002273 -0.005802 0.017803 0.000000 0.003669 0.000000
# 4 0.000000 0.000000 0.000000 0.000060 0.000000 0.033139
# 5 0.005628 0.001570 0.003669 0.000000 0.026302 0.000000
# 6 0.000000 0.000000 0.000000 0.033139 0.000000 -0.073927
#
#
# Mechanical properties :
#
#
# Convention : Reuss Voigt Hill
#
# Bulk Modulus (GPa) = 42.76995 55.06389 48.91692
# Shear Modulus (GPa) = 207.83306 34.80908 121.32107
#
# Velocity S-wave (km/s) = 10.49372 4.29456 8.01752
# Velocity P-wave (km/s) = 13.01866 7.33253 10.56531
#
# Compressibility (1/GPa) = 0.02338090
#
# Stress axis : x y z
#
# Youngs Moduli (GPa) = 71.77999 84.24507 56.16945
#
# Poissons Ratio (x) = 0.17166 0.12765
# Poissons Ratio (y) = 0.14626 0.32588
# Poissons Ratio (z) = 0.16312 0.48877
#
# Static dielectric constant tensor:
#      x y z
#    x 1.509200 0.000000 0.122060 
#    y 0.000000 1.641130 0.000000 
#    z 0.122060 0.000000 1.569660 
# 
# From -- ./inp_files/332877.got.cif
#   From: 2010.05.17/outbox.cif.g08.bks.cpg/sg12_167_cif.got.tgz:332877.got - 2010.06.03 13:09:07.
