data_PCOD9214716
_publ_section_title
;
Structure prediction by ZEFSAII (Michael W. Deem and Ramdas Pophale) SiO2 
 PCOD9214716
Probable space group: C 2/M
;
_chemical_formula_sum "Si O2"
_cell_formula_units_Z 64
_cell_length_a 16.401611
_cell_length_b 8.705873
_cell_length_c 27.632207
_cell_angle_alpha 90.000000
_cell_angle_beta 53.794195
_cell_angle_gamma 90.000000
_cell_volume 3183.716417
_symmetry_space_group_name_H-M "C 2/M"
_symmetry_group_IT_number 12
_symmetry_cell_setting 'monoclinic'
loop_
_space_group_symop_operation_xyz
x,y,z
-x,y,-z
-x,-y,-z
x,-y,z
1/2+x,1/2+y,z
1/2-x,1/2+y,-z
1/2-x,1/2-y,-z
1/2+x,1/2-y,z
loop_
_atom_site_type_symbol
_atom_site_label
_atom_site_fract_x
_atom_site_fract_y
_atom_site_fract_z
Si Si1 0.650266 0.819370 0.255910
Si Si2 0.070565 0.814776 0.930797
Si Si3 0.481343 0.685761 0.857694
Si Si4 0.795160 0.182735 0.862784
Si Si5 0.100206 0.322133 0.497406
Si Si6 0.290748 0.179852 0.377896
Si Si7 0.465398 0.319369 0.377622
Si Si8 0.673471 0.819614 0.746814
O O1 0.645961 0.733133 0.206383
O O2 0.566823 0.758686 0.322424
O O3 0.758516 0.780164 0.241105
O O4 0.638585 0.000000 0.252460
O O5 0.184240 0.755730 0.898568
O O6 0.019453 0.767586 0.897772
O O7 0.074582 0.000000 0.929008
O O8 0.000000 0.765098 0.000000
O O9 0.489551 0.500000 0.851127
O O10 0.367001 0.727366 0.882713
O O11 0.559044 0.764332 0.793349
O O12 0.783535 0.000000 0.867170
O O13 0.132301 0.500000 0.491502
O O14 0.187765 0.228014 0.440135
O O15 0.072810 0.252801 0.558894
O O16 0.000000 0.317594 0.500000
O O17 0.379302 0.282784 0.368730
O O18 0.287602 0.201146 0.321403
O O19 0.312810 0.000000 0.379572
O O20 0.481689 0.500000 0.377813
O O21 0.682501 0.000000 0.756030
#
# Coordination Sequence:
#
# PCOD9214716 Si02
#       8
#     8   8   8   8   8   8   8   8
#     4  12  24  40  63  91 126 165 207 259 321 379
#     4  10  22  42  66  94 131 176 220 263 318 380
#     4  10  22  40  63  93 131 173 213 265 322 378
#     4  11  23  40  64  96 131 169 219 268 320 378
#     4  11  24  42  63  87 117 157 204 254 314 378
#     4  11  24  41  61  88 122 159 204 255 313 377
#     4  12  25  41  62  88 121 160 205 258 314 373
#     4  11  23  39  63  94 125 162 209 261 314 376
#
# _framework density 20.102293
#
# number of rings (size 3 to 8) (size 9 to 14) (size 15 to 20)
#    0.000    1.000    1.250    5.625    0.000    8.750 
#    0.000    0.000    0.000    0.000    0.000    0.000 
#    0.000    0.000    0.000    0.000    0.000    0.000 
#
# Total GULP energy -179005.463872 kJ/mol
# GULP energy per Si atom -5593.920746 kJ/mol
# Density = 2.005654 g / cm^3
# Si number density = 20.102293 Si / 1000 Ang^3
#
#
#
# Elastic Constant Matrix: (Units=GPa)
#
#
# Indices 1 2 3 4 5 6 
#
# 1 101.6874 13.0955 34.8347 -0.0001 -6.2083 -0.0002
# 2 13.0955 26.0135 14.2353 -0.0002 -3.2704 -0.0003
# 3 34.8347 14.2353 110.9134 0.0000 0.6424 -0.0001
# 4 -0.0001 -0.0002 0.0000 45.2498 0.0000 31.8385
# 5 -6.2083 -3.2704 0.6424 0.0000 14.4118 0.0000
# 6 -0.0002 -0.0003 -0.0001 31.8385 0.0000 99.9073
#
#
#
# Elastic Compliance Matrix: (Units=1/GPa)
#
#
# Indices 1 2 3 4 5 6 
#
# 1 0.011666 -0.003555 -0.003233 0.000000 0.004363 0.000000
# 2 -0.003555 0.043807 -0.004556 0.000000 0.008612 0.000000
# 3 -0.003233 -0.004556 0.010633 0.000000 -0.002900 0.000000
# 4 0.000000 0.000000 0.000000 0.028487 0.000000 -0.009078
# 5 0.004363 0.008612 -0.002900 0.000000 0.073351 0.000000
# 6 0.000000 0.000000 0.000000 -0.009078 0.000000 0.012902
#
#
# Mechanical properties :
#
#
# Convention : Reuss Voigt Hill
#
# Bulk Modulus (GPa) = 23.03180 40.32728 31.67954
# Shear Modulus (GPa) = 22.93511 43.67703 33.30607
#
# Velocity S-wave (km/s) = 3.38142 4.66632 4.07483
# Velocity P-wave (km/s) = 5.16986 7.00980 6.15893
#
# Compressibility (1/GPa) = 0.04341823
#
# Stress axis : x y z
#
# Youngs Moduli (GPa) = 85.72127 22.82734 94.04764
#
# Poissons Ratio (x) = 0.08115 0.30404
# Poissons Ratio (y) = 0.30475 0.42846
# Poissons Ratio (z) = 0.27712 0.10400
#
# Static dielectric constant tensor:
#      x y z
#    x 1.722470 0.000000 0.002240 
#    y 0.000000 1.675550 0.000000 
#    z 0.002240 0.000000 1.704030 
# 
# From -- ./inp_files/375400.got.cif
#   From: 2010.05.17/outbox.cif.g08.bks.cpg/sg12_188_cif.got.tgz:375400.got - 2010.06.03 13:09:07.
