data_PCOD9214822
_publ_section_title
;
Structure prediction by ZEFSAII (Michael W. Deem and Ramdas Pophale) SiO2 
 PCOD9214822
Probable space group: C 2/M
;
_chemical_formula_sum "Si O2"
_cell_formula_units_Z 64
_cell_length_a 19.719772
_cell_length_b 17.035334
_cell_length_c 16.937454
_cell_angle_alpha 90.000000
_cell_angle_beta 29.679666
_cell_angle_gamma 90.000000
_cell_volume 2817.330349
_symmetry_space_group_name_H-M "C 2/M"
_symmetry_group_IT_number 12
_symmetry_cell_setting 'monoclinic'
loop_
_space_group_symop_operation_xyz
x,y,z
-x,y,-z
-x,-y,-z
x,-y,z
1/2+x,1/2+y,z
1/2-x,1/2+y,-z
1/2-x,1/2-y,-z
1/2+x,1/2-y,z
loop_
_atom_site_type_symbol
_atom_site_label
_atom_site_fract_x
_atom_site_fract_y
_atom_site_fract_z
Si Si1 0.097608 0.907983 0.969677
Si Si2 0.843978 0.657952 0.639810
Si Si3 0.879847 0.590230 0.856934
Si Si4 0.664964 0.906593 0.516001
Si Si5 0.411941 0.332858 0.865809
Si Si6 0.059794 0.325081 0.061832
Si Si7 0.772366 0.324757 0.264504
Si Si8 0.864738 0.093541 0.456716
O O1 0.243726 0.866293 0.812242
O O2 0.115938 0.000000 0.939354
O O3 0.035995 0.890762 0.117116
O O4 0.000000 0.875568 0.000000
O O5 0.786057 0.614631 0.620599
O O6 0.824184 0.749058 0.641575
O O7 0.000000 0.636606 0.500000
O O8 0.850113 0.500000 0.865121
O O9 0.937883 0.597428 0.887056
O O10 0.008086 0.623018 0.678072
O O11 0.742281 0.639815 0.993283
O O12 0.754697 0.880796 0.500071
O O13 0.656965 0.000000 0.530966
O O14 0.417954 0.247956 0.900772
O O15 0.504303 0.352519 0.696874
O O16 0.914250 0.309968 0.168090
O O17 0.174524 0.336538 0.878537
O O18 0.694870 0.388992 0.396123
O O19 0.892842 0.000000 0.419894
#
# Coordination Sequence:
#
# PCOD9214822 Si02
#       8
#     8   8   8   8   8   8   8   8
#     4  11  22  40  65  94 134 184 226 267 329 409
#     4  12  25  39  61  97 139 178 219 273 340 403
#     4  11  24  43  67  99 134 175 224 277 341 405
#     4  10  22  40  64  95 130 170 222 271 325 399
#     4  12  24  41  68 100 138 174 220 278 340 407
#     4  11  24  44  71  97 130 180 230 279 334 404
#     4  11  25  44  67  98 133 174 230 281 329 403
#     4  11  24  44  70 100 132 175 226 282 342 397
#
# _framework density 22.716542
#
# number of rings (size 3 to 8) (size 9 to 14) (size 15 to 20)
#    0.000    0.875    2.500    4.875    1.750    6.500 
#    0.000    1.250    0.000    1.875    0.000    0.000 
#    0.000    0.000    0.000    0.000    0.000    0.000 
#
# Total GULP energy -178859.255309 kJ/mol
# GULP energy per Si atom -5589.351728 kJ/mol
# Density = 2.266484 g / cm^3
# Si number density = 22.716542 Si / 1000 Ang^3
#
#
#
# Elastic Constant Matrix: (Units=GPa)
#
#
# Indices 1 2 3 4 5 6 
#
# 1 38.3308 12.3647 14.9750 -0.0001 4.0912 -0.0001
# 2 12.3647 43.3481 19.3272 -0.0013 8.0801 -0.0005
# 3 14.9750 19.3272 119.2607 -0.0009 12.0462 -0.0005
# 4 -0.0001 -0.0013 -0.0009 33.9123 0.0010 21.1244
# 5 4.0912 8.0801 12.0462 0.0010 37.0272 0.0003
# 6 -0.0001 -0.0005 -0.0005 21.1244 0.0003 51.8355
#
#
#
# Elastic Compliance Matrix: (Units=1/GPa)
#
#
# Indices 1 2 3 4 5 6 
#
# 1 0.029444 -0.007139 -0.002449 0.000000 -0.000899 0.000000
# 2 -0.007139 0.027262 -0.003102 0.000001 -0.004151 0.000000
# 3 -0.002449 -0.003102 0.009409 0.000000 -0.002113 0.000000
# 4 0.000000 0.000001 0.000000 0.039520 -0.000001 -0.016106
# 5 -0.000899 -0.004151 -0.002113 -0.000001 0.028700 0.000000
# 6 0.000000 0.000000 0.000000 -0.016106 0.000000 0.025855
#
#
# Mechanical properties :
#
#
# Convention : Reuss Voigt Hill
#
# Bulk Modulus (GPa) = 24.54971 32.69704 28.62338
# Shear Modulus (GPa) = 25.10658 34.83985 29.97321
#
# Velocity S-wave (km/s) = 3.32808 3.92047 3.63636
# Velocity P-wave (km/s) = 5.05950 5.90916 5.50076
#
# Compressibility (1/GPa) = 0.04073367
#
# Stress axis : x y z
#
# Youngs Moduli (GPa) = 33.96224 36.68047 106.28350
#
# Poissons Ratio (x) = 0.26187 0.26034
# Poissons Ratio (y) = 0.24246 0.32973
# Poissons Ratio (z) = 0.08319 0.11380
#
# Static dielectric constant tensor:
#      x y z
#    x 1.863770 0.000000 0.005900 
#    y 0.000000 1.809630 0.000000 
#    z 0.005900 0.000000 1.876270 
# 
# From -- ./inp_files/285176.got.cif
#   From: 2010.05.17/outbox.cif.g08.bks.cpg/sg12_143_cif.got.tgz:285176.got - 2010.06.03 13:09:07.
