data_PCOD9214121
_publ_section_title
;
Structure prediction by ZEFSAII (Michael W. Deem and Ramdas Pophale) SiO2 
 PCOD9214121
Probable space group: C 2/M
;
_chemical_formula_sum "Si O2"
_cell_formula_units_Z 44
_cell_length_a 14.317106
_cell_length_b 19.219141
_cell_length_c 8.950656
_cell_angle_alpha 90.000000
_cell_angle_beta 61.929076
_cell_angle_gamma 90.000000
_cell_volume 2173.165168
_symmetry_space_group_name_H-M "C 2/M"
_symmetry_group_IT_number 12
_symmetry_cell_setting 'monoclinic'
loop_
_space_group_symop_operation_xyz
x,y,z
-x,y,-z
-x,-y,-z
x,-y,z
1/2+x,1/2+y,z
1/2-x,1/2+y,-z
1/2-x,1/2-y,-z
1/2+x,1/2-y,z
loop_
_atom_site_type_symbol
_atom_site_label
_atom_site_fract_x
_atom_site_fract_y
_atom_site_fract_z
Si Si1 0.117856 0.214667 0.466192
Si Si2 0.705700 0.725452 0.879130
Si Si3 0.727475 0.423295 0.494845
Si Si4 0.373818 0.574947 0.103674
Si Si5 0.448068 0.147559 0.367312
Si Si6 0.000000 0.679462 0.000000
O O1 0.198244 0.259723 0.305579
O O2 0.177631 0.142849 0.449966
O O3 0.091524 0.271911 0.611701
O O4 0.000000 0.196499 0.500000
O O5 0.677071 0.644783 0.918241
O O6 0.603045 0.771403 0.921892
O O7 0.750000 0.750000 0.000000
O O8 0.720211 0.500000 0.428324
O O9 0.662939 0.426376 0.697434
O O10 0.848749 0.404200 0.439134
O O11 0.342821 0.500000 0.058615
O O12 0.500000 0.580758 0.000000
O O13 0.500000 0.142087 0.500000
O O14 0.503830 0.139279 0.160308
#
# Coordination Sequence:
#
# PCOD9214121 Si02
#       6
#     8   8   8   8   8   4
#     4  11  23  41  65  96 132 178 230 285 339 405
#     4  12  23  39  70 102 133 177 231 279 342 405
#     4  11  23  42  65  93 135 185 223 280 355 410
#     4  10  22  39  62  95 131 169 219 279 344 408
#     4  11  23  43  70 100 134 177 232 285 347 408
#     4  12  24  40  70 106 136 174 232 296 336 400
#
# _framework density 20.246966
#
# number of rings (size 3 to 8) (size 9 to 14) (size 15 to 20)
#    0.000    0.909    4.545    3.818    2.545    0.727 
#    0.000    1.364    0.000    0.545    0.000    0.000 
#    0.000    0.000    0.000    0.000    0.000    0.000 
#
# Total GULP energy -122488.793632 kJ/mol
# GULP energy per Si atom -5567.672438 kJ/mol
# Density = 2.020088 g / cm^3
# Si number density = 20.246966 Si / 1000 Ang^3
#
#
#
# Elastic Constant Matrix: (Units=GPa)
#
#
# Indices 1 2 3 4 5 6 
#
# 1 108.5716 43.7198 50.9471 0.0000 -11.5170 0.0000
# 2 43.7198 137.2631 21.1603 0.0000 -2.5530 0.0000
# 3 50.9471 21.1603 116.3344 0.0000 -5.2073 0.0000
# 4 0.0000 0.0000 0.0000 41.4853 0.0000 -22.9048
# 5 -11.5170 -2.5530 -5.2073 0.0000 31.9257 0.0000
# 6 0.0000 0.0000 0.0000 -22.9048 0.0000 31.8460
#
#
#
# Elastic Compliance Matrix: (Units=1/GPa)
#
#
# Indices 1 2 3 4 5 6 
#
# 1 0.013350 -0.003403 -0.005061 0.000000 0.003718 0.000000
# 2 -0.003403 0.008367 -0.000057 0.000000 -0.000568 0.000000
# 3 -0.005061 -0.000057 0.010820 0.000000 -0.000066 0.000000
# 4 0.000000 0.000000 0.000000 0.039982 0.000000 0.028756
# 5 0.003718 -0.000568 -0.000066 0.000000 0.032608 0.000000
# 6 0.000000 0.000000 0.000000 0.028756 0.000000 0.052084
#
#
# Mechanical properties :
#
#
# Convention : Reuss Voigt Hill
#
# Bulk Modulus (GPa) = 64.53632 65.98038 65.25835
# Shear Modulus (GPa) = 27.86784 37.47419 32.67102
#
# Velocity S-wave (km/s) = 3.71401 4.30682 4.02135
# Velocity P-wave (km/s) = 7.09475 7.57563 7.33913
#
# Compressibility (1/GPa) = 0.01549515
#
# Stress axis : x y z
#
# Youngs Moduli (GPa) = 74.90573 119.51203 92.42287
#
# Poissons Ratio (x) = 0.40667 0.46776
# Poissons Ratio (y) = 0.25489 0.00528
# Poissons Ratio (z) = 0.37911 0.00683
#
# Static dielectric constant tensor:
#      x y z
#    x 1.703880 0.000000 0.075320 
#    y 0.000000 1.755990 0.000000 
#    z 0.075320 0.000000 1.725000 
# 
# From -- ./inp_files/63239.got.cif
#   From: 2010.05.17/outbox.cif.g08.bks.cpg/sg12_32_cif.got.tgz:63239.got - 2010.06.03 13:09:07.
