data_PCOD9214435
_publ_section_title
;
Structure prediction by ZEFSAII (Michael W. Deem and Ramdas Pophale) SiO2 
 PCOD9214435
Probable space group: C 2/M
;
_chemical_formula_sum "Si O2"
_cell_formula_units_Z 56
_cell_length_a 24.741388
_cell_length_b 17.776123
_cell_length_c 6.736559
_cell_angle_alpha 90.000000
_cell_angle_beta 108.335818
_cell_angle_gamma 90.000000
_cell_volume 2812.355539
_symmetry_space_group_name_H-M "C 2/M"
_symmetry_group_IT_number 12
_symmetry_cell_setting 'monoclinic'
loop_
_space_group_symop_operation_xyz
x,y,z
-x,y,-z
-x,-y,-z
x,-y,z
1/2+x,1/2+y,z
1/2-x,1/2+y,-z
1/2-x,1/2-y,-z
1/2+x,1/2-y,z
loop_
_atom_site_type_symbol
_atom_site_label
_atom_site_fract_x
_atom_site_fract_y
_atom_site_fract_z
Si Si1 0.253043 0.415289 0.922149
Si Si2 0.800344 0.202549 0.662423
Si Si3 0.660501 0.585574 0.621425
Si Si4 0.413612 0.780912 0.951102
Si Si5 0.118136 0.415124 0.797066
Si Si6 0.561701 0.323049 0.668689
Si Si7 0.558552 0.822258 0.444818
O O1 0.264342 0.500000 0.853148
O O2 0.273749 0.348943 0.804492
O O3 0.185958 0.409503 0.880420
O O4 0.286691 0.409762 0.166936
O O5 0.750000 0.250000 0.500000
O O6 0.828360 0.143896 0.541070
O O7 0.850618 0.254852 0.807325
O O8 0.654802 0.500000 0.543248
O O9 0.604811 0.609431 0.683113
O O10 0.447165 0.805908 0.792834
O O11 0.407533 0.853592 0.084074
O O12 0.438961 0.711402 0.110016
O O13 0.100664 0.500000 0.824838
O O14 0.097028 0.392047 0.552520
O O15 0.500000 0.338477 0.500000
O O16 0.586207 0.252931 0.569245
O O17 0.500000 0.830636 0.500000
#
# Coordination Sequence:
#
# PCOD9214435 Si02
#       7
#     8   8   8   8   8   8   8
#     4  10  22  40  60  89 131 167 204 258 314 369
#     4  12  23  36  65  94 125 167 216 255 308 377
#     4  11  23  41  62  91 130 168 208 263 321 373
#     4  11  22  40  65  93 123 165 214 261 317 374
#     4  10  23  40  61  93 130 168 210 258 317 377
#     4  10  22  40  64  91 122 162 215 264 313 373
#     4  10  22  41  63  91 125 164 211 265 314 371
#
# _framework density 19.912134999999999
#
# number of rings (size 3 to 8) (size 9 to 14) (size 15 to 20)
#    0.000    1.429    2.857    2.143    2.000    7.429 
#    0.000    4.286    0.000    0.857    0.000    0.000 
#    0.000    0.000    0.000    0.000    0.000    0.000 
#
# Total GULP energy -156333.203942 kJ/mol
# GULP energy per Si atom -5583.328712 kJ/mol
# Density = 1.986681 g / cm^3
# Si number density = 19.912135 Si / 1000 Ang^3
#
#
#
# Elastic Constant Matrix: (Units=GPa)
#
#
# Indices 1 2 3 4 5 6 
#
# 1 58.8310 23.0208 30.2147 0.0000 6.7381 0.0000
# 2 23.0208 92.2533 30.4303 0.0000 -2.3141 0.0000
# 3 30.2147 30.4303 102.8520 0.0000 1.2816 0.0000
# 4 0.0000 0.0000 0.0000 21.5259 0.0000 -17.1001
# 5 6.7381 -2.3141 1.2816 0.0000 38.4873 0.0000
# 6 0.0000 0.0000 0.0000 -17.1001 0.0000 -10.4676
#
#
#
# Elastic Compliance Matrix: (Units=1/GPa)
#
#
# Indices 1 2 3 4 5 6 
#
# 1 0.021569 -0.003772 -0.005173 0.000000 -0.003831 0.000000
# 2 -0.003772 0.012699 -0.002668 0.000000 0.001513 0.000000
# 3 -0.005173 -0.002668 0.012027 0.000000 0.000345 0.000000
# 4 0.000000 0.000000 0.000000 0.020218 0.000000 -0.033029
# 5 -0.003831 0.001513 0.000345 0.000000 0.026733 0.000000
# 6 0.000000 0.000000 0.000000 -0.033029 0.000000 -0.041577
#
#
# Mechanical properties :
#
#
# Convention : Reuss Voigt Hill
#
# Bulk Modulus (GPa) = 43.34603 46.80753 45.07678
# Shear Modulus (GPa) = 60.54397 21.26051 40.90224
#
# Velocity S-wave (km/s) = 5.52011 3.27114 4.53717
# Velocity P-wave (km/s) = 7.90219 6.15022 7.08060
#
# Compressibility (1/GPa) = 0.02307016
#
# Stress axis : x y z
#
# Youngs Moduli (GPa) = 46.36238 78.74636 83.14440
#
# Poissons Ratio (x) = 0.29705 0.43007
# Poissons Ratio (y) = 0.17489 0.22182
# Poissons Ratio (z) = 0.23981 0.21009
#
# Static dielectric constant tensor:
#      x y z
#    x 1.712360 0.000000 0.002170 
#    y 0.000000 1.705370 0.000000 
#    z 0.002170 0.000000 1.727560 
# 
# From -- ./inp_files/28835.got.cif
#   From: 2010.05.17/outbox.cif.g08.bks.cpg/sg12_15_cif.got.tgz:28835.got - 2010.06.03 13:09:07.
