data_PCOD9214031
_publ_section_title
;
Structure prediction by ZEFSAII (Michael W. Deem and Ramdas Pophale) SiO2 
 PCOD9214031
Probable space group: C 2/M
;
_chemical_formula_sum "Si O2"
_cell_formula_units_Z 50
_cell_length_a 9.552522
_cell_length_b 16.540599
_cell_length_c 15.695529
_cell_angle_alpha 90.000000
_cell_angle_beta 50.809048
_cell_angle_gamma 90.000000
_cell_volume 1922.081315
_symmetry_space_group_name_H-M "C 2/M"
_symmetry_group_IT_number 12
_symmetry_cell_setting 'monoclinic'
loop_
_space_group_symop_operation_xyz
x,y,z
-x,y,-z
-x,-y,-z
x,-y,z
1/2+x,1/2+y,z
1/2-x,1/2+y,-z
1/2-x,1/2-y,-z
1/2+x,1/2-y,z
loop_
_atom_site_type_symbol
_atom_site_label
_atom_site_fract_x
_atom_site_fract_y
_atom_site_fract_z
Si Si1 0.882040 0.382838 0.918330
Si Si2 0.566051 0.092190 0.571234
Si Si3 0.795825 0.911350 0.183010
Si Si4 0.808963 0.195012 0.583270
Si Si5 0.806727 0.908708 0.742545
Si Si6 0.014866 0.785094 0.195242
Si Si7 0.000000 0.500000 0.000000
O O1 0.088280 0.413316 0.823113
O O2 0.892191 0.288063 0.891915
O O3 0.744492 0.413973 0.901013
O O4 0.861171 0.427908 0.016052
O O5 0.500000 0.091152 0.500000
O O6 0.395673 0.110525 0.698321
O O7 0.721688 0.155783 0.533151
O O8 0.624931 0.000000 0.568996
O O9 0.939815 0.846314 0.154431
O O10 0.845362 0.000000 0.196038
O O11 0.855577 0.121575 0.629732
O O12 0.655793 0.247436 0.688678
O O13 0.000000 0.238292 0.500000
O O14 0.871557 0.836783 0.780146
O O15 0.872794 0.000000 0.735655
#
# Coordination Sequence:
#
# PCOD9214031 Si02
#       7
#     8   8   8   8   8   8   2
#     4  11  22  44  73 101 132 168 222 266 336 415
#     4  10  22  39  61  91 132 182 240 288 333 387
#     4  11  21  43  68  93 133 185 221 272 341 401
#     4  11  25  40  62  90 139 186 243 294 331 378
#     4  11  22  43  69  97 132 182 231 277 336 403
#     4  11  25  42  66  99 137 186 221 277 346 398
#     4  12  24  44  84 114 122 172 222 272 332 420
#
# _framework density 26.013466999999999
#
# number of rings (size 3 to 8) (size 9 to 14) (size 15 to 20)
#    0.000    1.120    4.800    2.880    2.240    2.560 
#    0.000    3.200    0.000    1.440    0.000    0.000 
#    0.000    0.000    0.000    0.000    0.000    0.000 
#
# Total GULP energy -139780.717350 kJ/mol
# GULP energy per Si atom -5591.228694 kJ/mol
# Density = 2.595426 g / cm^3
# Si number density = 26.013467 Si / 1000 Ang^3
#
#
#
# Elastic Constant Matrix: (Units=GPa)
#
#
# Indices 1 2 3 4 5 6 
#
# 1 148.9714 72.2972 14.7530 0.0000 36.4684 0.0000
# 2 72.2972 185.6428 20.4861 0.0000 -1.5630 0.0000
# 3 14.7530 20.4861 78.7255 0.0001 -1.0046 0.0000
# 4 0.0000 0.0000 0.0001 40.1802 -0.0001 10.4632
# 5 36.4684 -1.5630 -1.0046 -0.0001 38.9420 0.0001
# 6 0.0000 0.0000 0.0000 10.4632 0.0001 33.5891
#
#
#
# Elastic Compliance Matrix: (Units=1/GPa)
#
#
# Indices 1 2 3 4 5 6 
#
# 1 0.011799 -0.004561 -0.001168 0.000000 -0.011263 0.000000
# 2 -0.004561 0.007310 -0.000990 0.000000 0.004539 0.000000
# 3 -0.001168 -0.000990 0.013197 0.000000 0.001394 0.000000
# 4 0.000000 0.000000 0.000000 0.027085 0.000000 -0.008437
# 5 -0.011263 0.004539 0.001394 0.000000 0.036445 0.000000
# 6 0.000000 0.000000 0.000000 -0.008437 0.000000 0.032400
#
#
# Mechanical properties :
#
#
# Convention : Reuss Voigt Hill
#
# Bulk Modulus (GPa) = 52.99785 69.82358 61.41071
# Shear Modulus (GPa) = 33.79244 42.92914 38.36079
#
# Velocity S-wave (km/s) = 3.60813 4.06675 3.84428
# Velocity P-wave (km/s) = 6.14618 6.99649 6.58508
#
# Compressibility (1/GPa) = 0.01886869
#
# Stress axis : x y z
#
# Youngs Moduli (GPa) = 84.75316 136.79237 75.77728
#
# Poissons Ratio (x) = 0.62390 0.08851
# Poissons Ratio (y) = 0.38656 0.07499
# Poissons Ratio (z) = 0.09899 0.13538
#
# Static dielectric constant tensor:
#      x y z
#    x 1.991240 0.000000 0.066600 
#    y 0.000000 2.225720 0.000000 
#    z 0.066600 0.000000 2.281830 
# 
# From -- ./inp_files/256935.got.cif
#   From: 2010.05.17/outbox.cif.g08.bks.cpg/sg12_129_cif.got.tgz:256935.got - 2010.06.03 13:09:07.
