data_PCOD9214777
_publ_section_title
;
Structure prediction by ZEFSAII (Michael W. Deem and Ramdas Pophale) SiO2 
 PCOD9214777
Probable space group: C 2/M
;
_chemical_formula_sum "Si O2"
_cell_formula_units_Z 48
_cell_length_a 14.839390
_cell_length_b 8.774995
_cell_length_c 18.002364
_cell_angle_alpha 90.000000
_cell_angle_beta 88.395608
_cell_angle_gamma 90.000000
_cell_volume 2343.269157
_symmetry_space_group_name_H-M "C 2/M"
_symmetry_group_IT_number 12
_symmetry_cell_setting 'monoclinic'
loop_
_space_group_symop_operation_xyz
x,y,z
-x,y,-z
-x,-y,-z
x,-y,z
1/2+x,1/2+y,z
1/2-x,1/2+y,-z
1/2-x,1/2-y,-z
1/2+x,1/2-y,z
loop_
_atom_site_type_symbol
_atom_site_label
_atom_site_fract_x
_atom_site_fract_y
_atom_site_fract_z
Si Si1 0.651721 0.817450 0.795522
Si Si2 0.286677 0.680645 0.362940
Si Si3 0.952024 0.676208 0.421788
Si Si4 0.708491 0.317904 0.075573
Si Si5 0.055705 0.317903 0.168632
Si Si6 0.395800 0.320354 0.675907
O O1 0.675754 0.731263 0.719062
O O2 0.723330 0.781431 0.858119
O O3 0.550638 0.781826 0.825547
O O4 0.656055 0.000000 0.780686
O O5 0.290562 0.500000 0.371193
O O6 0.350620 0.762823 0.421071
O O7 0.184483 0.738816 0.366369
O O8 0.954213 0.500000 0.396720
O O9 0.010489 0.778586 0.364981
O O10 0.000000 0.685357 0.500000
O O11 0.701793 0.500000 0.070323
O O12 0.611566 0.247828 0.098487
O O13 0.750000 0.250000 0.000000
O O14 0.065390 0.500000 0.170840
O O15 0.099247 0.245230 0.241335
O O16 0.380263 0.500000 0.678350
#
# Coordination Sequence:
#
# PCOD9214777 Si02
#       6
#     8   8   8   8   8   8
#     4  10  22  40  64  91 127 167 210 260 317 379
#     4  12  24  39  66  97 128 168 215 263 316 379
#     4  11  25  45  67  94 131 170 211 265 325 380
#     4  11  24  42  63  91 129 170 211 265 324 378
#     4  11  22  39  65  94 125 164 212 263 316 380
#     4  12  24  40  65  96 130 168 214 264 316 380
#
# _framework density 20.484200999999999
#
# number of rings (size 3 to 8) (size 9 to 14) (size 15 to 20)
#    0.000    0.833    3.333    4.500    0.000    4.000 
#    0.000    3.333    0.000    0.000    0.000    0.000 
#    0.000    0.000    0.000    0.000    0.000    0.000 
#
# Total GULP energy -134328.568037 kJ/mol
# GULP energy per Si atom -5597.023668 kJ/mol
# Density = 2.043758 g / cm^3
# Si number density = 20.484201 Si / 1000 Ang^3
#
#
#
# Elastic Constant Matrix: (Units=GPa)
#
#
# Indices 1 2 3 4 5 6 
#
# 1 76.2017 9.9140 -15.4450 0.0000 12.9464 0.0000
# 2 9.9140 75.3671 3.1334 0.0000 11.4909 0.0000
# 3 -15.4450 3.1334 26.8708 0.0000 4.6563 0.0000
# 4 0.0000 0.0000 0.0000 27.7476 0.0000 0.5122
# 5 12.9464 11.4909 4.6563 0.0000 24.8659 0.0000
# 6 0.0000 0.0000 0.0000 0.5122 0.0000 33.4814
#
#
#
# Elastic Compliance Matrix: (Units=1/GPa)
#
#
# Indices 1 2 3 4 5 6 
#
# 1 0.017582 -0.001157 0.012128 0.000000 -0.010891 0.000000
# 2 -0.001157 0.014358 -0.001337 0.000000 -0.005782 0.000000
# 3 0.012128 -0.001337 0.046849 0.000000 -0.014469 0.000000
# 4 0.000000 0.000000 0.000000 0.036049 0.000000 -0.000551
# 5 -0.010891 -0.005782 -0.014469 0.000000 0.051268 0.000000
# 6 0.000000 0.000000 0.000000 -0.000551 0.000000 0.029876
#
#
# Mechanical properties :
#
#
# Convention : Reuss Voigt Hill
#
# Bulk Modulus (GPa) = 10.19806 19.29381 14.74594
# Shear Modulus (GPa) = 23.87786 29.27478 26.57632
#
# Velocity S-wave (km/s) = 3.41790 3.78450 3.60586
# Velocity P-wave (km/s) = 4.53490 5.34190 4.95486
#
# Compressibility (1/GPa) = 0.09805784
#
# Stress axis : x y z
#
# Youngs Moduli (GPa) = 56.87633 69.64890 21.34500
#
# Poissons Ratio (x) = 0.08055 -0.25887
# Poissons Ratio (y) = 0.06578 0.02854
# Poissons Ratio (z) = -0.68980 0.09312
#
# Static dielectric constant tensor:
#      x y z
#    x 1.727170 0.000000 -0.000400 
#    y 0.000000 1.678200 0.000000 
#    z -0.000400 0.000000 1.718900 
# 
# From -- ./inp_files/267605.got.cif
#   From: 2010.05.17/outbox.cif.g08.bks.cpg/sg12_134_cif.got.tgz:267605.got - 2010.06.03 13:09:07.
