data_PCOD9214996
_publ_section_title
;
Structure prediction by ZEFSAII (Michael W. Deem and Ramdas Pophale) SiO2 
 PCOD9214996
Probable space group: C 2/M
;
_chemical_formula_sum "Si O2"
_cell_formula_units_Z 52
_cell_length_a 7.451895
_cell_length_b 14.676782
_cell_length_c 27.173687
_cell_angle_alpha 90.000000
_cell_angle_beta 133.367723
_cell_angle_gamma 90.000000
_cell_volume 2160.516670
_symmetry_space_group_name_H-M "C 2/M"
_symmetry_group_IT_number 12
_symmetry_cell_setting 'monoclinic'
loop_
_space_group_symop_operation_xyz
x,y,z
-x,y,-z
-x,-y,-z
x,-y,z
1/2+x,1/2+y,z
1/2-x,1/2+y,-z
1/2-x,1/2-y,-z
1/2+x,1/2-y,z
loop_
_atom_site_type_symbol
_atom_site_label
_atom_site_fract_x
_atom_site_fract_y
_atom_site_fract_z
Si Si1 0.871561 0.500000 0.296282
Si Si2 0.412203 0.844518 0.372317
Si Si3 0.038847 0.356698 0.191460
Si Si4 0.658206 0.000000 0.077684
Si Si5 0.815476 0.102337 0.510574
Si Si6 0.073883 0.857453 0.661261
Si Si7 0.760596 0.000000 0.918755
Si Si8 0.448920 0.641433 0.183725
O O1 0.015411 0.420571 0.355590
O O2 0.689000 0.581073 0.239897
O O3 0.582676 0.834470 0.452913
O O4 0.144608 0.875809 0.341031
O O5 0.396051 0.750296 0.340755
O O6 0.167190 0.391186 0.266806
O O7 0.256690 0.369083 0.192612
O O8 0.801638 0.413139 0.128152
O O9 0.989928 0.248811 0.184968
O O10 0.820320 0.090800 0.113806
O O11 0.463356 0.000000 0.085053
O O12 0.500000 0.000000 0.000000
O O13 0.964515 0.111124 0.589025
O O14 0.000000 0.115186 0.500000
O O15 0.711363 0.000000 0.490939
O O16 0.000000 0.000000 0.000000
#
# Coordination Sequence:
#
# PCOD9214996 Si02
#       8
#     4   8   8   4   8   8   4   8
#     4  11  20  40  64  92 127 167 212 265 324 387
#     4  12  24  42  67  93 131 172 227 270 340 388
#     4  11  22  42  66  99 129 172 216 273 327 385
#     4   9  21  42  69  95 129 175 210 256 318 398
#     4  11  26  43  62  94 134 176 225 280 335 387
#     4  12  24  40  69  94 129 172 226 275 329 398
#     4  10  25  44  68  97 138 171 213 267 325 393
#     4  10  22  40  67  96 132 165 216 266 322 389
#
# _framework density 24.068318999999999
#
# number of rings (size 3 to 8) (size 9 to 14) (size 15 to 20)
#    0.000    1.077    3.846    2.308    2.154    2.462 
#    0.000    3.846    0.000    0.000    0.000    0.000 
#    0.000    0.000    0.000    0.000    0.000    0.000 
#
# Total GULP energy -144934.876961 kJ/mol
# GULP energy per Si atom -5574.418345 kJ/mol
# Density = 2.401354 g / cm^3
# Si number density = 24.068319 Si / 1000 Ang^3
#
#
#
# Elastic Constant Matrix: (Units=GPa)
#
#
# Indices 1 2 3 4 5 6 
#
# 1 70.2280 -18.5873 12.8777 0.0000 12.8761 0.0000
# 2 -18.5873 126.6927 66.6854 0.0000 8.4976 0.0000
# 3 12.8777 66.6854 248.6926 0.0000 5.6414 0.0000
# 4 0.0000 0.0000 0.0000 36.6018 0.0000 11.1793
# 5 12.8761 8.4976 5.6414 0.0000 32.8540 0.0000
# 6 0.0000 0.0000 0.0000 11.1793 0.0000 -10.0306
#
#
#
# Elastic Compliance Matrix: (Units=1/GPa)
#
#
# Indices 1 2 3 4 5 6 
#
# 1 0.016942 0.003903 -0.001757 0.000000 -0.007348 0.000000
# 2 0.003903 0.010217 -0.002858 0.000000 -0.003682 0.000000
# 3 -0.001757 -0.002858 0.004865 0.000000 0.000593 0.000000
# 4 0.000000 0.000000 0.000000 0.020383 0.000000 0.022717
# 5 -0.007348 -0.003682 0.000593 0.000000 0.034168 0.000000
# 6 0.000000 0.000000 0.000000 0.022717 0.000000 -0.074377
#
#
# Mechanical properties :
#
#
# Convention : Reuss Voigt Hill
#
# Bulk Modulus (GPa) = 32.68013 63.06277 47.87145
# Shear Modulus (GPa) = 209.88727 37.52753 123.70740
#
# Velocity S-wave (km/s) = 9.34848 3.95297 7.17705
# Velocity P-wave (km/s) = 11.40759 6.86244 9.41345
#
# Compressibility (1/GPa) = 0.03059964
#
# Stress axis : x y z
#
# Youngs Moduli (GPa) = 59.02546 97.87428 205.54938
#
# Poissons Ratio (x) = -0.38204 0.36120
# Poissons Ratio (y) = -0.23040 0.58752
# Poissons Ratio (z) = 0.10372 0.27975
#
# Static dielectric constant tensor:
#      x y z
#    x 2.007300 0.000000 -0.021840 
#    y 0.000000 1.920030 0.000000 
#    z -0.021840 0.000000 1.973400 
# 
# From -- ./inp_files/372670.got.cif
#   From: 2010.05.17/outbox.cif.g08.bks.cpg/sg12_187_cif.got.tgz:372670.got - 2010.06.03 13:09:07.
