data_PCOD9214403
_publ_section_title
;
Structure prediction by ZEFSAII (Michael W. Deem and Ramdas Pophale) SiO2 
 PCOD9214403
Probable space group: C 2/M
;
_chemical_formula_sum "Si O2"
_cell_formula_units_Z 36
_cell_length_a 14.864695
_cell_length_b 21.484960
_cell_length_c 8.566638
_cell_angle_alpha 90.000000
_cell_angle_beta 37.802090
_cell_angle_gamma 90.000000
_cell_volume 1676.934151
_symmetry_space_group_name_H-M "C 2/M"
_symmetry_group_IT_number 12
_symmetry_cell_setting 'monoclinic'
loop_
_space_group_symop_operation_xyz
x,y,z
-x,y,-z
-x,-y,-z
x,-y,z
1/2+x,1/2+y,z
1/2-x,1/2+y,-z
1/2-x,1/2-y,-z
1/2+x,1/2-y,z
loop_
_atom_site_type_symbol
_atom_site_label
_atom_site_fract_x
_atom_site_fract_y
_atom_site_fract_z
Si Si1 0.500000 0.169187 0.000000
Si Si2 0.217057 0.569426 0.587562
Si Si3 0.829363 0.853182 0.173411
Si Si4 0.424683 0.234163 0.433538
Si Si5 0.495282 0.378762 0.330881
O O1 0.635590 0.120566 0.804439
O O2 0.508472 0.206104 0.821246
O O3 0.158817 0.500000 0.679024
O O4 0.226420 0.596816 0.400386
O O5 0.387908 0.573073 0.396610
O O6 0.742751 0.789631 0.322956
O O7 0.849794 0.871580 0.966597
O O8 0.000000 0.850739 0.000000
O O9 0.500000 0.217927 0.500000
O O10 0.431344 0.308457 0.411747
O O11 0.500000 0.398081 0.500000
#
# Coordination Sequence:
#
# PCOD9214403 Si02
#       5
#     4   8   8   8   8
#     4  10  23  38  68  88 119 162 206 248 308 370
#     4  10  22  40  60  85 118 162 206 249 297 357
#     4   9  21  38  58  86 120 158 200 250 301 361
#     4  10  23  38  62  94 128 158 195 256 312 367
#     4  10  23  36  59  91 123 155 199 249 306 366
#
# _framework density 21.467748
#
# number of rings (size 3 to 8) (size 9 to 14) (size 15 to 20)
#    0.000    2.222    0.000    0.333   10.889   10.667 
#    0.000    0.000    0.000    3.333    0.000    0.000 
#    0.000    0.000    0.000    0.000    0.000    0.000 
#
# Total GULP energy -100272.811088 kJ/mol
# GULP energy per Si atom -5570.711727 kJ/mol
# Density = 2.141889 g / cm^3
# Si number density = 21.467748 Si / 1000 Ang^3
#
#
#
# Elastic Constant Matrix: (Units=GPa)
#
#
# Indices 1 2 3 4 5 6 
#
# 1 53.0544 18.2036 31.0072 -0.0001 21.6515 0.0001
# 2 18.2036 65.8266 11.3254 0.0000 -1.9226 0.0000
# 3 31.0072 11.3254 131.1016 -0.0001 19.8908 0.0001
# 4 -0.0001 0.0000 -0.0001 16.5816 0.0001 -2.0847
# 5 21.6515 -1.9226 19.8908 0.0001 35.0737 -0.0001
# 6 0.0001 0.0000 0.0001 -2.0847 -0.0001 5.6780
#
#
#
# Elastic Compliance Matrix: (Units=1/GPa)
#
#
# Indices 1 2 3 4 5 6 
#
# 1 0.031215 -0.008454 -0.004003 0.000000 -0.017463 -0.000001
# 2 -0.008454 0.017809 -0.000524 0.000000 0.006492 0.000000
# 3 -0.004003 -0.000524 0.009026 0.000000 -0.002676 0.000000
# 4 0.000000 0.000000 0.000000 0.063226 0.000000 0.023214
# 5 -0.017463 0.006492 -0.002676 0.000000 0.041165 0.000001
# 6 -0.000001 0.000000 0.000000 0.023214 0.000001 0.184641
#
#
# Mechanical properties :
#
#
# Convention : Reuss Voigt Hill
#
# Bulk Modulus (GPa) = 31.16365 41.22834 36.19599
# Shear Modulus (GPa) = 13.02967 24.09641 18.56304
#
# Velocity S-wave (km/s) = 2.46629 3.35393 2.94376
# Velocity P-wave (km/s) = 4.76006 5.85192 5.33400
#
# Compressibility (1/GPa) = 0.03208867
#
# Stress axis : x y z
#
# Youngs Moduli (GPa) = 32.03562 56.15164 110.79405
#
# Poissons Ratio (x) = 0.47468 0.44352
# Poissons Ratio (y) = 0.27081 0.05806
# Poissons Ratio (z) = 0.12824 0.02943
#
# Static dielectric constant tensor:
#      x y z
#    x 1.909720 0.000000 0.045520 
#    y 0.000000 1.797120 0.000000 
#    z 0.045520 0.000000 1.848160 
# 
# From -- ./inp_files/64003.got.cif
#   From: 2010.05.17/outbox.cif.g08.bks.cpg/sg12_33_cif.got.tgz:64003.got - 2010.06.03 13:09:07.
