data_PCOD9214312
_publ_section_title
;
Structure prediction by ZEFSAII (Michael W. Deem and Ramdas Pophale) SiO2 
 PCOD9214312
Probable space group: C 2/M
;
_chemical_formula_sum "Si O2"
_cell_formula_units_Z 28
_cell_length_a 18.527109
_cell_length_b 15.099905
_cell_length_c 5.101409
_cell_angle_alpha 90.000000
_cell_angle_beta 68.965647
_cell_angle_gamma 90.000000
_cell_volume 1332.059760
_symmetry_space_group_name_H-M "C 2/M"
_symmetry_group_IT_number 12
_symmetry_cell_setting 'monoclinic'
loop_
_space_group_symop_operation_xyz
x,y,z
-x,y,-z
-x,-y,-z
x,-y,z
1/2+x,1/2+y,z
1/2-x,1/2+y,-z
1/2-x,1/2-y,-z
1/2+x,1/2-y,z
loop_
_atom_site_type_symbol
_atom_site_label
_atom_site_fract_x
_atom_site_fract_y
_atom_site_fract_z
Si Si1 0.945711 0.000000 0.324707
Si Si2 0.801223 0.312666 0.746977
Si Si3 0.149993 0.161494 0.719385
Si Si4 0.947649 0.712469 0.823535
O O1 0.892377 0.913681 0.384694
O O2 0.000000 0.000000 0.500000
O O3 0.000000 0.000000 0.000000
O O4 0.834376 0.248862 0.476265
O O5 0.733631 0.372121 0.711582
O O6 0.874262 0.345890 0.819581
O O7 0.750000 0.250000 0.000000
O O8 0.092695 0.196982 0.021423
O O9 0.000000 0.726642 0.500000
O O10 0.000000 0.680108 0.000000
#
# Coordination Sequence:
#
# PCOD9214312 Si02
#       4
#     4   8   8   8
#     4  12  30  38  58  90 130 169 190 232 304 375
#     4   9  20  36  60  78 113 159 210 248 285 344
#     4  10  22  40  54  83 121 163 203 238 291 363
#     4  11  20  32  58  87 115 145 192 256 299 335
#
# _framework density 21.020078000000002
#
# number of rings (size 3 to 8) (size 9 to 14) (size 15 to 20)
#    0.000    1.714    2.857    0.857   12.000    0.000 
#    0.000    0.000    0.000    0.000    0.000    2.000 
#    0.000    1.143    0.000    0.000    0.000    0.000 
#
# Total GULP energy -78081.600938 kJ/mol
# GULP energy per Si atom -5577.257210 kJ/mol
# Density = 2.097224 g / cm^3
# Si number density = 21.020078 Si / 1000 Ang^3
#
#
#
# Elastic Constant Matrix: (Units=GPa)
#
#
# Indices 1 2 3 4 5 6 
#
# 1 274.1495 29.5254 39.4093 0.0000 17.0149 0.0000
# 2 29.5254 20.4928 2.3194 0.0000 3.7847 0.0000
# 3 39.4093 2.3194 137.0974 0.0000 3.3380 0.0000
# 4 0.0000 0.0000 0.0000 5.5649 0.0000 1.2712
# 5 17.0149 3.7847 3.3380 0.0000 36.5667 0.0000
# 6 0.0000 0.0000 0.0000 1.2712 0.0000 34.4754
#
#
#
# Elastic Compliance Matrix: (Units=1/GPa)
#
#
# Indices 1 2 3 4 5 6 
#
# 1 0.004569 -0.006196 -0.001175 0.000000 -0.001378 0.000000
# 2 -0.006196 0.058221 0.000875 0.000000 -0.003223 0.000000
# 3 -0.001175 0.000875 0.007623 0.000000 -0.000240 0.000000
# 4 0.000000 0.000000 0.000000 0.181224 0.000000 -0.006682
# 5 -0.001378 -0.003223 -0.000240 0.000000 0.028344 0.000000
# 6 0.000000 0.000000 0.000000 -0.006682 0.000000 0.029253
#
#
# Mechanical properties :
#
#
# Convention : Reuss Voigt Hill
#
# Bulk Modulus (GPa) = 17.41554 63.80530 40.61042
# Shear Modulus (GPa) = 14.64703 39.35379 27.00041
#
# Velocity S-wave (km/s) = 2.64258 4.33159 3.58789
# Velocity P-wave (km/s) = 4.19692 7.44562 6.04365
#
# Compressibility (1/GPa) = 0.05741999
#
# Stress axis : x y z
#
# Youngs Moduli (GPa) = 218.84881 17.17600 131.18337
#
# Poissons Ratio (x) = 0.10642 0.15416
# Poissons Ratio (y) = 1.35598 -0.11473
# Poissons Ratio (z) = 0.25717 -0.01502
#
# Static dielectric constant tensor:
#      x y z
#    x 1.911740 0.000000 0.020270 
#    y 0.000000 1.747490 0.000000 
#    z 0.020270 0.000000 1.817580 
# 
# From -- ./inp_files/14395.got.cif
#   From: 2010.05.17/outbox.cif.g08.bks.cpg/sg12_8_cif.got.tgz:14395.got - 2010.06.03 13:09:07.
