data_PCOD9214379
_publ_section_title
;
Structure prediction by ZEFSAII (Michael W. Deem and Ramdas Pophale) SiO2 
 PCOD9214379
Probable space group: C 2/M
;
_chemical_formula_sum "Si O2"
_cell_formula_units_Z 56
_cell_length_a 10.001044
_cell_length_b 28.239477
_cell_length_c 12.482068
_cell_angle_alpha 90.000000
_cell_angle_beta 113.388510
_cell_angle_gamma 90.000000
_cell_volume 3235.584837
_symmetry_space_group_name_H-M "C 2/M"
_symmetry_group_IT_number 12
_symmetry_cell_setting 'monoclinic'
loop_
_space_group_symop_operation_xyz
x,y,z
-x,y,-z
-x,-y,-z
x,-y,z
1/2+x,1/2+y,z
1/2-x,1/2+y,-z
1/2-x,1/2-y,-z
1/2+x,1/2-y,z
loop_
_atom_site_type_symbol
_atom_site_label
_atom_site_fract_x
_atom_site_fract_y
_atom_site_fract_z
Si Si1 0.339114 0.052457 0.403416
Si Si2 0.160244 0.703211 0.003470
Si Si3 0.075597 0.697404 0.748214
Si Si4 0.170734 0.948189 0.572272
Si Si5 0.737846 0.152586 0.390525
Si Si6 0.599551 0.690707 0.752879
Si Si7 0.708183 0.648954 0.337161
O O1 0.500000 0.064004 0.500000
O O2 0.240220 0.048062 0.477107
O O3 0.270958 0.097504 0.322453
O O4 0.345628 0.000000 0.353449
O O5 0.134250 0.678404 0.881184
O O6 0.250000 0.750000 0.000000
O O7 0.262435 0.680123 0.126263
O O8 0.000000 0.713704 0.000000
O O9 0.056077 0.754101 0.751253
O O10 0.192727 0.686506 0.693765
O O11 0.923206 0.672784 0.674569
O O12 0.244765 0.901751 0.644253
O O13 0.000000 0.938878 0.500000
O O14 0.188151 0.000000 0.630791
O O15 0.848437 0.181898 0.351946
O O16 0.773112 0.153416 0.528224
O O17 0.460902 0.658816 0.738087
#
# Coordination Sequence:
#
# PCOD9214379 Si02
#       7
#     8   8   8   8   8   8   8
#     4   9  17  32  52  74 106 142 178 220 258 307
#     4  10  22  40  60  76  97 138 195 239 260 292
#     4  11  23  36  54  76 108 144 184 222 257 313
#     4   9  17  30  50  74 102 138 178 216 256 305
#     4  11  20  35  52  78 115 144 171 215 266 330
#     4  11  23  36  54  76 108 146 182 221 261 311
#     4  11  22  33  52  84 113 142 175 212 273 333
#
# _framework density 17.307535999999999
#
# number of rings (size 3 to 8) (size 9 to 14) (size 15 to 20)
#    0.000    1.714    1.429    5.143    6.000    3.429 
#    0.000    0.000    0.000    0.000    0.000    6.000 
#    0.000    0.000    0.000    0.000    0.000    0.000 
#
# Total GULP energy -156001.239340 kJ/mol
# GULP energy per Si atom -5571.472834 kJ/mol
# Density = 1.726814 g / cm^3
# Si number density = 17.307536 Si / 1000 Ang^3
#
#
#
# Elastic Constant Matrix: (Units=GPa)
#
#
# Indices 1 2 3 4 5 6 
#
# 1 107.2408 16.3616 26.6858 0.0000 16.6169 0.0000
# 2 16.3616 70.5085 38.5429 0.0000 10.8327 0.0000
# 3 26.6858 38.5429 65.4611 0.0000 12.2001 0.0000
# 4 0.0000 0.0000 0.0000 -3.8501 0.0000 10.8179
# 5 16.6169 10.8327 12.2001 0.0000 29.1483 0.0000
# 6 0.0000 0.0000 0.0000 10.8179 0.0000 19.4779
#
#
#
# Elastic Compliance Matrix: (Units=1/GPa)
#
#
# Indices 1 2 3 4 5 6 
#
# 1 0.010953 0.000216 -0.003702 0.000000 -0.004775 0.000000
# 2 0.000216 0.021137 -0.011981 0.000000 -0.002964 0.000000
# 3 -0.003702 -0.011981 0.024530 0.000000 -0.003704 0.000000
# 4 0.000000 0.000000 0.000000 -0.101438 0.000000 0.056338
# 5 -0.004775 -0.002964 -0.003704 0.000000 0.039681 0.000000
# 6 0.000000 0.000000 0.000000 0.056338 0.000000 0.020051
#
#
# Mechanical properties :
#
#
# Convention : Reuss Voigt Hill
#
# Bulk Modulus (GPa) = 38.93273 45.15456 42.04365
# Shear Modulus (GPa) = 91.89299 19.72990 55.81145
#
# Velocity S-wave (km/s) = 7.29448 3.37999 5.68480
# Velocity P-wave (km/s) = 9.66899 6.43262 8.21182
#
# Compressibility (1/GPa) = 0.02568533
#
# Stress axis : x y z
#
# Youngs Moduli (GPa) = 91.29927 47.30973 40.76625
#
# Poissons Ratio (x) = -0.01020 0.15092
# Poissons Ratio (y) = -0.01969 0.48842
# Poissons Ratio (z) = 0.33801 0.56682
#
# Static dielectric constant tensor:
#      x y z
#    x 1.561630 0.000000 -0.018580 
#    y 0.000000 1.666190 0.000000 
#    z -0.018580 0.000000 1.583930 
# 
# From -- ./inp_files/125826.got.cif
#   From: 2010.05.17/outbox.cif.g08.bks.cpg/sg12_63_cif.got.tgz:125826.got - 2010.06.03 13:09:07.
