data_PCOD9214216
_publ_section_title
;
Structure prediction by ZEFSAII (Michael W. Deem and Ramdas Pophale) SiO2 
 PCOD9214216
Probable space group: C 2/M
;
_chemical_formula_sum "Si O2"
_cell_formula_units_Z 40
_cell_length_a 25.809428
_cell_length_b 12.824247
_cell_length_c 8.842539
_cell_angle_alpha 90.000000
_cell_angle_beta 45.178600
_cell_angle_gamma 90.000000
_cell_volume 2075.973442
_symmetry_space_group_name_H-M "C 2/M"
_symmetry_group_IT_number 12
_symmetry_cell_setting 'monoclinic'
loop_
_space_group_symop_operation_xyz
x,y,z
-x,y,-z
-x,-y,-z
x,-y,z
1/2+x,1/2+y,z
1/2-x,1/2+y,-z
1/2-x,1/2-y,-z
1/2+x,1/2-y,z
loop_
_atom_site_type_symbol
_atom_site_label
_atom_site_fract_x
_atom_site_fract_y
_atom_site_fract_z
Si Si1 0.913896 0.000000 0.130917
Si Si2 0.535492 0.000000 0.167041
Si Si3 0.111918 0.179477 0.606757
Si Si4 0.000000 0.668450 0.000000
Si Si5 0.171055 0.000000 0.980453
Si Si6 0.429820 0.500000 0.536689
Si Si7 0.111492 0.500000 0.328769
Si Si8 0.280297 0.182473 0.798637
O O1 0.874972 0.099663 0.283867
O O2 0.898564 0.000000 0.986046
O O3 0.000000 0.000000 0.000000
O O4 0.539972 0.097044 0.042966
O O5 0.589795 0.000000 0.196944
O O6 0.457334 0.000000 0.415101
O O7 0.055074 0.261721 0.790478
O O8 0.075829 0.104085 0.553807
O O9 0.181410 0.239366 0.397738
O O10 0.218910 0.895701 0.859636
O O11 0.141994 0.000000 0.210778
O O12 0.500000 0.500000 0.500000
O O13 0.157934 0.602958 0.268343
O O14 0.250000 0.250000 0.000000
#
# Coordination Sequence:
#
# PCOD9214216 Si02
#       8
#     4   4   8   4   4   4   4   8
#     4  11  24  43  65  98 132 160 212 272 323 378
#     4  10  22  39  64  96 125 159 214 267 313 364
#     4  11  23  41  63  91 132 169 201 265 318 379
#     4  11  22  39  62  96 130 163 208 255 330 376
#     4  11  24  42  68  95 126 170 216 265 315 385
#     4  11  24  39  66  97 124 164 223 269 316 363
#     4  10  22  40  64  95 124 161 216 266 301 368
#     4  11  23  43  64  92 129 170 214 255 315 386
#
# _framework density 19.268068
#
# number of rings (size 3 to 8) (size 9 to 14) (size 15 to 20)
#    0.000    1.200    5.000    1.200    0.000    4.000 
#    0.000    2.000    0.000    0.000    0.000    0.000 
#    0.000    0.000    0.000    0.000    0.000    0.000 
#
# Total GULP energy -111643.012955 kJ/mol
# GULP energy per Si atom -5582.150648 kJ/mol
# Density = 1.922421 g / cm^3
# Si number density = 19.268068 Si / 1000 Ang^3
#
#
#
# Elastic Constant Matrix: (Units=GPa)
#
#
# Indices 1 2 3 4 5 6 
#
# 1 86.4286 23.6246 22.0851 0.0000 13.7032 0.0000
# 2 23.6246 125.7035 58.1446 0.0000 4.6989 0.0000
# 3 22.0851 58.1446 133.3154 0.0000 6.8486 0.0000
# 4 0.0000 0.0000 0.0000 71.7190 0.0000 28.7406
# 5 13.7032 4.6989 6.8486 0.0000 29.6214 0.0000
# 6 0.0000 0.0000 0.0000 28.7406 0.0000 67.0186
#
#
#
# Elastic Compliance Matrix: (Units=1/GPa)
#
#
# Indices 1 2 3 4 5 6 
#
# 1 0.013224 -0.001749 -0.001141 0.000000 -0.005576 0.000000
# 2 -0.001749 0.010207 -0.004170 0.000000 0.000154 0.000000
# 3 -0.001141 -0.004170 0.009561 0.000000 -0.001021 0.000000
# 4 0.000000 0.000000 0.000000 0.016837 0.000000 -0.007220
# 5 -0.005576 0.000154 -0.001021 0.000000 0.036551 0.000000
# 6 0.000000 0.000000 0.000000 -0.007220 0.000000 0.018018
#
#
# Mechanical properties :
#
#
# Convention : Reuss Voigt Hill
#
# Bulk Modulus (GPa) = 52.98923 61.46181 57.22552
# Shear Modulus (GPa) = 40.06138 49.77800 44.91969
#
# Velocity S-wave (km/s) = 4.56473 5.08827 4.83359
# Velocity P-wave (km/s) = 7.43929 8.15403 7.80485
#
# Compressibility (1/GPa) = 0.01887176
#
# Stress axis : x y z
#
# Youngs Moduli (GPa) = 75.61961 97.97252 104.58914
#
# Poissons Ratio (x) = 0.17134 0.11939
# Poissons Ratio (y) = 0.13225 0.43612
# Poissons Ratio (z) = 0.08632 0.40853
#
# Static dielectric constant tensor:
#      x y z
#    x 1.661740 0.000000 -0.007490 
#    y 0.000000 1.770570 0.000000 
#    z -0.007490 0.000000 1.669390 
# 
# From -- ./inp_files/102390.got.cif
#   From: 2010.05.17/outbox.cif.g08.bks.cpg/sg12_52_cif.got.tgz:102390.got - 2010.06.03 13:09:07.
