data_PCOD9214650
_publ_section_title
;
Structure prediction by ZEFSAII (Michael W. Deem and Ramdas Pophale) SiO2 
 PCOD9214650
Probable space group: C 2/M
;
_chemical_formula_sum "Si O2"
_cell_formula_units_Z 48
_cell_length_a 17.262700
_cell_length_b 12.538388
_cell_length_c 12.793415
_cell_angle_alpha 90.000000
_cell_angle_beta 116.848362
_cell_angle_gamma 90.000000
_cell_volume 2470.594855
_symmetry_space_group_name_H-M "C 2/M"
_symmetry_group_IT_number 12
_symmetry_cell_setting 'monoclinic'
loop_
_space_group_symop_operation_xyz
x,y,z
-x,y,-z
-x,-y,-z
x,-y,z
1/2+x,1/2+y,z
1/2-x,1/2+y,-z
1/2-x,1/2-y,-z
1/2+x,1/2-y,z
loop_
_atom_site_type_symbol
_atom_site_label
_atom_site_fract_x
_atom_site_fract_y
_atom_site_fract_z
Si Si1 0.451533 0.378992 0.072752
Si Si2 0.535934 0.237910 0.298783
Si Si3 0.325075 0.710431 0.468119
Si Si4 0.318857 0.877420 0.756052
Si Si5 0.385046 0.875897 0.330495
Si Si6 0.773943 0.797714 0.903196
O O1 0.480389 0.500000 0.110626
O O2 0.475454 0.305588 0.184621
O O3 0.500000 0.336441 0.000000
O O4 0.352157 0.376186 0.977935
O O5 0.593645 0.315453 0.408025
O O6 0.604168 0.168397 0.271510
O O7 0.473666 0.165858 0.332261
O O8 0.250000 0.750000 0.500000
O O9 0.273221 0.628978 0.362658
O O10 0.359280 0.805327 0.414872
O O11 0.307098 0.796244 0.845703
O O12 0.336269 0.000000 0.795967
O O13 0.306972 0.854565 0.201109
O O14 0.391060 0.000000 0.360199
O O15 0.750000 0.750000 0.000000
#
# Coordination Sequence:
#
# PCOD9214650 Si02
#       6
#     8   8   8   8   8   8
#     4  11  23  41  64  88 122 165 206 248 301 364
#     4  11  21  41  63  93 125 157 202 258 303 361
#     4   9  22  40  59  86 125 156 197 249 296 359
#     4  10  22  40  63  88 121 162 202 253 311 359
#     4  11  23  39  66  94 121 161 204 252 308 362
#     4  11  22  42  60  88 128 160 203 257 299 362
#
# _framework density 19.428519999999999
#
# number of rings (size 3 to 8) (size 9 to 14) (size 15 to 20)
#    0.000    1.500    3.333    1.500    0.000    6.000 
#    0.000    0.833    0.000    3.000    0.000    0.000 
#    0.000    0.000    0.000    0.000    0.000    0.000 
#
# Total GULP energy -133889.728778 kJ/mol
# GULP energy per Si atom -5578.738699 kJ/mol
# Density = 1.938430 g / cm^3
# Si number density = 19.428520 Si / 1000 Ang^3
#
#
#
# Elastic Constant Matrix: (Units=GPa)
#
#
# Indices 1 2 3 4 5 6 
#
# 1 113.7797 21.3465 33.9905 0.0000 -8.9114 0.0000
# 2 21.3465 77.9843 20.6144 0.0000 -9.6975 0.0000
# 3 33.9905 20.6144 88.9856 0.0000 6.4366 0.0000
# 4 0.0000 0.0000 0.0000 7.3073 0.0000 3.7395
# 5 -8.9114 -9.6975 6.4366 0.0000 48.7541 0.0000
# 6 0.0000 0.0000 0.0000 3.7395 0.0000 19.6617
#
#
#
# Elastic Compliance Matrix: (Units=1/GPa)
#
#
# Indices 1 2 3 4 5 6 
#
# 1 0.010367 -0.001591 -0.003741 0.000000 0.002072 0.000000
# 2 -0.001591 0.014405 -0.002944 0.000000 0.002963 0.000000
# 3 -0.003741 -0.002944 0.013570 0.000000 -0.003061 0.000000
# 4 0.000000 0.000000 0.000000 0.151604 0.000000 -0.028834
# 5 0.002072 0.002963 -0.003061 0.000000 0.021883 0.000000
# 6 0.000000 0.000000 0.000000 -0.028834 0.000000 0.056344
#
#
# Mechanical properties :
#
#
# Convention : Reuss Voigt Hill
#
# Bulk Modulus (GPa) = 45.89165 48.07248 46.98207
# Shear Modulus (GPa) = 17.12383 28.79783 22.96083
#
# Velocity S-wave (km/s) = 2.97202 3.85417 3.44148
# Velocity P-wave (km/s) = 5.95393 6.67856 6.32663
#
# Compressibility (1/GPa) = 0.02179046
#
# Stress axis : x y z
#
# Youngs Moduli (GPa) = 96.45555 69.41927 73.69057
#
# Poissons Ratio (x) = 0.11046 0.27571
# Poissons Ratio (y) = 0.15348 0.21692
# Poissons Ratio (z) = 0.36088 0.20435
#
# Static dielectric constant tensor:
#      x y z
#    x 1.952930 0.000000 0.149410 
#    y 0.000000 1.643590 0.000000 
#    z 0.149410 0.000000 1.762710 
# 
# From -- ./inp_files/154305.got.cif
#   From: 2010.05.17/outbox.cif.g08.bks.cpg/sg12_78_cif.got.tgz:154305.got - 2010.06.03 13:09:07.
