data_PCOD9214847
_publ_section_title
;
Structure prediction by ZEFSAII (Michael W. Deem and Ramdas Pophale) SiO2 
 PCOD9214847
Probable space group: C 2/M
;
_chemical_formula_sum "Si O2"
_cell_formula_units_Z 36
_cell_length_a 16.751092
_cell_length_b 13.648298
_cell_length_c 9.383038
_cell_angle_alpha 90.000000
_cell_angle_beta 49.919150
_cell_angle_gamma 90.000000
_cell_volume 1641.360951
_symmetry_space_group_name_H-M "C 2/M"
_symmetry_group_IT_number 12
_symmetry_cell_setting 'monoclinic'
loop_
_space_group_symop_operation_xyz
x,y,z
-x,y,-z
-x,-y,-z
x,-y,z
1/2+x,1/2+y,z
1/2-x,1/2+y,-z
1/2-x,1/2-y,-z
1/2+x,1/2-y,z
loop_
_atom_site_type_symbol
_atom_site_label
_atom_site_fract_x
_atom_site_fract_y
_atom_site_fract_z
Si Si1 0.500000 0.281325 0.500000
Si Si2 0.844271 0.108453 0.156549
Si Si3 0.672998 0.835541 0.142491
Si Si4 0.112262 0.326869 0.920144
Si Si5 0.818834 0.886250 0.526665
O O1 0.430628 0.213117 0.679326
O O2 0.416871 0.341220 0.499772
O O3 0.734367 0.111147 0.197791
O O4 0.899553 0.208407 0.040953
O O5 0.832377 0.118563 0.340444
O O6 0.890226 0.000000 0.071945
O O7 0.750000 0.750000 0.000000
O O8 0.644731 0.883983 0.025729
O O9 0.209731 0.337411 0.700603
O O10 0.000000 0.362481 0.000000
O O11 0.812225 0.000000 0.573171
#
# Coordination Sequence:
#
# PCOD9214847 Si02
#       5
#     4   8   8   8   8
#     4  12  21  42  71  90 132 166 219 270 321 382
#     4  10  22  42  64  93 128 168 215 263 319 383
#     4  10  22  40  64  99 125 171 211 259 331 376
#     4  11  23  42  67  94 131 171 213 267 319 384
#     4  11  24  41  66  97 129 171 215 265 326 380
#
# _framework density 21.933018000000001
#
# number of rings (size 3 to 8) (size 9 to 14) (size 15 to 20)
#    0.000    1.333    4.444    2.333    3.111    1.778 
#    0.000    3.889    0.000    0.000    0.000    0.000 
#    0.000    0.000    0.000    0.000    0.000    0.000 
#
# Total GULP energy -100425.622939 kJ/mol
# GULP energy per Si atom -5579.201274 kJ/mol
# Density = 2.188310 g / cm^3
# Si number density = 21.933018 Si / 1000 Ang^3
#
#
#
# Elastic Constant Matrix: (Units=GPa)
#
#
# Indices 1 2 3 4 5 6 
#
# 1 183.6558 8.0331 28.5091 0.0000 1.8907 0.0000
# 2 8.0331 81.2916 6.5900 0.0000 -4.9783 0.0000
# 3 28.5091 6.5900 69.3687 0.0000 -4.0165 0.0000
# 4 0.0000 0.0000 0.0000 4.4597 0.0000 3.1524
# 5 1.8907 -4.9783 -4.0165 0.0000 47.0602 0.0000
# 6 0.0000 0.0000 0.0000 3.1524 0.0000 11.8171
#
#
#
# Elastic Compliance Matrix: (Units=1/GPa)
#
#
# Indices 1 2 3 4 5 6 
#
# 1 0.005839 -0.000413 -0.002388 0.000000 -0.000482 0.000000
# 2 -0.000413 0.012496 -0.000945 0.000000 0.001258 0.000000
# 3 -0.002388 -0.000945 0.015564 0.000000 0.001324 0.000000
# 4 0.000000 0.000000 0.000000 0.276338 0.000000 -0.073718
# 5 -0.000482 0.001258 0.001324 0.000000 0.021515 0.000000
# 6 0.000000 0.000000 0.000000 -0.073718 0.000000 0.104289
#
#
# Mechanical properties :
#
#
# Convention : Reuss Voigt Hill
#
# Bulk Modulus (GPa) = 37.86919 46.73117 42.30018
# Shear Modulus (GPa) = 11.05378 32.07965 21.56671
#
# Velocity S-wave (km/s) = 2.24738 3.82857 3.13916
# Velocity P-wave (km/s) = 4.90282 6.39504 5.69799
#
# Compressibility (1/GPa) = 0.02640669
#
# Stress axis : x y z
#
# Youngs Moduli (GPa) = 171.27016 80.02690 64.25212
#
# Poissons Ratio (x) = 0.03304 0.15345
# Poissons Ratio (y) = 0.07071 0.06069
# Poissons Ratio (z) = 0.40904 0.07559
#
# Static dielectric constant tensor:
#      x y z
#    x 1.898500 0.000000 0.028330 
#    y 0.000000 1.845310 0.000000 
#    z 0.028330 0.000000 1.730240 
# 
# From -- ./inp_files/72783.got.cif
#   From: 2010.05.17/outbox.cif.g08.bks.cpg/sg12_37_cif.got.tgz:72783.got - 2010.06.03 13:09:07.
