data_PCOD9214055
_publ_section_title
;
Structure prediction by ZEFSAII (Michael W. Deem and Ramdas Pophale) SiO2 
 PCOD9214055
Probable space group: C 2/M
;
_chemical_formula_sum "Si O2"
_cell_formula_units_Z 48
_cell_length_a 13.378543
_cell_length_b 11.712882
_cell_length_c 13.328831
_cell_angle_alpha 90.000000
_cell_angle_beta 72.884836
_cell_angle_gamma 90.000000
_cell_volume 1996.149772
_symmetry_space_group_name_H-M "C 2/M"
_symmetry_group_IT_number 12
_symmetry_cell_setting 'monoclinic'
loop_
_space_group_symop_operation_xyz
x,y,z
-x,y,-z
-x,-y,-z
x,-y,z
1/2+x,1/2+y,z
1/2-x,1/2+y,-z
1/2-x,1/2-y,-z
1/2+x,1/2-y,z
loop_
_atom_site_type_symbol
_atom_site_label
_atom_site_fract_x
_atom_site_fract_y
_atom_site_fract_z
Si Si1 0.350696 0.500000 0.993009
Si Si2 0.000000 0.193702 0.000000
Si Si3 0.723057 0.877155 0.385639
Si Si4 0.587715 0.307760 0.541113
Si Si5 0.698702 0.170311 0.159727
Si Si6 0.832945 0.632187 0.142577
Si Si7 0.973887 0.626747 0.283166
O O1 0.439528 0.602517 0.947114
O O2 0.267768 0.599058 0.061702
O O3 0.915643 0.280836 0.070297
O O4 0.659113 0.770985 0.448021
O O5 0.834118 0.874401 0.409535
O O6 0.730860 0.868080 0.263270
O O7 0.673314 0.000000 0.424430
O O8 0.500000 0.368105 0.500000
O O9 0.528056 0.220469 0.631798
O O10 0.724364 0.305008 0.154311
O O11 0.576313 0.144985 0.184435
O O12 0.832789 0.500000 0.108504
O O13 0.868962 0.631665 0.247874
O O14 0.982015 0.500000 0.323059
#
# Coordination Sequence:
#
# PCOD9214055 Si02
#       7
#     4   4   8   8   8   8   8
#     4   9  18  34  62  95 111 145 189 260 285 341
#     4   9  19  38  66  86 119 149 198 234 308 353
#     4  11  22  37  58  84 116 158 200 244 292 340
#     4  11  23  37  55  86 120 156 198 246 287 346
#     4  11  19  36  62  88 118 151 201 242 292 343
#     4  10  22  39  62  86 121 157 191 238 300 360
#     4  11  21  36  60  88 117 155 200 244 289 341
#
# _framework density 24.046291
#
# number of rings (size 3 to 8) (size 9 to 14) (size 15 to 20)
#    0.000    1.500    5.000    0.750    0.000    1.000 
#    0.000    4.167   12.833    0.000    0.000    0.000 
#    0.000    0.000    0.000    0.000    0.000    0.000 
#
# Total GULP energy -133608.077240 kJ/mol
# GULP energy per Si atom -5567.003218 kJ/mol
# Density = 2.399156 g / cm^3
# Si number density = 24.046291 Si / 1000 Ang^3
#
#
#
# Elastic Constant Matrix: (Units=GPa)
#
#
# Indices 1 2 3 4 5 6 
#
# 1 98.1382 34.3149 7.5687 0.0000 23.7248 0.0000
# 2 34.3149 159.0009 21.1294 0.0000 1.6054 0.0000
# 3 7.5687 21.1294 46.4355 0.0000 12.4982 0.0000
# 4 0.0000 0.0000 0.0000 -1.9335 0.0000 -26.2917
# 5 23.7248 1.6054 12.4982 0.0000 39.1074 0.0000
# 6 0.0000 0.0000 0.0000 -26.2917 0.0000 13.3177
#
#
#
# Elastic Compliance Matrix: (Units=1/GPa)
#
#
# Indices 1 2 3 4 5 6 
#
# 1 0.013110 -0.002936 0.001430 0.000000 -0.008290 0.000000
# 2 -0.002936 0.007372 -0.003582 0.000000 0.002623 0.000000
# 3 0.001430 -0.003582 0.025303 0.000000 -0.008807 0.000000
# 4 0.000000 0.000000 0.000000 -0.018574 0.000000 -0.036669
# 5 -0.008290 0.002623 -0.008807 0.000000 0.033307 0.000000
# 6 0.000000 0.000000 0.000000 -0.036669 0.000000 0.002697
#
#
# Mechanical properties :
#
#
# Convention : Reuss Voigt Hill
#
# Bulk Modulus (GPa) = 28.08235 47.73341 37.90788
# Shear Modulus (GPa) = 58.64473 26.13576 42.39025
#
# Velocity S-wave (km/s) = 4.94381 3.30038 4.20320
# Velocity P-wave (km/s) = 6.65523 5.86661 6.27332
#
# Compressibility (1/GPa) = 0.03560955
#
# Stress axis : x y z
#
# Youngs Moduli (GPa) = 76.27787 135.64140 39.52178
#
# Poissons Ratio (x) = 0.39820 -0.05652
# Poissons Ratio (y) = 0.22393 0.14157
# Poissons Ratio (z) = -0.10909 0.48589
#
# Static dielectric constant tensor:
#      x y z
#    x 1.995790 0.000000 0.039620 
#    y 0.000000 1.924970 0.000000 
#    z 0.039620 0.000000 1.928540 
# 
# From -- ./inp_files/212589.got.cif
#   From: 2010.05.17/outbox.cif.g08.bks.cpg/sg12_107_cif.got.tgz:212589.got - 2010.06.03 13:09:07.
