data_PCOD9214146
_publ_section_title
;
Structure prediction by ZEFSAII (Michael W. Deem and Ramdas Pophale) SiO2 
 PCOD9214146
Probable space group: C 2/M
;
_chemical_formula_sum "Si O2"
_cell_formula_units_Z 64
_cell_length_a 32.344803
_cell_length_b 8.254509
_cell_length_c 15.507593
_cell_angle_alpha 90.000000
_cell_angle_beta 48.753213
_cell_angle_gamma 90.000000
_cell_volume 3113.055213
_symmetry_space_group_name_H-M "C 2/M"
_symmetry_group_IT_number 12
_symmetry_cell_setting 'monoclinic'
loop_
_space_group_symop_operation_xyz
x,y,z
-x,y,-z
-x,-y,-z
x,-y,z
1/2+x,1/2+y,z
1/2-x,1/2+y,-z
1/2-x,1/2-y,-z
1/2+x,1/2-y,z
loop_
_atom_site_type_symbol
_atom_site_label
_atom_site_fract_x
_atom_site_fract_y
_atom_site_fract_z
Si Si1 0.376921 0.194147 0.980187
Si Si2 0.330940 0.698902 0.644978
Si Si3 0.958310 0.310025 0.131655
Si Si4 0.855050 0.188375 0.195439
Si Si5 0.244284 0.304856 0.909772
Si Si6 0.511582 0.691714 0.231020
Si Si7 0.759073 0.188150 0.584870
Si Si8 0.457209 0.697400 0.485815
O O1 0.423723 0.270727 0.856838
O O2 0.380864 0.000000 0.971033
O O3 0.384051 0.251920 0.068346
O O4 0.315886 0.247151 0.038805
O O5 0.330238 0.500000 0.644187
O O6 0.290740 0.751148 0.778274
O O7 0.305288 0.754764 0.587998
O O8 0.393600 0.750520 0.576793
O O9 0.948131 0.500000 0.129657
O O10 0.900194 0.219716 0.206665
O O11 0.986577 0.284110 0.184144
O O12 0.000000 0.249991 0.000000
O O13 0.799325 0.286181 0.287557
O O14 0.841258 0.000000 0.209108
O O15 0.245619 0.500000 0.905950
O O16 0.250000 0.250000 0.000000
O O17 0.503419 0.500000 0.229410
O O18 0.482184 0.741260 0.359070
O O19 0.750000 0.250000 0.500000
O O20 0.771654 0.000000 0.558282
O O21 0.500000 0.754189 0.500000
O O22 0.456180 0.500000 0.492469
#
# Coordination Sequence:
#
# PCOD9214146 Si02
#       8
#     8   8   8   8   8   8   8   8
#     4  11  22  40  61  87 125 165 203 252 319 383
#     4   9  19  39  62  86 124 165 204 254 310 372
#     4  11  23  39  60  86 124 169 202 244 309 375
#     4  12  24  39  62  90 123 160 207 263 312 369
#     4  10  22  39  63  91 120 158 202 254 317 378
#     4  11  23  37  61  95 124 159 211 262 305 368
#     4  11  23  41  63  90 126 169 213 256 315 379
#     4   9  20  38  61  90 123 160 206 259 312 364
#
# _framework density 20.558582000000001
#
# number of rings (size 3 to 8) (size 9 to 14) (size 15 to 20)
#    0.000    1.500    2.500    2.625    3.500    1.500 
#    0.000    0.000    0.000    3.000    0.000    0.000 
#    0.000    0.000    0.000    0.000    0.000    0.000 
#
# Total GULP energy -178765.570068 kJ/mol
# GULP energy per Si atom -5586.424065 kJ/mol
# Density = 2.051179 g / cm^3
# Si number density = 20.558582 Si / 1000 Ang^3
#
#
#
# Elastic Constant Matrix: (Units=GPa)
#
#
# Indices 1 2 3 4 5 6 
#
# 1 154.7593 3.5432 74.4987 0.0000 -9.7063 -0.0001
# 2 3.5432 9.9978 -4.3059 0.0000 6.4253 -0.0003
# 3 74.4987 -4.3059 105.6775 0.0000 -6.2710 0.0001
# 4 0.0000 0.0000 0.0000 22.0766 0.0000 1.8698
# 5 -9.7063 6.4253 -6.2710 0.0000 33.8639 -0.0001
# 6 -0.0001 -0.0003 0.0001 1.8698 -0.0001 21.2829
#
#
#
# Elastic Compliance Matrix: (Units=1/GPa)
#
#
# Indices 1 2 3 4 5 6 
#
# 1 0.010544 -0.009168 -0.007608 0.000000 0.003353 0.000000
# 2 -0.009168 0.123102 0.010047 0.000000 -0.024124 0.000002
# 3 -0.007608 0.010047 0.015159 0.000000 -0.001280 0.000000
# 4 0.000000 0.000000 0.000000 0.045636 0.000000 -0.004009
# 5 0.003353 -0.024124 -0.001280 0.000000 0.034831 0.000000
# 6 0.000000 0.000002 0.000000 -0.004009 0.000000 0.047338
#
#
# Mechanical properties :
#
#
# Convention : Reuss Voigt Hill
#
# Bulk Modulus (GPa) = 7.38833 46.43407 26.91120
# Shear Modulus (GPa) = 14.91714 28.55793 21.73754
#
# Velocity S-wave (km/s) = 2.69660 3.73111 3.25521
# Velocity P-wave (km/s) = 3.64653 6.41847 5.21986
#
# Compressibility (1/GPa) = 0.13534866
#
# Stress axis : x y z
#
# Youngs Moduli (GPa) = 94.83961 8.12334 65.96558
#
# Poissons Ratio (x) = 0.07448 0.50185
# Poissons Ratio (y) = 0.86951 -0.66279
# Poissons Ratio (z) = 0.72152 -0.08162
#
# Static dielectric constant tensor:
#      x y z
#    x 1.702760 0.000000 -0.026650 
#    y 0.000000 1.717000 0.000000 
#    z -0.026650 0.000000 1.698350 
# 
# From -- ./inp_files/249695.got.cif
#   From: 2010.05.17/outbox.cif.g08.bks.cpg/sg12_125_cif.got.tgz:249695.got - 2010.06.03 13:09:07.
