data_PCOD9214494
_publ_section_title
;
Structure prediction by ZEFSAII (Michael W. Deem and Ramdas Pophale) SiO2 
 PCOD9214494
Probable space group: C 2/M
;
_chemical_formula_sum "Si O2"
_cell_formula_units_Z 64
_cell_length_a 26.744135
_cell_length_b 18.422364
_cell_length_c 6.429652
_cell_angle_alpha 90.000000
_cell_angle_beta 76.089059
_cell_angle_gamma 90.000000
_cell_volume 3074.915986
_symmetry_space_group_name_H-M "C 2/M"
_symmetry_group_IT_number 12
_symmetry_cell_setting 'monoclinic'
loop_
_space_group_symop_operation_xyz
x,y,z
-x,y,-z
-x,-y,-z
x,-y,z
1/2+x,1/2+y,z
1/2-x,1/2+y,-z
1/2-x,1/2-y,-z
1/2+x,1/2-y,z
loop_
_atom_site_type_symbol
_atom_site_label
_atom_site_fract_x
_atom_site_fract_y
_atom_site_fract_z
Si Si1 0.036645 0.824351 0.292331
Si Si2 0.096062 0.584962 0.403401
Si Si3 0.631253 0.679586 0.490734
Si Si4 0.463355 0.175648 0.865620
Si Si5 0.903938 0.084962 0.095525
Si Si6 0.191407 0.415821 0.996363
Si Si7 0.191407 0.084179 0.120824
Si Si8 0.631253 0.820414 0.746759
O O1 0.088413 0.800086 0.361938
O O2 0.010768 0.750000 0.239232
O O3 0.000000 0.860243 0.500000
O O4 0.053312 0.876351 0.089811
O O5 0.085318 0.500000 0.440357
O O6 0.053312 0.623648 0.303565
O O7 0.104053 0.625270 0.612071
O O8 0.149766 0.592826 0.221249
O O9 0.604053 0.625270 0.679824
O O10 0.675535 0.637321 0.322956
O O11 0.648119 0.750000 0.601881
O O12 0.500000 0.139757 0.000000
O O13 0.411587 0.199913 0.038764
O O14 0.914682 0.000000 0.110992
O O15 0.850234 0.092826 0.020782
O O16 0.187355 0.500000 0.930093
O O17 0.250000 0.402996 0.006435
O O18 0.175535 0.362679 0.825974
O O19 0.187355 0.000000 0.195198
#
# Coordination Sequence:
#
# PCOD9214494 Si02
#       8
#     8   8   8   8   8   8   8   8
#     4  11  23  39  63  88 117 158 199 240 292 356
#     4  10  22  40  61  88 121 156 196 247 296 344
#     4  11  21  37  60  87 119 157 199 242 295 349
#     4  11  23  39  63  88 117 158 199 240 292 356
#     4  10  22  40  61  88 121 156 196 247 296 344
#     4   9  20  38  59  85 119 158 199 243 294 352
#     4   9  20  38  59  85 119 158 199 243 294 352
#     4  11  21  37  60  87 119 157 199 242 295 349
#
# _framework density 20.813576000000001
#
# number of rings (size 3 to 8) (size 9 to 14) (size 15 to 20)
#    0.000    1.750    2.500    1.500    0.000    3.000 
#    0.000    5.000    0.000    0.000    0.000    0.000 
#    0.000    0.000    0.000    0.000    0.000    0.000 
#
# Total GULP energy -178890.288193 kJ/mol
# GULP energy per Si atom -5590.321506 kJ/mol
# Density = 2.076620 g / cm^3
# Si number density = 20.813576 Si / 1000 Ang^3
#
#
#
# Elastic Constant Matrix: (Units=GPa)
#
#
# Indices 1 2 3 4 5 6 
#
# 1 59.8471 11.0766 8.4842 0.0000 -2.7003 0.0000
# 2 11.0766 93.4120 39.5489 0.0000 8.4546 0.0000
# 3 8.4842 39.5489 72.3935 0.0000 6.4262 0.0000
# 4 0.0000 0.0000 0.0000 35.4516 0.0000 3.7142
# 5 -2.7003 8.4546 6.4262 0.0000 23.8445 0.0000
# 6 0.0000 0.0000 0.0000 3.7142 0.0000 22.9437
#
#
#
# Elastic Compliance Matrix: (Units=1/GPa)
#
#
# Indices 1 2 3 4 5 6 
#
# 1 0.017357 -0.001760 -0.001334 0.000000 0.002949 0.000000
# 2 -0.001760 0.014312 -0.007319 0.000000 -0.003301 0.000000
# 3 -0.001334 -0.007319 0.018186 0.000000 -0.002457 0.000000
# 4 0.000000 0.000000 0.000000 0.028694 0.000000 -0.004645
# 5 0.002949 -0.003301 -0.002457 0.000000 0.044105 0.000000
# 6 0.000000 0.000000 0.000000 -0.004645 0.000000 0.044337
#
#
# Mechanical properties :
#
#
# Convention : Reuss Voigt Hill
#
# Bulk Modulus (GPa) = 34.44976 38.20798 36.32887
# Shear Modulus (GPa) = 25.31712 27.55082 26.43397
#
# Velocity S-wave (km/s) = 3.49144 3.64221 3.56762
# Velocity P-wave (km/s) = 5.73071 6.00705 5.87051
#
# Compressibility (1/GPa) = 0.02902778
#
# Stress axis : x y z
#
# Youngs Moduli (GPa) = 57.61273 69.87356 54.98615
#
# Poissons Ratio (x) = 0.12299 0.07337
# Poissons Ratio (y) = 0.10141 0.40245
# Poissons Ratio (z) = 0.07688 0.51141
#
# Static dielectric constant tensor:
#      x y z
#    x 1.746440 0.000000 -0.004660 
#    y 0.000000 1.730500 0.000000 
#    z -0.004660 0.000000 1.730740 
# 
# From -- ./inp_files/29883.got.cif
#   From: 2010.05.17/outbox.cif.g08.bks.cpg/sg12_15_cif.got.tgz:29883.got - 2010.06.03 13:09:07.
