data_PCOD9214096
_publ_section_title
;
Structure prediction by ZEFSAII (Michael W. Deem and Ramdas Pophale) SiO2 
 PCOD9214096
Probable space group: C 2/M
;
_chemical_formula_sum "Si O2"
_cell_formula_units_Z 56
_cell_length_a 23.793921
_cell_length_b 8.679614
_cell_length_c 15.221842
_cell_angle_alpha 90.000000
_cell_angle_beta 118.126204
_cell_angle_gamma 90.000000
_cell_volume 2772.417125
_symmetry_space_group_name_H-M "C 2/M"
_symmetry_group_IT_number 12
_symmetry_cell_setting 'monoclinic'
loop_
_space_group_symop_operation_xyz
x,y,z
-x,y,-z
-x,-y,-z
x,-y,z
1/2+x,1/2+y,z
1/2-x,1/2+y,-z
1/2-x,1/2-y,-z
1/2+x,1/2-y,z
loop_
_atom_site_type_symbol
_atom_site_label
_atom_site_fract_x
_atom_site_fract_y
_atom_site_fract_z
Si Si1 0.190464 0.817524 0.512762
Si Si2 0.434824 0.179748 0.665466
Si Si3 0.261083 0.821702 0.278947
Si Si4 0.364070 0.174176 0.790924
Si Si5 0.068298 0.825121 0.003726
Si Si6 0.211106 0.815800 0.887297
Si Si7 0.571440 0.186098 0.813126
O O1 0.250000 0.750000 0.500000
O O2 0.122118 0.770196 0.422795
O O3 0.194172 0.753038 0.614686
O O4 0.197798 0.000000 0.518582
O O5 0.418166 0.187149 0.757138
O O6 0.508359 0.229670 0.710660
O O7 0.429777 0.000000 0.635653
O O8 0.190798 0.796796 0.267278
O O9 0.260033 0.736999 0.184534
O O10 0.275954 0.000000 0.277076
O O11 0.338175 0.000000 0.766350
O O12 0.390809 0.211870 0.905986
O O13 0.063274 0.758956 0.903250
O O14 0.095103 0.000000 0.022055
O O15 0.000000 0.832654 0.000000
O O16 0.139348 0.749046 0.832078
O O17 0.210389 0.000000 0.893490
O O18 0.250000 0.750000 0.000000
O O19 0.572755 0.000000 0.819052
#
# Coordination Sequence:
#
# PCOD9214096 Si02
#       7
#     8   8   8   8   8   8   8
#     4  12  24  40  65  97 134 173 216 269 326 386
#     4  10  22  39  62  92 129 168 210 261 322 385
#     4  12  25  43  67  95 128 169 218 270 324 384
#     4  11  21  36  59  89 126 166 209 259 319 382
#     4  11  22  34  53  85 125 164 208 257 314 380
#     4  12  26  47  71  97 130 171 220 270 322 386
#     4  11  23  42  65  91 127 170 215 266 325 385
#
# _framework density 20.198979999999999
#
# number of rings (size 3 to 8) (size 9 to 14) (size 15 to 20)
#    0.000    0.714    2.857    6.000    0.000    2.286 
#    0.000    0.714    0.000    4.286    0.000    0.000 
#    0.000    0.000    0.000    0.000    0.000    0.000 
#
# Total GULP energy -156494.072945 kJ/mol
# GULP energy per Si atom -5589.074034 kJ/mol
# Density = 2.015301 g / cm^3
# Si number density = 20.198980 Si / 1000 Ang^3
#
#
#
# Elastic Constant Matrix: (Units=GPa)
#
#
# Indices 1 2 3 4 5 6 
#
# 1 81.0209 25.8416 20.4977 0.0000 16.5306 0.0000
# 2 25.8416 116.3952 31.3937 0.0000 5.1930 0.0000
# 3 20.4977 31.3937 98.9472 0.0000 10.3805 0.0000
# 4 0.0000 0.0000 0.0000 30.0328 0.0000 0.3935
# 5 16.5306 5.1930 10.3805 0.0000 31.4877 0.0000
# 6 0.0000 0.0000 0.0000 0.3935 0.0000 30.7402
#
#
#
# Elastic Compliance Matrix: (Units=1/GPa)
#
#
# Indices 1 2 3 4 5 6 
#
# 1 0.014976 -0.002597 -0.001552 0.000000 -0.006922 0.000000
# 2 -0.002597 0.009856 -0.002653 0.000000 0.000613 0.000000
# 3 -0.001552 -0.002653 0.011537 0.000000 -0.002551 0.000000
# 4 0.000000 0.000000 0.000000 0.033303 0.000000 -0.000426
# 5 -0.006922 0.000613 -0.002551 0.000000 0.036132 0.000000
# 6 0.000000 0.000000 0.000000 -0.000426 0.000000 0.032536
#
#
# Mechanical properties :
#
#
# Convention : Reuss Voigt Hill
#
# Bulk Modulus (GPa) = 43.92925 50.20326 47.06625
# Shear Modulus (GPa) = 31.34115 33.02750 32.18433
#
# Velocity S-wave (km/s) = 3.94333 4.04803 3.99603
# Velocity P-wave (km/s) = 6.52140 6.83791 6.68153
#
# Compressibility (1/GPa) = 0.02276388
#
# Stress axis : x y z
#
# Youngs Moduli (GPa) = 66.77380 101.45672 86.67443
#
# Poissons Ratio (x) = 0.26353 0.13453
# Poissons Ratio (y) = 0.17344 0.22998
# Poissons Ratio (z) = 0.10364 0.26921
#
# Static dielectric constant tensor:
#      x y z
#    x 1.741910 0.000000 0.023920 
#    y 0.000000 1.689160 0.000000 
#    z 0.023920 0.000000 1.716050 
# 
# From -- ./inp_files/238948.got.cif
#   From: 2010.05.17/outbox.cif.g08.bks.cpg/sg12_120_cif.got.tgz:238948.got - 2010.06.03 13:09:07.
