data_PCOD9214579
_publ_section_title
;
Structure prediction by ZEFSAII (Michael W. Deem and Ramdas Pophale) SiO2 
 PCOD9214579
Probable space group: C 2/M
;
_chemical_formula_sum "Si O2"
_cell_formula_units_Z 26
_cell_length_a 5.166419
_cell_length_b 18.608275
_cell_length_c 14.687941
_cell_angle_alpha 90.000000
_cell_angle_beta 109.093472
_cell_angle_gamma 90.000000
_cell_volume 1334.387978
_symmetry_space_group_name_H-M "C 2/M"
_symmetry_group_IT_number 12
_symmetry_cell_setting 'monoclinic'
loop_
_space_group_symop_operation_xyz
x,y,z
-x,y,-z
-x,-y,-z
x,-y,z
1/2+x,1/2+y,z
1/2-x,1/2+y,-z
1/2-x,1/2-y,-z
1/2+x,1/2-y,z
loop_
_atom_site_type_symbol
_atom_site_label
_atom_site_fract_x
_atom_site_fract_y
_atom_site_fract_z
Si Si1 0.180222 0.647977 0.940866
Si Si2 0.464057 0.796485 0.275590
Si Si3 0.307247 0.083298 0.566109
Si Si4 0.500000 0.000000 0.000000
O O1 0.089964 0.564427 0.938639
O O2 0.113920 0.679480 0.835230
O O3 0.500000 0.650794 0.000000
O O4 0.000000 0.684797 0.000000
O O5 0.197721 0.764012 0.293596
O O6 0.583191 0.863393 0.344866
O O7 0.500000 0.088457 0.500000
O O8 0.000000 0.101992 0.500000
O O9 0.307101 0.000000 0.597147
#
# Coordination Sequence:
#
# PCOD9214579 Si02
#       4
#     8   8   8   2
#     4  10  22  40  62  89 126 163 211 249 307 361
#     4  12  26  41  63  96 127 168 205 251 318 373
#     4  10  23  44  67  93 122 161 210 262 309 365
#     4   8  22  40  62  92 118 174 204 264 302 356
#
# _framework density 19.484587999999999
#
# number of rings (size 3 to 8) (size 9 to 14) (size 15 to 20)
#    0.923    0.615    0.000    4.154    2.154    7.385 
#    0.000    0.000    0.000    0.000    0.000    0.000 
#    0.000    0.000    0.000    0.000    0.000    0.000 
#
# Total GULP energy -72369.751719 kJ/mol
# GULP energy per Si atom -5566.903978 kJ/mol
# Density = 1.944024 g / cm^3
# Si number density = 19.484588 Si / 1000 Ang^3
#
#
#
# Elastic Constant Matrix: (Units=GPa)
#
#
# Indices 1 2 3 4 5 6 
#
# 1 74.3287 -14.7148 11.0937 0.0000 16.7523 0.0000
# 2 -14.7148 73.9289 40.4899 0.0000 12.6880 0.0000
# 3 11.0937 40.4899 112.7482 0.0000 15.8286 0.0000
# 4 0.0000 0.0000 0.0000 62.7198 0.0000 -55.1076
# 5 16.7523 12.6880 15.8286 0.0000 25.1574 0.0000
# 6 0.0000 0.0000 0.0000 -55.1076 0.0000 120.3797
#
#
#
# Elastic Compliance Matrix: (Units=1/GPa)
#
#
# Indices 1 2 3 4 5 6 
#
# 1 0.018637 0.007598 -0.002503 0.000000 -0.014668 0.000000
# 2 0.007598 0.020565 -0.006544 0.000000 -0.011313 0.000000
# 3 -0.002503 -0.006544 0.011812 0.000000 -0.002464 0.000000
# 4 0.000000 0.000000 0.000000 0.026672 0.000000 0.012210
# 5 -0.014668 -0.011313 -0.002464 0.000000 0.056773 0.000000
# 6 0.000000 0.000000 0.000000 0.012210 0.000000 0.013897
#
#
# Mechanical properties :
#
#
# Convention : Reuss Voigt Hill
#
# Bulk Modulus (GPa) = 20.78386 37.19371 28.98879
# Shear Modulus (GPa) = 29.88764 56.59386 43.24075
#
# Velocity S-wave (km/s) = 3.92077 5.39523 4.71598
# Velocity P-wave (km/s) = 5.58449 7.61194 6.67563
#
# Compressibility (1/GPa) = 0.04811425
#
# Stress axis : x y z
#
# Youngs Moduli (GPa) = 53.65590 48.62694 84.66108
#
# Poissons Ratio (x) = -0.36946 0.21192
# Poissons Ratio (y) = -0.40767 0.55406
# Poissons Ratio (z) = 0.13431 0.31824
#
# Static dielectric constant tensor:
#      x y z
#    x 1.683920 0.000000 0.004150 
#    y 0.000000 1.678850 0.000000 
#    z 0.004150 0.000000 1.648630 
# 
# From -- ./inp_files/114314.got.cif
#   From: 2010.05.17/outbox.cif.g08.bks.cpg/sg12_58_cif.got.tgz:114314.got - 2010.06.03 13:09:07.
