data_PCOD9214990
_publ_section_title
;
Structure prediction by ZEFSAII (Michael W. Deem and Ramdas Pophale) SiO2 
 PCOD9214990
Probable space group: C 2/M
;
_chemical_formula_sum "Si O2"
_cell_formula_units_Z 56
_cell_length_a 14.341368
_cell_length_b 17.353432
_cell_length_c 13.971832
_cell_angle_alpha 90.000000
_cell_angle_beta 133.537744
_cell_angle_gamma 90.000000
_cell_volume 2520.692374
_symmetry_space_group_name_H-M "C 2/M"
_symmetry_group_IT_number 12
_symmetry_cell_setting 'monoclinic'
loop_
_space_group_symop_operation_xyz
x,y,z
-x,y,-z
-x,-y,-z
x,-y,z
1/2+x,1/2+y,z
1/2-x,1/2+y,-z
1/2-x,1/2-y,-z
1/2+x,1/2-y,z
loop_
_atom_site_type_symbol
_atom_site_label
_atom_site_fract_x
_atom_site_fract_y
_atom_site_fract_z
Si Si1 0.434620 0.637268 0.553806
Si Si2 0.032854 0.699065 0.684734
Si Si3 0.075209 0.216166 0.915784
Si Si4 0.785536 0.799212 0.733947
Si Si5 0.355487 0.158952 0.882464
Si Si6 0.197696 0.408754 0.496992
Si Si7 0.353316 0.415839 0.150232
O O1 0.500000 0.614397 0.500000
O O2 0.454638 0.729876 0.578787
O O3 0.292693 0.606847 0.474978
O O4 0.517403 0.602278 0.700087
O O5 0.945058 0.623465 0.623629
O O6 0.053866 0.731618 0.806287
O O7 0.165794 0.686689 0.721265
O O8 0.161303 0.145775 0.943486
O O9 0.938078 0.182570 0.854292
O O10 0.139827 0.269517 0.039657
O O11 0.803746 0.704760 0.752272
O O12 0.749908 0.850588 0.616551
O O13 0.256125 0.097335 0.848684
O O14 0.500000 0.128828 0.000000
O O15 0.199200 0.500000 0.522085
O O16 0.353550 0.500000 0.110258
#
# Coordination Sequence:
#
# PCOD9214990 Si02
#       7
#     8   8   8   8   8   8   8
#     4  11  23  40  67  93 125 169 216 255 314 390
#     4  11  23  38  68  93 122 170 217 256 317 382
#     4  10  22  41  66  94 127 162 219 262 311 385
#     4  11  21  40  64  94 121 170 213 260 313 380
#     4  10  22  40  67  94 121 166 218 261 313 385
#     4  12  26  42  61  95 139 170 207 269 324 375
#     4  11  22  39  63  92 126 162 202 265 327 367
#
# _framework density 22.216118000000002
#
# number of rings (size 3 to 8) (size 9 to 14) (size 15 to 20)
#    0.000    1.143    5.714    2.571    2.000    2.571 
#    0.000    1.429    0.000    2.571    0.000    0.000 
#    0.000    0.000    0.000    0.000    0.000    0.000 
#
# Total GULP energy -156175.193050 kJ/mol
# GULP energy per Si atom -5577.685466 kJ/mol
# Density = 2.216555 g / cm^3
# Si number density = 22.216118 Si / 1000 Ang^3
#
#
#
# Elastic Constant Matrix: (Units=GPa)
#
#
# Indices 1 2 3 4 5 6 
#
# 1 145.6705 24.9237 18.9257 0.0000 26.4352 0.0000
# 2 24.9237 76.0070 34.9778 0.0000 2.6298 0.0000
# 3 18.9257 34.9778 62.4039 0.0000 1.9774 0.0000
# 4 0.0000 0.0000 0.0000 3.0349 0.0000 -6.9318
# 5 26.4352 2.6298 1.9774 0.0000 40.9184 0.0000
# 6 0.0000 0.0000 0.0000 -6.9318 0.0000 12.2889
#
#
#
# Elastic Compliance Matrix: (Units=1/GPa)
#
#
# Indices 1 2 3 4 5 6 
#
# 1 0.008304 -0.001968 -0.001251 0.000000 -0.005178 0.000000
# 2 -0.001968 0.018214 -0.009630 0.000000 0.000566 0.000000
# 3 -0.001251 -0.009630 0.021790 0.000000 0.000374 0.000000
# 4 0.000000 0.000000 0.000000 -1.142745 0.000000 -0.644588
# 5 -0.005178 0.000566 0.000374 0.000000 0.027729 0.000000
# 6 0.000000 0.000000 0.000000 -0.644588 0.000000 -0.282218
#
#
# Mechanical properties :
#
#
# Convention : Reuss Voigt Hill
#
# Bulk Modulus (GPa) = 44.23004 49.08177 46.65591
# Shear Modulus (GPa) = -3.80029 24.93205 10.56588
#
# Velocity S-wave (km/s) = -1.30932 3.35364 2.18318
# Velocity P-wave (km/s) = 4.20315 6.09398 5.23465
#
# Compressibility (1/GPa) = 0.02260907
#
# Stress axis : x y z
#
# Youngs Moduli (GPa) = 120.42858 54.90222 45.89240
#
# Poissons Ratio (x) = 0.10804 0.05742
# Poissons Ratio (y) = 0.23700 0.44196
# Poissons Ratio (z) = 0.15068 0.52872
#
# Static dielectric constant tensor:
#      x y z
#    x 1.888810 0.000000 -0.025080 
#    y 0.000000 1.784650 0.000000 
#    z -0.025080 0.000000 1.908040 
# 
# From -- ./inp_files/216444.got.cif
#   From: 2010.05.17/outbox.cif.g08.bks.cpg/sg12_109_cif.got.tgz:216444.got - 2010.06.03 13:09:07.
