data_PCOD9214317
_publ_section_title
;
Structure prediction by ZEFSAII (Michael W. Deem and Ramdas Pophale) SiO2 
 PCOD9214317
Probable space group: C 2/M
;
_chemical_formula_sum "Si O2"
_cell_formula_units_Z 52
_cell_length_a 28.627801
_cell_length_b 13.750157
_cell_length_c 19.497509
_cell_angle_alpha 90.000000
_cell_angle_beta 159.948623
_cell_angle_gamma 90.000000
_cell_volume 2631.448793
_symmetry_space_group_name_H-M "C 2/M"
_symmetry_group_IT_number 12
_symmetry_cell_setting 'monoclinic'
loop_
_space_group_symop_operation_xyz
x,y,z
-x,y,-z
-x,-y,-z
x,-y,z
1/2+x,1/2+y,z
1/2-x,1/2+y,-z
1/2-x,1/2-y,-z
1/2+x,1/2-y,z
loop_
_atom_site_type_symbol
_atom_site_label
_atom_site_fract_x
_atom_site_fract_y
_atom_site_fract_z
Si Si1 0.792411 0.192294 0.942231
Si Si2 0.441250 0.500000 0.341681
Si Si3 0.194658 0.887484 0.327141
Si Si4 0.604735 0.387122 0.044739
Si Si5 0.112762 0.500000 0.870676
Si Si6 0.031781 0.301265 0.324502
Si Si7 0.617142 0.000000 0.720073
Si Si8 0.465896 0.285264 0.372117
O O1 0.812259 0.187332 0.887833
O O2 0.942972 0.209986 0.177500
O O3 0.713628 0.093421 0.848991
O O4 0.696902 0.270359 0.848113
O O5 0.500000 0.500000 0.500000
O O6 0.493650 0.395918 0.387844
O O7 0.276483 0.500000 0.106470
O O8 0.320473 0.814497 0.504581
O O9 0.056690 0.865248 0.177860
O O10 0.234249 0.000000 0.396979
O O11 0.152980 0.885540 0.189429
O O12 0.622685 0.500000 0.045835
O O13 0.048799 0.399284 0.808786
O O14 0.063850 0.500000 0.723842
O O15 0.031075 0.287047 0.406488
O O16 0.500000 0.000000 0.500000
O O17 0.500000 0.267975 0.500000
#
# Coordination Sequence:
#
# PCOD9214317 Si02
#       8
#     8   4   8   8   4   8   4   8
#     4  12  22  35  54  84 117 146 190 233 287 344
#     4  10  22  40  56  73 117 161 195 228 275 339
#     4   9  19  36  58  83 110 150 187 238 297 348
#     4   9  19  36  58  81 113 146 190 239 295 351
#     4  12  22  38  53  82 123 148 192 237 288 347
#     4  12  23  34  57  84 116 151 190 245 288 343
#     4  12  26  36  57  89 125 153 180 241 311 355
#     4  11  22  37  56  83 111 153 193 230 284 349
#
# _framework density 19.760978000000001
#
# number of rings (size 3 to 8) (size 9 to 14) (size 15 to 20)
#    0.000    1.231    4.615    3.692    2.154    0.615 
#    0.000    0.000    0.000    0.000    0.000    0.000 
#    0.000    8.615    0.000    0.000    0.000    0.000 
#
# Total GULP energy -144859.726744 kJ/mol
# GULP energy per Si atom -5571.527952 kJ/mol
# Density = 1.971600 g / cm^3
# Si number density = 19.760978 Si / 1000 Ang^3
#
#
#
# Elastic Constant Matrix: (Units=GPa)
#
#
# Indices 1 2 3 4 5 6 
#
# 1 34.4880 1.5060 -13.9647 0.0000 -0.0666 0.0000
# 2 1.5060 78.7098 19.7642 0.0000 3.3950 0.0000
# 3 -13.9647 19.7642 75.2282 0.0000 -4.9006 0.0000
# 4 0.0000 0.0000 0.0000 26.1059 0.0000 -0.4763
# 5 -0.0666 3.3950 -4.9006 0.0000 27.3772 0.0000
# 6 0.0000 0.0000 0.0000 -0.4763 0.0000 12.3823
#
#
#
# Elastic Compliance Matrix: (Units=1/GPa)
#
#
# Indices 1 2 3 4 5 6 
#
# 1 0.031779 -0.002336 0.006614 0.000000 0.001551 0.000000
# 2 -0.002336 0.013926 -0.004255 0.000000 -0.002494 0.000000
# 3 0.006614 -0.004255 0.015859 0.000000 0.003382 0.000000
# 4 0.000000 0.000000 0.000000 0.038332 0.000000 0.001474
# 5 0.001551 -0.002494 0.003382 0.000000 0.037445 0.000000
# 6 0.000000 0.000000 0.000000 0.001474 0.000000 0.080817
#
#
# Mechanical properties :
#
#
# Convention : Reuss Voigt Hill
#
# Bulk Modulus (GPa) = 16.23118 22.55967 19.39542
# Shear Modulus (GPa) = 20.95145 25.24780 23.09962
#
# Velocity S-wave (km/s) = 3.25967 3.57831 3.42270
# Velocity P-wave (km/s) = 4.73274 5.33980 5.04541
#
# Compressibility (1/GPa) = 0.06160982
#
# Stress axis : x y z
#
# Youngs Moduli (GPa) = 31.46775 71.81070 63.05674
#
# Poissons Ratio (x) = 0.16773 -0.41704
# Poissons Ratio (y) = 0.07350 0.26828
# Poissons Ratio (z) = -0.20812 0.30553
#
# Static dielectric constant tensor:
#      x y z
#    x 1.792980 0.000000 -0.079560 
#    y 0.000000 1.756520 0.000000 
#    z -0.079560 0.000000 1.817150 
# 
# From -- ./inp_files/330237.got.cif
#   From: 2010.05.17/outbox.cif.g08.bks.cpg/sg12_166_cif.got.tgz:330237.got - 2010.06.03 13:09:07.
