data_PCOD9214014
_publ_section_title
;
Structure prediction by ZEFSAII (Michael W. Deem and Ramdas Pophale) SiO2 
 PCOD9214014
Probable space group: C 2/M
;
_chemical_formula_sum "Si O2"
_cell_formula_units_Z 64
_cell_length_a 18.345412
_cell_length_b 13.758667
_cell_length_c 14.532907
_cell_angle_alpha 90.000000
_cell_angle_beta 54.482815
_cell_angle_gamma 90.000000
_cell_volume 2985.722312
_symmetry_space_group_name_H-M "C 2/M"
_symmetry_group_IT_number 12
_symmetry_cell_setting 'monoclinic'
loop_
_space_group_symop_operation_xyz
x,y,z
-x,y,-z
-x,-y,-z
x,-y,z
1/2+x,1/2+y,z
1/2-x,1/2+y,-z
1/2-x,1/2-y,-z
1/2+x,1/2-y,z
loop_
_atom_site_type_symbol
_atom_site_label
_atom_site_fract_x
_atom_site_fract_y
_atom_site_fract_z
Si Si1 0.841857 0.257754 0.991289
Si Si2 0.335687 0.614335 0.685109
Si Si3 0.449568 0.286966 0.752756
Si Si4 0.261626 0.883589 0.580439
Si Si5 0.527833 0.885249 0.584949
Si Si6 0.003024 0.392582 0.108668
Si Si7 0.833793 0.267771 0.213257
Si Si8 0.883775 0.115164 0.454776
O O1 0.913222 0.195235 0.881160
O O2 0.894786 0.360958 0.944800
O O3 0.750000 0.250000 0.000000
O O4 0.839180 0.235091 0.101700
O O5 0.348589 0.500000 0.689547
O O6 0.371510 0.673749 0.744126
O O7 0.233169 0.640264 0.741411
O O8 0.388816 0.648831 0.555714
O O9 0.473643 0.178791 0.698412
O O10 0.538199 0.345490 0.665002
O O11 0.366233 0.863728 0.489296
O O12 0.213536 0.816249 0.691970
O O13 0.210516 0.862866 0.522783
O O14 0.252232 0.000000 0.608174
O O15 0.500000 0.864157 0.500000
O O16 0.513751 0.000000 0.610851
O O17 0.981299 0.500000 0.161437
O O18 0.927170 0.310598 0.184561
O O19 0.000000 0.397191 0.000000
O O20 0.891882 0.000000 0.453545
#
# Coordination Sequence:
#
# PCOD9214014 Si02
#       8
#     8   8   8   8   8   8   8   8
#     4  11  24  41  59  91 129 171 219 261 305 378
#     4  11  23  39  64  94 126 160 203 261 323 386
#     4  12  22  39  62  86 126 169 208 255 316 369
#     4  10  22  41  65  94 127 163 206 260 317 383
#     4  10  22  39  61  90 122 161 210 259 315 382
#     4   9  20  39  64  91 125 168 213 267 322 371
#     4  11  21  41  67  94 132 171 212 261 318 383
#     4  10  22  39  61  93 123 154 203 256 315 382
#
# _framework density 21.435348999999999
#
# number of rings (size 3 to 8) (size 9 to 14) (size 15 to 20)
#    0.000    1.500    1.250    4.125    0.000    5.000 
#    0.000    3.125    0.000    5.625    0.000    0.000 
#    0.000    0.000    0.000    0.000    0.000    0.000 
#
# Total GULP energy -178693.945676 kJ/mol
# GULP energy per Si atom -5584.185802 kJ/mol
# Density = 2.138656 g / cm^3
# Si number density = 21.435349 Si / 1000 Ang^3
#
#
#
# Elastic Constant Matrix: (Units=GPa)
#
#
# Indices 1 2 3 4 5 6 
#
# 1 91.6201 23.1864 11.5921 0.0000 -16.4439 0.0000
# 2 23.1864 82.7578 21.6410 0.0000 1.7053 0.0000
# 3 11.5921 21.6410 105.6695 0.0000 16.2419 0.0000
# 4 0.0000 0.0000 0.0000 13.3353 0.0000 -8.3034
# 5 -16.4439 1.7053 16.2419 0.0000 39.6082 0.0000
# 6 0.0000 0.0000 0.0000 -8.3034 0.0000 26.7269
#
#
#
# Elastic Compliance Matrix: (Units=1/GPa)
#
#
# Indices 1 2 3 4 5 6 
#
# 1 0.013110 -0.003353 -0.001719 0.000000 0.006292 0.000000
# 2 -0.003353 0.013636 -0.002263 0.000000 -0.001051 0.000000
# 3 -0.001719 -0.002263 0.010897 0.000000 -0.005084 0.000000
# 4 0.000000 0.000000 0.000000 0.092974 0.000000 0.028885
# 5 0.006292 -0.001051 -0.005084 0.000000 0.029990 0.000000
# 6 0.000000 0.000000 0.000000 0.028885 0.000000 0.046389
#
#
# Mechanical properties :
#
#
# Convention : Reuss Voigt Hill
#
# Bulk Modulus (GPa) = 43.52897 43.65405 43.59151
# Shear Modulus (GPa) = 21.80321 30.84263 26.32292
#
# Velocity S-wave (km/s) = 3.19276 3.79736 3.50811
# Velocity P-wave (km/s) = 5.82604 6.29573 6.06543
#
# Compressibility (1/GPa) = 0.02297321
#
# Stress axis : x y z
#
# Youngs Moduli (GPa) = 76.27797 73.33286 91.76825
#
# Poissons Ratio (x) = 0.24591 0.15771
# Poissons Ratio (y) = 0.25578 0.20770
# Poissons Ratio (z) = 0.13109 0.16597
#
# Static dielectric constant tensor:
#      x y z
#    x 1.819460 0.000000 0.003410 
#    y 0.000000 1.804470 0.000000 
#    z 0.003410 0.000000 1.783940 
# 
# From -- ./inp_files/225709.got.cif
#   From: 2010.05.17/outbox.cif.g08.bks.cpg/sg12_113_cif.got.tgz:225709.got - 2010.06.03 13:09:07.
