data_PCOD9214038
_publ_section_title
;
Structure prediction by ZEFSAII (Michael W. Deem and Ramdas Pophale) SiO2 
 PCOD9214038
Probable space group: C 2/M
;
_chemical_formula_sum "Si O2"
_cell_formula_units_Z 48
_cell_length_a 19.472664
_cell_length_b 18.250752
_cell_length_c 22.997769
_cell_angle_alpha 90.000000
_cell_angle_beta 162.669554
_cell_angle_gamma 90.000000
_cell_volume 2434.649000
_symmetry_space_group_name_H-M "C 2/M"
_symmetry_group_IT_number 12
_symmetry_cell_setting 'monoclinic'
loop_
_space_group_symop_operation_xyz
x,y,z
-x,y,-z
-x,-y,-z
x,-y,z
1/2+x,1/2+y,z
1/2-x,1/2+y,-z
1/2-x,1/2-y,-z
1/2+x,1/2-y,z
loop_
_atom_site_type_symbol
_atom_site_label
_atom_site_fract_x
_atom_site_fract_y
_atom_site_fract_z
Si Si1 0.355771 0.811534 0.543991
Si Si2 0.421049 0.687479 0.111368
Si Si3 0.204364 0.421504 0.117452
Si Si4 0.154955 0.741218 0.068027
Si Si5 0.006008 0.587114 0.768482
Si Si6 0.125944 0.916032 0.546086
O O1 0.250000 0.750000 0.500000
O O2 0.598204 0.778014 0.718469
O O3 0.410489 0.879243 0.631006
O O4 0.159245 0.823429 0.337446
O O5 0.250000 0.750000 0.000000
O O6 0.457820 0.713335 0.075063
O O7 0.264674 0.615020 0.985083
O O8 0.195707 0.500000 0.078029
O O9 0.189572 0.343163 0.075105
O O10 0.438015 0.419606 0.343394
O O11 0.000000 0.423228 0.000000
O O12 0.000000 0.739674 0.000000
O O13 0.985055 0.500000 0.750966
O O14 0.849798 0.616350 0.696190
O O15 0.000000 0.880620 0.500000
O O16 0.184343 0.000000 0.611654
#
# Coordination Sequence:
#
# PCOD9214038 Si02
#       6
#     8   8   8   8   8   8
#     4  11  21  42  65  81 126 167 205 256 313 369
#     4  11  23  40  65  84 122 168 207 251 317 369
#     4   9  18  33  50  77 120 161 196 241 296 351
#     4  10  22  39  61  93 122 158 215 265 310 373
#     4  10  22  39  62  93 122 158 214 266 310 375
#     4   9  18  33  50  77 120 161 196 242 295 351
#
# _framework density 19.715368000000002
#
# number of rings (size 3 to 8) (size 9 to 14) (size 15 to 20)
#    0.000    2.000    3.333    1.000    0.000    4.000 
#    0.000    2.500    0.000    8.000    0.000    9.333 
#    0.000    0.000    0.000    0.000    0.000    2.667 
#
# Total GULP energy -133996.093137 kJ/mol
# GULP energy per Si atom -5583.170547 kJ/mol
# Density = 1.967049 g / cm^3
# Si number density = 19.715368 Si / 1000 Ang^3
#
#
#
# Elastic Constant Matrix: (Units=GPa)
#
#
# Indices 1 2 3 4 5 6 
#
# 1 98.4301 44.1011 58.2541 -0.0020 5.5631 -0.0195
# 2 44.1011 93.7945 49.3892 0.0450 5.3825 -0.0211
# 3 58.2541 49.3892 169.8351 0.0381 -18.1444 -0.0330
# 4 -0.0020 0.0450 0.0381 25.3644 0.0120 11.2623
# 5 5.5631 5.3825 -18.1444 0.0120 21.5903 -0.0321
# 6 -0.0195 -0.0211 -0.0330 11.2623 -0.0321 30.4888
#
#
#
# Elastic Compliance Matrix: (Units=1/GPa)
#
#
# Indices 1 2 3 4 5 6 
#
# 1 0.015262 -0.004303 -0.004712 0.000026 -0.006820 -0.000015
# 2 -0.004303 0.014791 -0.003407 -0.000022 -0.005441 0.000006
# 3 -0.004712 -0.003407 0.009575 -0.000024 0.010110 0.000025
# 4 0.000026 -0.000022 -0.000024 0.047161 -0.000074 -0.017421
# 5 -0.006820 -0.005441 0.010110 -0.000074 0.057928 0.000091
# 6 -0.000015 0.000006 0.000025 -0.017421 0.000091 0.039234
#
#
# Mechanical properties :
#
#
# Convention : Reuss Voigt Hill
#
# Bulk Modulus (GPa) = 67.64065 73.94984 70.79524
# Shear Modulus (GPa) = 23.39484 29.50972 26.45228
#
# Velocity S-wave (km/s) = 3.44849 3.87303 3.66691
# Velocity P-wave (km/s) = 7.08796 7.58885 7.34268
#
# Compressibility (1/GPa) = 0.01478401
#
# Stress axis : x y z
#
# Youngs Moduli (GPa) = 65.52347 67.60829 104.43760
#
# Poissons Ratio (x) = 0.29094 0.49210
# Poissons Ratio (y) = 0.28197 0.35578
# Poissons Ratio (z) = 0.30874 0.23031
#
# Static dielectric constant tensor:
#      x y z
#    x 1.826500 0.000850 -0.288460 
#    y 0.000850 1.719580 -0.002120 
#    z -0.288460 -0.002120 2.424990 
# 
# From -- ./inp_files/317538.got.cif
#   From: 2010.05.17/outbox.cif.g08.bks.cpg/sg12_159_cif.got.tgz:317538.got - 2010.06.03 13:09:07.
