data_PCOD9214793
_publ_section_title
;
Structure prediction by ZEFSAII (Michael W. Deem and Ramdas Pophale) SiO2 
 PCOD9214793
Probable space group: C 2/M
;
_chemical_formula_sum "Si O2"
_cell_formula_units_Z 60
_cell_length_a 19.917555
_cell_length_b 9.589882
_cell_length_c 25.144929
_cell_angle_alpha 90.000000
_cell_angle_beta 137.720215
_cell_angle_gamma 90.000000
_cell_volume 3231.129671
_symmetry_space_group_name_H-M "C 2/M"
_symmetry_group_IT_number 12
_symmetry_cell_setting 'monoclinic'
loop_
_space_group_symop_operation_xyz
x,y,z
-x,y,-z
-x,-y,-z
x,-y,z
1/2+x,1/2+y,z
1/2-x,1/2+y,-z
1/2-x,1/2-y,-z
1/2+x,1/2-y,z
loop_
_atom_site_type_symbol
_atom_site_label
_atom_site_fract_x
_atom_site_fract_y
_atom_site_fract_z
Si Si1 0.030656 0.163546 0.576857
Si Si2 0.394961 0.280569 0.595805
Si Si3 0.563414 0.336991 0.174538
Si Si4 0.760668 0.665626 0.128941
Si Si5 0.547518 0.660918 0.779448
Si Si6 0.715446 0.163732 0.730145
Si Si7 0.781217 0.500000 0.510822
Si Si8 0.435299 0.836878 0.016149
O O1 0.124387 0.247091 0.654626
O O2 0.000000 0.212065 0.500000
O O3 0.938731 0.181384 0.563418
O O4 0.056013 0.000000 0.588550
O O5 0.482540 0.307181 0.689293
O O6 0.301913 0.379502 0.553803
O O7 0.359825 0.122513 0.574404
O O8 0.552501 0.500000 0.150932
O O9 0.522744 0.326073 0.210309
O O10 0.680318 0.302650 0.237700
O O11 0.499749 0.236892 0.099597
O O12 0.753080 0.500000 0.113987
O O13 0.860018 0.734217 0.163191
O O14 0.768230 0.685322 0.197309
O O15 0.665172 0.749019 0.051752
O O16 0.583254 0.500000 0.797473
O O17 0.693715 0.000000 0.709167
O O18 0.415023 0.000000 0.015750
O O19 0.500000 0.830374 0.000000
#
# Coordination Sequence:
#
# PCOD9214793 Si02
#       8
#     8   8   8   8   8   8   4   8
#     4  11  24  41  61  89 127 167 212 261 315 368
#     4  11  22  44  62  91 124 168 210 261 312 381
#     4  10  23  43  64  95 127 164 211 260 311 371
#     4  11  23  39  68  95 123 169 210 254 312 375
#     4  11  23  41  66  91 129 169 208 260 313 373
#     4  10  22  40  64  93 122 163 215 258 311 370
#     4  10  24  38  68  90 122 162 214 258 322 372
#     4  11  23  40  66  97 130 164 206 255 316 376
#
# _framework density 18.569355999999999
#
# number of rings (size 3 to 8) (size 9 to 14) (size 15 to 20)
#    0.000    1.333    4.000    0.800    1.867    5.067 
#    2.400    0.000    0.000    0.000    0.000    0.000 
#    0.000    0.000    0.000    0.000    0.000    0.000 
#
# Total GULP energy -167087.029004 kJ/mol
# GULP energy per Si atom -5569.567633 kJ/mol
# Density = 1.852709 g / cm^3
# Si number density = 18.569356 Si / 1000 Ang^3
#
#
#
# Elastic Constant Matrix: (Units=GPa)
#
#
# Indices 1 2 3 4 5 6 
#
# 1 44.8570 14.0839 -2.4444 0.0000 2.8468 0.0000
# 2 14.0839 107.8456 33.8007 0.0000 8.7619 0.0000
# 3 -2.4444 33.8007 46.6120 0.0000 -1.0493 0.0000
# 4 0.0000 0.0000 0.0000 93.3306 0.0000 -2.3968
# 5 2.8468 8.7619 -1.0493 0.0000 26.8251 0.0000
# 6 0.0000 0.0000 0.0000 -2.3968 0.0000 11.2084
#
#
#
# Elastic Compliance Matrix: (Units=1/GPa)
#
#
# Indices 1 2 3 4 5 6 
#
# 1 0.023996 -0.004461 0.004473 0.000000 -0.000914 0.000000
# 2 -0.004461 0.013337 -0.010001 0.000000 -0.004274 0.000000
# 3 0.004473 -0.010001 0.029029 0.000000 0.003928 0.000000
# 4 0.000000 0.000000 0.000000 0.010774 0.000000 0.002304
# 5 -0.000914 -0.004274 0.003928 0.000000 0.038925 0.000000
# 6 0.000000 0.000000 0.000000 0.002304 0.000000 0.089712
#
#
# Mechanical properties :
#
#
# Convention : Reuss Voigt Hill
#
# Bulk Modulus (GPa) = 21.56010 32.24389 26.90199
# Shear Modulus (GPa) = 20.72856 36.53112 28.62984
#
# Velocity S-wave (km/s) = 3.34470 4.44021 3.93081
# Velocity P-wave (km/s) = 5.15284 6.60977 5.92625
#
# Compressibility (1/GPa) = 0.04638197
#
# Stress axis : x y z
#
# Youngs Moduli (GPa) = 41.67446 74.97932 34.44803
#
# Poissons Ratio (x) = 0.33450 -0.15408
# Poissons Ratio (y) = 0.18592 0.34453
# Poissons Ratio (z) = -0.18640 0.74990
#
# Static dielectric constant tensor:
#      x y z
#    x 1.652620 0.000000 -0.000540 
#    y 0.000000 1.626500 0.000000 
#    z -0.000540 0.000000 1.605720 
# 
# From -- ./inp_files/365486.got.cif
#   From: 2010.05.17/outbox.cif.g08.bks.cpg/sg12_183_cif.got.tgz:365486.got - 2010.06.03 13:09:07.
