data_PCOD9214869
_publ_section_title
;
Structure prediction by ZEFSAII (Michael W. Deem and Ramdas Pophale) SiO2 
 PCOD9214869
Probable space group: C 2/M
;
_chemical_formula_sum "Si O2"
_cell_formula_units_Z 64
_cell_length_a 25.792422
_cell_length_b 12.893790
_cell_length_c 14.630439
_cell_angle_alpha 90.000000
_cell_angle_beta 139.491830
_cell_angle_gamma 90.000000
_cell_volume 3160.435923
_symmetry_space_group_name_H-M "C 2/M"
_symmetry_group_IT_number 12
_symmetry_cell_setting 'monoclinic'
loop_
_space_group_symop_operation_xyz
x,y,z
-x,y,-z
-x,-y,-z
x,-y,z
1/2+x,1/2+y,z
1/2-x,1/2+y,-z
1/2-x,1/2-y,-z
1/2+x,1/2-y,z
loop_
_atom_site_type_symbol
_atom_site_label
_atom_site_fract_x
_atom_site_fract_y
_atom_site_fract_z
Si Si1 0.418525 0.381212 0.279139
Si Si2 0.133536 0.279207 0.312466
Si Si3 0.789755 0.880855 0.455914
Si Si4 0.020826 0.617423 0.818100
Si Si5 0.351313 0.702250 0.002867
Si Si6 0.033928 0.314238 0.449872
Si Si7 0.189693 0.211502 0.710309
Si Si8 0.404966 0.614259 0.886987
O O1 0.445851 0.500000 0.315001
O O2 0.368137 0.354487 0.120744
O O3 0.491002 0.298786 0.380163
O O4 0.361929 0.358164 0.289583
O O5 0.148415 0.200388 0.416511
O O6 0.207156 0.357181 0.398313
O O7 0.132434 0.205384 0.222744
O O8 0.050752 0.337579 0.216262
O O9 0.780208 0.853069 0.336474
O O10 0.814029 0.000000 0.499175
O O11 0.040094 0.500000 0.868706
O O12 0.095954 0.693105 0.926532
O O13 0.989601 0.623614 0.671654
O O14 0.260996 0.733927 0.860306
O O15 0.383560 0.632522 0.963229
O O16 0.127587 0.296487 0.588327
O O17 0.000000 0.357434 0.500000
O O18 0.377272 0.500000 0.820078
O O19 0.500000 0.618907 0.000000
#
# Coordination Sequence:
#
# PCOD9214869 Si02
#       8
#     8   8   8   8   8   8   8   8
#     4  10  22  40  65  92 123 161 203 253 315 370
#     4  11  22  42  57  89 126 156 207 253 302 364
#     4  11  23  37  62  91 122 159 199 254 312 361
#     4  11  23  41  63  87 123 171 206 247 308 370
#     4  11  23  42  60  92 129 162 205 256 301 368
#     4   9  21  41  63  90 120 157 206 262 306 362
#     4  11  21  40  62  91 128 156 199 255 308 366
#     4  11  22  39  64  88 119 161 206 250 302 359
#
# _framework density 20.250371000000001
#
# number of rings (size 3 to 8) (size 9 to 14) (size 15 to 20)
#    0.000    1.375    3.750    1.875    0.000    4.000 
#    0.000    3.125    0.000    0.750    0.000    0.000 
#    0.000    0.000    0.000    0.000    0.000    0.000 
#
# Total GULP energy -178871.378829 kJ/mol
# GULP energy per Si atom -5589.730588 kJ/mol
# Density = 2.020428 g / cm^3
# Si number density = 20.250371 Si / 1000 Ang^3
#
#
#
# Elastic Constant Matrix: (Units=GPa)
#
#
# Indices 1 2 3 4 5 6 
#
# 1 57.5681 14.3826 9.4534 0.0000 -9.7766 0.0000
# 2 14.3826 76.1088 -6.1813 0.0000 3.3761 0.0000
# 3 9.4534 -6.1813 71.2186 0.0000 2.7709 0.0000
# 4 0.0000 0.0000 0.0000 5.5727 0.0000 4.6099
# 5 -9.7766 3.3761 2.7709 0.0000 41.5888 0.0000
# 6 0.0000 0.0000 0.0000 4.6099 0.0000 -44.2592
#
#
#
# Elastic Compliance Matrix: (Units=1/GPa)
#
#
# Indices 1 2 3 4 5 6 
#
# 1 0.019844 -0.004242 -0.003205 0.000000 0.005223 0.000000
# 2 -0.004242 0.014195 0.001884 0.000000 -0.002275 0.000000
# 3 -0.003205 0.001884 0.014704 0.000000 -0.001886 0.000000
# 4 0.000000 0.000000 0.000000 0.165211 0.000000 0.017208
# 5 0.005223 -0.002275 -0.001886 0.000000 0.025583 0.000000
# 6 0.000000 0.000000 0.000000 0.017208 0.000000 -0.020802
#
#
# Mechanical properties :
#
#
# Convention : Reuss Voigt Hill
#
# Bulk Modulus (GPa) = 26.58552 26.68943 26.63747
# Shear Modulus (GPa) = 20.62704 13.06319 16.84512
#
# Velocity S-wave (km/s) = 3.19501 2.54261 2.88730
# Velocity P-wave (km/s) = 5.17375 4.67206 4.92929
#
# Compressibility (1/GPa) = 0.03761447
#
# Stress axis : x y z
#
# Youngs Moduli (GPa) = 50.39347 70.44935 68.01048
#
# Poissons Ratio (x) = 0.29884 0.21800
# Poissons Ratio (y) = 0.21377 -0.12810
# Poissons Ratio (z) = 0.16153 -0.13270
#
# Static dielectric constant tensor:
#      x y z
#    x 1.707370 0.000000 -0.016890 
#    y 0.000000 1.689030 0.000000 
#    z -0.016890 0.000000 1.718980 
# 
# From -- ./inp_files/245994.got.cif
#   From: 2010.05.17/outbox.cif.g08.bks.cpg/sg12_123_cif.got.tgz:245994.got - 2010.06.03 13:09:07.
