data_PCOD9214145
_publ_section_title
;
Structure prediction by ZEFSAII (Michael W. Deem and Ramdas Pophale) SiO2 
 PCOD9214145
Probable space group: C 2/M
;
_chemical_formula_sum "Si O2"
_cell_formula_units_Z 40
_cell_length_a 22.811028
_cell_length_b 13.599215
_cell_length_c 9.253844
_cell_angle_alpha 90.000000
_cell_angle_beta 50.244512
_cell_angle_gamma 90.000000
_cell_volume 2206.903158
_symmetry_space_group_name_H-M "C 2/M"
_symmetry_group_IT_number 12
_symmetry_cell_setting 'monoclinic'
loop_
_space_group_symop_operation_xyz
x,y,z
-x,y,-z
-x,-y,-z
x,-y,z
1/2+x,1/2+y,z
1/2-x,1/2+y,-z
1/2-x,1/2-y,-z
1/2+x,1/2-y,z
loop_
_atom_site_type_symbol
_atom_site_label
_atom_site_fract_x
_atom_site_fract_y
_atom_site_fract_z
Si Si1 0.841140 0.110562 0.700446
Si Si2 0.244903 0.611709 0.147162
Si Si3 0.077917 0.311350 0.458252
Si Si4 0.278648 0.789546 0.303174
Si Si5 0.577325 0.885313 0.787822
O O1 0.903718 0.196227 0.596788
O O2 0.782241 0.134180 0.664776
O O3 0.871536 0.000000 0.644006
O O4 0.789207 0.119113 0.926138
O O5 0.254471 0.500000 0.187093
O O6 0.154261 0.634021 0.279424
O O7 0.278750 0.696309 0.196020
O O8 0.073446 0.333764 0.636809
O O9 0.000000 0.339851 0.500000
O O10 0.250000 0.750000 0.500000
O O11 0.358429 0.839359 0.211099
O O12 0.594406 0.000000 0.733198
O O13 0.500000 0.877962 0.000000
#
# Coordination Sequence:
#
# PCOD9214145 Si02
#       5
#     8   8   8   8   8
#     4  10  22  40  63  88 115 158 202 240 290 348
#     4  10  22  39  63  91 117 154 202 242 289 350
#     4  11  23  39  60  85 122 157 191 242 292 349
#     4  11  20  38  62  87 119 155 194 250 292 344
#     4  11  25  40  58  88 121 155 193 240 298 352
#
# _framework density 18.124945
#
# number of rings (size 3 to 8) (size 9 to 14) (size 15 to 20)
#    0.000    1.400    4.000    3.600    5.600    2.800 
#    0.000    0.000    0.000    1.200    0.000    0.000 
#    0.000    0.000    0.000    0.000    0.000    0.000 
#
# Total GULP energy -111639.011126 kJ/mol
# GULP energy per Si atom -5581.950556 kJ/mol
# Density = 1.808369 g / cm^3
# Si number density = 18.124945 Si / 1000 Ang^3
#
#
#
# Elastic Constant Matrix: (Units=GPa)
#
#
# Indices 1 2 3 4 5 6 
#
# 1 82.4690 5.5768 24.8750 0.0000 -10.4976 0.0000
# 2 5.5768 105.4968 41.4427 0.0000 -3.9026 0.0000
# 3 24.8750 41.4427 64.5855 0.0000 2.3677 0.0000
# 4 0.0000 0.0000 0.0000 27.7640 0.0000 3.9973
# 5 -10.4976 -3.9026 2.3677 0.0000 24.8138 0.0000
# 6 0.0000 0.0000 0.0000 3.9973 0.0000 10.8893
#
#
#
# Elastic Compliance Matrix: (Units=1/GPa)
#
#
# Indices 1 2 3 4 5 6 
#
# 1 0.015270 0.002532 -0.007785 0.000000 0.007601 0.000000
# 2 0.002532 0.013287 -0.009651 0.000000 0.004082 0.000000
# 3 -0.007785 -0.009651 0.024938 0.000000 -0.007191 0.000000
# 4 0.000000 0.000000 0.000000 0.038028 0.000000 -0.013959
# 5 0.007601 0.004082 -0.007191 0.000000 0.044844 0.000000
# 6 0.000000 0.000000 0.000000 -0.013959 0.000000 0.096958
#
#
# Mechanical properties :
#
#
# Convention : Reuss Voigt Hill
#
# Bulk Modulus (GPa) = 42.21495 44.03782 43.12638
# Shear Modulus (GPa) = 18.44828 24.73720 21.59274
#
# Velocity S-wave (km/s) = 3.19382 3.69835 3.45531
# Velocity P-wave (km/s) = 6.07802 6.52584 6.30591
#
# Compressibility (1/GPa) = 0.02368829
#
# Stress axis : x y z
#
# Youngs Moduli (GPa) = 65.48706 75.25963 40.09949
#
# Poissons Ratio (x) = -0.19056 0.31216
# Poissons Ratio (y) = -0.16582 0.38700
# Poissons Ratio (z) = 0.50980 0.72633
#
# Static dielectric constant tensor:
#      x y z
#    x 1.584680 0.000000 -0.011160 
#    y 0.000000 1.635650 0.000000 
#    z -0.011160 0.000000 1.613360 
# 
# From -- ./inp_files/72469.got.cif
#   From: 2010.05.17/outbox.cif.g08.bks.cpg/sg12_37_cif.got.tgz:72469.got - 2010.06.03 13:09:07.
