data_PCOD9214471
_publ_section_title
;
Structure prediction by ZEFSAII (Michael W. Deem and Ramdas Pophale) SiO2 
 PCOD9214471
Probable space group: C 2/M
;
_chemical_formula_sum "Si O2"
_cell_formula_units_Z 48
_cell_length_a 9.743500
_cell_length_b 13.936902
_cell_length_c 29.670670
_cell_angle_alpha 90.000000
_cell_angle_beta 143.862188
_cell_angle_gamma 90.000000
_cell_volume 2376.081924
_symmetry_space_group_name_H-M "C 2/M"
_symmetry_group_IT_number 12
_symmetry_cell_setting 'monoclinic'
loop_
_space_group_symop_operation_xyz
x,y,z
-x,y,-z
-x,-y,-z
x,-y,z
1/2+x,1/2+y,z
1/2-x,1/2+y,-z
1/2-x,1/2-y,-z
1/2+x,1/2-y,z
loop_
_atom_site_type_symbol
_atom_site_label
_atom_site_fract_x
_atom_site_fract_y
_atom_site_fract_z
Si Si1 0.718038 0.113946 0.653446
Si Si2 0.537398 0.615012 0.373112
Si Si3 0.588290 0.711447 0.124939
Si Si4 0.411369 0.237168 0.771243
Si Si5 0.685443 0.383278 0.512504
Si Si6 0.384007 0.890594 0.018593
O O1 0.886454 0.175672 0.729276
O O2 0.452032 0.139835 0.594325
O O3 0.774501 0.134083 0.616152
O O4 0.749119 0.000000 0.668830
O O5 0.504350 0.500000 0.365880
O O6 0.298685 0.665506 0.295598
O O7 0.620205 0.646338 0.444554
O O8 0.608637 0.721480 0.183939
O O9 0.386612 0.637195 0.058255
O O10 0.837917 0.689463 0.169716
O O11 0.503751 0.813909 0.082938
O O12 0.500000 0.348110 0.500000
O O13 0.675344 0.500000 0.509993
O O14 0.413931 0.000000 0.041491
O O15 0.500000 0.880089 0.000000
#
# Coordination Sequence:
#
# PCOD9214471 Si02
#       6
#     8   8   8   8   8   8
#     4  10  22  40  62  86 119 168 212 249 305 366
#     4  10  22  40  61  86 121 166 210 253 306 362
#     4  11  24  42  63  95 129 156 195 255 300 358
#     4  12  24  40  61  93 131 159 197 254 310 358
#     4   9  19  36  59  88 121 158 210 266 302 349
#     4  10  22  43  71  94 119 163 204 238 296 368
#
# _framework density 20.201324
#
# number of rings (size 3 to 8) (size 9 to 14) (size 15 to 20)
#    0.000    1.667    3.333    0.500    2.333    5.333 
#    0.000    0.833    0.000    0.000    0.000    0.000 
#    0.000    0.000    0.000    0.000    0.000    0.000 
#
# Total GULP energy -134198.778692 kJ/mol
# GULP energy per Si atom -5591.615779 kJ/mol
# Density = 2.015534 g / cm^3
# Si number density = 20.201324 Si / 1000 Ang^3
#
#
#
# Elastic Constant Matrix: (Units=GPa)
#
#
# Indices 1 2 3 4 5 6 
#
# 1 82.6660 7.4484 4.7612 0.0000 12.5505 0.0000
# 2 7.4484 64.5666 1.8150 0.0000 -4.4759 0.0000
# 3 4.7612 1.8150 58.4498 0.0000 6.4716 0.0000
# 4 0.0000 0.0000 0.0000 13.7556 0.0000 -2.1309
# 5 12.5505 -4.4759 6.4716 0.0000 50.5050 0.0000
# 6 0.0000 0.0000 0.0000 -2.1309 0.0000 22.0309
#
#
#
# Elastic Compliance Matrix: (Units=1/GPa)
#
#
# Indices 1 2 3 4 5 6 
#
# 1 0.012777 -0.001681 -0.000629 0.000000 -0.003243 0.000000
# 2 -0.001681 0.015829 -0.000564 0.000000 0.001893 0.000000
# 3 -0.000629 -0.000564 0.017413 0.000000 -0.002125 0.000000
# 4 0.000000 0.000000 0.000000 0.073804 0.000000 0.007138
# 5 -0.003243 0.001893 -0.002125 0.000000 0.021046 0.000000
# 6 0.000000 0.000000 0.000000 0.007138 0.000000 0.046081
#
#
# Mechanical properties :
#
#
# Convention : Reuss Voigt Hill
#
# Bulk Modulus (GPa) = 24.83290 25.97018 25.40154
# Shear Modulus (GPa) = 24.25747 30.03548 27.14648
#
# Velocity S-wave (km/s) = 3.46900 3.86010 3.66976
# Velocity P-wave (km/s) = 5.32585 5.72283 5.52790
#
# Compressibility (1/GPa) = 0.04026916
#
# Stress axis : x y z
#
# Youngs Moduli (GPa) = 78.26551 63.17566 57.42922
#
# Poissons Ratio (x) = 0.10620 0.03615
# Poissons Ratio (y) = 0.13157 0.03240
# Poissons Ratio (z) = 0.04927 0.03564
#
# Static dielectric constant tensor:
#      x y z
#    x 1.703140 0.000000 0.006930 
#    y 0.000000 1.712780 0.000000 
#    z 0.006930 0.000000 1.671650 
# 
# From -- ./inp_files/356289.got.cif
#   From: 2010.05.17/outbox.cif.g08.bks.cpg/sg12_179_cif.got.tgz:356289.got - 2010.06.03 13:09:07.
