data_PCOD9214441
_publ_section_title
;
Structure prediction by ZEFSAII (Michael W. Deem and Ramdas Pophale) SiO2 
 PCOD9214441
Probable space group: C 2/M
;
_chemical_formula_sum "Si O2"
_cell_formula_units_Z 48
_cell_length_a 8.213087
_cell_length_b 21.810028
_cell_length_c 15.552885
_cell_angle_alpha 90.000000
_cell_angle_beta 63.885972
_cell_angle_gamma 90.000000
_cell_volume 2501.561435
_symmetry_space_group_name_H-M "C 2/M"
_symmetry_group_IT_number 12
_symmetry_cell_setting 'monoclinic'
loop_
_space_group_symop_operation_xyz
x,y,z
-x,y,-z
-x,-y,-z
x,-y,z
1/2+x,1/2+y,z
1/2-x,1/2+y,-z
1/2-x,1/2-y,-z
1/2+x,1/2-y,z
loop_
_atom_site_type_symbol
_atom_site_label
_atom_site_fract_x
_atom_site_fract_y
_atom_site_fract_z
Si Si1 0.632345 0.652704 0.401005
Si Si2 0.978952 0.279548 0.404171
Si Si3 0.220424 0.719984 0.190394
Si Si4 0.397678 0.341481 0.874130
Si Si5 0.248232 0.572254 0.785717
Si Si6 0.920342 0.352546 0.931888
O O1 0.500000 0.619803 0.500000
O O2 0.497411 0.705435 0.395057
O O3 0.718070 0.607933 0.311199
O O4 0.796994 0.691091 0.407179
O O5 0.142337 0.296202 0.302191
O O6 0.000000 0.296027 0.500000
O O7 0.418570 0.691048 0.141112
O O8 0.200567 0.791090 0.166837
O O9 0.096147 0.687563 0.148371
O O10 0.402787 0.401677 0.813978
O O11 0.282530 0.361233 0.984703
O O12 0.253565 0.500000 0.773814
O O13 0.057152 0.592742 0.875290
O O14 0.000000 0.321839 0.000000
#
# Coordination Sequence:
#
# PCOD9214441 Si02
#       6
#     8   8   8   8   8   8
#     4  11  22  39  64  94 126 157 200 251 313 374
#     4  11  22  36  64  99 126 157 189 250 321 374
#     4  12  21  39  64  97 131 157 198 254 323 377
#     4  11  23  36  63  92 127 163 201 255 309 372
#     4  11  24  43  63  86 120 170 216 255 297 356
#     4  10  22  40  60  91 124 161 204 251 309 364
#
# _framework density 19.188016999999999
#
# number of rings (size 3 to 8) (size 9 to 14) (size 15 to 20)
#    0.000    1.000    3.333    6.000    2.333    4.667 
#    0.000    0.833    0.000    5.500    0.000    0.000 
#    0.000    0.000    0.000    0.000    0.000    0.000 
#
# Total GULP energy -133661.783527 kJ/mol
# GULP energy per Si atom -5569.240980 kJ/mol
# Density = 1.914434 g / cm^3
# Si number density = 19.188017 Si / 1000 Ang^3
#
#
#
# Elastic Constant Matrix: (Units=GPa)
#
#
# Indices 1 2 3 4 5 6 
#
# 1 67.2153 42.1568 24.6775 0.0000 -0.4702 0.0000
# 2 42.1568 105.2946 46.9806 0.0000 9.6985 0.0000
# 3 24.6775 46.9806 145.2744 0.0000 1.9268 0.0000
# 4 0.0000 0.0000 0.0000 16.4989 0.0000 -5.2845
# 5 -0.4702 9.6985 1.9268 0.0000 32.5399 0.0000
# 6 0.0000 0.0000 0.0000 -5.2845 0.0000 13.3620
#
#
#
# Elastic Compliance Matrix: (Units=1/GPa)
#
#
# Indices 1 2 3 4 5 6 
#
# 1 0.020206 -0.007937 -0.000901 0.000000 0.002711 0.000000
# 2 -0.007937 0.014538 -0.003297 0.000000 -0.004252 0.000000
# 3 -0.000901 -0.003297 0.008096 0.000000 0.000490 0.000000
# 4 0.000000 0.000000 0.000000 0.069401 0.000000 0.027447
# 5 0.002711 -0.004252 0.000490 0.000000 0.032009 0.000000
# 6 0.000000 0.000000 0.000000 0.027447 0.000000 0.085694
#
#
# Mechanical properties :
#
#
# Convention : Reuss Voigt Hill
#
# Bulk Modulus (GPa) = 53.85361 60.60158 57.22759
# Shear Modulus (GPa) = 19.20091 26.07812 22.63952
#
# Velocity S-wave (km/s) = 3.16677 3.69057 3.43866
# Velocity P-wave (km/s) = 6.44193 7.05777 6.75687
#
# Compressibility (1/GPa) = 0.01856886
#
# Stress axis : x y z
#
# Youngs Moduli (GPa) = 49.49114 68.78717 123.51387
#
# Poissons Ratio (x) = 0.54598 0.11134
# Poissons Ratio (y) = 0.39282 0.40718
# Poissons Ratio (z) = 0.04461 0.22677
#
# Static dielectric constant tensor:
#      x y z
#    x 1.750720 0.000000 -0.032180 
#    y 0.000000 1.648430 0.000000 
#    z -0.032180 0.000000 1.763270 
# 
# From -- ./inp_files/196922.got.cif
#   From: 2010.05.17/outbox.cif.g08.bks.cpg/sg12_99_cif.got.tgz:196922.got - 2010.06.03 13:09:07.
