data_PCOD9214357
_publ_section_title
;
Structure prediction by ZEFSAII (Michael W. Deem and Ramdas Pophale) SiO2 
 PCOD9214357
Probable space group: C 2/M
;
_chemical_formula_sum "Si O2"
_cell_formula_units_Z 48
_cell_length_a 24.597578
_cell_length_b 13.716486
_cell_length_c 19.418781
_cell_angle_alpha 90.000000
_cell_angle_beta 22.393671
_cell_angle_gamma 90.000000
_cell_volume 2496.007893
_symmetry_space_group_name_H-M "C 2/M"
_symmetry_group_IT_number 12
_symmetry_cell_setting 'monoclinic'
loop_
_space_group_symop_operation_xyz
x,y,z
-x,y,-z
-x,-y,-z
x,-y,z
1/2+x,1/2+y,z
1/2-x,1/2+y,-z
1/2-x,1/2-y,-z
1/2+x,1/2-y,z
loop_
_atom_site_type_symbol
_atom_site_label
_atom_site_fract_x
_atom_site_fract_y
_atom_site_fract_z
Si Si1 0.625731 0.248896 0.089535
Si Si2 0.311778 0.609989 0.787513
Si Si3 0.867033 0.110703 0.559331
Si Si4 0.439194 0.386553 0.226591
Si Si5 0.097469 0.703716 0.820669
Si Si6 0.114149 0.611809 0.654019
O O1 0.559117 0.349285 0.139774
O O2 0.488405 0.182954 0.268928
O O3 0.750000 0.250000 0.000000
O O4 0.701690 0.191627 0.937920
O O5 0.264639 0.500000 0.861599
O O6 0.337699 0.610755 0.675579
O O7 0.464492 0.627852 0.645281
O O8 0.761691 0.188236 0.649780
O O9 0.835579 0.000000 0.570733
O O10 0.456515 0.500000 0.189508
O O11 0.440852 0.312138 0.160396
O O12 0.281674 0.371696 0.443819
O O13 0.082597 0.635979 0.770787
O O14 0.000000 0.675592 0.000000
O O15 0.082853 0.500000 0.675080
#
# Coordination Sequence:
#
# PCOD9214357 Si02
#       6
#     8   8   8   8   8   8
#     4  11  22  34  58  84 111 148 190 238 277 334
#     4   9  19  34  52  82 119 146 173 224 291 347
#     4   9  18  32  54  84 117 146 174 220 289 354
#     4  10  24  43  58  79 117 160 197 235 278 333
#     4  11  21  34  60  88 111 147 192 240 281 332
#     4  10  22  40  59  83 118 150 187 237 290 348
#
# _framework density 19.230709000000001
#
# number of rings (size 3 to 8) (size 9 to 14) (size 15 to 20)
#    0.000    2.000    0.000    6.000    4.667    4.333 
#    0.000    0.000    0.000    0.000    0.000    3.500 
#    0.000    0.000    0.000    0.000    0.000    0.000 
#
# Total GULP energy -133941.706241 kJ/mol
# GULP energy per Si atom -5580.904427 kJ/mol
# Density = 1.918694 g / cm^3
# Si number density = 19.230709 Si / 1000 Ang^3
#
#
#
# Elastic Constant Matrix: (Units=GPa)
#
#
# Indices 1 2 3 4 5 6 
#
# 1 77.3318 14.3027 17.3047 0.0000 -31.7065 0.0000
# 2 14.3027 74.5751 11.4743 0.0000 -22.8337 0.0000
# 3 17.3047 11.4743 72.5781 0.0000 -12.7814 0.0000
# 4 0.0000 0.0000 0.0000 21.4409 0.0000 -5.2905
# 5 -31.7065 -22.8337 -12.7814 0.0000 37.2224 0.0000
# 6 0.0000 0.0000 0.0000 -5.2905 0.0000 14.9431
#
#
#
# Elastic Compliance Matrix: (Units=1/GPa)
#
#
# Indices 1 2 3 4 5 6 
#
# 1 0.020317 0.001847 -0.002010 0.000000 0.017749 0.000000
# 2 0.001847 0.016731 -0.001065 0.000000 0.011471 0.000000
# 3 -0.002010 -0.001065 0.014911 0.000000 0.002754 0.000000
# 4 0.000000 0.000000 0.000000 0.051104 0.000000 0.018093
# 5 0.017749 0.011471 0.002754 0.000000 0.049967 0.000000
# 6 0.000000 0.000000 0.000000 0.018093 0.000000 0.073326
#
#
# Mechanical properties :
#
#
# Convention : Reuss Voigt Hill
#
# Bulk Modulus (GPa) = 20.20137 34.51648 27.35893
# Shear Modulus (GPa) = 20.38204 26.81484 23.59844
#
# Velocity S-wave (km/s) = 3.25910 3.73819 3.50683
# Velocity P-wave (km/s) = 4.96889 6.05142 5.53667
#
# Compressibility (1/GPa) = 0.04950158
#
# Stress axis : x y z
#
# Youngs Moduli (GPa) = 49.22088 59.76841 67.06435
#
# Poissons Ratio (x) = -0.11040 0.13483
# Poissons Ratio (y) = -0.09092 0.07145
# Poissons Ratio (z) = 0.09895 0.06368
#
# Static dielectric constant tensor:
#      x y z
#    x 1.705150 0.000000 -0.014610 
#    y 0.000000 1.668720 0.000000 
#    z -0.014610 0.000000 1.694600 
# 
# From -- ./inp_files/328194.got.cif
#   From: 2010.05.17/outbox.cif.g08.bks.cpg/sg12_165_cif.got.tgz:328194.got - 2010.06.03 13:09:07.
