data_PCOD9214858
_publ_section_title
;
Structure prediction by ZEFSAII (Michael W. Deem and Ramdas Pophale) SiO2 
 PCOD9214858
Probable space group: C 2/M
;
_chemical_formula_sum "Si O2"
_cell_formula_units_Z 56
_cell_length_a 10.115308
_cell_length_b 15.700010
_cell_length_c 27.887351
_cell_angle_alpha 90.000000
_cell_angle_beta 36.100913
_cell_angle_gamma 90.000000
_cell_volume 2609.491258
_symmetry_space_group_name_H-M "C 2/M"
_symmetry_group_IT_number 12
_symmetry_cell_setting 'monoclinic'
loop_
_space_group_symop_operation_xyz
x,y,z
-x,y,-z
-x,-y,-z
x,-y,z
1/2+x,1/2+y,z
1/2-x,1/2+y,-z
1/2-x,1/2-y,-z
1/2+x,1/2-y,z
loop_
_atom_site_type_symbol
_atom_site_label
_atom_site_fract_x
_atom_site_fract_y
_atom_site_fract_z
Si Si1 0.153765 0.099058 0.714926
Si Si2 0.820089 0.346085 0.183904
Si Si3 0.074297 0.603976 0.530546
Si Si4 0.110788 0.148675 0.834738
Si Si5 0.644934 0.166120 0.005439
Si Si6 0.544707 0.395646 0.432212
Si Si7 0.550940 0.098577 0.750575
O O1 0.385315 0.130464 0.623801
O O2 0.169873 0.105241 0.767336
O O3 0.934625 0.147515 0.759909
O O4 0.123537 0.000000 0.709753
O O5 0.892394 0.249525 0.174311
O O6 0.853921 0.394355 0.223807
O O7 0.982016 0.375233 0.092827
O O8 0.079901 0.500000 0.530079
O O9 0.000000 0.631322 0.500000
O O10 0.324718 0.632605 0.468147
O O11 0.306043 0.138107 0.816411
O O12 0.868824 0.117246 0.923571
O O13 0.500000 0.185418 0.000000
O O14 0.750000 0.250000 0.000000
O O15 0.500000 0.370597 0.500000
O O16 0.553501 0.500000 0.428822
O O17 0.769926 0.364909 0.340123
O O18 0.521277 0.000000 0.747106
#
# Coordination Sequence:
#
# PCOD9214858 Si02
#       7
#     8   8   8   8   8   8   8
#     4  11  21  37  61  90 120 153 196 251 303 348
#     4  11  23  40  63  87 120 158 200 245 296 359
#     4   9  17  30  53  82 111 149 198 241 282 343
#     4  11  23  40  63  87 118 156 203 243 292 360
#     4  10  22  40  65  90 116 159 210 245 280 357
#     4   9  17  32  55  82 113 153 200 243 283 344
#     4  11  23  39  61  92 124 155 198 252 305 350
#
# _framework density 21.460122999999999
#
# number of rings (size 3 to 8) (size 9 to 14) (size 15 to 20)
#    0.000    1.714    1.429    3.429    6.000    4.571 
#    0.000    4.286    0.000   17.143    0.000    0.000 
#    0.000    0.000    0.000    0.000    0.000    0.000 
#
# Total GULP energy -156386.804634 kJ/mol
# GULP energy per Si atom -5585.243023 kJ/mol
# Density = 2.141128 g / cm^3
# Si number density = 21.460123 Si / 1000 Ang^3
#
#
#
# Elastic Constant Matrix: (Units=GPa)
#
#
# Indices 1 2 3 4 5 6 
#
# 1 106.4184 -7.7177 12.7406 0.0026 -3.3876 -0.0014
# 2 -7.7177 21.8946 8.7270 -0.0006 -4.3062 0.0002
# 3 12.7406 8.7270 107.6148 0.0062 -1.5127 -0.0052
# 4 0.0026 -0.0006 0.0062 12.2699 -0.0030 3.6874
# 5 -3.3876 -4.3062 -1.5127 -0.0030 39.9179 0.0010
# 6 -0.0014 0.0002 -0.0052 3.6874 0.0010 22.2529
#
#
#
# Elastic Compliance Matrix: (Units=1/GPa)
#
#
# Indices 1 2 3 4 5 6 
#
# 1 0.009933 0.004351 -0.001511 -0.000001 0.001255 0.000000
# 2 0.004351 0.050102 -0.004499 0.000006 0.005604 -0.000002
# 3 -0.001511 -0.004499 0.009833 -0.000006 -0.000241 0.000003
# 4 -0.000001 0.000006 -0.000006 0.085772 0.000007 -0.014213
# 5 0.001255 0.005604 -0.000241 0.000007 0.025753 -0.000002
# 6 0.000000 -0.000002 0.000003 -0.014213 -0.000002 0.047293
#
#
# Mechanical properties :
#
#
# Convention : Reuss Voigt Hill
#
# Bulk Modulus (GPa) = 15.02661 29.26973 22.14817
# Shear Modulus (GPa) = 19.67038 29.70000 24.68519
#
# Velocity S-wave (km/s) = 3.03083 3.72420 3.39526
# Velocity P-wave (km/s) = 4.38921 5.67112 5.07084
#
# Compressibility (1/GPa) = 0.06654860
#
# Stress axis : x y z
#
# Youngs Moduli (GPa) = 100.67196 19.95911 101.70041
#
# Poissons Ratio (x) = -0.08683 0.15369
# Poissons Ratio (y) = -0.43798 0.45759
# Poissons Ratio (z) = 0.15213 0.08980
#
# Static dielectric constant tensor:
#      x y z
#    x 1.739920 0.000000 0.018580 
#    y 0.000000 1.799920 0.000000 
#    z 0.018580 0.000000 1.805670 
# 
# From -- ./inp_files/256986.got.cif
#   From: 2010.05.17/outbox.cif.g08.bks.cpg/sg12_129_cif.got.tgz:256986.got - 2010.06.03 13:09:07.
