data_PCOD9214292
_publ_section_title
;
Structure prediction by ZEFSAII (Michael W. Deem and Ramdas Pophale) SiO2 
 PCOD9214292
Probable space group: C 2/M
;
_chemical_formula_sum "Si O2"
_cell_formula_units_Z 58
_cell_length_a 20.283026
_cell_length_b 28.032351
_cell_length_c 5.706080
_cell_angle_alpha 90.000000
_cell_angle_beta 55.675747
_cell_angle_gamma 90.000000
_cell_volume 2679.392831
_symmetry_space_group_name_H-M "C 2/M"
_symmetry_group_IT_number 12
_symmetry_cell_setting 'monoclinic'
loop_
_space_group_symop_operation_xyz
x,y,z
-x,y,-z
-x,-y,-z
x,-y,z
1/2+x,1/2+y,z
1/2-x,1/2+y,-z
1/2-x,1/2-y,-z
1/2+x,1/2-y,z
loop_
_atom_site_type_symbol
_atom_site_label
_atom_site_fract_x
_atom_site_fract_y
_atom_site_fract_z
Si Si1 0.711585 0.699185 0.518642
Si Si2 0.960164 0.057541 0.831125
Si Si3 0.207665 0.892102 0.824002
Si Si4 0.000000 0.500000 0.000000
Si Si5 0.810189 0.637501 0.995779
Si Si6 0.959753 0.217088 0.327013
Si Si7 0.438554 0.171751 0.423524
Si Si8 0.878113 0.587122 0.243214
O O1 0.750000 0.750000 0.500000
O O2 0.689665 0.661530 0.766767
O O3 0.633667 0.704136 0.510817
O O4 0.783519 0.672100 0.250651
O O5 0.000000 0.073603 0.500000
O O6 0.962405 0.000000 0.821441
O O7 0.869880 0.075908 0.034194
O O8 0.000000 0.072833 0.000000
O O9 0.233651 0.887027 0.039952
O O10 0.288155 0.912785 0.535403
O O11 0.068528 0.541589 0.819131
O O12 0.852940 0.670441 0.721514
O O13 0.865901 0.596853 0.991913
O O14 0.962581 0.274979 0.310821
O O15 0.000000 0.203671 0.500000
O O16 0.000000 0.199976 0.000000
O O17 0.500000 0.155400 0.500000
O O18 0.423887 0.133128 0.254157
#
# Coordination Sequence:
#
# PCOD9214292 Si02
#       8
#     8   8   8   2   8   8   8   8
#     4  11  25  43  70  98 141 189 241 293 351 432
#     4  10  24  47  78 110 140 184 240 302 371 442
#     4  10  24  44  68 101 140 189 234 295 360 432
#     4  12  24  40  70 104 144 172 224 300 358 424
#     4  10  22  43  66  94 129 184 234 280 352 420
#     4  11  27  43  65 103 139 185 237 298 354 414
#     4  10  22  39  68  87 131 182 236 285 344 421
#     4  10  23  41  63 101 133 182 228 290 357 426
#
# _framework density 21.646695000000001
#
# number of rings (size 3 to 8) (size 9 to 14) (size 15 to 20)
#    0.000    1.655    0.000    3.310   15.448    1.655 
#    1.241    6.552    0.000    0.000    0.000    0.000 
#    0.000    0.000    0.000    0.000    0.000    0.000 
#
# Total GULP energy -161465.999717 kJ/mol
# GULP energy per Si atom -5567.793094 kJ/mol
# Density = 2.159743 g / cm^3
# Si number density = 21.646695 Si / 1000 Ang^3
#
#
#
# Elastic Constant Matrix: (Units=GPa)
#
#
# Indices 1 2 3 4 5 6 
#
# 1 155.3730 38.3432 31.9785 0.0000 3.4870 0.0000
# 2 38.3432 63.6501 20.8961 0.0000 2.6779 0.0000
# 3 31.9785 20.8961 89.5832 0.0000 -7.7374 0.0000
# 4 0.0000 0.0000 0.0000 10.1697 0.0000 -17.1303
# 5 3.4870 2.6779 -7.7374 0.0000 40.9508 0.0000
# 6 0.0000 0.0000 0.0000 -17.1303 0.0000 23.4391
#
#
#
# Elastic Compliance Matrix: (Units=1/GPa)
#
#
# Indices 1 2 3 4 5 6 
#
# 1 0.007852 -0.004068 -0.001920 0.000000 -0.000765 0.000000
# 2 -0.004068 0.019267 -0.003173 0.000000 -0.001513 0.000000
# 3 -0.001920 -0.003173 0.012830 0.000000 0.002795 0.000000
# 4 0.000000 0.000000 0.000000 -0.425558 0.000000 -0.311016
# 5 -0.000765 -0.001513 0.002795 0.000000 0.025112 0.000000
# 6 0.000000 0.000000 0.000000 -0.311016 0.000000 -0.184640
#
#
# Mechanical properties :
#
#
# Convention : Reuss Voigt Hill
#
# Bulk Modulus (GPa) = 46.23810 54.56020 50.39915
# Shear Modulus (GPa) = -9.62265 29.40448 9.89091
#
# Velocity S-wave (km/s) = -2.11068 3.68962 2.13990
# Velocity P-wave (km/s) = 3.93278 6.58868 5.42574
#
# Compressibility (1/GPa) = 0.02162719
#
# Stress axis : x y z
#
# Youngs Moduli (GPa) = 127.35008 51.90351 77.94353
#
# Poissons Ratio (x) = 0.21113 0.14968
# Poissons Ratio (y) = 0.51802 0.24729
# Poissons Ratio (z) = 0.24456 0.16468
#
# Static dielectric constant tensor:
#      x y z
#    x 1.791150 0.000000 0.039260 
#    y 0.000000 1.763340 0.000000 
#    z 0.039260 0.000000 1.879820 
# 
# From -- ./inp_files/22453.got.cif
#   From: 2010.05.17/outbox.cif.g08.bks.cpg/sg12_12_cif.got.tgz:22453.got - 2010.06.03 13:09:07.
