data_PCOD9214560
_publ_section_title
;
Structure prediction by ZEFSAII (Michael W. Deem and Ramdas Pophale) SiO2 
 PCOD9214560
Probable space group: C 2/M
;
_chemical_formula_sum "Si O2"
_cell_formula_units_Z 64
_cell_length_a 18.368297
_cell_length_b 8.909406
_cell_length_c 31.085967
_cell_angle_alpha 90.000000
_cell_angle_beta 42.253506
_cell_angle_gamma 90.000000
_cell_volume 3420.720145
_symmetry_space_group_name_H-M "C 2/M"
_symmetry_group_IT_number 12
_symmetry_cell_setting 'monoclinic'
loop_
_space_group_symop_operation_xyz
x,y,z
-x,y,-z
-x,-y,-z
x,-y,z
1/2+x,1/2+y,z
1/2-x,1/2+y,-z
1/2-x,1/2-y,-z
1/2+x,1/2-y,z
loop_
_atom_site_type_symbol
_atom_site_label
_atom_site_fract_x
_atom_site_fract_y
_atom_site_fract_z
Si Si1 0.685115 0.319755 0.319667
Si Si2 0.432353 0.820653 0.190269
Si Si3 0.822806 0.819686 0.073353
Si Si4 0.590613 0.320848 0.190498
Si Si5 0.218661 0.679186 0.559476
Si Si6 0.494397 0.319710 0.072927
Si Si7 0.372881 0.178317 0.563638
Si Si8 0.013436 0.180121 0.320250
O O1 0.681149 0.500000 0.328415
O O2 0.805808 0.281453 0.251081
O O3 0.658606 0.237162 0.375530
O O4 0.597549 0.282490 0.321351
O O5 0.500750 0.750845 0.199097
O O6 0.476769 0.759318 0.125766
O O7 0.441940 0.000000 0.187123
O O8 0.708144 0.740486 0.126322
O O9 0.896562 0.783823 0.082775
O O10 0.808470 0.000000 0.078834
O O11 0.895028 0.778074 0.000253
O O12 0.588389 0.500000 0.186926
O O13 0.564407 0.283916 0.251584
O O14 0.222564 0.500000 0.555202
O O15 0.250000 0.750000 0.500000
O O16 0.301600 0.738023 0.559190
O O17 0.098796 0.734661 0.624116
O O18 0.495106 0.500000 0.078328
O O19 0.500000 0.205929 0.500000
O O20 0.353240 0.000000 0.569110
O O21 0.993784 0.000000 0.330253
#
# Coordination Sequence:
#
# PCOD9214560 Si02
#       8
#     8   8   8   8   8   8   8   8
#     4  10  22  40  62  88 117 151 191 237 291 345
#     4  11  23  38  57  84 117 152 193 239 287 343
#     4   9  19  37  60  85 114 148 189 238 289 345
#     4  11  23  38  58  85 117 154 194 237 288 343
#     4  12  25  41  63  90 121 157 196 238 287 341
#     4   9  19  37  60  85 113 148 190 236 290 347
#     4  11  24  41  62  90 121 154 196 240 284 340
#     4  10  22  41  63  88 119 152 191 240 290 343
#
# _framework density 18.709510999999999
#
# number of rings (size 3 to 8) (size 9 to 14) (size 15 to 20)
#    0.000    1.625    0.000    5.250    0.000   10.000 
#    0.000    1.250    0.000    0.000    0.000    0.000 
#    0.000    0.000    0.000    0.000    0.000    0.000 
#
# Total GULP energy -178930.940669 kJ/mol
# GULP energy per Si atom -5591.591896 kJ/mol
# Density = 1.866693 g / cm^3
# Si number density = 18.709511 Si / 1000 Ang^3
#
#
#
# Elastic Constant Matrix: (Units=GPa)
#
#
# Indices 1 2 3 4 5 6 
#
# 1 162.4874 83.4581 99.0779 0.0003 2.7758 0.0013
# 2 83.4581 72.6926 78.3389 0.0012 -2.5162 0.0039
# 3 99.0779 78.3389 147.4693 0.0000 2.6371 -0.0007
# 4 0.0003 0.0012 0.0000 23.4324 -0.0001 18.1584
# 5 2.7758 -2.5162 2.6371 -0.0001 39.9595 0.0001
# 6 0.0013 0.0039 -0.0007 18.1584 0.0001 -4.7252
#
#
#
# Elastic Compliance Matrix: (Units=1/GPa)
#
#
# Indices 1 2 3 4 5 6 
#
# 1 0.015447 -0.015563 -0.002076 0.000002 -0.001916 -0.000002
# 2 -0.015563 0.048261 -0.015273 -0.000008 0.005128 0.000007
# 3 -0.002076 -0.015273 0.016323 0.000003 -0.001895 -0.000003
# 4 0.000002 -0.000008 0.000003 0.010728 -0.000001 0.041227
# 5 -0.001916 0.005128 -0.001895 -0.000001 0.025606 0.000001
# 6 -0.000002 0.000007 -0.000003 0.041227 0.000001 -0.053201
#
#
# Mechanical properties :
#
#
# Convention : Reuss Voigt Hill
#
# Bulk Modulus (GPa) = 70.39002 100.48880 85.43941
# Shear Modulus (GPa) = 37.39014 19.85162 28.62088
#
# Velocity S-wave (km/s) = 4.47526 3.26090 3.91545
# Velocity P-wave (km/s) = 8.02547 8.24649 8.13673
#
# Compressibility (1/GPa) = 0.01420656
#
# Stress axis : x y z
#
# Youngs Moduli (GPa) = 64.73872 20.72051 61.26252
#
# Poissons Ratio (x) = 0.32248 0.12719
# Poissons Ratio (y) = 1.00754 0.93566
# Poissons Ratio (z) = 0.13441 0.31646
#
# Static dielectric constant tensor:
#      x y z
#    x 1.615080 0.000000 -0.002560 
#    y 0.000000 1.625900 0.000000 
#    z -0.002560 0.000000 1.617890 
# 
# From -- ./inp_files/378001.got.cif
#   From: 2010.05.17/outbox.cif.g08.bks.cpg/sg12_190_cif.got.tgz:378001.got - 2010.06.03 13:09:07.
