data_PCOD9214904
_publ_section_title
;
Structure prediction by ZEFSAII (Michael W. Deem and Ramdas Pophale) SiO2 
 PCOD9214904
Probable space group: C 2/M
;
_chemical_formula_sum "Si O2"
_cell_formula_units_Z 52
_cell_length_a 12.602808
_cell_length_b 18.457337
_cell_length_c 14.941730
_cell_angle_alpha 90.000000
_cell_angle_beta 44.255831
_cell_angle_gamma 90.000000
_cell_volume 2425.535525
_symmetry_space_group_name_H-M "C 2/M"
_symmetry_group_IT_number 12
_symmetry_cell_setting 'monoclinic'
loop_
_space_group_symop_operation_xyz
x,y,z
-x,y,-z
-x,-y,-z
x,-y,z
1/2+x,1/2+y,z
1/2-x,1/2+y,-z
1/2-x,1/2-y,-z
1/2+x,1/2-y,z
loop_
_atom_site_type_symbol
_atom_site_label
_atom_site_fract_x
_atom_site_fract_y
_atom_site_fract_z
Si Si1 0.844090 0.156661 0.836481
Si Si2 0.000000 0.122241 0.000000
Si Si3 0.347427 0.416608 0.646580
Si Si4 0.690842 0.173846 0.106435
Si Si5 0.635612 0.419921 0.739232
Si Si6 0.829061 0.293951 0.575740
Si Si7 0.635272 0.155867 0.648439
O O1 0.810221 0.133611 0.755261
O O2 0.857703 0.242120 0.849683
O O3 0.004025 0.116668 0.758527
O O4 0.719346 0.140955 0.989479
O O5 0.145202 0.167387 0.946165
O O6 0.057631 0.076502 0.882538
O O7 0.500000 0.396204 0.500000
O O8 0.361590 0.500000 0.668722
O O9 0.221483 0.407990 0.646400
O O10 0.542145 0.137995 0.236623
O O11 0.678903 0.500000 0.681504
O O12 0.770365 0.362202 0.667367
O O13 0.708990 0.227819 0.652472
O O14 0.829387 0.325919 0.475271
O O15 0.000000 0.272350 0.500000
#
# Coordination Sequence:
#
# PCOD9214904 Si02
#       7
#     8   4   8   8   8   8   8
#     4  10  22  40  65  96 129 172 221 276 324 394
#     4  10  23  40  66  96 127 168 216 274 331 392
#     4  11  25  43  67  98 137 184 224 272 339 408
#     4  10  22  41  66  98 128 169 223 277 332 383
#     4  11  22  40  63  92 132 173 217 267 331 397
#     4  11  24  40  64  97 131 176 226 276 333 386
#     4  11  24  41  64  98 132 171 222 278 327 399
#
# _framework density 21.438562999999998
#
# number of rings (size 3 to 8) (size 9 to 14) (size 15 to 20)
#    0.000    1.385    1.538    3.000    6.462    2.769 
#    0.000    6.923    0.000    0.000    0.000    0.000 
#    0.000    0.000    0.000    0.000    0.000    0.000 
#
# Total GULP energy -144920.569964 kJ/mol
# GULP energy per Si atom -5573.868076 kJ/mol
# Density = 2.138977 g / cm^3
# Si number density = 21.438563 Si / 1000 Ang^3
#
#
#
# Elastic Constant Matrix: (Units=GPa)
#
#
# Indices 1 2 3 4 5 6 
#
# 1 93.6410 14.6844 43.5424 0.0003 2.2854 -0.0003
# 2 14.6844 81.6125 24.9353 0.0002 -2.8348 -0.0001
# 3 43.5424 24.9353 103.7980 0.0005 -3.9208 -0.0003
# 4 0.0003 0.0002 0.0005 13.4096 -0.0003 -1.1521
# 5 2.2854 -2.8348 -3.9208 -0.0003 40.8329 0.0003
# 6 -0.0003 -0.0001 -0.0003 -1.1521 0.0003 5.4174
#
#
#
# Elastic Compliance Matrix: (Units=1/GPa)
#
#
# Indices 1 2 3 4 5 6 
#
# 1 0.013380 -0.000781 -0.005475 0.000000 -0.001329 0.000000
# 2 -0.000781 0.013285 -0.002838 0.000000 0.000693 0.000000
# 3 -0.005475 -0.002838 0.012663 0.000000 0.001325 0.000000
# 4 0.000000 0.000000 0.000000 0.075961 0.000000 0.016155
# 5 -0.001329 0.000693 0.001325 0.000000 0.024740 -0.000001
# 6 0.000000 0.000000 0.000000 0.016155 -0.000001 0.188027
#
#
# Mechanical properties :
#
#
# Convention : Reuss Voigt Hill
#
# Bulk Modulus (GPa) = 47.30422 49.48618 48.39520
# Shear Modulus (GPa) = 14.15269 24.99127 19.57198
#
# Velocity S-wave (km/s) = 2.57213 3.41796 3.02476
# Velocity P-wave (km/s) = 5.56184 6.22170 5.90100
#
# Compressibility (1/GPa) = 0.02113976
#
# Stress axis : x y z
#
# Youngs Moduli (GPa) = 74.73849 75.27529 78.97176
#
# Poissons Ratio (x) = 0.05876 0.43241
# Poissons Ratio (y) = 0.05835 0.22410
# Poissons Ratio (z) = 0.40923 0.21361
#
# Static dielectric constant tensor:
#      x y z
#    x 1.824240 0.000000 0.020100 
#    y 0.000000 1.826220 0.000000 
#    z 0.020100 0.000000 1.816310 
# 
# From -- ./inp_files/207587.got.cif
#   From: 2010.05.17/outbox.cif.g08.bks.cpg/sg12_104_cif.got.tgz:207587.got - 2010.06.03 13:09:07.
