data_PCOD9214673
_publ_section_title
;
Structure prediction by ZEFSAII (Michael W. Deem and Ramdas Pophale) SiO2 
 PCOD9214673
Probable space group: C 2/M
;
_chemical_formula_sum "Si O2"
_cell_formula_units_Z 56
_cell_length_a 30.545644
_cell_length_b 17.449677
_cell_length_c 9.058250
_cell_angle_alpha 90.000000
_cell_angle_beta 143.727448
_cell_angle_gamma 90.000000
_cell_volume 2856.465510
_symmetry_space_group_name_H-M "C 2/M"
_symmetry_group_IT_number 12
_symmetry_cell_setting 'monoclinic'
loop_
_space_group_symop_operation_xyz
x,y,z
-x,y,-z
-x,-y,-z
x,-y,z
1/2+x,1/2+y,z
1/2-x,1/2+y,-z
1/2-x,1/2-y,-z
1/2+x,1/2-y,z
loop_
_atom_site_type_symbol
_atom_site_label
_atom_site_fract_x
_atom_site_fract_y
_atom_site_fract_z
Si Si1 0.296459 0.191395 0.021749
Si Si2 0.526109 0.649377 0.403287
Si Si3 0.826303 0.238530 0.791193
Si Si4 0.343331 0.590551 0.406133
Si Si5 0.394538 0.586563 0.873137
Si Si6 0.022236 0.300302 0.893406
Si Si7 0.057253 0.590972 0.518610
O O1 0.368195 0.143215 0.272327
O O2 0.250000 0.250000 0.000000
O O3 0.322417 0.238583 0.950182
O O4 0.236105 0.129602 0.803673
O O5 0.500000 0.641254 0.500000
O O6 0.609823 0.626364 0.599796
O O7 0.511741 0.735101 0.306396
O O8 0.476432 0.595879 0.161334
O O9 0.750000 0.250000 0.500000
O O10 0.848927 0.150328 0.835513
O O11 0.890285 0.289666 0.889565
O O12 0.337395 0.500000 0.371336
O O13 0.386020 0.605599 0.676838
O O14 0.368492 0.500000 0.823017
O O15 0.988973 0.380236 0.748641
O O16 0.000000 0.283694 0.000000
O O17 0.074429 0.500000 0.562984
O O18 0.000000 0.604814 0.500000
#
# Coordination Sequence:
#
# PCOD9214673 Si02
#       7
#     8   8   8   8   8   8   8
#     4  12  26  42  68  96 133 174 219 279 338 400
#     4  11  23  38  63  95 131 171 221 270 325 393
#     4  11  23  43  65  96 128 170 222 266 329 400
#     4  11  23  41  62  91 130 171 215 262 333 401
#     4  10  22  40  63  90 127 168 211 269 329 395
#     4  11  24  42  71  97 128 172 226 272 328 396
#     4  11  24  46  71 100 136 178 230 288 344 401
#
# _framework density 19.604648999999998
#
# number of rings (size 3 to 8) (size 9 to 14) (size 15 to 20)
#    0.000    1.000    2.857    4.286    8.000    2.571 
#    0.000    1.429    0.000    0.000    0.000    0.000 
#    0.000    0.000    0.000    0.000    0.000    0.000 
#
# Total GULP energy -156431.966671 kJ/mol
# GULP energy per Si atom -5586.855953 kJ/mol
# Density = 1.956003 g / cm^3
# Si number density = 19.604649 Si / 1000 Ang^3
#
#
#
# Elastic Constant Matrix: (Units=GPa)
#
#
# Indices 1 2 3 4 5 6 
#
# 1 141.9460 46.1108 51.3897 0.0000 9.7295 0.0000
# 2 46.1108 89.8013 45.4505 0.0000 12.1462 0.0000
# 3 51.3897 45.4505 101.4156 0.0000 10.5239 0.0000
# 4 0.0000 0.0000 0.0000 24.3166 0.0000 -14.0912
# 5 9.7295 12.1462 10.5239 0.0000 27.2778 0.0000
# 6 0.0000 0.0000 0.0000 -14.0912 0.0000 -0.1497
#
#
#
# Elastic Compliance Matrix: (Units=1/GPa)
#
#
# Indices 1 2 3 4 5 6 
#
# 1 0.009252 -0.003000 -0.003271 0.000000 -0.000702 0.000000
# 2 -0.003000 0.015826 -0.005159 0.000000 -0.003987 0.000000
# 3 -0.003271 -0.005159 0.014032 0.000000 -0.001950 0.000000
# 4 0.000000 0.000000 0.000000 0.000740 0.000000 -0.069689
# 5 -0.000702 -0.003987 -0.001950 0.000000 0.039438 0.000000
# 6 0.000000 0.000000 0.000000 -0.069689 0.000000 -0.120259
#
#
# Mechanical properties :
#
#
# Convention : Reuss Voigt Hill
#
# Bulk Modulus (GPa) = 61.53500 68.78500 65.16000
# Shear Modulus (GPa) = -393.89083 22.96973 -185.46055
#
# Velocity S-wave (km/s) = -14.18990 3.42665 -9.73682
# Velocity P-wave (km/s) = 15.39529 7.12868 9.64875
#
# Compressibility (1/GPa) = 0.01625091
#
# Stress axis : x y z
#
# Youngs Moduli (GPa) = 108.08733 63.18524 71.26540
#
# Poissons Ratio (x) = 0.18957 0.23308
# Poissons Ratio (y) = 0.32429 0.36765
# Poissons Ratio (z) = 0.35352 0.32596
#
# Static dielectric constant tensor:
#      x y z
#    x 1.679660 0.000000 0.014500 
#    y 0.000000 1.340290 0.000000 
#    z 0.014500 0.000000 1.733400 
# 
# From -- ./inp_files/106020.got.cif
#   From: 2010.05.17/outbox.cif.g08.bks.cpg/sg12_54_cif.got.tgz:106020.got - 2010.06.03 13:09:07.
