data_PCOD9214601
_publ_section_title
;
Structure prediction by ZEFSAII (Michael W. Deem and Ramdas Pophale) SiO2 
 PCOD9214601
Probable space group: C 2/M
;
_chemical_formula_sum "Si O2"
_cell_formula_units_Z 56
_cell_length_a 18.565739
_cell_length_b 14.355277
_cell_length_c 21.571382
_cell_angle_alpha 90.000000
_cell_angle_beta 149.335177
_cell_angle_gamma 90.000000
_cell_volume 2932.139723
_symmetry_space_group_name_H-M "C 2/M"
_symmetry_group_IT_number 12
_symmetry_cell_setting 'monoclinic'
loop_
_space_group_symop_operation_xyz
x,y,z
-x,y,-z
-x,-y,-z
x,-y,z
1/2+x,1/2+y,z
1/2-x,1/2+y,-z
1/2-x,1/2-y,-z
1/2+x,1/2-y,z
loop_
_atom_site_type_symbol
_atom_site_label
_atom_site_fract_x
_atom_site_fract_y
_atom_site_fract_z
Si Si1 0.858314 0.890754 0.225534
Si Si2 0.109899 0.772140 0.358747
Si Si3 0.908775 0.390272 0.238338
Si Si4 0.881017 0.610496 0.362125
Si Si5 0.342608 0.608404 0.361755
Si Si6 0.857374 0.228952 0.755924
Si Si7 0.813215 0.241813 0.977411
O O1 0.836253 0.881389 0.282744
O O2 0.743434 0.829920 0.103564
O O3 0.008005 0.844944 0.317915
O O4 0.853502 0.000000 0.206084
O O5 0.250000 0.750000 0.500000
O O6 0.143427 0.807897 0.314974
O O7 0.021313 0.675896 0.287703
O O8 0.923054 0.500000 0.236921
O O9 0.926931 0.372375 0.325388
O O10 0.757605 0.349518 0.105658
O O11 0.860006 0.500000 0.353305
O O12 0.737357 0.663740 0.270851
O O13 0.000000 0.639294 0.500000
O O14 0.500000 0.635473 0.500000
O O15 0.322922 0.500000 0.363246
O O16 0.223815 0.672673 0.303471
O O17 0.018686 0.237197 0.896259
O O18 0.750000 0.250000 0.000000
#
# Coordination Sequence:
#
# PCOD9214601 Si02
#       7
#     8   8   8   8   8   8   8
#     4  10  22  41  62  84 120 163 198 244 298 352
#     4  11  22  37  60  92 120 153 202 246 298 357
#     4  10  22  41  62  84 120 163 198 244 298 352
#     4  10  22  40  62  91 122 153 194 245 303 359
#     4  10  22  40  62  91 122 153 194 245 303 359
#     4  12  22  37  62  88 118 158 199 245 298 349
#     4  11  23  43  56  88 122 160 204 246 299 347
#
# _framework density 19.098680999999999
#
# number of rings (size 3 to 8) (size 9 to 14) (size 15 to 20)
#    0.000    1.429    2.857    3.857    0.000    5.714 
#    0.000    2.857    0.000    0.000    0.000    0.000 
#    0.000    0.000    0.000    0.000    0.000    0.000 
#
# Total GULP energy -156466.142730 kJ/mol
# GULP energy per Si atom -5588.076526 kJ/mol
# Density = 1.905521 g / cm^3
# Si number density = 19.098681 Si / 1000 Ang^3
#
#
#
# Elastic Constant Matrix: (Units=GPa)
#
#
# Indices 1 2 3 4 5 6 
#
# 1 36.3159 3.5469 -3.2801 -0.0001 4.4595 0.0000
# 2 3.5469 66.8431 6.9701 0.0003 3.3407 0.0002
# 3 -3.2801 6.9701 108.5419 0.0004 4.9370 0.0003
# 4 -0.0001 0.0003 0.0004 18.0243 0.0003 -14.8608
# 5 4.4595 3.3407 4.9370 0.0003 33.4003 0.0001
# 6 0.0000 0.0002 0.0003 -14.8608 0.0001 9.1291
#
#
#
# Elastic Compliance Matrix: (Units=1/GPa)
#
#
# Indices 1 2 3 4 5 6 
#
# 1 0.028242 -0.001426 0.001118 -0.000001 -0.003793 -0.000001
# 2 -0.001426 0.015196 -0.000965 0.000001 -0.001187 0.000002
# 3 0.001118 -0.000965 0.009374 0.000001 -0.001438 0.000002
# 4 -0.000001 0.000001 0.000001 -0.162151 0.000002 -0.263959
# 5 -0.003793 -0.001187 -0.001438 0.000002 0.030778 0.000003
# 6 -0.000001 0.000002 0.000002 -0.263959 0.000003 -0.320148
#
#
# Mechanical properties :
#
#
# Convention : Reuss Voigt Hill
#
# Bulk Modulus (GPa) = 19.89399 25.13054 22.51226
# Shear Modulus (GPa) = -13.17842 25.74167 6.28163
#
# Velocity S-wave (km/s) = -2.62967 3.67526 1.81554
# Velocity P-wave (km/s) = 1.10401 5.58541 4.02589
#
# Compressibility (1/GPa) = 0.05026643
#
# Stress axis : x y z
#
# Youngs Moduli (GPa) = 35.40810 65.80683 106.67591
#
# Poissons Ratio (x) = 0.09381 -0.11922
# Poissons Ratio (y) = 0.05048 0.10293
# Poissons Ratio (z) = -0.03957 0.06350
#
# Static dielectric constant tensor:
#      x y z
#    x 1.642190 0.000000 -0.018690 
#    y 0.000000 1.664280 0.000000 
#    z -0.018690 0.000000 1.651890 
# 
# From -- ./inp_files/86349.got.cif
#   From: 2010.05.17/outbox.cif.g08.bks.cpg/sg12_44_cif.got.tgz:86349.got - 2010.06.03 13:09:07.
