data_PCOD9214452
_publ_section_title
;
Structure prediction by ZEFSAII (Michael W. Deem and Ramdas Pophale) SiO2 
 PCOD9214452
Probable space group: C 2/M
;
_chemical_formula_sum "Si O2"
_cell_formula_units_Z 64
_cell_length_a 17.391950
_cell_length_b 25.194382
_cell_length_c 15.429446
_cell_angle_alpha 90.000000
_cell_angle_beta 151.710188
_cell_angle_gamma 90.000000
_cell_volume 3204.188258
_symmetry_space_group_name_H-M "C 2/M"
_symmetry_group_IT_number 12
_symmetry_cell_setting 'monoclinic'
loop_
_space_group_symop_operation_xyz
x,y,z
-x,y,-z
-x,-y,-z
x,-y,z
1/2+x,1/2+y,z
1/2-x,1/2+y,-z
1/2-x,1/2-y,-z
1/2+x,1/2-y,z
loop_
_atom_site_type_symbol
_atom_site_label
_atom_site_fract_x
_atom_site_fract_y
_atom_site_fract_z
Si Si1 0.545624 0.939182 0.764198
Si Si2 0.879756 0.643867 0.309300
Si Si3 0.596437 0.325988 0.684360
Si Si4 0.312243 0.740201 0.964283
Si Si5 0.683235 0.556361 0.214592
Si Si6 0.697177 0.584231 0.427466
Si Si7 0.134249 0.060697 0.798489
Si Si8 0.383256 0.704977 0.642171
O O1 0.543873 0.894979 0.687209
O O2 0.371883 0.932338 0.639544
O O3 0.551868 0.000000 0.738166
O O4 0.708689 0.931543 0.982951
O O5 0.781766 0.689849 0.166075
O O6 0.768146 0.605053 0.253956
O O7 0.000000 0.667711 0.500000
O O8 0.500000 0.317198 0.500000
O O9 0.760241 0.291176 0.856630
O O10 0.631692 0.388645 0.732330
O O11 0.484982 0.305435 0.654318
O O12 0.250000 0.750000 0.000000
O O13 0.497799 0.724067 0.162927
O O14 0.760048 0.500000 0.265111
O O15 0.687308 0.560784 0.321584
O O16 0.500000 0.556180 0.000000
O O17 0.536266 0.565999 0.318775
O O18 0.691370 0.647711 0.412641
O O19 0.144534 0.000000 0.774230
O O20 0.250000 0.750000 0.500000
#
# Coordination Sequence:
#
# PCOD9214452 Si02
#       8
#     8   8   8   8   8   8   8   8
#     4  11  22  36  60  87 121 168 210 253 302 366
#     4  12  23  35  55  84 121 160 204 249 306 369
#     4  10  22  41  66  92 123 156 199 260 322 365
#     4  10  22  40  61  84 118 159 203 250 305 365
#     4  11  22  35  53  80 121 162 199 250 305 357
#     4  11  22  37  59  87 123 158 211 252 303 363
#     4  10  22  41  64  91 121 161 210 254 307 376
#     4  10  23  39  64  91 117 163 204 254 303 373
#
# _framework density 19.973856999999999
#
# number of rings (size 3 to 8) (size 9 to 14) (size 15 to 20)
#    0.000    1.375    1.250    5.625    5.250    3.750 
#    0.000    1.875    0.000    0.000    0.000    4.375 
#    0.000    0.000    0.000    0.000    0.000    0.000 
#
# Total GULP energy -178657.201449 kJ/mol
# GULP energy per Si atom -5583.037545 kJ/mol
# Density = 1.992840 g / cm^3
# Si number density = 19.973857 Si / 1000 Ang^3
#
#
#
# Elastic Constant Matrix: (Units=GPa)
#
#
# Indices 1 2 3 4 5 6 
#
# 1 26.4329 18.9914 24.5643 0.0000 -0.0024 0.0000
# 2 18.9914 157.6381 64.4542 0.0000 -7.5933 0.0000
# 3 24.5643 64.4542 146.6213 0.0000 0.4023 0.0000
# 4 0.0000 0.0000 0.0000 47.6669 0.0000 4.0760
# 5 -0.0024 -7.5933 0.4023 0.0000 28.4465 0.0000
# 6 0.0000 0.0000 0.0000 4.0760 0.0000 38.6151
#
#
#
# Elastic Compliance Matrix: (Units=1/GPa)
#
#
# Indices 1 2 3 4 5 6 
#
# 1 0.045888 -0.002949 -0.006390 0.000000 -0.000693 0.000000
# 2 -0.002949 0.008052 -0.003052 0.000000 0.002192 0.000000
# 3 -0.006390 -0.003052 0.009235 0.000000 -0.000946 0.000000
# 4 0.000000 0.000000 0.000000 0.021170 0.000000 -0.002235
# 5 -0.000693 0.002192 -0.000946 0.000000 0.035752 0.000000
# 6 0.000000 0.000000 0.000000 -0.002235 0.000000 0.026132
#
#
# Mechanical properties :
#
#
# Convention : Reuss Voigt Hill
#
# Bulk Modulus (GPa) = 26.04530 60.74580 43.39555
# Shear Modulus (GPa) = 27.20206 37.79119 32.49663
#
# Velocity S-wave (km/s) = 3.69437 4.35447 4.03793
# Velocity P-wave (km/s) = 5.59159 7.46730 6.59645
#
# Compressibility (1/GPa) = 0.03839465
#
# Stress axis : x y z
#
# Youngs Moduli (GPa) = 21.79196 124.18799 108.28522
#
# Poissons Ratio (x) = 0.36626 0.69190
# Poissons Ratio (y) = 0.06427 0.33045
# Poissons Ratio (z) = 0.13924 0.37898
#
# Static dielectric constant tensor:
#      x y z
#    x 1.711850 0.000000 0.035760 
#    y 0.000000 1.719510 0.000000 
#    z 0.035760 0.000000 1.719040 
# 
# From -- ./inp_files/228174.got.cif
#   From: 2010.05.17/outbox.cif.g08.bks.cpg/sg12_115_cif.got.tgz:228174.got - 2010.06.03 13:09:07.
