data_PCOD9214680
_publ_section_title
;
Structure prediction by ZEFSAII (Michael W. Deem and Ramdas Pophale) SiO2 
 PCOD9214680
Probable space group: C 2/M
;
_chemical_formula_sum "Si O2"
_cell_formula_units_Z 32
_cell_length_a 9.074485
_cell_length_b 29.180507
_cell_length_c 5.192546
_cell_angle_alpha 90.000000
_cell_angle_beta 87.691608
_cell_angle_gamma 90.000000
_cell_volume 1373.860391
_symmetry_space_group_name_H-M "C 2/M"
_symmetry_group_IT_number 12
_symmetry_cell_setting 'monoclinic'
loop_
_space_group_symop_operation_xyz
x,y,z
-x,y,-z
-x,-y,-z
x,-y,z
1/2+x,1/2+y,z
1/2-x,1/2+y,-z
1/2-x,1/2-y,-z
1/2+x,1/2-y,z
loop_
_atom_site_type_symbol
_atom_site_label
_atom_site_fract_x
_atom_site_fract_y
_atom_site_fract_z
Si Si1 0.399832 0.642791 0.245163
Si Si2 0.896365 0.390352 0.252390
Si Si3 0.828399 0.298832 0.484224
Si Si4 0.328689 0.449378 0.436187
O O1 0.500000 0.645941 0.500000
O O2 0.258835 0.674432 0.287940
O O3 0.337339 0.591124 0.226527
O O4 0.500000 0.655175 0.000000
O O5 0.826892 0.338831 0.263815
O O6 0.770882 0.427725 0.329127
O O7 0.000000 0.391503 0.500000
O O8 0.000000 0.398383 0.000000
O O9 0.750000 0.250000 0.500000
O O10 0.000000 0.288933 0.500000
O O11 0.500000 0.453765 0.500000
O O12 0.275157 0.500000 0.364159
#
# Coordination Sequence:
#
# PCOD9214680 Si02
#       4
#     8   8   8   8
#     4  10  22  41  63  88 122 162 202 246 298 356
#     4  10  23  43  64  88 121 161 203 247 297 358
#     4  10  22  40  63  91 122 158 202 250 302 359
#     4   9  20  38  62  92 124 159 201 249 300 354
#
# _framework density 23.29203
#
# number of rings (size 3 to 8) (size 9 to 14) (size 15 to 20)
#    0.000    2.250    0.000    0.750    0.000   21.500 
#    0.000   12.500    0.000    0.000    0.000    0.000 
#    0.000    0.000    0.000    0.000    0.000    0.000 
#
# Total GULP energy -89268.633041 kJ/mol
# GULP energy per Si atom -5579.289565 kJ/mol
# Density = 2.323902 g / cm^3
# Si number density = 23.292030 Si / 1000 Ang^3
#
#
#
# Elastic Constant Matrix: (Units=GPa)
#
#
# Indices 1 2 3 4 5 6 
#
# 1 147.5842 75.2397 81.5867 0.0000 -47.9404 0.0000
# 2 75.2397 181.5038 14.5702 0.0000 -29.5987 0.0000
# 3 81.5867 14.5702 161.7454 0.0000 -34.6727 0.0000
# 4 0.0000 0.0000 0.0000 0.7002 0.0000 -10.7815
# 5 -47.9404 -29.5987 -34.6727 0.0000 55.6813 0.0000
# 6 0.0000 0.0000 0.0000 -10.7815 0.0000 -484.4539
#
#
#
# Elastic Compliance Matrix: (Units=1/GPa)
#
#
# Indices 1 2 3 4 5 6 
#
# 1 0.014006 -0.004327 -0.005289 0.000000 0.006465 0.000000
# 2 -0.004327 0.007373 0.001800 0.000000 0.001315 0.000000
# 3 -0.005289 0.001800 0.009137 0.000000 0.002093 0.000000
# 4 0.000000 0.000000 0.000000 1.063630 0.000000 -0.023671
# 5 0.006465 0.001315 0.002093 0.000000 0.025528 0.000000
# 6 0.000000 0.000000 0.000000 -0.023671 0.000000 -0.001537
#
#
# Mechanical properties :
#
#
# Convention : Reuss Voigt Hill
#
# Bulk Modulus (GPa) = 67.18502 92.62518 79.90510
# Shear Modulus (GPa) = 4.39086 -64.31870 -29.96392
#
# Velocity S-wave (km/s) = 1.37449 -5.26061 -3.59060
# Velocity P-wave (km/s) = 5.60591 1.71889 4.14613
#
# Compressibility (1/GPa) = 0.01488427
#
# Stress axis : x y z
#
# Youngs Moduli (GPa) = 71.40011 135.62775 109.44702
#
# Poissons Ratio (x) = 0.58686 0.57886
# Poissons Ratio (y) = 0.30895 -0.19704
# Poissons Ratio (z) = 0.37763 -0.24417
#
# Static dielectric constant tensor:
#      x y z
#    x 1.957430 0.000000 0.082400 
#    y 0.000000 1.922210 0.000000 
#    z 0.082400 0.000000 1.889290 
# 
# From -- ./inp_files/3750.got.cif
#   From: 2010.05.17/outbox.cif.g08.bks.cpg/sg12_2_cif.got.tgz:3750.got - 2010.06.03 13:09:07.
