data_PCOD9214261
_publ_section_title
;
Structure prediction by ZEFSAII (Michael W. Deem and Ramdas Pophale) SiO2 
 PCOD9214261
Probable space group: C 2/M
;
_chemical_formula_sum "Si O2"
_cell_formula_units_Z 64
_cell_length_a 15.220144
_cell_length_b 16.405322
_cell_length_c 20.608520
_cell_angle_alpha 90.000000
_cell_angle_beta 145.663835
_cell_angle_gamma 90.000000
_cell_volume 2902.457719
_symmetry_space_group_name_H-M "C 2/M"
_symmetry_group_IT_number 12
_symmetry_cell_setting 'monoclinic'
loop_
_space_group_symop_operation_xyz
x,y,z
-x,y,-z
-x,-y,-z
x,-y,z
1/2+x,1/2+y,z
1/2-x,1/2+y,-z
1/2-x,1/2-y,-z
1/2+x,1/2-y,z
loop_
_atom_site_type_symbol
_atom_site_label
_atom_site_fract_x
_atom_site_fract_y
_atom_site_fract_z
Si Si1 0.833776 0.264807 0.670462
Si Si2 0.698731 0.756601 0.725953
Si Si3 0.902765 0.593378 0.002680
Si Si4 0.382578 0.409198 0.254205
Si Si5 0.083652 0.638243 0.487720
Si Si6 0.234216 0.088175 0.517608
Si Si7 0.186560 0.093927 0.114997
Si Si8 0.649363 0.183153 0.901063
O O1 0.799209 0.267315 0.725291
O O2 0.749221 0.180409 0.602653
O O3 0.759361 0.336923 0.581904
O O4 0.018662 0.273501 0.776777
O O5 0.677225 0.672550 0.749481
O O6 0.531669 0.788001 0.599509
O O7 0.764337 0.834728 0.804813
O O8 0.047645 0.500000 0.962362
O O9 0.716646 0.594189 0.873159
O O10 0.927497 0.633513 0.086966
O O11 0.000000 0.628690 0.000000
O O12 0.337998 0.500000 0.253496
O O13 0.568893 0.406786 0.378651
O O14 0.123773 0.589466 0.447491
O O15 0.000000 0.599209 0.500000
O O16 0.235317 0.000000 0.552347
O O17 0.253119 0.124234 0.086423
O O18 0.237771 0.000000 0.160735
O O19 0.000000 0.093219 0.000000
O O20 0.750000 0.250000 0.000000
#
# Coordination Sequence:
#
# PCOD9214261 Si02
#       8
#     8   8   8   8   8   8   8   8
#     4  11  24  41  65  99 132 175 229 290 351 420
#     4  11  22  42  69  97 138 184 230 288 362 418
#     4  10  22  41  62  91 132 173 219 280 343 410
#     4  10  22  39  65  99 138 183 229 287 356 428
#     4  10  23  41  64  92 130 178 231 283 348 421
#     4  11  24  41  66  98 135 180 231 294 357 422
#     4  11  26  48  71 102 145 191 246 300 349 419
#     4  12  25  39  69 102 134 181 234 285 354 425
#
# _framework density 22.050277000000001
#
# number of rings (size 3 to 8) (size 9 to 14) (size 15 to 20)
#    0.000    1.250    1.250    3.750    3.500    4.250 
#    0.000    3.125    0.000    0.000    0.000    0.000 
#    0.000    0.000    0.000    0.000    0.000    0.000 
#
# Total GULP energy -178432.977807 kJ/mol
# GULP energy per Si atom -5576.030556 kJ/mol
# Density = 2.200009 g / cm^3
# Si number density = 22.050277 Si / 1000 Ang^3
#
#
#
# Elastic Constant Matrix: (Units=GPa)
#
#
# Indices 1 2 3 4 5 6 
#
# 1 113.1291 68.3886 28.8869 0.0002 -12.9062 0.0001
# 2 68.3886 128.0243 36.1950 0.0002 -7.3370 0.0001
# 3 28.8869 36.1950 88.5710 0.0003 10.8580 0.0003
# 4 0.0002 0.0002 0.0003 24.9238 0.0002 6.2457
# 5 -12.9062 -7.3370 10.8580 0.0002 35.6542 0.0001
# 6 0.0001 0.0001 0.0003 6.2457 0.0001 20.5484
#
#
#
# Elastic Compliance Matrix: (Units=1/GPa)
#
#
# Indices 1 2 3 4 5 6 
#
# 1 0.013877 -0.006474 -0.002423 0.000000 0.004429 0.000000
# 2 -0.006474 0.012178 -0.002997 0.000000 0.001075 0.000000
# 3 -0.002423 -0.002997 0.014012 0.000000 -0.005761 0.000000
# 4 0.000000 0.000000 0.000000 0.043430 0.000000 -0.013201
# 5 0.004429 0.001075 -0.005761 0.000000 0.031626 0.000000
# 6 0.000000 0.000000 0.000000 -0.013201 0.000000 0.052678
#
#
# Mechanical properties :
#
#
# Convention : Reuss Voigt Hill
#
# Bulk Modulus (GPa) = 61.43097 66.29617 63.86357
# Shear Modulus (GPa) = 25.37861 29.30888 27.34375
#
# Velocity S-wave (km/s) = 3.39624 3.64975 3.52527
# Velocity P-wave (km/s) = 6.58021 6.92041 6.75246
#
# Compressibility (1/GPa) = 0.01627843
#
# Stress axis : x y z
#
# Youngs Moduli (GPa) = 72.06071 82.11315 71.36878
#
# Poissons Ratio (x) = 0.53160 0.17295
# Poissons Ratio (y) = 0.46652 0.21390
# Poissons Ratio (z) = 0.17462 0.24610
#
# Static dielectric constant tensor:
#      x y z
#    x 1.846540 0.000000 -0.001080 
#    y 0.000000 1.853030 0.000000 
#    z -0.001080 0.000000 1.877560 
# 
# From -- ./inp_files/271740.got.cif
#   From: 2010.05.17/outbox.cif.g08.bks.cpg/sg12_136_cif.got.tgz:271740.got - 2010.06.03 13:09:07.
