data_PCOD9214695
_publ_section_title
;
Structure prediction by ZEFSAII (Michael W. Deem and Ramdas Pophale) SiO2 
 PCOD9214695
Probable space group: C 2/M
;
_chemical_formula_sum "Si O2"
_cell_formula_units_Z 36
_cell_length_a 13.380021
_cell_length_b 23.979082
_cell_length_c 6.291397
_cell_angle_alpha 90.000000
_cell_angle_beta 60.044936
_cell_angle_gamma 90.000000
_cell_volume 1748.894223
_symmetry_space_group_name_H-M "C 2/M"
_symmetry_group_IT_number 12
_symmetry_cell_setting 'monoclinic'
loop_
_space_group_symop_operation_xyz
x,y,z
-x,y,-z
-x,-y,-z
x,-y,z
1/2+x,1/2+y,z
1/2-x,1/2+y,-z
1/2-x,1/2-y,-z
1/2+x,1/2-y,z
loop_
_atom_site_type_symbol
_atom_site_label
_atom_site_fract_x
_atom_site_fract_y
_atom_site_fract_z
Si Si1 0.500000 0.150029 0.500000
Si Si2 0.633582 0.341160 0.799510
Si Si3 0.118703 0.282639 0.741258
Si Si4 0.795531 0.628797 0.009282
Si Si5 0.628024 0.564454 0.459966
O O1 0.417973 0.188151 0.439433
O O2 0.415155 0.118145 0.754414
O O3 0.660758 0.280945 0.668955
O O4 0.653440 0.393352 0.624479
O O5 0.500000 0.343922 0.000000
O O6 0.707720 0.345931 0.932367
O O7 0.183870 0.325661 0.827653
O O8 0.000000 0.274788 0.000000
O O9 0.728423 0.576751 0.182361
O O10 0.500000 0.576845 0.500000
O O11 0.628029 0.500000 0.525723
#
# Coordination Sequence:
#
# PCOD9214695 Si02
#       5
#     4   8   8   8   8
#     4  10  22  40  63  92 127 168 204 250 324 388
#     4  11  22  38  65  96 129 169 208 256 323 381
#     4   9  21  37  63  97 131 163 205 258 317 387
#     4  11  22  41  63  92 130 167 207 262 316 376
#     4  11  25  42  62  91 127 169 221 268 305 360
#
# _framework density 20.584434999999999
#
# number of rings (size 3 to 8) (size 9 to 14) (size 15 to 20)
#    0.000    1.556    2.222    2.000    1.556    6.667 
#    0.000    0.556    0.000   12.667    0.000    0.000 
#    0.000    0.000    0.000    0.000    0.000    0.000 
#
# Total GULP energy -100510.710859 kJ/mol
# GULP energy per Si atom -5583.928381 kJ/mol
# Density = 2.053758 g / cm^3
# Si number density = 20.584435 Si / 1000 Ang^3
#
#
#
# Elastic Constant Matrix: (Units=GPa)
#
#
# Indices 1 2 3 4 5 6 
#
# 1 116.7686 44.1545 41.6648 0.0000 19.2302 0.0000
# 2 44.1545 107.7203 48.8955 0.0000 8.4027 0.0000
# 3 41.6648 48.8955 111.9594 0.0000 -2.7927 0.0000
# 4 0.0000 0.0000 0.0000 30.1913 0.0000 -15.4612
# 5 19.2302 8.4027 -2.7927 0.0000 47.6601 0.0000
# 6 0.0000 0.0000 0.0000 -15.4612 0.0000 32.1304
#
#
#
# Elastic Compliance Matrix: (Units=1/GPa)
#
#
# Indices 1 2 3 4 5 6 
#
# 1 0.011498 -0.002977 -0.003086 0.000000 -0.004295 0.000000
# 2 -0.002977 0.012616 -0.004434 0.000000 -0.001283 0.000000
# 3 -0.003086 -0.004434 0.012085 0.000000 0.002735 0.000000
# 4 0.000000 0.000000 0.000000 0.043953 0.000000 0.021150
# 5 -0.004295 -0.001283 0.002735 0.000000 0.023101 0.000000
# 6 0.000000 0.000000 0.000000 0.021150 0.000000 0.041301
#
#
# Mechanical properties :
#
#
# Convention : Reuss Voigt Hill
#
# Bulk Modulus (GPa) = 65.76685 67.31979 66.54332
# Shear Modulus (GPa) = 29.30529 35.44525 32.37527
#
# Velocity S-wave (km/s) = 3.77724 4.15413 3.97016
# Velocity P-wave (km/s) = 7.14441 7.46889 7.30845
#
# Compressibility (1/GPa) = 0.01520523
#
# Stress axis : x y z
#
# Youngs Moduli (GPa) = 86.96986 79.26195 82.74872
#
# Poissons Ratio (x) = 0.23599 0.25535
# Poissons Ratio (y) = 0.25894 0.36690
# Poissons Ratio (z) = 0.26837 0.35144
#
# Static dielectric constant tensor:
#      x y z
#    x 1.759020 0.000000 -0.083120 
#    y 0.000000 1.686740 0.000000 
#    z -0.083120 0.000000 1.790740 
# 
# From -- ./inp_files/11241.got.cif
#   From: 2010.05.17/outbox.cif.g08.bks.cpg/sg12_6_cif.got.tgz:11241.got - 2010.06.03 13:09:07.
