data_PCOD9214704
_publ_section_title
;
Structure prediction by ZEFSAII (Michael W. Deem and Ramdas Pophale) SiO2 
 PCOD9214704
Probable space group: C 2/M
;
_chemical_formula_sum "Si O2"
_cell_formula_units_Z 48
_cell_length_a 22.073233
_cell_length_b 15.378973
_cell_length_c 23.596218
_cell_angle_alpha 90.000000
_cell_angle_beta 18.119745
_cell_angle_gamma 90.000000
_cell_volume 2491.159987
_symmetry_space_group_name_H-M "C 2/M"
_symmetry_group_IT_number 12
_symmetry_cell_setting 'monoclinic'
loop_
_space_group_symop_operation_xyz
x,y,z
-x,y,-z
-x,-y,-z
x,-y,z
1/2+x,1/2+y,z
1/2-x,1/2+y,-z
1/2-x,1/2-y,-z
1/2+x,1/2-y,z
loop_
_atom_site_type_symbol
_atom_site_label
_atom_site_fract_x
_atom_site_fract_y
_atom_site_fract_z
Si Si1 0.178280 0.298946 0.119955
Si Si2 0.177910 0.264484 0.378864
Si Si3 0.470678 0.331763 0.662035
Si Si4 0.777135 0.595112 0.217312
Si Si5 0.060558 0.100726 0.796325
Si Si6 0.271420 0.101144 0.487075
O O1 0.177030 0.227392 0.170728
O O2 0.959896 0.337714 0.311100
O O3 0.250000 0.250000 0.000000
O O4 0.334665 0.374128 0.991935
O O5 0.241282 0.176661 0.290059
O O6 0.342259 0.334728 0.244815
O O7 0.000000 0.301954 0.500000
O O8 0.096455 0.232752 0.511367
O O9 0.356800 0.392080 0.719034
O O10 0.612504 0.379345 0.579870
O O11 0.737451 0.500000 0.278752
O O12 0.000000 0.597115 0.000000
O O13 0.166423 0.114981 0.641200
O O14 0.085625 0.000000 0.788899
O O15 0.330802 0.000000 0.431377
#
# Coordination Sequence:
#
# PCOD9214704 Si02
#       6
#     8   8   8   8   8   8
#     4  12  22  38  63  91 128 170 210 258 321 385
#     4  10  22  40  65  87 123 168 210 260 316 374
#     4  11  21  39  62  90 125 165 208 258 321 381
#     4  10  22  40  63  93 126 163 212 264 317 380
#     4  11  23  41  63  91 127 167 212 264 318 375
#     4  11  23  39  60  91 127 163 210 263 319 380
#
# _framework density 19.268132999999999
#
# number of rings (size 3 to 8) (size 9 to 14) (size 15 to 20)
#    0.000    1.167    3.333    3.500    0.000    4.000 
#    0.000    1.667    0.000    4.500    0.000    0.000 
#    0.000    0.000    0.000    0.000    0.000    0.000 
#
# Total GULP energy -134082.197841 kJ/mol
# GULP energy per Si atom -5586.758243 kJ/mol
# Density = 1.922428 g / cm^3
# Si number density = 19.268133 Si / 1000 Ang^3
#
#
#
# Elastic Constant Matrix: (Units=GPa)
#
#
# Indices 1 2 3 4 5 6 
#
# 1 87.7555 57.6310 24.3577 -0.0032 -4.7284 0.0024
# 2 57.6310 103.5820 41.3682 -0.0146 -6.3206 0.0022
# 3 24.3577 41.3682 93.1358 -0.0355 -5.7243 0.0106
# 4 -0.0032 -0.0146 -0.0355 14.4280 0.0020 -0.2698
# 5 -4.7284 -6.3206 -5.7243 0.0020 36.8273 -0.0039
# 6 0.0024 0.0022 0.0106 -0.2698 -0.0039 18.3588
#
#
#
# Elastic Compliance Matrix: (Units=1/GPa)
#
#
# Indices 1 2 3 4 5 6 
#
# 1 0.017976 -0.009850 -0.000291 -0.000007 0.000572 -0.000001
# 2 -0.009850 0.017188 -0.005002 0.000003 0.000908 0.000002
# 3 -0.000291 -0.005002 0.013105 0.000027 0.001141 -0.000006
# 4 -0.000007 0.000003 0.000027 0.069329 0.000000 0.001019
# 5 0.000572 0.000908 0.001141 0.000000 0.027560 0.000005
# 6 -0.000001 0.000002 -0.000006 0.001019 0.000005 0.054485
#
#
# Mechanical properties :
#
#
# Convention : Reuss Voigt Hill
#
# Bulk Modulus (GPa) = 55.61197 59.02079 57.31638
# Shear Modulus (GPa) = 21.19325 24.66390 22.92858
#
# Velocity S-wave (km/s) = 3.32009 3.58164 3.45334
# Velocity P-wave (km/s) = 6.60471 6.91390 6.76107
#
# Compressibility (1/GPa) = 0.01798174
#
# Stress axis : x y z
#
# Youngs Moduli (GPa) = 55.63047 58.18020 76.30579
#
# Poissons Ratio (x) = 0.57309 0.02219
# Poissons Ratio (y) = 0.54798 0.38172
# Poissons Ratio (z) = 0.01618 0.29105
#
# Static dielectric constant tensor:
#      x y z
#    x 1.661400 -0.000010 0.005650 
#    y -0.000010 1.679890 0.000010 
#    z 0.005650 0.000010 1.704630 
# 
# From -- ./inp_files/347480.got.cif
#   From: 2010.05.17/outbox.cif.g08.bks.cpg/sg12_174_cif.got.tgz:347480.got - 2010.06.03 13:09:07.
