data_PCOD9214440
_publ_section_title
;
Structure prediction by ZEFSAII (Michael W. Deem and Ramdas Pophale) SiO2 
 PCOD9214440
Probable space group: C 2/M
;
_chemical_formula_sum "Si O2"
_cell_formula_units_Z 40
_cell_length_a 14.608971
_cell_length_b 23.846143
_cell_length_c 5.630238
_cell_angle_alpha 90.000000
_cell_angle_beta 109.990501
_cell_angle_gamma 90.000000
_cell_volume 1843.217311
_symmetry_space_group_name_H-M "C 2/M"
_symmetry_group_IT_number 12
_symmetry_cell_setting 'monoclinic'
loop_
_space_group_symop_operation_xyz
x,y,z
-x,y,-z
-x,-y,-z
x,-y,z
1/2+x,1/2+y,z
1/2-x,1/2+y,-z
1/2-x,1/2-y,-z
1/2+x,1/2-y,z
loop_
_atom_site_type_symbol
_atom_site_label
_atom_site_fract_x
_atom_site_fract_y
_atom_site_fract_z
Si Si1 0.599147 0.358146 0.461997
Si Si2 0.000000 0.215801 0.000000
Si Si3 0.500000 0.158508 0.500000
Si Si4 0.784268 0.565323 0.558843
Si Si5 0.101346 0.434029 0.843707
Si Si6 0.352876 0.245367 0.224064
O O1 0.500000 0.380103 0.500000
O O2 0.569837 0.326565 0.197523
O O3 0.684878 0.400536 0.492554
O O4 0.636100 0.305850 0.648344
O O5 0.064084 0.255564 0.898587
O O6 0.478609 0.114206 0.268712
O O7 0.399910 0.196537 0.433804
O O8 0.760968 0.500000 0.548140
O O9 0.833531 0.573056 0.340891
O O10 0.844278 0.575866 0.857816
O O11 0.067197 0.500000 0.812657
O O12 0.250000 0.250000 0.000000
#
# Coordination Sequence:
#
# PCOD9214440 Si02
#       6
#     8   4   4   8   8   8
#     4  10  22  40  60  90 134 169 217 285 326 390
#     4  10  22  42  61  88 139 170 220 284 334 388
#     4  12  23  42  66 102 131 180 228 264 346 406
#     4  10  23  44  69  97 130 176 225 274 341 398
#     4  10  24  44  67  98 133 170 221 281 332 399
#     4  11  24  41  62  96 132 175 227 274 335 401
#
# _framework density 21.701186
#
# number of rings (size 3 to 8) (size 9 to 14) (size 15 to 20)
#    0.000    1.600    3.000    1.500    8.400    5.200 
#    0.000    3.500    0.000    0.000    0.000    0.000 
#    0.000    0.000    0.000    0.000    0.000    0.000 
#
# Total GULP energy -111460.889141 kJ/mol
# GULP energy per Si atom -5573.044457 kJ/mol
# Density = 2.165179 g / cm^3
# Si number density = 21.701186 Si / 1000 Ang^3
#
#
#
# Elastic Constant Matrix: (Units=GPa)
#
#
# Indices 1 2 3 4 5 6 
#
# 1 -27.6362 213.2035 159.8401 0.0000 52.6993 0.0000
# 2 213.2035 -34.1972 -39.6561 0.0000 -28.3129 0.0000
# 3 159.8401 -39.6561 64.8328 0.0000 -17.0912 0.0000
# 4 0.0000 0.0000 0.0000 -14.8293 0.0000 10.3864
# 5 52.6993 -28.3129 -17.0912 0.0000 30.5299 0.0000
# 6 0.0000 0.0000 0.0000 10.3864 0.0000 38.7515
#
#
#
# Elastic Compliance Matrix: (Units=1/GPa)
#
#
# Indices 1 2 3 4 5 6 
#
# 1 0.001007 0.003920 0.000486 0.000000 0.002169 0.000000
# 2 0.003920 0.006651 -0.006751 0.000000 -0.004378 0.000000
# 3 0.000486 -0.006751 0.009648 0.000000 -0.001698 0.000000
# 4 0.000000 0.000000 0.000000 -0.056776 0.000000 0.015217
# 5 0.002169 -0.004378 -0.001698 0.000000 0.024000 0.000000
# 6 0.000000 0.000000 0.000000 0.015217 0.000000 0.021727
#
#
# Mechanical properties :
#
#
# Convention : Reuss Voigt Hill
#
# Bulk Modulus (GPa) = 79.24761 74.41937 76.83349
# Shear Modulus (GPa) = 329.97974 -11.13544 159.42215
#
# Velocity S-wave (km/s) = 12.34448 -2.26769 8.58032
# Velocity P-wave (km/s) = 15.48478 5.24506 11.56048
#
# Compressibility (1/GPa) = 0.01261868
#
# Stress axis : x y z
#
# Youngs Moduli (GPa) = 992.76887 150.34751 103.64334
#
# Poissons Ratio (x) = -0.58939 -0.05040
# Poissons Ratio (y) = -3.89186 0.69966
# Poissons Ratio (z) = -0.48277 1.01495
#
# Static dielectric constant tensor:
#      x y z
#    x 1.812010 0.000000 0.003690 
#    y 0.000000 1.787150 0.000000 
#    z 0.003690 0.000000 1.884990 
# 
# From -- ./inp_files/11732.got.cif
#   From: 2010.05.17/outbox.cif.g08.bks.cpg/sg12_6_cif.got.tgz:11732.got - 2010.06.03 13:09:07.
