data_PCOD9214587
_publ_section_title
;
Structure prediction by ZEFSAII (Michael W. Deem and Ramdas Pophale) SiO2 
 PCOD9214587
Probable space group: C 2/M
;
_chemical_formula_sum "Si O2"
_cell_formula_units_Z 56
_cell_length_a 23.211790
_cell_length_b 10.292120
_cell_length_c 27.905270
_cell_angle_alpha 90.000000
_cell_angle_beta 24.452974
_cell_angle_gamma 90.000000
_cell_volume 2759.584201
_symmetry_space_group_name_H-M "C 2/M"
_symmetry_group_IT_number 12
_symmetry_cell_setting 'monoclinic'
loop_
_space_group_symop_operation_xyz
x,y,z
-x,y,-z
-x,-y,-z
x,-y,z
1/2+x,1/2+y,z
1/2-x,1/2+y,-z
1/2-x,1/2-y,-z
1/2+x,1/2-y,z
loop_
_atom_site_type_symbol
_atom_site_label
_atom_site_fract_x
_atom_site_fract_y
_atom_site_fract_z
Si Si1 0.253791 0.348626 0.224600
Si Si2 0.254786 0.354299 0.038317
Si Si3 0.196324 0.653300 0.647288
Si Si4 0.439454 0.153870 0.449113
Si Si5 0.005469 0.344059 0.702078
Si Si6 0.359736 0.862051 0.074736
Si Si7 0.023332 0.746979 0.867402
O O1 0.281967 0.500000 0.192502
O O2 0.282414 0.260045 0.156396
O O3 0.355288 0.299954 0.189804
O O4 0.090371 0.336364 0.359724
O O5 0.212135 0.500000 0.055610
O O6 0.414148 0.356617 0.934676
O O7 0.250000 0.250000 0.000000
O O8 0.145106 0.309882 0.162070
O O9 0.232816 0.500000 0.617662
O O10 0.325519 0.749858 0.556722
O O11 0.090102 0.677671 0.771289
O O12 0.119534 0.691603 0.655713
O O13 0.461202 0.197707 0.377060
O O14 0.398862 0.000000 0.481080
O O15 0.005143 0.500000 0.699283
O O16 0.283200 0.000000 0.137650
O O17 0.500000 0.868500 0.000000
O O18 0.420786 0.844333 0.975765
#
# Coordination Sequence:
#
# PCOD9214587 Si02
#       7
#     8   8   8   8   8   8   8
#     4  10  22  40  62  90 124 162 203 251 304 361
#     4  11  22  38  61  90 123 157 195 243 303 368
#     4  11  23  40  62  87 121 161 204 254 307 358
#     4  10  22  41  63  86 117 158 208 256 300 354
#     4   9  19  39  63  87 119 157 196 248 306 356
#     4   9  19  35  58  87 119 157 198 241 292 355
#     4  11  22  37  61  91 126 161 199 245 304 370
#
# _framework density 20.292912999999999
#
# number of rings (size 3 to 8) (size 9 to 14) (size 15 to 20)
#    0.000    1.857    1.429    2.143    0.000    7.714 
#    0.000    2.857    0.000    0.000    0.000    0.000 
#    0.000    0.000    0.000    0.000    0.000    0.000 
#
# Total GULP energy -156195.336077 kJ/mol
# GULP energy per Si atom -5578.404860 kJ/mol
# Density = 2.024673 g / cm^3
# Si number density = 20.292913 Si / 1000 Ang^3
#
#
#
# Elastic Constant Matrix: (Units=GPa)
#
#
# Indices 1 2 3 4 5 6 
#
# 1 51.3882 15.0935 10.4136 0.0004 -12.5333 0.0000
# 2 15.0935 90.5367 31.7534 0.0000 -10.8883 -0.0004
# 3 10.4136 31.7534 79.8315 -0.0012 -14.7376 -0.0002
# 4 0.0004 0.0000 -0.0012 30.0913 -0.0006 4.9252
# 5 -12.5333 -10.8883 -14.7376 -0.0006 26.1219 0.0002
# 6 0.0000 -0.0004 -0.0002 4.9252 0.0002 5.2405
#
#
#
# Elastic Compliance Matrix: (Units=1/GPa)
#
#
# Indices 1 2 3 4 5 6 
#
# 1 0.022604 -0.002552 -0.000143 0.000000 0.009701 -0.000001
# 2 -0.002552 0.013304 -0.004645 0.000000 0.001701 0.000001
# 3 -0.000143 -0.004645 0.015653 0.000001 0.006826 -0.000001
# 4 0.000000 0.000000 0.000001 0.039274 0.000002 -0.036910
# 5 0.009701 0.001701 0.006826 0.000002 0.047497 -0.000003
# 6 -0.000001 0.000001 -0.000001 -0.036910 -0.000003 0.225510
#
#
# Mechanical properties :
#
#
# Convention : Reuss Voigt Hill
#
# Bulk Modulus (GPa) = 27.11308 37.36412 32.23860
# Shear Modulus (GPa) = 12.79377 23.25713 18.02545
#
# Velocity S-wave (km/s) = 2.51361 3.38904 2.98361
# Velocity P-wave (km/s) = 4.67057 5.81089 5.27165
#
# Compressibility (1/GPa) = 0.03688257
#
# Stress axis : x y z
#
# Youngs Moduli (GPa) = 44.23956 75.16378 63.88628
#
# Poissons Ratio (x) = 0.19179 0.00912
# Poissons Ratio (y) = 0.11288 0.29675
# Poissons Ratio (z) = 0.00631 0.34914
#
# Static dielectric constant tensor:
#      x y z
#    x 1.767900 0.000000 -0.016740 
#    y 0.000000 1.748530 0.000000 
#    z -0.016740 0.000000 1.713620 
# 
# From -- ./inp_files/382838.got.cif
#   From: 2010.05.17/outbox.cif.g08.bks.cpg/sg12_192_cif.got.tgz:382838.got - 2010.06.03 13:09:07.
