data_PCOD9214290
_publ_section_title
;
Structure prediction by ZEFSAII (Michael W. Deem and Ramdas Pophale) SiO2 
 PCOD9214290
Probable space group: C 2/M
;
_chemical_formula_sum "Si O2"
_cell_formula_units_Z 52
_cell_length_a 25.245384
_cell_length_b 8.182550
_cell_length_c 9.935440
_cell_angle_alpha 90.000000
_cell_angle_beta 92.717105
_cell_angle_gamma 90.000000
_cell_volume 2050.072552
_symmetry_space_group_name_H-M "C 2/M"
_symmetry_group_IT_number 12
_symmetry_cell_setting 'monoclinic'
loop_
_space_group_symop_operation_xyz
x,y,z
-x,y,-z
-x,-y,-z
x,-y,z
1/2+x,1/2+y,z
1/2-x,1/2+y,-z
1/2-x,1/2-y,-z
1/2+x,1/2-y,z
loop_
_atom_site_type_symbol
_atom_site_label
_atom_site_fract_x
_atom_site_fract_y
_atom_site_fract_z
Si Si1 0.691465 0.315645 0.744533
Si Si2 0.572823 0.249577 0.655116
Si Si3 0.475544 0.500000 0.657849
Si Si4 0.167681 0.307987 0.038006
Si Si5 0.296037 0.685702 0.682770
Si Si6 0.407643 0.823511 0.638840
Si Si7 0.557126 0.697896 0.941370
O O1 0.708746 0.500000 0.773637
O O2 0.632589 0.318717 0.675787
O O3 0.735197 0.236683 0.653432
O O4 0.685694 0.228003 0.888002
O O5 0.522765 0.366000 0.633098
O O6 0.575541 0.160907 0.514796
O O7 0.562538 0.193952 0.807102
O O8 0.433903 0.650593 0.686357
O O9 0.171986 0.500000 0.065281
O O10 0.198318 0.206010 0.154061
O O11 0.106595 0.248576 0.037029
O O12 0.304438 0.500000 0.640097
O O13 0.344199 0.796840 0.637562
O O14 0.421559 0.000000 0.706131
O O15 0.561297 0.500000 0.908614
O O16 0.500000 0.717819 0.000000
#
# Coordination Sequence:
#
# PCOD9214290 Si02
#       7
#     8   8   4   8   8   8   8
#     4  11  23  44  73 103 138 189 243 293 366 438
#     4  11  23  44  73 101 145 191 238 295 364 437
#     4  12  25  48  79 106 149 200 240 299 374 431
#     4  11  23  41  64  99 142 182 237 299 356 434
#     4  12  26  45  71 103 144 192 243 304 368 435
#     4  12  28  47  73 110 146 191 249 302 364 438
#     4  10  22  39  68 100 134 185 237 286 362 433
#
# _framework density 25.364954000000001
#
# number of rings (size 3 to 8) (size 9 to 14) (size 15 to 20)
#    0.000    0.769    2.308    6.000    2.154    5.231 
#    0.000    0.000    0.000    0.000    0.000    0.000 
#    0.000    0.000    0.000    0.000    0.000    0.000 
#
# Total GULP energy -144816.597679 kJ/mol
# GULP energy per Si atom -5569.869141 kJ/mol
# Density = 2.530722 g / cm^3
# Si number density = 25.364954 Si / 1000 Ang^3
#
#
#
# Elastic Constant Matrix: (Units=GPa)
#
#
# Indices 1 2 3 4 5 6 
#
# 1 184.2693 43.5526 14.2856 0.0000 -24.6308 0.0000
# 2 43.5526 157.6790 20.8140 0.0000 -20.2548 0.0000
# 3 14.2856 20.8140 60.1904 0.0000 -9.9713 0.0000
# 4 0.0000 0.0000 0.0000 18.1182 0.0000 -5.2457
# 5 -24.6308 -20.2548 -9.9713 0.0000 33.7437 0.0000
# 6 0.0000 0.0000 0.0000 -5.2457 0.0000 47.5719
#
#
#
# Elastic Compliance Matrix: (Units=1/GPa)
#
#
# Indices 1 2 3 4 5 6 
#
# 1 0.006238 -0.001187 -0.000456 0.000000 0.003706 0.000000
# 2 -0.001187 0.007284 -0.001742 0.000000 0.002991 0.000000
# 3 -0.000456 -0.001742 0.017976 0.000000 0.003934 0.000000
# 4 0.000000 0.000000 0.000000 0.057013 0.000000 0.006287
# 5 0.003706 0.002991 0.003934 0.000000 0.035298 0.000000
# 6 0.000000 0.000000 0.000000 0.006287 0.000000 0.021714
#
#
# Mechanical properties :
#
#
# Convention : Reuss Voigt Hill
#
# Bulk Modulus (GPa) = 40.43812 62.16034 51.29923
# Shear Modulus (GPa) = 31.14568 41.45254 36.29911
#
# Velocity S-wave (km/s) = 3.50794 4.04696 3.78706
# Velocity P-wave (km/s) = 5.69075 6.81152 6.27621
#
# Compressibility (1/GPa) = 0.02472914
#
# Stress axis : x y z
#
# Youngs Moduli (GPa) = 160.30524 137.28845 55.62940
#
# Poissons Ratio (x) = 0.16292 0.02538
# Poissons Ratio (y) = 0.19024 0.09688
# Poissons Ratio (z) = 0.07313 0.23910
#
# Static dielectric constant tensor:
#      x y z
#    x 1.985110 0.000000 0.065600 
#    y 0.000000 1.681580 0.000000 
#    z 0.065600 0.000000 2.172620 
# 
# From -- ./inp_files/185794.got.cif
#   From: 2010.05.17/outbox.cif.g08.bks.cpg/sg12_93_cif.got.tgz:185794.got - 2010.06.03 13:09:07.
