data_PCOD9214763
_publ_section_title
;
Structure prediction by ZEFSAII (Michael W. Deem and Ramdas Pophale) SiO2 
 PCOD9214763
Probable space group: C 2/M
;
_chemical_formula_sum "Si O2"
_cell_formula_units_Z 64
_cell_length_a 19.997117
_cell_length_b 7.711171
_cell_length_c 34.121240
_cell_angle_alpha 90.000000
_cell_angle_beta 150.269657
_cell_angle_gamma 90.000000
_cell_volume 2609.293522
_symmetry_space_group_name_H-M "C 2/M"
_symmetry_group_IT_number 12
_symmetry_cell_setting 'monoclinic'
loop_
_space_group_symop_operation_xyz
x,y,z
-x,y,-z
-x,-y,-z
x,-y,z
1/2+x,1/2+y,z
1/2-x,1/2+y,-z
1/2-x,1/2-y,-z
1/2+x,1/2-y,z
loop_
_atom_site_type_symbol
_atom_site_label
_atom_site_fract_x
_atom_site_fract_y
_atom_site_fract_z
Si Si1 0.447182 0.196516 0.013910
Si Si2 0.671140 0.200478 0.844517
Si Si3 0.908310 0.800589 0.080497
Si Si4 0.827084 0.707979 0.579870
Si Si5 0.168980 0.787507 0.673639
Si Si6 0.919683 0.210949 0.497606
Si Si7 0.861673 0.798910 0.257243
Si Si8 0.577956 0.803003 0.239655
O O1 0.286706 0.197917 0.925488
O O2 0.499905 0.000000 0.042263
O O3 0.500000 0.279067 0.000000
O O4 0.467022 0.277527 0.066571
O O5 0.689127 0.207387 0.807408
O O6 0.524051 0.272674 0.780617
O O7 0.678385 0.000000 0.861514
O O8 0.992549 0.696175 0.155684
O O9 0.918561 0.000000 0.097298
O O10 0.750000 0.750000 0.000000
O O11 0.841787 0.500000 0.590049
O O12 0.750000 0.750000 0.500000
O O13 0.729456 0.767419 0.565885
O O14 0.976114 0.785395 0.657305
O O15 0.195093 0.727789 0.730869
O O16 0.279546 0.723131 0.699166
O O17 0.019867 0.742460 0.584057
O O18 0.176187 0.000000 0.677735
O O19 0.000000 0.271083 0.500000
O O20 0.913848 0.000000 0.491926
O O21 0.824464 0.000000 0.234727
O O22 0.606804 0.000000 0.267652
#
# Coordination Sequence:
#
# PCOD9214763 Si02
#       8
#     8   8   8   8   8   8   8   8
#     4  11  25  44  67  93 125 166 210 256 312 373
#     4  11  24  41  63  93 125 160 204 256 309 363
#     4  12  24  41  66  93 124 163 208 257 310 370
#     4  11  21  37  62  89 117 154 201 251 306 364
#     4   9  19  37  59  86 118 159 206 248 297 363
#     4   9  18  33  59  89 116 151 201 252 294 349
#     4  11  23  40  61  87 123 164 205 251 306 369
#     4  10  22  40  64  90 121 161 208 256 305 367
#
# _framework density 24.527712000000001
#
# number of rings (size 3 to 8) (size 9 to 14) (size 15 to 20)
#    0.000    1.500    2.500    2.625    3.500    1.500 
#    0.000    0.625    0.000    1.500    0.000    0.000 
#    0.000    0.000    0.000    0.000    0.000    0.000 
#
# Total GULP energy -179004.712070 kJ/mol
# GULP energy per Si atom -5593.897252 kJ/mol
# Density = 2.447189 g / cm^3
# Si number density = 24.527712 Si / 1000 Ang^3
#
#
#
# Elastic Constant Matrix: (Units=GPa)
#
#
# Indices 1 2 3 4 5 6 
#
# 1 113.3414 1.8313 -14.0683 -0.0003 -5.7488 0.0004
# 2 1.8313 68.1669 -5.9999 -0.0004 -0.8104 0.0013
# 3 -14.0683 -5.9999 49.7791 -0.0002 0.6799 0.0003
# 4 -0.0003 -0.0004 -0.0002 16.6504 0.0001 -0.0561
# 5 -5.7488 -0.8104 0.6799 0.0001 46.8284 -0.0001
# 6 0.0004 0.0013 0.0003 -0.0561 -0.0001 14.9553
#
#
#
# Elastic Compliance Matrix: (Units=1/GPa)
#
#
# Indices 1 2 3 4 5 6 
#
# 1 0.009199 -0.000007 0.002584 0.000000 0.001092 0.000000
# 2 -0.000007 0.014830 0.001782 0.000000 0.000230 -0.000001
# 3 0.002584 0.001782 0.021033 0.000000 0.000043 -0.000001
# 4 0.000000 0.000000 0.000000 0.060059 0.000000 0.000225
# 5 0.001092 0.000230 0.000043 0.000000 0.021492 0.000000
# 6 0.000000 -0.000001 -0.000001 0.000225 0.000000 0.066867
#
#
# Mechanical properties :
#
#
# Convention : Reuss Voigt Hill
#
# Bulk Modulus (GPa) = 18.59370 21.64594 20.11982
# Shear Modulus (GPa) = 24.66848 32.32178 28.49513
#
# Velocity S-wave (km/s) = 3.17478 3.63404 3.41215
# Velocity P-wave (km/s) = 4.58651 5.14321 4.87282
#
# Compressibility (1/GPa) = 0.05378167
#
# Stress axis : x y z
#
# Youngs Moduli (GPa) = 108.70594 67.43239 47.54361
#
# Poissons Ratio (x) = 0.00045 -0.12286
# Poissons Ratio (y) = 0.00073 -0.08474
# Poissons Ratio (z) = -0.28091 -0.12019
#
# Static dielectric constant tensor:
#      x y z
#    x 1.988330 0.000000 0.015040 
#    y 0.000000 1.956590 0.000000 
#    z 0.015040 0.000000 1.916960 
# 
# From -- ./inp_files/378518.got.cif
#   From: 2010.05.17/outbox.cif.g08.bks.cpg/sg12_190_cif.got.tgz:378518.got - 2010.06.03 13:09:07.
