data_PCOD9214799
_publ_section_title
;
Structure prediction by ZEFSAII (Michael W. Deem and Ramdas Pophale) SiO2 
 PCOD9214799
Probable space group: C 2/M
;
_chemical_formula_sum "Si O2"
_cell_formula_units_Z 64
_cell_length_a 10.801560
_cell_length_b 16.505673
_cell_length_c 23.669251
_cell_angle_alpha 90.000000
_cell_angle_beta 134.671907
_cell_angle_gamma 90.000000
_cell_volume 3000.972058
_symmetry_space_group_name_H-M "C 2/M"
_symmetry_group_IT_number 12
_symmetry_cell_setting 'monoclinic'
loop_
_space_group_symop_operation_xyz
x,y,z
-x,y,-z
-x,-y,-z
x,-y,z
1/2+x,1/2+y,z
1/2-x,1/2+y,-z
1/2-x,1/2-y,-z
1/2+x,1/2-y,z
loop_
_atom_site_type_symbol
_atom_site_label
_atom_site_fract_x
_atom_site_fract_y
_atom_site_fract_z
Si Si1 0.259385 0.407781 0.474940
Si Si2 0.989348 0.705140 0.435661
Si Si3 0.338590 0.409578 0.677682
Si Si4 0.386745 0.903655 0.692758
Si Si5 0.941647 0.858915 0.356886
Si Si6 0.945584 0.907552 0.138573
Si Si7 0.702688 0.245544 0.050950
Si Si8 0.738717 0.596218 0.139070
O O1 0.200475 0.500000 0.459795
O O2 0.195814 0.377927 0.393400
O O3 0.458319 0.404622 0.559407
O O4 0.153236 0.353737 0.484705
O O5 0.815183 0.653978 0.375655
O O6 0.992716 0.767049 0.385525
O O7 0.000000 0.747491 0.500000
O O8 0.268967 0.500000 0.644952
O O9 0.484331 0.391429 0.677515
O O10 0.424033 0.407137 0.766517
O O11 0.264149 0.866618 0.701563
O O12 0.590188 0.888258 0.767244
O O13 0.364215 0.000000 0.689090
O O14 0.064217 0.895058 0.120643
O O15 0.813251 0.833428 0.105711
O O16 0.870944 0.000000 0.111449
O O17 0.743509 0.332868 0.093623
O O18 0.500000 0.230838 0.000000
O O19 0.750000 0.250000 0.000000
O O20 0.746480 0.500000 0.123138
#
# Coordination Sequence:
#
# PCOD9214799 Si02
#       8
#     8   8   8   8   8   8   8   8
#     4  11  22  39  62  85 124 176 230 285 342 404
#     4  12  25  38  60  89 125 171 233 289 345 406
#     4  11  25  44  66  93 130 179 230 280 343 406
#     4  10  22  40  64  93 127 174 233 279 336 415
#     4  12  25  38  60  90 133 175 226 294 350 392
#     4  10  24  47  74 106 145 188 233 286 347 416
#     4  12  26  47  78 116 146 180 231 280 348 432
#     4  10  23  46  75 104 143 191 235 279 341 425
#
# _framework density 21.326422999999998
#
# number of rings (size 3 to 8) (size 9 to 14) (size 15 to 20)
#    0.000    1.000    2.500    3.750    3.500    6.500 
#    0.000    1.250    0.000    0.000    0.000    0.000 
#    0.000    0.000    0.000    0.000    0.000    0.000 
#
# Total GULP energy -178774.761477 kJ/mol
# GULP energy per Si atom -5586.711296 kJ/mol
# Density = 2.127788 g / cm^3
# Si number density = 21.326423 Si / 1000 Ang^3
#
#
#
# Elastic Constant Matrix: (Units=GPa)
#
#
# Indices 1 2 3 4 5 6 
#
# 1 85.1077 45.1439 33.6124 0.0000 0.6521 0.0000
# 2 45.1439 130.4928 41.1750 0.0000 -2.2287 0.0000
# 3 33.6124 41.1750 53.8428 0.0000 4.3471 0.0000
# 4 0.0000 0.0000 0.0000 40.2134 0.0000 1.6778
# 5 0.6521 -2.2287 4.3471 0.0000 40.0928 0.0000
# 6 0.0000 0.0000 0.0000 1.6778 0.0000 35.9880
#
#
#
# Elastic Compliance Matrix: (Units=1/GPa)
#
#
# Indices 1 2 3 4 5 6 
#
# 1 0.016588 -0.003234 -0.007915 0.000000 0.000409 0.000000
# 2 -0.003234 0.010811 -0.006357 0.000000 0.001343 0.000000
# 3 -0.007915 -0.006357 0.028644 0.000000 -0.003330 0.000000
# 4 0.000000 0.000000 0.000000 0.024916 0.000000 -0.001162
# 5 0.000409 0.001343 -0.003330 0.000000 0.025371 0.000000
# 6 0.000000 0.000000 0.000000 -0.001162 0.000000 0.027841
#
#
# Mechanical properties :
#
#
# Convention : Reuss Voigt Hill
#
# Bulk Modulus (GPa) = 47.54972 56.58954 52.06963
# Shear Modulus (GPa) = 28.37786 33.22631 30.80208
#
# Velocity S-wave (km/s) = 3.65176 3.95142 3.80454
# Velocity P-wave (km/s) = 6.33443 6.88555 6.61573
#
# Compressibility (1/GPa) = 0.02103062
#
# Stress axis : x y z
#
# Youngs Moduli (GPa) = 60.28369 92.49982 34.91144
#
# Poissons Ratio (x) = 0.29916 0.27633
# Poissons Ratio (y) = 0.19497 0.22192
# Poissons Ratio (z) = 0.47716 0.58800
#
# Static dielectric constant tensor:
#      x y z
#    x 1.779800 0.000000 -0.013620 
#    y 0.000000 1.806630 0.000000 
#    z -0.013620 0.000000 1.761760 
# 
# From -- ./inp_files/358457.got.cif
#   From: 2010.05.17/outbox.cif.g08.bks.cpg/sg12_180_cif.got.tgz:358457.got - 2010.06.03 13:09:07.
