data_PCOD9214701
_publ_section_title
;
Structure prediction by ZEFSAII (Michael W. Deem and Ramdas Pophale) SiO2 
 PCOD9214701
Probable space group: C 2/M
;
_chemical_formula_sum "Si O2"
_cell_formula_units_Z 50
_cell_length_a 18.202710
_cell_length_b 12.463277
_cell_length_c 27.952210
_cell_angle_alpha 90.000000
_cell_angle_beta 18.420458
_cell_angle_gamma 90.000000
_cell_volume 2003.801943
_symmetry_space_group_name_H-M "C 2/M"
_symmetry_group_IT_number 12
_symmetry_cell_setting 'monoclinic'
loop_
_space_group_symop_operation_xyz
x,y,z
-x,y,-z
-x,-y,-z
x,-y,z
1/2+x,1/2+y,z
1/2-x,1/2+y,-z
1/2-x,1/2-y,-z
1/2+x,1/2-y,z
loop_
_atom_site_type_symbol
_atom_site_label
_atom_site_fract_x
_atom_site_fract_y
_atom_site_fract_z
Si Si1 0.572239 0.219006 0.775064
Si Si2 0.000000 0.000000 0.000000
Si Si3 0.161368 0.826936 0.474924
Si Si4 0.866668 0.340759 0.765864
Si Si5 0.888250 0.621674 0.642408
Si Si6 0.267979 0.383843 0.789141
Si Si7 0.285544 0.879542 0.035807
O O1 0.752733 0.152070 0.631705
O O2 0.703738 0.309181 0.725809
O O3 0.413458 0.145132 0.906253
O O4 0.403962 0.286283 0.843943
O O5 0.823805 0.905779 0.087584
O O6 0.371630 0.861189 0.379279
O O7 0.114176 0.698113 0.503168
O O8 0.926727 0.873570 0.642965
O O9 0.820700 0.383333 0.740069
O O10 0.837482 0.214405 0.778800
O O11 0.916906 0.500000 0.607500
O O12 0.312420 0.500000 0.783245
O O13 0.999925 0.374345 0.940074
O O14 0.187990 0.000000 0.096415
#
# Coordination Sequence:
#
# PCOD9214701 Si02
#       7
#     8   2   8   8   8   8   8
#     4  11  23  41  64  99 137 178 231 291 346 415
#     4  12  28  44  78 104 140 172 246 292 348 416
#     4  11  25  40  67 103 134 174 236 287 339 420
#     4  11  25  45  67 102 137 180 229 286 348 415
#     4  11  22  43  70  97 140 186 230 288 357 418
#     4  10  22  44  71  95 137 183 225 280 354 416
#     4  10  22  40  63  92 130 179 222 276 351 412
#
# _framework density 24.952566000000001
#
# number of rings (size 3 to 8) (size 9 to 14) (size 15 to 20)
#    0.000    1.280    4.000    2.880    3.360    4.480 
#    2.880    2.000    0.000    0.000    0.000    0.000 
#    0.000    0.000    0.000    0.000    0.000    0.000 
#
# Total GULP energy -139645.986401 kJ/mol
# GULP energy per Si atom -5585.839456 kJ/mol
# Density = 2.489577 g / cm^3
# Si number density = 24.952566 Si / 1000 Ang^3
#
#
#
# Elastic Constant Matrix: (Units=GPa)
#
#
# Indices 1 2 3 4 5 6 
#
# 1 77.8776 -4.2215 2.4824 0.1128 2.6892 0.0329
# 2 -4.2215 112.9642 -0.7527 -0.2570 -10.2477 -0.0492
# 3 2.4824 -0.7527 99.3712 0.0736 -2.7312 0.0489
# 4 0.1128 -0.2570 0.0736 -169.3513 -0.0630 -58.5669
# 5 2.6892 -10.2477 -2.7312 -0.0630 51.1613 -0.0137
# 6 0.0329 -0.0492 0.0489 -58.5669 -0.0137 -17.4451
#
#
#
# Elastic Compliance Matrix: (Units=1/GPa)
#
#
# Indices 1 2 3 4 5 6 
#
# 1 0.012895 0.000424 -0.000336 -0.000001 -0.000611 0.000026
# 2 0.000424 0.009032 0.000107 0.000032 0.001792 -0.000133
# 3 -0.000336 0.000107 0.010088 0.000034 0.000578 -0.000088
# 4 -0.000001 0.000032 0.000034 0.036671 0.000021 -0.123111
# 5 -0.000611 0.001792 0.000578 0.000021 0.019968 -0.000089
# 6 0.000026 -0.000133 -0.000088 -0.123111 -0.000089 0.355988
#
#
# Mechanical properties :
#
#
# Convention : Reuss Voigt Hill
#
# Bulk Modulus (GPa) = 30.85782 31.69214 31.27498
# Shear Modulus (GPa) = 10.98773 -7.61339 1.68717
#
# Velocity S-wave (km/s) = 2.10072 -1.74865 0.82318
# Velocity P-wave (km/s) = 4.27521 2.94134 3.66940
#
# Compressibility (1/GPa) = 0.03240670
#
# Stress axis : x y z
#
# Youngs Moduli (GPa) = 77.54676 110.72290 99.12398
#
# Poissons Ratio (x) = -0.04698 0.03328
# Poissons Ratio (y) = -0.03290 -0.01062
# Poissons Ratio (z) = 0.02603 -0.01186
#
# Static dielectric constant tensor:
#      x y z
#    x 2.064200 0.000020 0.080470 
#    y 0.000020 2.107080 0.000180 
#    z 0.080470 0.000180 2.027580 
# 
# From -- ./inp_files/379427.got.cif
#   From: 2010.05.17/outbox.cif.g08.bks.cpg/sg12_190_cif.got.tgz:379427.got - 2010.06.03 13:09:07.
