data_PCOD9214782
_publ_section_title
;
Structure prediction by ZEFSAII (Michael W. Deem and Ramdas Pophale) SiO2 
 PCOD9214782
Probable space group: C 2/M
;
_chemical_formula_sum "Si O2"
_cell_formula_units_Z 56
_cell_length_a 9.209170
_cell_length_b 22.474130
_cell_length_c 13.786437
_cell_angle_alpha 90.000000
_cell_angle_beta 69.812858
_cell_angle_gamma 90.000000
_cell_volume 2678.072402
_symmetry_space_group_name_H-M "C 2/M"
_symmetry_group_IT_number 12
_symmetry_cell_setting 'monoclinic'
loop_
_space_group_symop_operation_xyz
x,y,z
-x,y,-z
-x,-y,-z
x,-y,z
1/2+x,1/2+y,z
1/2-x,1/2+y,-z
1/2-x,1/2-y,-z
1/2+x,1/2-y,z
loop_
_atom_site_type_symbol
_atom_site_label
_atom_site_fract_x
_atom_site_fract_y
_atom_site_fract_z
Si Si1 0.333320 0.163602 0.579078
Si Si2 0.881785 0.066982 0.438059
Si Si3 0.081506 0.634351 0.234560
Si Si4 0.597048 0.069984 0.884620
Si Si5 0.295012 0.220121 0.290591
Si Si6 0.890242 0.807494 0.117150
Si Si7 0.913485 0.130681 0.758172
O O1 0.500000 0.179667 0.500000
O O2 0.240680 0.120823 0.527799
O O3 0.356953 0.124168 0.671317
O O4 0.245243 0.223853 0.631836
O O5 0.000000 0.068832 0.500000
O O6 0.981998 0.082057 0.319517
O O7 0.815082 0.000000 0.449418
O O8 0.231269 0.656130 0.139810
O O9 0.997013 0.584261 0.192085
O O10 0.951143 0.685367 0.280707
O O11 0.760585 0.102136 0.838494
O O12 0.621283 0.000000 0.888941
O O13 0.500000 0.091312 0.000000
O O14 0.330780 0.245567 0.174828
O O15 0.149372 0.176855 0.308793
O O16 0.988588 0.837172 0.181350
O O17 0.000000 0.802329 0.000000
#
# Coordination Sequence:
#
# PCOD9214782 Si02
#       7
#     8   8   8   8   8   8   8
#     4  11  25  43  66  97 127 165 209 269 324 378
#     4  11  26  47  69  94 124 169 217 262 326 390
#     4  10  22  41  60  93 132 166 212 261 320 378
#     4  10  22  40  64  92 123 170 226 268 313 374
#     4  10  23  40  62  94 133 169 212 252 318 388
#     4  11  21  36  61  95 131 167 207 254 314 375
#     4  11  22  43  64  90 134 170 209 265 316 384
#
# _framework density 20.910563
#
# number of rings (size 3 to 8) (size 9 to 14) (size 15 to 20)
#    0.000    1.429    2.857    3.000    4.000    6.571 
#    0.000    0.000    0.000    3.000    0.000    0.000 
#    0.000    0.000    0.000    0.000    0.000    0.000 
#
# Total GULP energy -156436.902875 kJ/mol
# GULP energy per Si atom -5587.032246 kJ/mol
# Density = 2.086297 g / cm^3
# Si number density = 20.910563 Si / 1000 Ang^3
#
#
#
# Elastic Constant Matrix: (Units=GPa)
#
#
# Indices 1 2 3 4 5 6 
#
# 1 97.7352 35.8232 5.3309 0.0000 -15.0453 0.0000
# 2 35.8232 83.0108 13.9675 0.0000 -6.3130 0.0000
# 3 5.3309 13.9675 71.2619 0.0000 -15.9392 0.0000
# 4 0.0000 0.0000 0.0000 13.8661 0.0000 9.4194
# 5 -15.0453 -6.3130 -15.9392 0.0000 36.7997 0.0000
# 6 0.0000 0.0000 0.0000 9.4194 0.0000 -0.7765
#
#
#
# Elastic Compliance Matrix: (Units=1/GPa)
#
#
# Indices 1 2 3 4 5 6 
#
# 1 0.012891 -0.005392 0.001179 0.000000 0.004856 0.000000
# 2 -0.005392 0.014761 -0.002676 0.000000 -0.000831 0.000000
# 3 0.001179 -0.002676 0.016027 0.000000 0.006965 0.000000
# 4 0.000000 0.000000 0.000000 0.007804 0.000000 0.094675
# 5 0.004856 -0.000831 0.006965 0.000000 0.032033 0.000000
# 6 0.000000 0.000000 0.000000 0.094675 0.000000 -0.139369
#
#
# Mechanical properties :
#
#
# Convention : Reuss Voigt Hill
#
# Bulk Modulus (GPa) = 33.44452 40.25012 36.84732
# Shear Modulus (GPa) = -155.72965 23.10361 -66.31302
#
# Velocity S-wave (km/s) = -8.63920 3.32758 -5.63751
# Velocity P-wave (km/s) = 9.13705 5.83560 4.97149
#
# Compressibility (1/GPa) = 0.02990027
#
# Stress axis : x y z
#
# Youngs Moduli (GPa) = 77.57087 67.74762 62.39553
#
# Poissons Ratio (x) = 0.36532 -0.07354
# Poissons Ratio (y) = 0.41829 0.16695
# Poissons Ratio (z) = -0.09143 0.18127
#
# Static dielectric constant tensor:
#      x y z
#    x 1.776080 0.000000 0.014200 
#    y 0.000000 1.737420 0.000000 
#    z 0.014200 0.000000 1.762100 
# 
# From -- ./inp_files/198342.got.cif
#   From: 2010.05.17/outbox.cif.g08.bks.cpg/sg12_100_cif.got.tgz:198342.got - 2010.06.03 13:09:07.
