data_PCOD9214417
_publ_section_title
;
Structure prediction by ZEFSAII (Michael W. Deem and Ramdas Pophale) SiO2 
 PCOD9214417
Probable space group: C 2/M
;
_chemical_formula_sum "Si O2"
_cell_formula_units_Z 36
_cell_length_a 14.853855
_cell_length_b 7.726536
_cell_length_c 19.507850
_cell_angle_alpha 90.000000
_cell_angle_beta 141.322918
_cell_angle_gamma 90.000000
_cell_volume 1399.152647
_symmetry_space_group_name_H-M "C 2/M"
_symmetry_group_IT_number 12
_symmetry_cell_setting 'monoclinic'
loop_
_space_group_symop_operation_xyz
x,y,z
-x,y,-z
-x,-y,-z
x,-y,z
1/2+x,1/2+y,z
1/2-x,1/2+y,-z
1/2-x,1/2-y,-z
1/2+x,1/2-y,z
loop_
_atom_site_type_symbol
_atom_site_label
_atom_site_fract_x
_atom_site_fract_y
_atom_site_fract_z
Si Si1 0.076464 0.195778 0.828826
Si Si2 0.165126 0.289400 0.096255
Si Si3 0.500000 0.255438 0.500000
Si Si4 0.290211 0.293691 0.724890
Si Si5 0.585204 0.192042 0.396645
O O1 0.233428 0.272785 0.905785
O O2 0.950747 0.271472 0.801550
O O3 0.000753 0.192239 0.708421
O O4 0.097853 0.000000 0.865995
O O5 0.168683 0.500000 0.097559
O O6 0.228113 0.223734 0.205242
O O7 0.000000 0.232610 0.000000
O O8 0.334310 0.312018 0.387905
O O9 0.524472 0.184931 0.437627
O O10 0.277242 0.500000 0.697341
O O11 0.750000 0.250000 0.500000
O O12 0.576824 0.000000 0.362322
#
# Coordination Sequence:
#
# PCOD9214417 Si02
#       5
#     8   8   4   8   8
#     4  10  22  40  60  86 120 158 198 246 301 355
#     4  10  23  43  63  87 121 157 199 255 307 349
#     4  12  23  38  61  90 127 162 193 240 301 358
#     4  11  22  39  62  89 121 159 200 242 295 361
#     4  12  23  38  59  87 123 162 199 242 295 356
#
# _framework density 25.729861
#
# number of rings (size 3 to 8) (size 9 to 14) (size 15 to 20)
#    0.000    1.111    4.444    2.667    0.000    2.222 
#    0.000    2.778    0.000    0.000    0.000    0.000 
#    0.000    0.000    0.000    0.000    0.000    0.000 
#
# Total GULP energy -100411.568124 kJ/mol
# GULP energy per Si atom -5578.420451 kJ/mol
# Density = 2.567130 g / cm^3
# Si number density = 25.729861 Si / 1000 Ang^3
#
#
#
# Elastic Constant Matrix: (Units=GPa)
#
#
# Indices 1 2 3 4 5 6 
#
# 1 178.1863 8.4080 12.0510 0.0000 38.5166 0.0000
# 2 8.4080 88.9402 6.0418 0.0000 4.0736 0.0000
# 3 12.0510 6.0418 98.1642 0.0000 31.4136 0.0000
# 4 0.0000 0.0000 0.0000 -54.2608 0.0000 -29.2035
# 5 38.5166 4.0736 31.4136 0.0000 67.7823 0.0000
# 6 0.0000 0.0000 0.0000 -29.2035 0.0000 -7.8827
#
#
#
# Elastic Compliance Matrix: (Units=1/GPa)
#
#
# Indices 1 2 3 4 5 6 
#
# 1 0.006433 -0.000464 0.000469 0.000000 -0.003845 0.000000
# 2 -0.000464 0.011334 -0.000595 0.000000 -0.000142 0.000000
# 3 0.000469 -0.000595 0.012023 0.000000 -0.005803 0.000000
# 4 0.000000 0.000000 0.000000 0.018542 0.000000 -0.068694
# 5 -0.003845 -0.000142 -0.005803 0.000000 0.019636 0.000000
# 6 0.000000 0.000000 0.000000 -0.068694 0.000000 0.127636
#
#
# Mechanical properties :
#
#
# Convention : Reuss Voigt Hill
#
# Bulk Modulus (GPa) = 34.95171 46.47693 40.71432
# Shear Modulus (GPa) = 24.23401 23.71376 23.97389
#
# Velocity S-wave (km/s) = 3.07231 3.03915 3.05578
# Velocity P-wave (km/s) = 5.11850 5.51524 5.32057
#
# Compressibility (1/GPa) = 0.02861090
#
# Stress axis : x y z
#
# Youngs Moduli (GPa) = 155.43715 88.22782 83.17359
#
# Poissons Ratio (x) = 0.04093 -0.03903
# Poissons Ratio (y) = 0.07212 0.04951
# Poissons Ratio (z) = -0.07295 0.05252
#
# Static dielectric constant tensor:
#      x y z
#    x 2.031300 0.000000 0.067560 
#    y 0.000000 1.992860 0.000000 
#    z 0.067560 0.000000 2.036920 
# 
# From -- ./inp_files/308851.got.cif
#   From: 2010.05.17/outbox.cif.g08.bks.cpg/sg12_155_cif.got.tgz:308851.got - 2010.06.03 13:09:07.
