data_PCOD9214425
_publ_section_title
;
Structure prediction by ZEFSAII (Michael W. Deem and Ramdas Pophale) SiO2 
 PCOD9214425
Probable space group: C 2/M
;
_chemical_formula_sum "Si O2"
_cell_formula_units_Z 32
_cell_length_a 11.750369
_cell_length_b 21.854424
_cell_length_c 8.368929
_cell_angle_alpha 90.000000
_cell_angle_beta 130.844349
_cell_angle_gamma 90.000000
_cell_volume 1625.786091
_symmetry_space_group_name_H-M "C 2/M"
_symmetry_group_IT_number 12
_symmetry_cell_setting 'monoclinic'
loop_
_space_group_symop_operation_xyz
x,y,z
-x,y,-z
-x,-y,-z
x,-y,z
1/2+x,1/2+y,z
1/2-x,1/2+y,-z
1/2-x,1/2-y,-z
1/2+x,1/2-y,z
loop_
_atom_site_type_symbol
_atom_site_label
_atom_site_fract_x
_atom_site_fract_y
_atom_site_fract_z
Si Si1 0.668330 0.000000 0.722447
Si Si2 0.827277 0.875422 0.888221
Si Si3 0.180644 0.252734 0.616859
Si Si4 0.671224 0.000000 0.112126
Si Si5 0.832272 0.122598 0.274664
O O1 0.500000 0.000000 0.500000
O O2 0.750557 0.937007 0.749464
O O3 0.675595 0.000000 0.922707
O O4 0.746818 0.814072 0.754650
O O5 0.827628 0.877743 0.079652
O O6 0.000000 0.873642 0.000000
O O7 0.250000 0.250000 0.500000
O O8 0.235261 0.187661 0.736368
O O9 0.000000 0.254029 0.500000
O O10 0.747402 0.938665 0.248629
O O11 0.500000 0.000000 0.000000
O O12 0.000000 0.119587 0.500000
#
# Coordination Sequence:
#
# PCOD9214425 Si02
#       5
#     4   8   8   4   8
#     4  10  23  40  60  88 122 158 203 254 310 370
#     4  11  22  39  63  92 123 161 206 256 310 371
#     4  11  24  42  64  93 125 165 208 256 312 369
#     4  10  23  38  60  88 116 154 201 250 304 362
#     4  10  22  40  60  87 121 160 201 248 304 365
#
# _framework density 19.682786
#
# number of rings (size 3 to 8) (size 9 to 14) (size 15 to 20)
#    0.000    1.500    0.000    5.250    0.000    9.000 
#    0.000    0.000    0.000    0.000    0.000    0.000 
#    0.000    0.000    0.000    0.000    0.000    0.000 
#
# Total GULP energy -89229.837027 kJ/mol
# GULP energy per Si atom -5576.864814 kJ/mol
# Density = 1.963799 g / cm^3
# Si number density = 19.682786 Si / 1000 Ang^3
#
#
#
# Elastic Constant Matrix: (Units=GPa)
#
#
# Indices 1 2 3 4 5 6 
#
# 1 109.4164 72.1315 29.7499 0.0000 12.2696 0.0000
# 2 72.1315 252.3646 80.1098 0.0000 28.2588 0.0000
# 3 29.7499 80.1098 90.7928 0.0000 15.3426 0.0000
# 4 0.0000 0.0000 0.0000 47.2944 0.0000 1.6672
# 5 12.2696 28.2588 15.3426 0.0000 32.8498 0.0000
# 6 0.0000 0.0000 0.0000 1.6672 0.0000 -48.8839
#
#
#
# Elastic Compliance Matrix: (Units=1/GPa)
#
#
# Indices 1 2 3 4 5 6 
#
# 1 0.011409 -0.002769 -0.001061 0.000000 -0.001383 0.000000
# 2 -0.002769 0.006402 -0.004327 0.000000 -0.002452 0.000000
# 3 -0.001061 -0.004327 0.015725 0.000000 -0.003226 0.000000
# 4 0.000000 0.000000 0.000000 0.021119 0.000000 0.000720
# 5 -0.001383 -0.002452 -0.003226 0.000000 0.034574 0.000000
# 6 0.000000 0.000000 0.000000 0.000720 0.000000 -0.020432
#
#
# Mechanical properties :
#
#
# Convention : Reuss Voigt Hill
#
# Bulk Modulus (GPa) = 58.06933 90.72847 74.39890
# Shear Modulus (GPa) = 55.03484 24.29092 39.66288
#
# Velocity S-wave (km/s) = 5.29354 3.51682 4.49386
# Velocity P-wave (km/s) = 8.18100 7.91745 8.05031
#
# Compressibility (1/GPa) = 0.01722080
#
# Stress axis : x y z
#
# Youngs Moduli (GPa) = 87.65377 156.19756 63.59345
#
# Poissons Ratio (x) = 0.43252 0.06749
# Poissons Ratio (y) = 0.24272 0.27518
# Poissons Ratio (z) = 0.09302 0.67589
#
# Static dielectric constant tensor:
#      x y z
#    x 1.704260 0.000000 -0.017130 
#    y 0.000000 1.704320 0.000000 
#    z -0.017130 0.000000 1.676050 
# 
# From -- ./inp_files/48328.got.cif
#   From: 2010.05.17/outbox.cif.g08.bks.cpg/sg12_25_cif.got.tgz:48328.got - 2010.06.03 13:09:07.
