data_PCOD9214769
_publ_section_title
;
Structure prediction by ZEFSAII (Michael W. Deem and Ramdas Pophale) SiO2 
 PCOD9214769
Probable space group: C 2/M
;
_chemical_formula_sum "Si O2"
_cell_formula_units_Z 32
_cell_length_a 10.383315
_cell_length_b 9.981433
_cell_length_c 17.496900
_cell_angle_alpha 90.000000
_cell_angle_beta 134.761074
_cell_angle_gamma 90.000000
_cell_volume 1287.592783
_symmetry_space_group_name_H-M "C 2/M"
_symmetry_group_IT_number 12
_symmetry_cell_setting 'monoclinic'
loop_
_space_group_symop_operation_xyz
x,y,z
-x,y,-z
-x,-y,-z
x,-y,z
1/2+x,1/2+y,z
1/2-x,1/2+y,-z
1/2-x,1/2-y,-z
1/2+x,1/2-y,z
loop_
_atom_site_type_symbol
_atom_site_label
_atom_site_fract_x
_atom_site_fract_y
_atom_site_fract_z
Si Si1 0.135812 0.000000 0.369833
Si Si2 0.474983 0.717063 0.399298
Si Si3 0.250000 0.750000 0.000000
Si Si4 0.759345 0.000000 0.118395
Si Si5 0.245007 0.500000 0.887332
Si Si6 0.139438 0.500000 0.686309
Si Si7 0.333920 0.000000 0.758186
O O1 0.287083 0.000000 0.369735
O O2 0.126060 0.127507 0.420687
O O3 0.951708 0.000000 0.243301
O O4 0.500000 0.727780 0.500000
O O5 0.288194 0.630747 0.310145
O O6 0.461743 0.859031 0.352617
O O7 0.296234 0.633273 0.953653
O O8 0.252048 0.866991 0.935465
O O9 0.621357 0.000000 0.132657
O O10 0.290635 0.500000 0.816258
O O11 0.023098 0.500000 0.794268
#
# Coordination Sequence:
#
# PCOD9214769 Si02
#       7
#     4   8   4   4   4   4   4
#     4  10  23  45  67  93 142 179 219 275 340 403
#     4  10  23  46  69 102 136 177 226 278 330 402
#     4  10  22  40  64  90 134 160 230 280 320 410
#     4   9  20  42  60  95 123 169 215 284 337 389
#     4  11  24  45  63 100 129 180 227 274 342 398
#     4  12  26  41  71 102 134 182 220 283 341 394
#     4  10  22  42  74  87 135 185 219 271 345 404
#
# _framework density 24.85258
#
# number of rings (size 3 to 8) (size 9 to 14) (size 15 to 20)
#    0.000    2.000    0.000    4.875    7.000    3.000 
#    9.000    1.250    0.000    0.000    0.000    0.000 
#    0.000    0.000    0.000    0.000    0.000    0.000 
#
# Total GULP energy -89115.260795 kJ/mol
# GULP energy per Si atom -5569.703800 kJ/mol
# Density = 2.479601 g / cm^3
# Si number density = 24.852580 Si / 1000 Ang^3
#
#
#
# Elastic Constant Matrix: (Units=GPa)
#
#
# Indices 1 2 3 4 5 6 
#
# 1 53.0870 1.7210 17.7904 0.0000 -1.6552 0.0000
# 2 1.7210 263.0232 84.5943 0.0000 -16.3899 0.0000
# 3 17.7904 84.5943 160.7135 0.0000 -43.2433 0.0000
# 4 0.0000 0.0000 0.0000 -2.5635 0.0000 -31.0562
# 5 -1.6552 -16.3899 -43.2433 0.0000 47.6509 0.0000
# 6 0.0000 0.0000 0.0000 -31.0562 0.0000 17.0078
#
#
#
# Elastic Compliance Matrix: (Units=1/GPa)
#
#
# Indices 1 2 3 4 5 6 
#
# 1 0.019788 0.000746 -0.003082 0.000000 -0.001853 0.000000
# 2 0.000746 0.004629 -0.002757 0.000000 -0.000884 0.000000
# 3 -0.003082 -0.002757 0.010228 0.000000 0.008227 0.000000
# 4 0.000000 0.000000 0.000000 -0.016871 0.000000 -0.030807
# 5 -0.001853 -0.000884 0.008227 0.000000 0.028083 0.000000
# 6 0.000000 0.000000 0.000000 -0.030807 0.000000 0.002543
#
#
# Mechanical properties :
#
#
# Convention : Reuss Voigt Hill
#
# Bulk Modulus (GPa) = 40.88324 76.11504 58.49914
# Shear Modulus (GPa) = 74.92074 37.26690 56.09382
#
# Velocity S-wave (km/s) = 5.49650 3.87656 4.75601
# Velocity P-wave (km/s) = 7.53446 7.12251 7.33137
#
# Compressibility (1/GPa) = 0.02445990
#
# Stress axis : x y z
#
# Youngs Moduli (GPa) = 50.53625 216.04656 97.77058
#
# Poissons Ratio (x) = -0.16122 0.30130
# Poissons Ratio (y) = -0.03771 0.26953
# Poissons Ratio (z) = 0.15574 0.59559
#
# Static dielectric constant tensor:
#      x y z
#    x 2.074250 0.000000 0.044810 
#    y 0.000000 1.893370 0.000000 
#    z 0.044810 0.000000 1.965510 
# 
# From -- ./inp_files/202168.got.cif
#   From: 2010.05.17/outbox.cif.g08.bks.cpg/sg12_102_cif.got.tgz:202168.got - 2010.06.03 13:09:07.
