data_PCOD9214983
_publ_section_title
;
Structure prediction by ZEFSAII (Michael W. Deem and Ramdas Pophale) SiO2 
 PCOD9214983
Probable space group: C 2/M
;
_chemical_formula_sum "Si O2"
_cell_formula_units_Z 56
_cell_length_a 29.395142
_cell_length_b 17.165155
_cell_length_c 5.605972
_cell_angle_alpha 90.000000
_cell_angle_beta 57.877170
_cell_angle_gamma 90.000000
_cell_volume 2395.584726
_symmetry_space_group_name_H-M "C 2/M"
_symmetry_group_IT_number 12
_symmetry_cell_setting 'monoclinic'
loop_
_space_group_symop_operation_xyz
x,y,z
-x,y,-z
-x,-y,-z
x,-y,z
1/2+x,1/2+y,z
1/2-x,1/2+y,-z
1/2-x,1/2-y,-z
1/2+x,1/2-y,z
loop_
_atom_site_type_symbol
_atom_site_label
_atom_site_fract_x
_atom_site_fract_y
_atom_site_fract_z
Si Si1 0.366701 0.838433 0.047430
Si Si2 0.649662 0.680494 0.721981
Si Si3 0.490377 0.131928 0.772058
Si Si4 0.047442 0.795602 0.690751
Si Si5 0.329647 0.909924 0.652829
Si Si6 0.386674 0.409762 0.782772
Si Si7 0.223820 0.163869 0.117999
O O1 0.346394 0.749862 0.098223
O O2 0.339311 0.875890 0.360121
O O3 0.429108 0.842386 0.933621
O O4 0.358911 0.873936 0.805479
O O5 0.604319 0.712772 0.667996
O O6 0.706929 0.666248 0.443379
O O7 0.623471 0.604380 0.909233
O O8 0.500000 0.087684 0.500000
O O9 0.526813 0.210660 0.667423
O O10 0.500000 0.092965 0.000000
O O11 0.063170 0.857039 0.442696
O O12 0.000000 0.823563 0.000000
O O13 0.344003 0.000000 0.601560
O O14 0.268398 0.894739 0.898548
O O15 0.392718 0.500000 0.704370
O O16 0.331883 0.372714 0.827603
O O17 0.250000 0.250000 0.000000
#
# Coordination Sequence:
#
# PCOD9214983 Si02
#       7
#     8   8   8   8   8   8   8
#     4  12  24  44  76 107 142 186 244 308 347 428
#     4  11  23  41  70 105 137 180 253 298 345 425
#     4  11  21  38  72 110 132 178 238 303 354 411
#     4  10  22  40  67 101 134 183 241 297 350 424
#     4  12  28  47  71 106 150 193 234 297 379 440
#     4  11  26  43  65 102 153 191 233 299 373 438
#     4  11  24  45  72 102 135 187 251 298 349 426
#
# _framework density 23.376338000000001
#
# number of rings (size 3 to 8) (size 9 to 14) (size 15 to 20)
#    0.000    0.857    4.286    3.429    4.000    4.286 
#    0.000    0.714    0.000    8.571    0.000    0.000 
#    0.000    0.000    0.000    0.000    0.000    0.000 
#
# Total GULP energy -156273.675105 kJ/mol
# GULP energy per Si atom -5581.202682 kJ/mol
# Density = 2.332313 g / cm^3
# Si number density = 23.376338 Si / 1000 Ang^3
#
#
#
# Elastic Constant Matrix: (Units=GPa)
#
#
# Indices 1 2 3 4 5 6 
#
# 1 79.5344 7.3751 23.9636 0.0000 -6.1105 0.0000
# 2 7.3751 108.4937 39.8669 0.0000 3.9562 0.0000
# 3 23.9636 39.8669 155.9559 0.0000 -7.7927 0.0000
# 4 0.0000 0.0000 0.0000 15.3606 0.0000 12.5751
# 5 -6.1105 3.9562 -7.7927 0.0000 38.1989 0.0000
# 6 0.0000 0.0000 0.0000 12.5751 0.0000 14.8201
#
#
#
# Elastic Compliance Matrix: (Units=1/GPa)
#
#
# Indices 1 2 3 4 5 6 
#
# 1 0.013303 -0.000276 -0.001885 0.000000 0.001772 0.000000
# 2 -0.000276 0.010276 -0.002667 0.000000 -0.001653 0.000000
# 3 -0.001885 -0.002667 0.007458 0.000000 0.001496 0.000000
# 4 0.000000 0.000000 0.000000 0.213198 0.000000 -0.180901
# 5 0.001772 -0.001653 0.001496 0.000000 0.026939 0.000000
# 6 0.000000 0.000000 0.000000 -0.180901 0.000000 0.220973
#
#
# Mechanical properties :
#
#
# Convention : Reuss Voigt Hill
#
# Bulk Modulus (GPa) = 46.77078 54.04391 50.40735
# Shear Modulus (GPa) = 9.82453 31.86115 20.84284
#
# Velocity S-wave (km/s) = 2.05229 3.69584 2.98924
# Velocity P-wave (km/s) = 5.06626 6.43285 5.79002
#
# Compressibility (1/GPa) = 0.02138087
#
# Stress axis : x y z
#
# Youngs Moduli (GPa) = 75.17183 97.31243 134.08012
#
# Poissons Ratio (x) = 0.02689 0.25273
# Poissons Ratio (y) = 0.02077 0.35759
# Poissons Ratio (z) = 0.14169 0.25953
#
# Static dielectric constant tensor:
#      x y z
#    x 1.980650 0.000000 0.164180 
#    y 0.000000 1.844930 0.000000 
#    z 0.164180 0.000000 2.076500 
# 
# From -- ./inp_files/31969.got.cif
#   From: 2010.05.17/outbox.cif.g08.bks.cpg/sg12_16_cif.got.tgz:31969.got - 2010.06.03 13:09:07.
