data_PCOD9214621
_publ_section_title
;
Structure prediction by ZEFSAII (Michael W. Deem and Ramdas Pophale) SiO2 
 PCOD9214621
Probable space group: C 2/M
;
_chemical_formula_sum "Si O2"
_cell_formula_units_Z 40
_cell_length_a 14.180056
_cell_length_b 9.745389
_cell_length_c 13.005311
_cell_angle_alpha 90.000000
_cell_angle_beta 92.030347
_cell_angle_gamma 90.000000
_cell_volume 1796.077749
_symmetry_space_group_name_H-M "C 2/M"
_symmetry_group_IT_number 12
_symmetry_cell_setting 'monoclinic'
loop_
_space_group_symop_operation_xyz
x,y,z
-x,y,-z
-x,-y,-z
x,-y,z
1/2+x,1/2+y,z
1/2-x,1/2+y,-z
1/2-x,1/2-y,-z
1/2+x,1/2-y,z
loop_
_atom_site_type_symbol
_atom_site_label
_atom_site_fract_x
_atom_site_fract_y
_atom_site_fract_z
Si Si1 0.757168 0.273700 0.834556
Si Si2 0.901274 0.150290 0.696098
Si Si3 0.395049 0.349865 0.330804
Si Si4 0.895655 0.345598 0.014631
Si Si5 0.847004 0.664914 0.510210
O O1 0.822716 0.162123 0.780535
O O2 0.699104 0.343811 0.740543
O O3 0.674029 0.225252 0.907092
O O4 0.834285 0.349716 0.907543
O O5 0.889706 0.275066 0.616589
O O6 0.010369 0.156454 0.734493
O O7 0.888346 0.000000 0.645004
O O8 0.396836 0.500000 0.383590
O O9 0.399052 0.226288 0.412127
O O10 0.912079 0.500000 0.053698
O O11 0.000000 0.283789 0.000000
O O12 0.839823 0.500000 0.508394
O O13 0.750000 0.750000 0.500000
#
# Coordination Sequence:
#
# PCOD9214621 Si02
#       5
#     8   8   8   8   8
#     4  11  22  39  66  92 126 173 218 271 330 392
#     4  11  24  42  65  95 133 175 220 272 326 384
#     4  11  24  42  65  95 133 175 220 272 326 384
#     4  10  22  40  62  92 128 166 215 275 332 385
#     4  12  25  42  67  96 132 176 219 267 320 385
#
# _framework density 22.270751000000001
#
# number of rings (size 3 to 8) (size 9 to 14) (size 15 to 20)
#    0.000    1.000    2.000    4.800    0.000    4.800 
#    0.000    0.000    0.000    9.600    0.000    0.000 
#    0.000    0.000    0.000    0.000    0.000    0.000 
#
# Total GULP energy -111514.205893 kJ/mol
# GULP energy per Si atom -5575.710295 kJ/mol
# Density = 2.222006 g / cm^3
# Si number density = 22.270751 Si / 1000 Ang^3
#
#
#
# Elastic Constant Matrix: (Units=GPa)
#
#
# Indices 1 2 3 4 5 6 
#
# 1 184.9077 37.6824 36.9670 0.0000 -21.2086 0.0000
# 2 37.6824 158.2791 36.9323 0.0000 -8.2719 0.0000
# 3 36.9670 36.9323 75.4466 0.0000 -6.3766 0.0000
# 4 0.0000 0.0000 0.0000 2.4204 0.0000 -4.8742
# 5 -21.2086 -8.2719 -6.3766 0.0000 33.0525 0.0000
# 6 0.0000 0.0000 0.0000 -4.8742 0.0000 12.2074
#
#
#
# Elastic Compliance Matrix: (Units=1/GPa)
#
#
# Indices 1 2 3 4 5 6 
#
# 1 0.006463 -0.000775 -0.002494 0.000000 0.003472 0.000000
# 2 -0.000775 0.007267 -0.003117 0.000000 0.000720 0.000000
# 3 -0.002494 -0.003117 0.016063 0.000000 0.000719 0.000000
# 4 0.000000 0.000000 0.000000 2.108695 0.000000 0.841972
# 5 0.003472 0.000720 0.000719 0.000000 0.032801 0.000000
# 6 0.000000 0.000000 0.000000 0.841972 0.000000 0.418105
#
#
# Mechanical properties :
#
#
# Convention : Reuss Voigt Hill
#
# Bulk Modulus (GPa) = 58.74949 71.31077 65.03013
# Shear Modulus (GPa) = 1.91730 30.00619 15.96174
#
# Velocity S-wave (km/s) = 0.92886 3.67459 2.68005
# Velocity P-wave (km/s) = 5.25236 7.07763 6.23218
#
# Compressibility (1/GPa) = 0.01702142
#
# Stress axis : x y z
#
# Youngs Moduli (GPa) = 154.73023 137.60028 62.25601
#
# Poissons Ratio (x) = 0.10669 0.15525
# Poissons Ratio (y) = 0.11997 0.19404
# Poissons Ratio (z) = 0.38585 0.42887
#
# Static dielectric constant tensor:
#      x y z
#    x 1.869690 0.000000 -0.024320 
#    y 0.000000 1.839160 0.000000 
#    z -0.024320 0.000000 1.840940 
# 
# From -- ./inp_files/211362.got.cif
#   From: 2010.05.17/outbox.cif.g08.bks.cpg/sg12_106_cif.got.tgz:211362.got - 2010.06.03 13:09:07.
