data_PCOD9214531
_publ_section_title
;
Structure prediction by ZEFSAII (Michael W. Deem and Ramdas Pophale) SiO2 
 PCOD9214531
Probable space group: C 2/M
;
_chemical_formula_sum "Si O2"
_cell_formula_units_Z 48
_cell_length_a 23.788198
_cell_length_b 22.397807
_cell_length_c 5.507100
_cell_angle_alpha 90.000000
_cell_angle_beta 128.756943
_cell_angle_gamma 90.000000
_cell_volume 2288.116021
_symmetry_space_group_name_H-M "C 2/M"
_symmetry_group_IT_number 12
_symmetry_cell_setting 'monoclinic'
loop_
_space_group_symop_operation_xyz
x,y,z
-x,y,-z
-x,-y,-z
x,-y,z
1/2+x,1/2+y,z
1/2-x,1/2+y,-z
1/2-x,1/2-y,-z
1/2+x,1/2-y,z
loop_
_atom_site_type_symbol
_atom_site_label
_atom_site_fract_x
_atom_site_fract_y
_atom_site_fract_z
Si Si1 0.913324 0.427829 0.766219
Si Si2 0.312024 0.632534 0.181105
Si Si3 0.576904 0.318082 0.145691
Si Si4 0.811094 0.243482 0.867050
Si Si5 0.339231 0.878945 0.066702
Si Si6 0.076115 0.934878 0.843501
O O1 0.903448 0.500000 0.738383
O O2 0.878559 0.401368 0.421315
O O3 0.876842 0.402024 0.917616
O O4 0.000000 0.416023 0.000000
O O5 0.367851 0.671146 0.489878
O O6 0.359121 0.585632 0.156990
O O7 0.282371 0.685895 0.934170
O O8 0.245801 0.602941 0.144763
O O9 0.615000 0.279059 0.048685
O O10 0.500000 0.292198 0.000000
O O11 0.567273 0.384297 0.017027
O O12 0.750000 0.250000 0.500000
O O13 0.831770 0.306937 0.036389
O O14 0.000000 0.936281 0.500000
O O15 0.090881 0.000000 0.987347
#
# Coordination Sequence:
#
# PCOD9214531 Si02
#       6
#     8   8   8   8   8   8
#     4  11  27  52  75 103 144 182 227 298 367 423
#     4  11  24  42  65  98 141 179 223 289 348 403
#     4  11  23  41  65  94 138 185 226 283 349 405
#     4  11  24  43  67  97 141 182 227 291 355 414
#     4  12  25  45  77 107 135 184 239 281 354 438
#     4  10  22  40  61  91 134 185 235 279 330 397
#
# _framework density 20.977958000000001
#
# number of rings (size 3 to 8) (size 9 to 14) (size 15 to 20)
#    0.000    1.000    3.333    2.500    4.667    4.333 
#    3.000    0.000    0.000    0.000    0.000    0.000 
#    0.000    0.000    0.000    0.000    0.000    0.000 
#
# Total GULP energy -133918.449850 kJ/mol
# GULP energy per Si atom -5579.935410 kJ/mol
# Density = 2.093021 g / cm^3
# Si number density = 20.977958 Si / 1000 Ang^3
#
#
#
# Elastic Constant Matrix: (Units=GPa)
#
#
# Indices 1 2 3 4 5 6 
#
# 1 195.0139 58.7308 45.1662 0.0000 5.7308 0.0000
# 2 58.7308 83.3318 25.5331 0.0000 15.6301 0.0000
# 3 45.1662 25.5331 99.9069 0.0000 -0.9533 0.0000
# 4 0.0000 0.0000 0.0000 49.6944 0.0000 -14.5984
# 5 5.7308 15.6301 -0.9533 0.0000 21.9693 0.0000
# 6 0.0000 0.0000 0.0000 -14.5984 0.0000 -2.0798
#
#
#
# Elastic Compliance Matrix: (Units=1/GPa)
#
#
# Indices 1 2 3 4 5 6 
#
# 1 0.006901 -0.004514 -0.001953 0.000000 0.001326 0.000000
# 2 -0.004514 0.018259 -0.002740 0.000000 -0.011932 0.000000
# 3 -0.001953 -0.002740 0.011621 0.000000 0.002963 0.000000
# 4 0.000000 0.000000 0.000000 0.006572 0.000000 -0.046129
# 5 0.001326 -0.011932 0.002963 0.000000 0.053789 0.000000
# 6 0.000000 0.000000 0.000000 -0.046129 0.000000 -0.157029
#
#
# Mechanical properties :
#
#
# Convention : Reuss Voigt Hill
#
# Bulk Modulus (GPa) = 54.44631 70.79033 62.61832
# Shear Modulus (GPa) = -141.43786 30.50495 -55.46646
#
# Velocity S-wave (km/s) = -8.22001 3.81746 -5.14760
# Velocity P-wave (km/s) = 8.00506 7.29719 2.32722
#
# Compressibility (1/GPa) = 0.01836672
#
# Stress axis : x y z
#
# Youngs Moduli (GPa) = 144.91389 54.76797 86.05198
#
# Poissons Ratio (x) = 0.24721 0.16810
# Poissons Ratio (y) = 0.65410 0.23575
# Poissons Ratio (z) = 0.28308 0.15005
#
# Static dielectric constant tensor:
#      x y z
#    x 1.488920 0.000000 -0.052670 
#    y 0.000000 1.749630 0.000000 
#    z -0.052670 0.000000 1.664880 
# 
# From -- ./inp_files/25727.got.cif
#   From: 2010.05.17/outbox.cif.g08.bks.cpg/sg12_13_cif.got.tgz:25727.got - 2010.06.03 13:09:07.
