data_PCOD9214033
_publ_section_title
;
Structure prediction by ZEFSAII (Michael W. Deem and Ramdas Pophale) SiO2 
 PCOD9214033
Probable space group: C 2/M
;
_chemical_formula_sum "Si O2"
_cell_formula_units_Z 48
_cell_length_a 11.492014
_cell_length_b 28.613530
_cell_length_c 14.625837
_cell_angle_alpha 90.000000
_cell_angle_beta 150.532154
_cell_angle_gamma 90.000000
_cell_volume 2365.898326
_symmetry_space_group_name_H-M "C 2/M"
_symmetry_group_IT_number 12
_symmetry_cell_setting 'monoclinic'
loop_
_space_group_symop_operation_xyz
x,y,z
-x,y,-z
-x,-y,-z
x,-y,z
1/2+x,1/2+y,z
1/2-x,1/2+y,-z
1/2-x,1/2-y,-z
1/2+x,1/2-y,z
loop_
_atom_site_type_symbol
_atom_site_label
_atom_site_fract_x
_atom_site_fract_y
_atom_site_fract_z
Si Si1 0.786973 0.000000 0.183017
Si Si2 0.473247 0.709240 0.369318
Si Si3 0.565103 0.815895 0.435382
Si Si4 0.395719 0.074455 0.065261
Si Si5 0.000000 0.655310 0.000000
Si Si6 0.268218 0.000000 0.618398
Si Si7 0.249446 0.401028 0.836525
Si Si8 0.608636 0.000000 0.673936
O O1 0.500000 0.000000 0.000000
O O2 0.793431 0.046309 0.125923
O O3 0.994569 0.000000 0.399791
O O4 0.500000 0.703366 0.500000
O O5 0.460710 0.764724 0.340371
O O6 0.680419 0.688313 0.444218
O O7 0.230878 0.685549 0.174122
O O8 0.500000 0.818457 0.500000
O O9 0.452482 0.864115 0.323889
O O10 0.470882 0.120570 0.065245
O O11 0.272375 0.084791 0.074426
O O12 0.627345 0.043992 0.252992
O O13 0.412897 0.000000 0.621279
O O14 0.241635 0.450349 0.777066
O O15 0.500000 0.376181 0.000000
O O16 0.500000 0.000000 0.500000
#
# Coordination Sequence:
#
# PCOD9214033 Si02
#       8
#     4   8   8   8   4   4   8   4
#     4  11  22  43  64  91 124 177 226 266 326 398
#     4  10  24  46  70  99 139 170 227 281 337 403
#     4  10  23  46  68 100 133 178 221 279 339 402
#     4  10  24  42  57 104 125 169 226 264 334 391
#     4  12  24  41  72  96 132 175 218 278 340 404
#     4   9  23  42  64  82 136 170 210 280 318 386
#     4  11  24  40  65  95 134 169 218 275 323 398
#     4  10  22  39  61  92 122 175 211 262 335 380
#
# _framework density 20.288277000000001
#
# number of rings (size 3 to 8) (size 9 to 14) (size 15 to 20)
#    0.000    1.667    0.833    2.250    5.833    5.333 
#    3.000    3.333    0.000    0.000    0.000    0.000 
#    0.000    0.000    0.000    0.000    0.000    0.000 
#
# Total GULP energy -133612.108069 kJ/mol
# GULP energy per Si atom -5567.171170 kJ/mol
# Density = 2.024210 g / cm^3
# Si number density = 20.288277 Si / 1000 Ang^3
#
#
#
# Elastic Constant Matrix: (Units=GPa)
#
#
# Indices 1 2 3 4 5 6 
#
# 1 89.3701 33.1819 61.9687 0.0000 -2.2667 0.0000
# 2 33.1819 114.7275 78.5922 0.0000 8.5021 0.0000
# 3 61.9687 78.5922 140.7232 0.0000 -3.0170 -0.0001
# 4 0.0000 0.0000 0.0000 -10.0401 0.0000 10.6686
# 5 -2.2667 8.5021 -3.0170 0.0000 33.6158 0.0000
# 6 0.0000 0.0000 -0.0001 10.6686 0.0000 7.6977
#
#
#
# Elastic Compliance Matrix: (Units=1/GPa)
#
#
# Indices 1 2 3 4 5 6 
#
# 1 0.016120 0.000272 -0.007242 0.000000 0.000368 0.000000
# 2 0.000272 0.014767 -0.008463 0.000000 -0.004476 0.000000
# 3 -0.007242 -0.008463 0.015086 0.000000 0.003006 0.000000
# 4 0.000000 0.000000 0.000000 -0.040280 0.000000 0.055826
# 5 0.000368 -0.004476 0.003006 0.000000 0.031175 0.000000
# 6 0.000000 0.000000 0.000000 0.055826 0.000000 0.052537
#
#
# Mechanical properties :
#
#
# Convention : Reuss Voigt Hill
#
# Bulk Modulus (GPa) = 66.19887 76.92295 71.56091
# Shear Modulus (GPa) = 39.90252 17.65988 28.78120
#
# Velocity S-wave (km/s) = 4.43965 2.95354 3.77053
# Velocity P-wave (km/s) = 7.67988 7.04475 7.36916
#
# Compressibility (1/GPa) = 0.01510600
#
# Stress axis : x y z
#
# Youngs Moduli (GPa) = 62.03612 67.72059 66.28641
#
# Poissons Ratio (x) = -0.01840 0.48007
# Poissons Ratio (y) = -0.01686 0.56095
# Poissons Ratio (z) = 0.44928 0.57309
#
# Static dielectric constant tensor:
#      x y z
#    x 1.865210 0.000000 0.044100 
#    y 0.000000 1.730750 0.000000 
#    z 0.044100 0.000000 1.717560 
# 
# From -- ./inp_files/209507.got.cif
#   From: 2010.05.17/outbox.cif.g08.bks.cpg/sg12_105_cif.got.tgz:209507.got - 2010.06.03 13:09:07.
