data_PCOD9214655
_publ_section_title
;
Structure prediction by ZEFSAII (Michael W. Deem and Ramdas Pophale) SiO2 
 PCOD9214655
Probable space group: C 2/M
;
_chemical_formula_sum "Si O2"
_cell_formula_units_Z 42
_cell_length_a 9.833624
_cell_length_b 9.068697
_cell_length_c 24.455988
_cell_angle_alpha 90.000000
_cell_angle_beta 113.515644
_cell_angle_gamma 90.000000
_cell_volume 1999.815407
_symmetry_space_group_name_H-M "C 2/M"
_symmetry_group_IT_number 12
_symmetry_cell_setting 'monoclinic'
loop_
_space_group_symop_operation_xyz
x,y,z
-x,y,-z
-x,-y,-z
x,-y,z
1/2+x,1/2+y,z
1/2-x,1/2+y,-z
1/2-x,1/2-y,-z
1/2+x,1/2-y,z
loop_
_atom_site_type_symbol
_atom_site_label
_atom_site_fract_x
_atom_site_fract_y
_atom_site_fract_z
Si Si1 0.722900 0.326213 0.937722
Si Si2 0.149561 0.833717 0.440164
Si Si3 0.641748 0.825420 0.323794
Si Si4 0.500000 0.500000 0.500000
Si Si5 0.921215 0.673817 0.866413
Si Si6 0.697159 0.825433 0.746890
O O1 0.698639 0.500000 0.941689
O O2 0.859950 0.308148 0.918297
O O3 0.578060 0.253977 0.887382
O O4 0.750000 0.250000 0.000000
O O5 0.250000 0.750000 0.500000
O O6 0.996922 0.873248 0.548192
O O7 0.134567 0.742541 0.383074
O O8 0.210663 0.000000 0.438930
O O9 0.477741 0.803611 0.271659
O O10 0.758584 0.742003 0.304610
O O11 0.671455 0.000000 0.330818
O O12 0.936557 0.500000 0.857310
O O13 0.799365 0.743711 0.807114
O O14 0.726884 0.000000 0.752386
#
# Coordination Sequence:
#
# PCOD9214655 Si02
#       6
#     8   8   8   2   8   8
#     4  11  24  41  65  96 129 168 212 260 313 371
#     4  10  22  40  63  89 121 161 201 253 311 368
#     4  11  25  42  65  94 127 164 211 260 312 376
#     4   8  24  40  62  90 124 160 202 252 318 366
#     4  11  24  42  64  92 129 168 210 261 314 371
#     4  11  25  43  64  95 125 166 212 257 313 374
#
# _framework density 21.001939
#
# number of rings (size 3 to 8) (size 9 to 14) (size 15 to 20)
#    0.571    0.762    0.000    4.571    2.667   11.429 
#    0.000    0.952    0.000    0.000    0.000    0.000 
#    0.000    0.000    0.000    0.000    0.000    0.000 
#
# Total GULP energy -117107.985191 kJ/mol
# GULP energy per Si atom -5576.570723 kJ/mol
# Density = 2.095414 g / cm^3
# Si number density = 21.001939 Si / 1000 Ang^3
#
#
#
# Elastic Constant Matrix: (Units=GPa)
#
#
# Indices 1 2 3 4 5 6 
#
# 1 53.6147 27.3306 -13.7441 0.0000 -1.5326 0.0000
# 2 27.3306 86.1973 7.4144 0.0000 -5.2765 0.0000
# 3 -13.7441 7.4144 71.0950 0.0000 -1.8197 0.0000
# 4 0.0000 0.0000 0.0000 49.9621 0.0000 -2.0238
# 5 -1.5326 -5.2765 -1.8197 0.0000 31.2373 0.0000
# 6 0.0000 0.0000 0.0000 -2.0238 0.0000 26.0411
#
#
#
# Elastic Compliance Matrix: (Units=1/GPa)
#
#
# Indices 1 2 3 4 5 6 
#
# 1 0.024230 -0.008151 0.005538 0.000000 0.000135 0.000000
# 2 -0.008151 0.014563 -0.003046 0.000000 0.001883 0.000000
# 3 0.005538 -0.003046 0.015471 0.000000 0.000658 0.000000
# 4 0.000000 0.000000 0.000000 0.020078 0.000000 0.001560
# 5 0.000135 0.001883 0.000658 0.000000 0.032376 0.000000
# 6 0.000000 0.000000 0.000000 0.001560 0.000000 0.038522
#
#
# Mechanical properties :
#
#
# Convention : Reuss Voigt Hill
#
# Bulk Modulus (GPa) = 23.28566 28.10099 25.69333
# Shear Modulus (GPa) = 29.26140 34.10851 31.68495
#
# Velocity S-wave (km/s) = 3.73670 4.03434 3.88837
# Velocity P-wave (km/s) = 5.45241 5.92541 5.69382
#
# Compressibility (1/GPa) = 0.04294488
#
# Stress axis : x y z
#
# Youngs Moduli (GPa) = 41.27137 68.66762 64.63804
#
# Poissons Ratio (x) = 0.55969 -0.35794
# Poissons Ratio (y) = 0.33639 0.19690
# Poissons Ratio (z) = -0.22854 0.20918
#
# Static dielectric constant tensor:
#      x y z
#    x 1.825420 0.000000 0.014440 
#    y 0.000000 1.696330 0.000000 
#    z 0.014440 0.000000 1.741180 
# 
# From -- ./inp_files/303683.got.cif
#   From: 2010.05.17/outbox.cif.g08.bks.cpg/sg12_152_cif.got.tgz:303683.got - 2010.06.03 13:09:07.
