data_PCOD9214224
_publ_section_title
;
Structure prediction by ZEFSAII (Michael W. Deem and Ramdas Pophale) SiO2 
 PCOD9214224
Probable space group: C 2/M
;
_chemical_formula_sum "Si O2"
_cell_formula_units_Z 32
_cell_length_a 13.411074
_cell_length_b 11.466700
_cell_length_c 13.805089
_cell_angle_alpha 90.000000
_cell_angle_beta 41.191922
_cell_angle_gamma 90.000000
_cell_volume 1398.144252
_symmetry_space_group_name_H-M "C 2/M"
_symmetry_group_IT_number 12
_symmetry_cell_setting 'monoclinic'
loop_
_space_group_symop_operation_xyz
x,y,z
-x,y,-z
-x,-y,-z
x,-y,z
1/2+x,1/2+y,z
1/2-x,1/2+y,-z
1/2-x,1/2-y,-z
1/2+x,1/2-y,z
loop_
_atom_site_type_symbol
_atom_site_label
_atom_site_fract_x
_atom_site_fract_y
_atom_site_fract_z
Si Si1 0.662567 0.868810 0.601663
Si Si2 0.108832 0.213694 0.168707
Si Si3 0.666817 0.677490 0.335377
Si Si4 0.604871 0.368161 0.839613
O O1 0.750000 0.750000 0.500000
O O2 0.488544 0.827318 0.727443
O O3 0.719112 0.879363 0.671500
O O4 0.685979 0.000000 0.541072
O O5 0.159049 0.145425 0.228283
O O6 0.991537 0.142993 0.187741
O O7 0.250000 0.250000 0.000000
O O8 0.500000 0.666153 0.500000
O O9 0.734560 0.807245 0.285648
O O10 0.629650 0.500000 0.849287
O O11 0.500000 0.310928 0.000000
#
# Coordination Sequence:
#
# PCOD9214224 Si02
#       4
#     8   8   8   8
#     4  11  26  47  71 106 145 185 242 298 357 430
#     4  11  23  44  68  96 141 186 234 285 361 423
#     4  11  23  44  64  98 134 182 230 288 351 420
#     4  10  22  39  64  97 131 174 231 283 340 415
#
# _framework density 22.887481000000001
#
# number of rings (size 3 to 8) (size 9 to 14) (size 15 to 20)
#    0.000    1.250    5.000    0.000    0.000    8.000 
#    0.000    1.250    0.000    0.000    0.000    0.000 
#    0.000    0.000    0.000    0.000    0.000    0.000 
#
# Total GULP energy -89232.609602 kJ/mol
# GULP energy per Si atom -5577.038100 kJ/mol
# Density = 2.283539 g / cm^3
# Si number density = 22.887481 Si / 1000 Ang^3
#
#
#
# Elastic Constant Matrix: (Units=GPa)
#
#
# Indices 1 2 3 4 5 6 
#
# 1 128.2012 1.1297 11.1772 0.0000 19.8594 0.0000
# 2 1.1297 123.9989 28.1608 0.0000 -5.2243 0.0000
# 3 11.1772 28.1608 104.9916 0.0000 3.1191 0.0000
# 4 0.0000 0.0000 0.0000 11.4131 0.0000 5.0209
# 5 19.8594 -5.2243 3.1191 0.0000 46.3759 0.0000
# 6 0.0000 0.0000 0.0000 5.0209 0.0000 -23.0410
#
#
#
# Elastic Compliance Matrix: (Units=1/GPa)
#
#
# Indices 1 2 3 4 5 6 
#
# 1 0.008420 -0.000050 -0.000777 0.000000 -0.003559 0.000000
# 2 -0.000050 0.008647 -0.002348 0.000000 0.001153 0.000000
# 3 -0.000777 -0.002348 0.010256 0.000000 -0.000621 0.000000
# 4 0.000000 0.000000 0.000000 0.079954 0.000000 0.017423
# 5 -0.003559 0.001153 -0.000621 0.000000 0.023259 0.000000
# 6 0.000000 0.000000 0.000000 0.017423 0.000000 -0.039604
#
#
# Mechanical properties :
#
#
# Convention : Reuss Voigt Hill
#
# Bulk Modulus (GPa) = 47.68439 48.68081 48.18260
# Shear Modulus (GPa) = 47.95157 28.06455 38.00806
#
# Velocity S-wave (km/s) = 4.58219 3.50551 4.07953
# Velocity P-wave (km/s) = 6.99105 6.14008 6.57934
#
# Compressibility (1/GPa) = 0.02097122
#
# Stress axis : x y z
#
# Youngs Moduli (GPa) = 118.76840 115.64796 97.50769
#
# Poissons Ratio (x) = 0.00580 0.07578
# Poissons Ratio (y) = 0.00596 0.22897
# Poissons Ratio (z) = 0.09230 0.27157
#
# Static dielectric constant tensor:
#      x y z
#    x 1.861140 0.000000 0.044790 
#    y 0.000000 1.923660 0.000000 
#    z 0.044790 0.000000 1.916590 
# 
# From -- ./inp_files/212315.got.cif
#   From: 2010.05.17/outbox.cif.g08.bks.cpg/sg12_107_cif.got.tgz:212315.got - 2010.06.03 13:09:07.
