data_PCOD9214074
_publ_section_title
;
Structure prediction by ZEFSAII (Michael W. Deem and Ramdas Pophale) SiO2 
 PCOD9214074
Probable space group: C 2/M
;
_chemical_formula_sum "Si O2"
_cell_formula_units_Z 56
_cell_length_a 22.506862
_cell_length_b 9.089075
_cell_length_c 14.691149
_cell_angle_alpha 90.000000
_cell_angle_beta 67.936287
_cell_angle_gamma 90.000000
_cell_volume 2785.228483
_symmetry_space_group_name_H-M "C 2/M"
_symmetry_group_IT_number 12
_symmetry_cell_setting 'monoclinic'
loop_
_space_group_symop_operation_xyz
x,y,z
-x,y,-z
-x,-y,-z
x,-y,z
1/2+x,1/2+y,z
1/2-x,1/2+y,-z
1/2-x,1/2-y,-z
1/2+x,1/2-y,z
loop_
_atom_site_type_symbol
_atom_site_label
_atom_site_fract_x
_atom_site_fract_y
_atom_site_fract_z
Si Si1 0.046757 0.677728 0.557773
Si Si2 0.750255 0.669910 0.769238
Si Si3 0.426976 0.329202 0.952102
Si Si4 0.311445 0.172514 0.920786
Si Si5 0.198230 0.324736 0.462519
Si Si6 0.044308 0.170335 0.745325
Si Si7 0.119777 0.326467 0.846744
O O1 0.044469 0.500000 0.565684
O O2 0.122742 0.720443 0.508601
O O3 0.023434 0.751612 0.664656
O O4 0.000000 0.718737 0.500000
O O5 0.726405 0.500000 0.785370
O O6 0.803394 0.681667 0.816842
O O7 0.777741 0.700235 0.654205
O O8 0.691944 0.776763 0.826396
O O9 0.414809 0.500000 0.981615
O O10 0.371673 0.259728 0.922664
O O11 0.489418 0.322516 0.853535
O O12 0.423940 0.240110 0.047798
O O13 0.314565 0.000000 0.944369
O O14 0.250000 0.250000 0.000000
O O15 0.199488 0.500000 0.479947
O O16 0.250000 0.250000 0.500000
O O17 0.102619 0.255840 0.759272
O O18 0.060374 0.000000 0.719433
O O19 0.112544 0.500000 0.847357
#
# Coordination Sequence:
#
# PCOD9214074 Si02
#       7
#     8   8   8   8   8   8   8
#     4  10  23  43  68  95 127 164 212 271 322 377
#     4  10  22  39  62  89 125 164 202 249 311 375
#     4  11  24  41  61  88 125 166 207 254 309 371
#     4  11  22  37  61  90 123 164 205 254 307 367
#     4  10  22  41  64  94 124 163 210 259 319 375
#     4  11  25  43  64  89 124 166 207 256 314 374
#     4  12  24  39  63  94 125 161 207 256 309 375
#
# _framework density 20.106072000000001
#
# number of rings (size 3 to 8) (size 9 to 14) (size 15 to 20)
#    0.000    1.286    1.429    3.857    2.000    8.286 
#    0.000    0.000    0.000    0.000    0.000    0.000 
#    0.000    0.000    0.000    0.000    0.000    0.000 
#
# Total GULP energy -156463.138977 kJ/mol
# GULP energy per Si atom -5587.969249 kJ/mol
# Density = 2.006031 g / cm^3
# Si number density = 20.106072 Si / 1000 Ang^3
#
#
#
# Elastic Constant Matrix: (Units=GPa)
#
#
# Indices 1 2 3 4 5 6 
#
# 1 115.7291 46.1659 37.0923 0.0000 21.8738 0.0000
# 2 46.1659 80.5599 38.7963 0.0000 7.7253 0.0000
# 3 37.0923 38.7963 86.5767 0.0000 24.0976 0.0000
# 4 0.0000 0.0000 0.0000 27.8229 0.0000 4.6037
# 5 21.8738 7.7253 24.0976 0.0000 38.4468 0.0000
# 6 0.0000 0.0000 0.0000 4.6037 0.0000 21.1196
#
#
#
# Elastic Compliance Matrix: (Units=1/GPa)
#
#
# Indices 1 2 3 4 5 6 
#
# 1 0.012394 -0.006044 -0.001183 0.000000 -0.005095 0.000000
# 2 -0.006044 0.018852 -0.006978 0.000000 0.004025 0.000000
# 3 -0.001183 -0.006978 0.017694 0.000000 -0.009014 0.000000
# 4 0.000000 0.000000 0.000000 0.037286 0.000000 -0.008128
# 5 -0.005095 0.004025 -0.009014 0.000000 0.033750 0.000000
# 6 0.000000 0.000000 0.000000 -0.008128 0.000000 0.049121
#
#
# Mechanical properties :
#
#
# Convention : Reuss Voigt Hill
#
# Bulk Modulus (GPa) = 48.71489 58.55273 53.63381
# Shear Modulus (GPa) = 24.46760 28.19861 26.33311
#
# Velocity S-wave (km/s) = 3.49223 3.74905 3.62292
# Velocity P-wave (km/s) = 6.36730 6.92283 6.65087
#
# Compressibility (1/GPa) = 0.02052760
#
# Stress axis : x y z
#
# Youngs Moduli (GPa) = 80.68184 53.04609 56.51754
#
# Poissons Ratio (x) = 0.32062 0.06688
# Poissons Ratio (y) = 0.48766 0.39440
# Poissons Ratio (z) = 0.09548 0.37017
#
# Static dielectric constant tensor:
#      x y z
#    x 1.682780 0.000000 0.004550 
#    y 0.000000 1.683330 0.000000 
#    z 0.004550 0.000000 1.706350 
# 
# From -- ./inp_files/238235.got.cif
#   From: 2010.05.17/outbox.cif.g08.bks.cpg/sg12_120_cif.got.tgz:238235.got - 2010.06.03 13:09:07.
