data_PCOD9214310
_publ_section_title
;
Structure prediction by ZEFSAII (Michael W. Deem and Ramdas Pophale) SiO2 
 PCOD9214310
Probable space group: C 2/M
;
_chemical_formula_sum "Si O2"
_cell_formula_units_Z 42
_cell_length_a 5.589611
_cell_length_b 28.578322
_cell_length_c 13.335707
_cell_angle_alpha 90.000000
_cell_angle_beta 66.090440
_cell_angle_gamma 90.000000
_cell_volume 1947.462413
_symmetry_space_group_name_H-M "C 2/M"
_symmetry_group_IT_number 12
_symmetry_cell_setting 'monoclinic'
loop_
_space_group_symop_operation_xyz
x,y,z
-x,y,-z
-x,-y,-z
x,-y,z
1/2+x,1/2+y,z
1/2-x,1/2+y,-z
1/2-x,1/2-y,-z
1/2+x,1/2-y,z
loop_
_atom_site_type_symbol
_atom_site_label
_atom_site_fract_x
_atom_site_fract_y
_atom_site_fract_z
Si Si1 0.562838 0.221478 0.794204
Si Si2 0.988069 0.946584 0.316899
Si Si3 0.500000 0.088281 0.500000
Si Si4 0.760158 0.860426 0.619367
Si Si5 0.000000 0.661945 0.000000
Si Si6 0.500000 0.000000 0.000000
Si Si7 0.104939 0.921072 0.093279
O O1 0.310201 0.247108 0.788884
O O2 0.683377 0.184418 0.695614
O O3 0.462349 0.193413 0.908775
O O4 0.176201 0.904615 0.320076
O O5 0.905570 0.931126 0.217497
O O6 0.750832 0.942664 0.435768
O O7 0.082068 0.000000 0.305301
O O8 0.473344 0.122339 0.410583
O O9 0.000000 0.852584 0.500000
O O10 0.746922 0.628886 0.062595
O O11 0.325412 0.041135 0.081561
O O12 0.000000 0.932942 0.000000
#
# Coordination Sequence:
#
# PCOD9214310 Si02
#       7
#     8   8   4   8   4   2   8
#     4  12  29  48  78 110 144 190 243 304 377 441
#     4  11  23  43  68 104 142 187 239 293 358 436
#     4  10  25  42  70 100 142 188 236 298 367 422
#     4  10  25  47  70 100 144 183 243 303 361 434
#     4  11  26  45  70 106 144 184 233 300 365 446
#     4  10  22  40  52 108 130 190 234 294 348 432
#     4  11  24  40  70  96 146 186 240 291 363 428
#
# _framework density 21.566527000000001
#
# number of rings (size 3 to 8) (size 9 to 14) (size 15 to 20)
#    0.000    1.143    2.857    1.143   10.667    4.952 
#    0.000    0.000    0.000    0.000    0.000    0.000 
#    0.000    0.000    0.000    0.000    0.000    0.000 
#
# Total GULP energy -116943.828209 kJ/mol
# GULP energy per Si atom -5568.753724 kJ/mol
# Density = 2.151744 g / cm^3
# Si number density = 21.566527 Si / 1000 Ang^3
#
#
#
# Elastic Constant Matrix: (Units=GPa)
#
#
# Indices 1 2 3 4 5 6 
#
# 1 41.4069 44.3518 13.4205 0.0000 5.0294 0.0000
# 2 44.3518 150.2442 58.1558 0.0000 6.5543 0.0000
# 3 13.4205 58.1558 102.5741 0.0000 13.7752 0.0000
# 4 0.0000 0.0000 0.0000 28.1207 0.0000 4.3190
# 5 5.0294 6.5543 13.7752 0.0000 36.3191 0.0000
# 6 0.0000 0.0000 0.0000 4.3190 0.0000 19.5394
#
#
#
# Elastic Compliance Matrix: (Units=1/GPa)
#
#
# Indices 1 2 3 4 5 6 
#
# 1 0.036025 -0.011328 0.002217 0.000000 -0.003785 0.000000
# 2 -0.011328 0.012092 -0.005575 0.000000 0.001501 0.000000
# 3 0.002217 -0.005575 0.013198 0.000000 -0.004307 0.000000
# 4 0.000000 0.000000 0.000000 0.036811 0.000000 -0.008137
# 5 -0.003785 0.001501 -0.004307 0.000000 0.029420 0.000000
# 6 0.000000 0.000000 0.000000 -0.008137 0.000000 0.052977
#
#
# Mechanical properties :
#
#
# Convention : Reuss Voigt Hill
#
# Bulk Modulus (GPa) = 31.30459 58.45348 44.87904
# Shear Modulus (GPa) = 22.67125 28.68232 25.67678
#
# Velocity S-wave (km/s) = 3.24578 3.65080 3.45423
# Velocity P-wave (km/s) = 5.34730 6.70326 6.06331
#
# Compressibility (1/GPa) = 0.03194420
#
# Stress axis : x y z
#
# Youngs Moduli (GPa) = 27.75853 82.69689 75.76681
#
# Poissons Ratio (x) = 0.93676 -0.16800
# Poissons Ratio (y) = 0.31444 0.42243
# Poissons Ratio (z) = -0.06155 0.46107
#
# Static dielectric constant tensor:
#      x y z
#    x 1.865560 0.000000 -0.015090 
#    y 0.000000 1.739320 0.000000 
#    z -0.015090 0.000000 1.903470 
# 
# From -- ./inp_files/192051.got.cif
#   From: 2010.05.17/outbox.cif.g08.bks.cpg/sg12_97_cif.got.tgz:192051.got - 2010.06.03 13:09:07.
