data_PCOD9214087
_publ_section_title
;
Structure prediction by ZEFSAII (Michael W. Deem and Ramdas Pophale) SiO2 
 PCOD9214087
Probable space group: C 2/M
;
_chemical_formula_sum "Si O2"
_cell_formula_units_Z 56
_cell_length_a 25.256706
_cell_length_b 17.112928
_cell_length_c 22.741860
_cell_angle_alpha 90.000000
_cell_angle_beta 162.536779
_cell_angle_gamma 90.000000
_cell_volume 2949.739404
_symmetry_space_group_name_H-M "C 2/M"
_symmetry_group_IT_number 12
_symmetry_cell_setting 'monoclinic'
loop_
_space_group_symop_operation_xyz
x,y,z
-x,y,-z
-x,-y,-z
x,-y,z
1/2+x,1/2+y,z
1/2-x,1/2+y,-z
1/2-x,1/2-y,-z
1/2+x,1/2-y,z
loop_
_atom_site_type_symbol
_atom_site_label
_atom_site_fract_x
_atom_site_fract_y
_atom_site_fract_z
Si Si1 0.264688 0.000000 0.827956
Si Si2 0.350355 0.667657 0.115093
Si Si3 0.203782 0.586227 0.728223
Si Si4 0.135645 0.177670 0.002703
Si Si5 0.140238 0.787306 0.194318
Si Si6 0.852152 0.000000 0.426186
Si Si7 0.891811 0.358395 0.040833
Si Si8 0.709583 0.657655 0.567799
O O1 0.262429 0.000000 0.754962
O O2 0.058619 0.000000 0.627923
O O3 0.351798 0.922828 0.948967
O O4 0.383593 0.644242 0.082929
O O5 0.538479 0.673971 0.346805
O O6 0.250000 0.750000 0.000000
O O7 0.215818 0.619224 0.014090
O O8 0.287223 0.500000 0.815735
O O9 0.279413 0.644413 0.759532
O O10 0.000000 0.578748 0.500000
O O11 0.226542 0.627418 0.815015
O O12 0.179187 0.270877 0.049203
O O13 0.960671 0.175032 0.857237
O O14 0.267751 0.723672 0.357951
O O15 0.000000 0.748318 0.000000
O O16 0.814902 0.924054 0.425314
O O17 0.103553 0.346900 0.269404
#
# Coordination Sequence:
#
# PCOD9214087 Si02
#       8
#     4   8   8   8   8   4   8   8
#     4  11  23  41  61  96 133 177 216 258 321 377
#     4  10  22  41  63  91 125 166 210 258 309 371
#     4  10  22  39  62  91 122 152 197 259 321 374
#     4   9  21  40  62  92 115 164 201 254 315 370
#     4   9  21  38  63  93 122 156 209 257 318 376
#     4  11  25  37  65  94 133 177 216 256 325 377
#     4  10  22  40  63  90 133 165 213 259 306 368
#     4  11  23  41  63  96 128 170 212 262 312 377
#
# _framework density 18.984726999999999
#
# number of rings (size 3 to 8) (size 9 to 14) (size 15 to 20)
#    0.000    2.000    1.429    0.429   10.000    8.286 
#    2.571    0.000    0.000    0.000    0.000    0.000 
#    0.000    0.000    0.000    0.000    0.000    0.000 
#
# Total GULP energy -156068.003427 kJ/mol
# GULP energy per Si atom -5573.857265 kJ/mol
# Density = 1.894152 g / cm^3
# Si number density = 18.984727 Si / 1000 Ang^3
#
#
#
# Elastic Constant Matrix: (Units=GPa)
#
#
# Indices 1 2 3 4 5 6 
#
# 1 123.9744 38.5542 67.8775 0.0023 -27.8054 0.0019
# 2 38.5542 98.4010 58.7217 0.0020 -23.5471 0.0013
# 3 67.8775 58.7217 131.6967 -0.0042 -18.4419 -0.0021
# 4 0.0023 0.0020 -0.0042 28.4345 0.0001 -3.0719
# 5 -27.8054 -23.5471 -18.4419 0.0001 27.8694 0.0001
# 6 0.0019 0.0013 -0.0021 -3.0719 0.0001 16.2115
#
#
#
# Elastic Compliance Matrix: (Units=1/GPa)
#
#
# Indices 1 2 3 4 5 6 
#
# 1 0.013224 0.000589 -0.005688 -0.000002 0.009927 -0.000003
# 2 0.000589 0.015917 -0.005990 -0.000002 0.010072 -0.000003
# 3 -0.005688 -0.005990 0.012886 0.000003 -0.002209 0.000003
# 4 -0.000002 -0.000002 0.000003 0.035904 -0.000002 0.006803
# 5 0.009927 0.010072 -0.002209 -0.000002 0.052834 -0.000003
# 6 -0.000003 -0.000003 0.000003 0.006803 -0.000003 0.062974
#
#
# Mechanical properties :
#
#
# Convention : Reuss Voigt Hill
#
# Bulk Modulus (GPa) = 50.38280 76.04213 63.21246
# Shear Modulus (GPa) = 22.46861 27.09765 24.78313
#
# Velocity S-wave (km/s) = 3.44395 3.78211 3.61699
# Velocity P-wave (km/s) = 6.51234 7.69505 7.12827
#
# Compressibility (1/GPa) = 0.01984804
#
# Stress axis : x y z
#
# Youngs Moduli (GPa) = 75.62114 62.82762 77.60086
#
# Poissons Ratio (x) = -0.03699 0.44140
# Poissons Ratio (y) = -0.04452 0.46483
# Poissons Ratio (z) = 0.43014 0.37634
#
# Static dielectric constant tensor:
#      x y z
#    x 1.702900 0.000000 0.024520 
#    y 0.000000 1.683500 0.000000 
#    z 0.024520 0.000000 1.676480 
# 
# From -- ./inp_files/326054.got.cif
#   From: 2010.05.17/outbox.cif.g08.bks.cpg/sg12_164_cif.got.tgz:326054.got - 2010.06.03 13:09:07.
