data_PCOD9214696
_publ_section_title
;
Structure prediction by ZEFSAII (Michael W. Deem and Ramdas Pophale) SiO2 
 PCOD9214696
Probable space group: C 2/M
;
_chemical_formula_sum "Si O2"
_cell_formula_units_Z 64
_cell_length_a 9.132817
_cell_length_b 15.567956
_cell_length_c 32.294801
_cell_angle_alpha 90.000000
_cell_angle_beta 137.001688
_cell_angle_gamma 90.000000
_cell_volume 3131.400185
_symmetry_space_group_name_H-M "C 2/M"
_symmetry_group_IT_number 12
_symmetry_cell_setting 'monoclinic'
loop_
_space_group_symop_operation_xyz
x,y,z
-x,y,-z
-x,-y,-z
x,-y,z
1/2+x,1/2+y,z
1/2-x,1/2+y,-z
1/2-x,1/2-y,-z
1/2+x,1/2-y,z
loop_
_atom_site_type_symbol
_atom_site_label
_atom_site_fract_x
_atom_site_fract_y
_atom_site_fract_z
Si Si1 0.635734 0.674865 0.611447
Si Si2 0.307419 0.592492 0.755748
Si Si3 0.086977 0.404395 0.261687
Si Si4 0.507576 0.761791 0.824374
Si Si5 0.026199 0.754591 0.092064
Si Si6 0.680381 0.101906 0.001509
Si Si7 0.673557 0.901704 0.502830
Si Si8 0.493001 0.146580 0.378675
O O1 0.724365 0.614844 0.666568
O O2 0.395669 0.649469 0.549004
O O3 0.623728 0.768826 0.628524
O O4 0.802034 0.668998 0.607872
O O5 0.415478 0.500000 0.781482
O O6 0.464836 0.671381 0.793523
O O7 0.129148 0.599565 0.755241
O O8 0.173287 0.598793 0.685554
O O9 0.108752 0.500000 0.249234
O O10 0.073332 0.335633 0.222574
O O11 0.392179 0.759142 0.844489
O O12 0.756592 0.770806 0.888259
O O13 0.911441 0.667355 0.052616
O O14 0.882345 0.840936 0.059227
O O15 0.724016 0.000000 0.000074
O O16 0.500000 0.100245 0.000000
O O17 0.500000 0.866532 0.500000
O O18 0.574578 0.900349 0.436561
O O19 0.720208 0.000000 0.524682
#
# Coordination Sequence:
#
# PCOD9214696 Si02
#       8
#     8   8   8   8   8   8   8   8
#     4  11  22  39  64  88 121 162 212 262 324 390
#     4  10  22  40  64  92 125 171 217 260 316 386
#     4  10  22  40  63  92 127 169 213 264 322 379
#     4  12  22  41  65  94 135 166 213 262 312 374
#     4  11  24  40  67 100 130 169 210 263 311 364
#     4  10  22  43  69  97 131 172 213 256 309 369
#     4  11  24  41  60  87 121 158 208 271 330 388
#     4  11  22  39  64  89 121 161 212 265 322 389
#
# _framework density 20.438141999999999
#
# number of rings (size 3 to 8) (size 9 to 14) (size 15 to 20)
#    0.000    1.250    3.750    2.250    0.000    4.000 
#    2.250    0.625    0.000    0.000    0.000    0.000 
#    0.000    0.000    0.000    0.000    0.000    0.000 
#
# Total GULP energy -178659.974118 kJ/mol
# GULP energy per Si atom -5583.124191 kJ/mol
# Density = 2.039162 g / cm^3
# Si number density = 20.438142 Si / 1000 Ang^3
#
#
#
# Elastic Constant Matrix: (Units=GPa)
#
#
# Indices 1 2 3 4 5 6 
#
# 1 54.3306 23.9325 17.2582 0.0000 -1.7119 0.0000
# 2 23.9325 153.1870 40.9531 0.0000 -6.0926 0.0000
# 3 17.2582 40.9531 75.1844 0.0000 -13.2938 0.0000
# 4 0.0000 0.0000 0.0000 37.8365 0.0000 -14.6251
# 5 -1.7119 -6.0926 -13.2938 0.0000 31.2859 0.0000
# 6 0.0000 0.0000 0.0000 -14.6251 0.0000 29.8788
#
#
#
# Elastic Compliance Matrix: (Units=1/GPa)
#
#
# Indices 1 2 3 4 5 6 
#
# 1 0.020532 -0.002272 -0.003627 0.000000 -0.000860 0.000000
# 2 -0.002272 0.007895 -0.003816 0.000000 -0.000208 0.000000
# 3 -0.003627 -0.003816 0.017349 0.000000 0.006430 0.000000
# 4 0.000000 0.000000 0.000000 0.032597 0.000000 0.015956
# 5 -0.000860 -0.000208 0.006430 0.000000 0.034608 0.000000
# 6 0.000000 0.000000 0.000000 0.015956 0.000000 0.041279
#
#
# Mechanical properties :
#
#
# Convention : Reuss Voigt Hill
#
# Bulk Modulus (GPa) = 37.95804 49.66551 43.81178
# Shear Modulus (GPa) = 27.40170 33.17078 30.28624
#
# Velocity S-wave (km/s) = 3.66555 4.03300 3.85366
# Velocity P-wave (km/s) = 6.04380 6.78527 6.42524
#
# Compressibility (1/GPa) = 0.02634488
#
# Stress axis : x y z
#
# Youngs Moduli (GPa) = 48.70472 126.66709 57.64167
#
# Poissons Ratio (x) = 0.28781 0.20909
# Poissons Ratio (y) = 0.11066 0.21993
# Poissons Ratio (z) = 0.17667 0.48330
#
# Static dielectric constant tensor:
#      x y z
#    x 1.696810 0.000000 0.008430 
#    y 0.000000 1.725700 0.000000 
#    z 0.008430 0.000000 1.720750 
# 
# From -- ./inp_files/372601.got.cif
#   From: 2010.05.17/outbox.cif.g08.bks.cpg/sg12_187_cif.got.tgz:372601.got - 2010.06.03 13:09:07.
