data_PCOD9214202
_publ_section_title
;
Structure prediction by ZEFSAII (Michael W. Deem and Ramdas Pophale) SiO2 
 PCOD9214202
Probable space group: C 2/M
;
_chemical_formula_sum "Si O2"
_cell_formula_units_Z 44
_cell_length_a 14.387847
_cell_length_b 17.564858
_cell_length_c 17.905013
_cell_angle_alpha 90.000000
_cell_angle_beta 29.503792
_cell_angle_gamma 90.000000
_cell_volume 2228.459355
_symmetry_space_group_name_H-M "C 2/M"
_symmetry_group_IT_number 12
_symmetry_cell_setting 'monoclinic'
loop_
_space_group_symop_operation_xyz
x,y,z
-x,y,-z
-x,-y,-z
x,-y,z
1/2+x,1/2+y,z
1/2-x,1/2+y,-z
1/2-x,1/2-y,-z
1/2+x,1/2-y,z
loop_
_atom_site_type_symbol
_atom_site_label
_atom_site_fract_x
_atom_site_fract_y
_atom_site_fract_z
Si Si1 0.500000 0.361933 0.000000
Si Si2 0.767334 0.775432 0.839994
Si Si3 0.701540 0.355305 0.338689
Si Si4 0.490703 0.584262 0.172409
Si Si5 0.602696 0.084597 0.038419
Si Si6 0.650604 0.731577 0.648699
O O1 0.327677 0.303465 0.113186
O O2 0.474878 0.406134 0.094608
O O3 0.829528 0.818822 0.721522
O O4 0.931379 0.754857 0.783187
O O5 0.629820 0.837802 0.973035
O O6 0.500000 0.391001 0.500000
O O7 0.755020 0.286049 0.356651
O O8 0.885464 0.408937 0.215531
O O9 0.430736 0.500000 0.237644
O O10 0.367574 0.646827 0.303246
O O11 0.715778 0.590218 0.033719
O O12 0.625633 0.000000 0.986597
O O13 0.750000 0.750000 0.500000
#
# Coordination Sequence:
#
# PCOD9214202 Si02
#       6
#     4   8   8   8   8   8
#     4  12  19  36  65  92 122 152 214 262 301 366
#     4  11  21  36  63  92 117 163 206 250 310 365
#     4  12  22  37  59  91 120 160 211 249 307 365
#     4  10  22  39  64  93 123 162 205 257 315 365
#     4  10  22  41  60  88 127 160 203 256 306 365
#     4  11  22  39  61  86 125 162 203 257 300 365
#
# _framework density 19.744582999999999
#
# number of rings (size 3 to 8) (size 9 to 14) (size 15 to 20)
#    0.000    1.091    5.455    1.364    0.000    4.727 
#    0.000    0.909    0.000    6.000    0.000    0.000 
#    0.000    0.000    0.000    0.000    0.000    0.000 
#
# Total GULP energy -122538.715387 kJ/mol
# GULP energy per Si atom -5569.941609 kJ/mol
# Density = 1.969964 g / cm^3
# Si number density = 19.744583 Si / 1000 Ang^3
#
#
#
# Elastic Constant Matrix: (Units=GPa)
#
#
# Indices 1 2 3 4 5 6 
#
# 1 76.1966 32.8506 14.8390 0.0011 -2.2776 -0.0123
# 2 32.8506 81.2399 30.0978 -0.0336 -4.3560 0.0586
# 3 14.8390 30.0978 88.3942 -0.0400 -5.8230 0.0587
# 4 0.0011 -0.0336 -0.0400 50.6090 0.0154 -91.3324
# 5 -2.2776 -4.3560 -5.8230 0.0154 32.6777 -0.0197
# 6 -0.0123 0.0586 0.0587 -91.3324 -0.0197 245.7622
#
#
#
# Elastic Compliance Matrix: (Units=1/GPa)
#
#
# Indices 1 2 3 4 5 6 
#
# 1 0.015919 -0.006227 -0.000540 -0.000002 0.000183 0.000002
# 2 -0.006227 0.016557 -0.004528 0.000005 0.000966 -0.000001
# 3 -0.000540 -0.004528 0.013057 0.000010 0.001685 0.000002
# 4 -0.000002 0.000005 0.000010 0.059998 -0.000012 0.022297
# 5 0.000183 0.000966 0.001685 -0.000012 0.031044 -0.000003
# 6 0.000002 -0.000001 0.000002 0.022297 -0.000003 0.012355
#
#
# Mechanical properties :
#
#
# Convention : Reuss Voigt Hill
#
# Bulk Modulus (GPa) = 43.58981 44.60062 44.09521
# Shear Modulus (GPa) = 27.90672 77.01268 52.45970
#
# Velocity S-wave (km/s) = 3.76358 6.25213 5.16012
# Velocity P-wave (km/s) = 6.40397 8.64619 7.60814
#
# Compressibility (1/GPa) = 0.02294114
#
# Stress axis : x y z
#
# Youngs Moduli (GPa) = 62.81651 60.39787 76.58989
#
# Poissons Ratio (x) = 0.37612 0.04136
# Poissons Ratio (y) = 0.39118 0.34684
# Poissons Ratio (z) = 0.03392 0.27351
#
# Static dielectric constant tensor:
#      x y z
#    x 1.725600 0.000000 -0.013600 
#    y 0.000000 1.665380 0.000020 
#    z -0.013600 0.000020 1.832690 
# 
# From -- ./inp_files/61214.got.cif
#   From: 2010.05.17/outbox.cif.g08.bks.cpg/sg12_31_cif.got.tgz:61214.got - 2010.06.03 13:09:07.
