data_PCOD9214674
_publ_section_title
;
Structure prediction by ZEFSAII (Michael W. Deem and Ramdas Pophale) SiO2 
 PCOD9214674
Probable space group: C 2/M
;
_chemical_formula_sum "Si O2"
_cell_formula_units_Z 48
_cell_length_a 11.795078
_cell_length_b 23.974482
_cell_length_c 8.907935
_cell_angle_alpha 90.000000
_cell_angle_beta 74.212510
_cell_angle_gamma 90.000000
_cell_volume 2423.970803
_symmetry_space_group_name_H-M "C 2/M"
_symmetry_group_IT_number 12
_symmetry_cell_setting 'monoclinic'
loop_
_space_group_symop_operation_xyz
x,y,z
-x,y,-z
-x,-y,-z
x,-y,z
1/2+x,1/2+y,z
1/2-x,1/2+y,-z
1/2-x,1/2-y,-z
1/2+x,1/2-y,z
loop_
_atom_site_type_symbol
_atom_site_label
_atom_site_fract_x
_atom_site_fract_y
_atom_site_fract_z
Si Si1 0.100863 0.000000 0.252056
Si Si2 0.352384 0.279702 0.863897
Si Si3 0.620644 0.401151 0.025478
Si Si4 0.991414 0.313225 0.665153
Si Si5 0.754918 0.189622 0.572836
Si Si6 0.731457 0.110427 0.325707
Si Si7 0.677891 0.500000 0.568436
O O1 0.152246 0.000000 0.400873
O O2 0.145389 0.944413 0.150065
O O3 0.956388 0.000000 0.314022
O O4 0.447193 0.231112 0.801798
O O5 0.312768 0.300590 0.712704
O O6 0.250000 0.250000 0.000000
O O7 0.395279 0.336928 0.921172
O O8 0.712210 0.398785 0.857008
O O9 0.500000 0.422970 0.000000
O O10 0.894498 0.360814 0.665763
O O11 0.000000 0.282862 0.500000
O O12 0.122603 0.332919 0.653349
O O13 0.750000 0.250000 0.500000
O O14 0.800084 0.151430 0.418535
O O15 0.745720 0.052460 0.405471
#
# Coordination Sequence:
#
# PCOD9214674 Si02
#       7
#     4   8   8   8   8   8   4
#     4  11  24  43  64 102 127 174 216 274 340 383
#     4  12  24  38  61  98 130 173 216 267 330 382
#     4  12  24  39  63  96 138 167 214 270 333 388
#     4  10  22  40  63  90 129 170 223 263 319 392
#     4  11  22  41  62  88 128 172 221 267 318 388
#     4  11  22  43  62  97 124 175 215 266 333 388
#     4  11  23  42  70  93 132 168 223 276 322 406
#
# _framework density 19.802219000000001
#
# number of rings (size 3 to 8) (size 9 to 14) (size 15 to 20)
#    0.000    0.833    6.667    1.750    4.667    0.000 
#    3.000    3.750    0.000    0.000    0.000   12.833 
#    0.000    0.000    0.000    0.000    0.000    0.000 
#
# Total GULP energy -133759.638160 kJ/mol
# GULP energy per Si atom -5573.318257 kJ/mol
# Density = 1.975715 g / cm^3
# Si number density = 19.802219 Si / 1000 Ang^3
#
#
#
# Elastic Constant Matrix: (Units=GPa)
#
#
# Indices 1 2 3 4 5 6 
#
# 1 54.3358 9.1501 22.1259 0.0000 4.1763 0.0000
# 2 9.1501 141.8958 46.8352 0.0000 6.7537 0.0000
# 3 22.1259 46.8352 121.9510 0.0000 -1.9153 0.0000
# 4 0.0000 0.0000 0.0000 45.5269 0.0000 4.3526
# 5 4.1763 6.7537 -1.9153 0.0000 34.1710 0.0000
# 6 0.0000 0.0000 0.0000 4.3526 0.0000 44.1670
#
#
#
# Elastic Compliance Matrix: (Units=1/GPa)
#
#
# Indices 1 2 3 4 5 6 
#
# 1 0.020112 0.000056 -0.003713 0.000000 -0.002677 0.000000
# 2 0.000056 0.008179 -0.003180 0.000000 -0.001802 0.000000
# 3 -0.003713 -0.003180 0.010121 0.000000 0.001649 0.000000
# 4 0.000000 0.000000 0.000000 0.022174 0.000000 -0.002185
# 5 -0.002677 -0.001802 0.001649 0.000000 0.030040 0.000000
# 6 0.000000 0.000000 0.000000 -0.002185 0.000000 0.022857
#
#
# Mechanical properties :
#
#
# Convention : Reuss Voigt Hill
#
# Bulk Modulus (GPa) = 40.42134 52.71165 46.56650
# Shear Modulus (GPa) = 36.92716 40.77776 38.85246
#
# Velocity S-wave (km/s) = 4.32302 4.54282 4.43428
# Velocity P-wave (km/s) = 6.73608 7.36160 7.05578
#
# Compressibility (1/GPa) = 0.02473941
#
# Stress axis : x y z
#
# Youngs Moduli (GPa) = 49.72109 122.26353 98.80824
#
# Poissons Ratio (x) = -0.00683 0.36683
# Poissons Ratio (y) = -0.00278 0.31417
# Poissons Ratio (z) = 0.18459 0.38875
#
# Static dielectric constant tensor:
#      x y z
#    x 1.798130 0.000000 0.089690 
#    y 0.000000 1.808640 0.000000 
#    z 0.089690 0.000000 1.945880 
# 
# From -- ./inp_files/63403.got.cif
#   From: 2010.05.17/outbox.cif.g08.bks.cpg/sg12_32_cif.got.tgz:63403.got - 2010.06.03 13:09:07.
