data_PCOD9214809
_publ_section_title
;
Structure prediction by ZEFSAII (Michael W. Deem and Ramdas Pophale) SiO2 
 PCOD9214809
Probable space group: C 2/M
;
_chemical_formula_sum "Si O2"
_cell_formula_units_Z 42
_cell_length_a 29.780708
_cell_length_b 9.796474
_cell_length_c 7.411159
_cell_angle_alpha 90.000000
_cell_angle_beta 56.313444
_cell_angle_gamma 90.000000
_cell_volume 1799.112253
_symmetry_space_group_name_H-M "C 2/M"
_symmetry_group_IT_number 12
_symmetry_cell_setting 'monoclinic'
loop_
_space_group_symop_operation_xyz
x,y,z
-x,y,-z
-x,-y,-z
x,-y,z
1/2+x,1/2+y,z
1/2-x,1/2+y,-z
1/2-x,1/2-y,-z
1/2+x,1/2-y,z
loop_
_atom_site_type_symbol
_atom_site_label
_atom_site_fract_x
_atom_site_fract_y
_atom_site_fract_z
Si Si1 0.907508 0.352789 0.426299
Si Si2 0.722631 0.655317 0.802354
Si Si3 0.017333 0.227949 0.268414
Si Si4 0.684398 0.345932 0.302567
Si Si5 0.000000 0.000000 0.000000
Si Si6 0.625699 0.153377 0.916779
O O1 0.887359 0.500000 0.539683
O O2 0.970200 0.334944 0.326049
O O3 0.873419 0.226205 0.576469
O O4 0.896876 0.349523 0.236025
O O5 0.730033 0.500000 0.719605
O O6 0.776187 0.747179 0.672680
O O7 0.673164 0.737093 0.826696
O O8 0.707905 0.646862 0.048082
O O9 0.000000 0.168279 0.500000
O O10 0.016887 0.118035 0.110750
O O11 0.075221 0.299995 0.149679
O O12 0.680928 0.500000 0.382249
O O13 0.644536 0.000000 0.922010
#
# Coordination Sequence:
#
# PCOD9214809 Si02
#       6
#     8   8   8   8   2   8
#     4  11  24  43  66  95 135 177 225 283 341 405
#     4  10  22  40  64  94 128 170 224 283 344 410
#     4  12  26  44  72 101 136 185 227 274 343 401
#     4  10  22  40  64  94 128 170 224 283 344 410
#     4  12  26  48  66 102 148 176 220 296 320 412
#     4  11  24  43  66  95 135 177 225 283 341 405
#
# _framework density 23.344846
#
# number of rings (size 3 to 8) (size 9 to 14) (size 15 to 20)
#    0.000    1.143    1.905    3.143    2.667    8.381 
#    0.000    0.000    0.000    0.000    0.000    0.000 
#    0.000    0.000    0.000    0.000    0.000    0.000 
#
# Total GULP energy -117309.749175 kJ/mol
# GULP energy per Si atom -5586.178532 kJ/mol
# Density = 2.329171 g / cm^3
# Si number density = 23.344846 Si / 1000 Ang^3
#
#
#
# Elastic Constant Matrix: (Units=GPa)
#
#
# Indices 1 2 3 4 5 6 
#
# 1 115.7657 52.9298 15.2619 0.0000 -6.4535 0.0000
# 2 52.9298 211.7426 33.4513 0.0000 -9.5143 0.0000
# 3 15.2619 33.4513 51.6914 0.0000 -6.1410 0.0000
# 4 0.0000 0.0000 0.0000 0.0190 0.0000 23.6533
# 5 -6.4535 -9.5143 -6.1410 0.0000 34.2780 0.0000
# 6 0.0000 0.0000 0.0000 23.6533 0.0000 -19.5542
#
#
#
# Elastic Compliance Matrix: (Units=1/GPa)
#
#
# Indices 1 2 3 4 5 6 
#
# 1 0.009885 -0.002210 -0.001370 0.000000 0.001002 0.000000
# 2 -0.002210 0.005780 -0.003011 0.000000 0.000649 0.000000
# 3 -0.001370 -0.003011 0.022038 0.000000 0.002855 0.000000
# 4 0.000000 0.000000 0.000000 0.034928 0.000000 0.042249
# 5 0.001002 0.000649 0.002855 0.000000 0.030053 0.000000
# 6 0.000000 0.000000 0.000000 0.042249 0.000000 -0.000034
#
#
# Mechanical properties :
#
#
# Convention : Reuss Voigt Hill
#
# Bulk Modulus (GPa) = 40.77932 64.72063 52.74998
# Shear Modulus (GPa) = 40.32153 21.45234 30.88693
#
# Velocity S-wave (km/s) = 4.16048 3.03468 3.64135
# Velocity P-wave (km/s) = 6.37069 6.32953 6.35014
#
# Compressibility (1/GPa) = 0.02452223
#
# Stress axis : x y z
#
# Youngs Moduli (GPa) = 101.16547 173.01472 45.37714
#
# Poissons Ratio (x) = 0.38228 0.06215
# Poissons Ratio (y) = 0.22353 0.13663
# Poissons Ratio (z) = 0.13855 0.52093
#
# Static dielectric constant tensor:
#      x y z
#    x 1.845230 0.000000 0.026810 
#    y 0.000000 1.834740 0.000000 
#    z 0.026810 0.000000 1.913830 
# 
# From -- ./inp_files/108511.got.cif
#   From: 2010.05.17/outbox.cif.g08.bks.cpg/sg12_55_cif.got.tgz:108511.got - 2010.06.03 13:09:07.
