data_PCOD9214898
_publ_section_title
;
Structure prediction by ZEFSAII (Michael W. Deem and Ramdas Pophale) SiO2 
 PCOD9214898
Probable space group: C 2/M
;
_chemical_formula_sum "Si O2"
_cell_formula_units_Z 64
_cell_length_a 32.702554
_cell_length_b 8.410486
_cell_length_c 15.127404
_cell_angle_alpha 90.000000
_cell_angle_beta 46.661477
_cell_angle_gamma 90.000000
_cell_volume 3026.130219
_symmetry_space_group_name_H-M "C 2/M"
_symmetry_group_IT_number 12
_symmetry_cell_setting 'monoclinic'
loop_
_space_group_symop_operation_xyz
x,y,z
-x,y,-z
-x,-y,-z
x,-y,z
1/2+x,1/2+y,z
1/2-x,1/2+y,-z
1/2-x,1/2-y,-z
1/2+x,1/2-y,z
loop_
_atom_site_type_symbol
_atom_site_label
_atom_site_fract_x
_atom_site_fract_y
_atom_site_fract_z
Si Si1 0.514245 0.183420 0.699324
Si Si2 0.602816 0.687230 0.193516
Si Si3 0.522472 0.687606 0.062778
Si Si4 0.330076 0.186289 0.749103
Si Si5 0.294626 0.692251 0.085721
Si Si6 0.186066 0.690915 0.588983
Si Si7 0.856601 0.689286 0.154770
Si Si8 0.867778 0.183674 0.511226
O O1 0.454872 0.224415 0.742517
O O2 0.505888 0.217948 0.815733
O O3 0.565300 0.289289 0.589069
O O4 0.528848 0.000000 0.663489
O O5 0.593640 0.500000 0.192091
O O6 0.625565 0.719273 0.257672
O O7 0.653659 0.740783 0.053660
O O8 0.511980 0.500000 0.091123
O O9 0.500000 0.735674 0.000000
O O10 0.588809 0.721235 0.963009
O O11 0.266042 0.240593 0.861228
O O12 0.341855 0.213614 0.628565
O O13 0.334883 0.000000 0.763721
O O14 0.294579 0.500000 0.092466
O O15 0.305655 0.764783 0.165839
O O16 0.185192 0.500000 0.583593
O O17 0.250000 0.750000 0.500000
O O18 0.155651 0.735571 0.726078
O O19 0.155986 0.763555 0.548382
O O20 0.866111 0.500000 0.136952
O O21 0.853988 0.000000 0.547070
#
# Coordination Sequence:
#
# PCOD9214898 Si02
#       8
#     8   8   8   8   8   8   8   8
#     4  12  25  43  67  95 129 170 215 270 324 386
#     4  11  23  42  67  98 132 171 215 265 325 392
#     4  11  23  39  61  90 124 164 209 257 315 381
#     4  11  24  43  67  97 129 170 218 271 328 389
#     4  10  22  40  65  95 133 171 211 264 324 386
#     4  11  24  42  64  95 132 174 221 271 323 385
#     4  11  23  37  60  92 126 165 211 260 315 378
#     4  12  26  45  67  94 129 174 221 273 328 389
#
# _framework density 21.149121999999998
#
# number of rings (size 3 to 8) (size 9 to 14) (size 15 to 20)
#    0.000    0.875    1.250    6.000    0.000    9.000 
#    0.000    2.500    0.000    0.000    0.000    0.000 
#    0.000    0.000    0.000    0.000    0.000    0.000 
#
# Total GULP energy -179154.361958 kJ/mol
# GULP energy per Si atom -5598.573811 kJ/mol
# Density = 2.110099 g / cm^3
# Si number density = 21.149122 Si / 1000 Ang^3
#
#
#
# Elastic Constant Matrix: (Units=GPa)
#
#
# Indices 1 2 3 4 5 6 
#
# 1 89.6358 -2.5985 0.6346 0.0000 0.4308 0.0000
# 2 -2.5985 30.9516 -12.4122 -0.0002 0.8908 0.0001
# 3 0.6346 -12.4122 51.5607 0.0000 -5.3506 0.0000
# 4 0.0000 -0.0002 0.0000 20.1988 0.0000 8.6645
# 5 0.4308 0.8908 -5.3506 0.0000 35.1323 0.0000
# 6 0.0000 0.0001 0.0000 8.6645 0.0000 28.4497
#
#
#
# Elastic Compliance Matrix: (Units=1/GPa)
#
#
# Indices 1 2 3 4 5 6 
#
# 1 0.011185 0.000976 0.000082 0.000000 -0.000149 0.000000
# 2 0.000976 0.035852 0.008660 0.000000 0.000398 0.000000
# 3 0.000082 0.008660 0.021800 0.000000 0.003099 0.000000
# 4 0.000000 0.000000 0.000000 0.056948 0.000000 -0.017344
# 5 -0.000149 0.000398 0.003099 0.000000 0.028928 0.000000
# 6 0.000000 0.000000 0.000000 -0.017344 0.000000 0.040432
#
#
# Mechanical properties :
#
#
# Convention : Reuss Voigt Hill
#
# Bulk Modulus (GPa) = 11.32862 15.93287 13.63075
# Shear Modulus (GPa) = 24.37453 29.19110 26.78282
#
# Velocity S-wave (km/s) = 3.39854 3.71920 3.56248
# Velocity P-wave (km/s) = 4.55723 5.09836 4.83537
#
# Compressibility (1/GPa) = 0.08827197
#
# Stress axis : x y z
#
# Youngs Moduli (GPa) = 89.40787 27.89264 45.87169
#
# Poissons Ratio (x) = -0.02723 -0.00375
# Poissons Ratio (y) = -0.08727 -0.39724
# Poissons Ratio (z) = -0.00731 -0.24155
#
# Static dielectric constant tensor:
#      x y z
#    x 1.756140 0.000000 0.000390 
#    y 0.000000 1.712470 0.000000 
#    z 0.000390 0.000000 1.748010 
# 
# From -- ./inp_files/249730.got.cif
#   From: 2010.05.17/outbox.cif.g08.bks.cpg/sg12_125_cif.got.tgz:249730.got - 2010.06.03 13:09:07.
