data_PCOD9214144
_publ_section_title
;
Structure prediction by ZEFSAII (Michael W. Deem and Ramdas Pophale) SiO2 
 PCOD9214144
Probable space group: C 2/M
;
_chemical_formula_sum "Si O2"
_cell_formula_units_Z 40
_cell_length_a 14.217873
_cell_length_b 19.575201
_cell_length_c 14.742772
_cell_angle_alpha 90.000000
_cell_angle_beta 28.515586
_cell_angle_gamma 90.000000
_cell_volume 1958.846601
_symmetry_space_group_name_H-M "C 2/M"
_symmetry_group_IT_number 12
_symmetry_cell_setting 'monoclinic'
loop_
_space_group_symop_operation_xyz
x,y,z
-x,y,-z
-x,-y,-z
x,-y,z
1/2+x,1/2+y,z
1/2-x,1/2+y,-z
1/2-x,1/2-y,-z
1/2+x,1/2-y,z
loop_
_atom_site_type_symbol
_atom_site_label
_atom_site_fract_x
_atom_site_fract_y
_atom_site_fract_z
Si Si1 0.311174 0.639152 0.920051
Si Si2 0.892947 0.147869 0.494149
Si Si3 0.384197 0.262557 0.004484
Si Si4 0.048826 0.301445 0.562069
Si Si5 0.941755 0.577155 0.310395
O O1 0.452614 0.625524 0.715275
O O2 0.145381 0.692738 0.024401
O O3 0.442267 0.677757 0.885476
O O4 0.170516 0.583625 0.085816
O O5 0.705773 0.099037 0.645050
O O6 0.000000 0.144368 0.500000
O O7 0.835056 0.228901 0.532205
O O8 0.161373 0.280798 0.218983
O O9 0.500000 0.257346 0.000000
O O10 0.000000 0.319681 0.500000
O O11 0.110091 0.366672 0.568575
O O12 0.902661 0.500000 0.372922
#
# Coordination Sequence:
#
# PCOD9214144 Si02
#       5
#     8   8   8   8   8
#     4   9  21  37  55  86 119 148 189 243 287 342
#     4  10  22  39  63  91 110 151 202 247 291 339
#     4   9  18  32  60  90 113 144 190 242 297 341
#     4   9  20  36  60  91 115 147 193 251 293 338
#     4  11  24  39  58  84 122 162 193 232 292 358
#
# _framework density 20.420179999999998
#
# number of rings (size 3 to 8) (size 9 to 14) (size 15 to 20)
#    0.000    2.400    0.000    1.800   11.200    1.600 
#    0.000    1.000    0.000    2.400    0.000    0.000 
#    0.000    0.000    0.000    0.000    0.000    0.000 
#
# Total GULP energy -111536.580405 kJ/mol
# GULP energy per Si atom -5576.829020 kJ/mol
# Density = 2.037370 g / cm^3
# Si number density = 20.420180 Si / 1000 Ang^3
#
#
#
# Elastic Constant Matrix: (Units=GPa)
#
#
# Indices 1 2 3 4 5 6 
#
# 1 88.5876 17.3561 -3.1119 -0.0142 10.8885 0.0000
# 2 17.3561 85.1850 4.3936 -0.0292 -8.3328 0.0105
# 3 -3.1119 4.3936 59.1667 -0.0256 9.8573 0.0157
# 4 -0.0142 -0.0292 -0.0256 18.1742 0.0107 -4.0991
# 5 10.8885 -8.3328 9.8573 0.0107 32.6681 -0.0035
# 6 0.0000 0.0105 0.0157 -4.0991 -0.0035 10.5332
#
#
#
# Elastic Compliance Matrix: (Units=1/GPa)
#
#
# Indices 1 2 3 4 5 6 
#
# 1 0.012673 -0.003225 0.001839 0.000011 -0.005602 0.000003
# 2 -0.003225 0.012985 -0.001963 0.000012 0.004979 -0.000004
# 3 0.001839 -0.001963 0.018247 0.000024 -0.006620 -0.000018
# 4 0.000011 0.000012 0.000024 0.060317 -0.000025 0.023473
# 5 -0.005602 0.004979 -0.006620 -0.000025 0.035746 0.000007
# 6 0.000003 -0.000004 -0.000018 0.023473 0.000007 0.104072
#
#
# Mechanical properties :
#
#
# Convention : Reuss Voigt Hill
#
# Bulk Modulus (GPa) = 26.87702 30.02389 28.45045
# Shear Modulus (GPa) = 19.00132 26.56187 22.78159
#
# Velocity S-wave (km/s) = 3.05375 3.61053 3.34375
# Velocity P-wave (km/s) = 5.06205 5.66711 5.37311
#
# Compressibility (1/GPa) = 0.03720651
#
# Stress axis : x y z
#
# Youngs Moduli (GPa) = 78.90658 77.01437 54.80406
#
# Poissons Ratio (x) = 0.24837 -0.10080
# Poissons Ratio (y) = 0.25447 0.10760
# Poissons Ratio (z) = -0.14513 0.15121
#
# Static dielectric constant tensor:
#      x y z
#    x 1.793790 -0.000010 0.096260 
#    y -0.000010 1.742660 0.000010 
#    z 0.096260 0.000010 1.926150 
# 
# From -- ./inp_files/89324.got.cif
#   From: 2010.05.17/outbox.cif.g08.bks.cpg/sg12_45_cif.got.tgz:89324.got - 2010.06.03 13:09:07.
