data_PCOD9214442
_publ_section_title
;
Structure prediction by ZEFSAII (Michael W. Deem and Ramdas Pophale) SiO2 
 PCOD9214442
Probable space group: C 2/M
;
_chemical_formula_sum "Si O2"
_cell_formula_units_Z 50
_cell_length_a 13.961124
_cell_length_b 14.691933
_cell_length_c 12.801992
_cell_angle_alpha 90.000000
_cell_angle_beta 66.232879
_cell_angle_gamma 90.000000
_cell_volume 2403.193046
_symmetry_space_group_name_H-M "C 2/M"
_symmetry_group_IT_number 12
_symmetry_cell_setting 'monoclinic'
loop_
_space_group_symop_operation_xyz
x,y,z
-x,y,-z
-x,-y,-z
x,-y,z
1/2+x,1/2+y,z
1/2-x,1/2+y,-z
1/2-x,1/2-y,-z
1/2+x,1/2-y,z
loop_
_atom_site_type_symbol
_atom_site_label
_atom_site_fract_x
_atom_site_fract_y
_atom_site_fract_z
Si Si1 0.000000 0.000000 0.000000
Si Si2 0.520804 0.647360 0.153096
Si Si3 0.390098 0.892962 0.712239
Si Si4 0.147356 0.314981 0.046015
Si Si5 0.078013 0.249932 0.619753
Si Si6 0.204939 0.760775 0.364703
Si Si7 0.772470 0.099166 0.828657
O O1 0.036338 0.919204 0.900885
O O2 0.549958 0.746132 0.092780
O O3 0.467192 0.670279 0.286858
O O4 0.632385 0.599858 0.129659
O O5 0.355121 0.873579 0.847052
O O6 0.495843 0.832938 0.651262
O O7 0.309188 0.842505 0.670061
O O8 0.402343 0.000000 0.688036
O O9 0.250000 0.250000 0.000000
O O10 0.166349 0.375995 0.936374
O O11 0.115062 0.220735 0.488803
O O12 0.184580 0.279340 0.630226
O O13 0.198955 0.823905 0.266393
O O14 0.765251 0.000000 0.782939
#
# Coordination Sequence:
#
# PCOD9214442 Si02
#       7
#     2   8   8   8   8   8   8
#     4  12  24  36  64  98 126 152 224 280 308 394
#     4  10  22  40  60  91 126 167 204 268 330 385
#     4  11  22  41  72 100 129 175 227 283 333 396
#     4   9  18  38  61  89 129 164 204 263 334 395
#     4  10  24  44  63  92 135 171 220 268 341 391
#     4  11  23  43  67  92 131 179 216 277 331 394
#     4  11  21  39  62  91 125 173 216 256 326 402
#
# _framework density 20.805651000000001
#
# number of rings (size 3 to 8) (size 9 to 14) (size 15 to 20)
#    0.000    1.600    5.600    0.960    2.240    1.920 
#    8.640    2.400    0.000    2.880    0.000    0.000 
#    0.000    0.000    0.000    0.000    0.000    0.000 
#
# Total GULP energy -139240.794762 kJ/mol
# GULP energy per Si atom -5569.631790 kJ/mol
# Density = 2.075830 g / cm^3
# Si number density = 20.805651 Si / 1000 Ang^3
#
#
#
# Elastic Constant Matrix: (Units=GPa)
#
#
# Indices 1 2 3 4 5 6 
#
# 1 38.2422 -10.2205 -5.5480 0.0000 -2.9336 0.0000
# 2 -10.2205 94.9088 30.1320 0.0000 -2.9623 0.0000
# 3 -5.5480 30.1320 132.0818 0.0000 -15.8821 0.0000
# 4 0.0000 0.0000 0.0000 12.8115 0.0000 2.5449
# 5 -2.9336 -2.9623 -15.8821 0.0000 22.1754 0.0000
# 6 0.0000 0.0000 0.0000 2.5449 0.0000 8.9765
#
#
#
# Elastic Compliance Matrix: (Units=1/GPa)
#
#
# Indices 1 2 3 4 5 6 
#
# 1 0.027411 0.002752 0.001098 0.000000 0.004780 0.000000
# 2 0.002752 0.011638 -0.002526 0.000000 0.000109 0.000000
# 3 0.001098 -0.002526 0.008940 0.000000 0.006211 0.000000
# 4 0.000000 0.000000 0.000000 0.082713 0.000000 -0.023450
# 5 0.004780 0.000109 0.006211 0.000000 0.050190 0.000000
# 6 0.000000 0.000000 0.000000 -0.023450 0.000000 0.118051
#
#
# Mechanical properties :
#
#
# Convention : Reuss Voigt Hill
#
# Bulk Modulus (GPa) = 19.74799 32.66219 26.20509
# Shear Modulus (GPa) = 15.96557 25.51729 20.74143
#
# Velocity S-wave (km/s) = 2.77314 3.50588 3.16082
# Velocity P-wave (km/s) = 4.44590 5.66755 5.09348
#
# Compressibility (1/GPa) = 0.05063805
#
# Stress axis : x y z
#
# Youngs Moduli (GPa) = 36.48205 85.92327 111.85238
#
# Poissons Ratio (x) = -0.23649 -0.12285
# Poissons Ratio (y) = -0.10041 0.28257
# Poissons Ratio (z) = -0.04007 0.21707
#
# Static dielectric constant tensor:
#      x y z
#    x 1.824210 0.000000 0.011600 
#    y 0.000000 1.727920 0.000000 
#    z 0.011600 0.000000 1.767240 
# 
# From -- ./inp_files/143633.got.cif
#   From: 2010.05.17/outbox.cif.g08.bks.cpg/sg12_72_cif.got.tgz:143633.got - 2010.06.03 13:09:07.
