data_PCOD9214512
_publ_section_title
;
Structure prediction by ZEFSAII (Michael W. Deem and Ramdas Pophale) SiO2 
 PCOD9214512
Probable space group: C 2/M
;
_chemical_formula_sum "Si O2"
_cell_formula_units_Z 64
_cell_length_a 20.731105
_cell_length_b 18.285281
_cell_length_c 23.740512
_cell_angle_alpha 90.000000
_cell_angle_beta 22.943039
_cell_angle_gamma 90.000000
_cell_volume 3508.113365
_symmetry_space_group_name_H-M "C 2/M"
_symmetry_group_IT_number 12
_symmetry_cell_setting 'monoclinic'
loop_
_space_group_symop_operation_xyz
x,y,z
-x,y,-z
-x,-y,-z
x,-y,z
1/2+x,1/2+y,z
1/2-x,1/2+y,-z
1/2-x,1/2-y,-z
1/2+x,1/2-y,z
loop_
_atom_site_type_symbol
_atom_site_label
_atom_site_fract_x
_atom_site_fract_y
_atom_site_fract_z
Si Si1 0.787177 0.676908 0.434252
Si Si2 0.157282 0.725880 0.338463
Si Si3 0.409800 0.084164 0.770361
Si Si4 0.762663 0.782734 0.051190
Si Si5 0.415813 0.682884 0.715265
Si Si6 0.419141 0.198456 0.201703
Si Si7 0.305010 0.418440 0.171674
Si Si8 0.404695 0.913350 0.018215
O O1 0.750000 0.750000 0.500000
O O2 0.599715 0.650703 0.572923
O O3 0.873939 0.692693 0.303951
O O4 0.910523 0.622892 0.368793
O O5 0.103663 0.768564 0.325270
O O6 0.257839 0.782274 0.296060
O O7 0.261915 0.653620 0.240997
O O8 0.000000 0.701127 0.500000
O O9 0.287871 0.133243 0.906432
O O10 0.318149 0.086367 0.783415
O O11 0.422595 0.000000 0.777306
O O12 0.636367 0.738985 0.192999
O O13 0.750000 0.750000 0.000000
O O14 0.948858 0.762729 0.918404
O O15 0.277362 0.620404 0.829028
O O16 0.504341 0.126556 0.106969
O O17 0.277637 0.500000 0.218934
O O18 0.500000 0.415128 0.000000
O O19 0.402603 0.000000 0.012550
O O20 0.500000 0.895675 0.000000
#
# Coordination Sequence:
#
# PCOD9214512 Si02
#       8
#     8   8   8   8   8   8   8   8
#     4  12  22  41  63  88 125 166 208 252 310 376
#     4  12  22  36  61  95 123 161 209 254 310 372
#     4  11  23  39  63  92 125 162 203 255 313 370
#     4  11  20  39  61  90 116 159 208 258 305 366
#     4  11  22  38  63  89 122 161 208 259 301 372
#     4  11  23  36  64  93 120 159 215 258 308 373
#     4  10  22  41  65  92 124 161 202 255 316 370
#     4  10  22  40  61  89 125 161 203 261 315 358
#
# _framework density 18.243424999999998
#
# number of rings (size 3 to 8) (size 9 to 14) (size 15 to 20)
#    0.000    1.000    6.250    0.750    1.750    1.250 
#    0.000    0.000    0.000    4.500    0.000    0.000 
#    0.000    0.000    0.000    0.000    0.000    0.000 
#
# Total GULP energy -178501.118734 kJ/mol
# GULP energy per Si atom -5578.159960 kJ/mol
# Density = 1.820190 g / cm^3
# Si number density = 18.243425 Si / 1000 Ang^3
#
#
#
# Elastic Constant Matrix: (Units=GPa)
#
#
# Indices 1 2 3 4 5 6 
#
# 1 84.1990 37.3942 40.0357 -0.0042 0.5186 0.0042
# 2 37.3942 109.2277 49.9728 -0.0051 -2.7343 -0.0026
# 3 40.0357 49.9728 123.8154 0.0149 -10.0608 0.0013
# 4 -0.0042 -0.0051 0.0149 22.5128 -0.0001 -8.6863
# 5 0.5186 -2.7343 -10.0608 -0.0001 39.2757 -0.0026
# 6 0.0042 -0.0026 0.0013 -8.6863 -0.0026 18.1777
#
#
#
# Elastic Compliance Matrix: (Units=1/GPa)
#
#
# Indices 1 2 3 4 5 6 
#
# 1 0.015179 -0.003599 -0.003566 0.000004 -0.001365 -0.000002
# 2 -0.003599 0.012088 -0.003720 0.000007 -0.000064 0.000006
# 3 -0.003566 -0.003720 0.010942 -0.000011 0.002591 -0.000005
# 4 0.000004 0.000007 -0.000011 0.054460 0.000000 0.026024
# 5 -0.001365 -0.000064 0.002591 0.000000 0.026138 0.000004
# 6 -0.000002 0.000006 -0.000005 0.026024 0.000004 0.067448
#
#
# Mechanical properties :
#
#
# Convention : Reuss Voigt Hill
#
# Bulk Modulus (GPa) = 60.83693 63.56081 62.19887
# Shear Modulus (GPa) = 23.41850 28.64920 26.03385
#
# Velocity S-wave (km/s) = 3.58672 3.96711 3.78170
# Velocity P-wave (km/s) = 7.11143 7.47663 7.29631
#
# Compressibility (1/GPa) = 0.01643738
#
# Stress axis : x y z
#
# Youngs Moduli (GPa) = 65.87931 82.72849 91.39303
#
# Poissons Ratio (x) = 0.29775 0.32595
# Poissons Ratio (y) = 0.23711 0.33999
# Poissons Ratio (z) = 0.23496 0.30776
#
# Static dielectric constant tensor:
#      x y z
#    x 1.670840 0.000000 -0.036770 
#    y 0.000000 1.617540 0.000010 
#    z -0.036770 0.000010 1.635700 
# 
# From -- ./inp_files/347852.got.cif
#   From: 2010.05.17/outbox.cif.g08.bks.cpg/sg12_174_cif.got.tgz:347852.got - 2010.06.03 13:09:07.
