data_PCOD9214576
_publ_section_title
;
Structure prediction by ZEFSAII (Michael W. Deem and Ramdas Pophale) SiO2 
 PCOD9214576
Probable space group: C 2/M
;
_chemical_formula_sum "Si O2"
_cell_formula_units_Z 48
_cell_length_a 26.121106
_cell_length_b 8.508050
_cell_length_c 14.808795
_cell_angle_alpha 90.000000
_cell_angle_beta 139.414197
_cell_angle_gamma 90.000000
_cell_volume 2141.144960
_symmetry_space_group_name_H-M "C 2/M"
_symmetry_group_IT_number 12
_symmetry_cell_setting 'monoclinic'
loop_
_space_group_symop_operation_xyz
x,y,z
-x,y,-z
-x,-y,-z
x,-y,z
1/2+x,1/2+y,z
1/2-x,1/2+y,-z
1/2-x,1/2-y,-z
1/2+x,1/2-y,z
loop_
_atom_site_type_symbol
_atom_site_label
_atom_site_fract_x
_atom_site_fract_y
_atom_site_fract_z
Si Si1 0.580767 0.689873 0.488526
Si Si2 0.915367 0.184179 0.173007
Si Si3 0.821148 0.315269 0.890610
Si Si4 0.083196 0.689412 0.153741
Si Si5 0.165127 0.682644 0.769159
Si Si6 0.830003 0.813712 0.565153
O O1 0.583648 0.500000 0.505482
O O2 0.497508 0.727058 0.330782
O O3 0.598977 0.771119 0.607185
O O4 0.646997 0.739179 0.504396
O O5 0.849482 0.216219 0.160831
O O6 0.917788 0.000000 0.152616
O O7 0.893218 0.283814 0.055648
O O8 0.801507 0.500000 0.862668
O O9 0.849382 0.268501 0.828714
O O10 0.747502 0.222556 0.831877
O O11 0.083773 0.500000 0.164014
O O12 0.101557 0.765615 0.273872
O O13 0.000000 0.736375 0.000000
O O14 0.160838 0.500000 0.787082
O O15 0.750000 0.750000 0.500000
O O16 0.824225 0.000000 0.553123
#
# Coordination Sequence:
#
# PCOD9214576 Si02
#       6
#     8   8   8   8   8   8
#     4  10  23  42  62  87 120 157 196 242 296 350
#     4  11  23  41  64  88 118 155 196 244 297 352
#     4  11  23  40  62  88 121 158 197 242 292 349
#     4  10  22  40  62  89 121 156 195 243 296 347
#     4  12  25  40  61  89 120 155 198 245 293 350
#     4  11  23  39  61  89 121 157 198 243 291 347
#
# _framework density 22.417912000000001
#
# number of rings (size 3 to 8) (size 9 to 14) (size 15 to 20)
#    0.000    1.167    0.000    6.000    0.000   10.333 
#    0.000    0.000    0.000    0.000    0.000    0.000 
#    0.000    0.000    0.000    0.000    0.000    0.000 
#
# Total GULP energy -134414.549114 kJ/mol
# GULP energy per Si atom -5600.606213 kJ/mol
# Density = 2.236689 g / cm^3
# Si number density = 22.417912 Si / 1000 Ang^3
#
#
#
# Elastic Constant Matrix: (Units=GPa)
#
#
# Indices 1 2 3 4 5 6 
#
# 1 66.1434 -1.4265 -9.5031 0.0000 -5.2107 0.0000
# 2 -1.4265 17.2609 -1.0223 0.0000 0.9952 0.0000
# 3 -9.5031 -1.0223 59.4767 0.0000 -2.1144 0.0000
# 4 0.0000 0.0000 0.0000 39.0833 0.0000 4.5722
# 5 -5.2107 0.9952 -2.1144 0.0000 44.2076 0.0000
# 6 0.0000 0.0000 0.0000 4.5722 0.0000 17.7218
#
#
#
# Elastic Compliance Matrix: (Units=1/GPa)
#
#
# Indices 1 2 3 4 5 6 
#
# 1 0.015673 0.001337 0.002596 0.000000 0.001941 0.000000
# 2 0.001337 0.058178 0.001175 0.000000 -0.001096 0.000000
# 3 0.002596 0.001175 0.017288 0.000000 0.001106 0.000000
# 4 0.000000 0.000000 0.000000 0.026383 0.000000 -0.006807
# 5 0.001941 -0.001096 0.001106 0.000000 0.022927 0.000000
# 6 0.000000 0.000000 0.000000 -0.006807 0.000000 0.058184
#
#
# Mechanical properties :
#
#
# Convention : Reuss Voigt Hill
#
# Bulk Modulus (GPa) = 9.86632 13.21969 11.54301
# Shear Modulus (GPa) = 22.50214 30.52474 26.51344
#
# Velocity S-wave (km/s) = 3.17165 3.69402 3.44276
# Velocity P-wave (km/s) = 4.22174 4.90959 4.57860
#
# Compressibility (1/GPa) = 0.10135488
#
# Stress axis : x y z
#
# Youngs Moduli (GPa) = 63.80206 17.18872 57.84471
#
# Poissons Ratio (x) = -0.02298 -0.15018
# Poissons Ratio (y) = -0.08531 -0.06795
# Poissons Ratio (z) = -0.16565 -0.02019
#
# Static dielectric constant tensor:
#      x y z
#    x 1.865850 0.000000 0.033890 
#    y 0.000000 1.744950 0.000000 
#    z 0.033890 0.000000 1.843670 
# 
# From -- ./inp_files/244830.got.cif
#   From: 2010.05.17/outbox.cif.g08.bks.cpg/sg12_123_cif.got.tgz:244830.got - 2010.06.03 13:09:07.
