data_PCOD9214301
_publ_section_title
;
Structure prediction by ZEFSAII (Michael W. Deem and Ramdas Pophale) SiO2 
 PCOD9214301
Probable space group: C 2/M
;
_chemical_formula_sum "Si O2"
_cell_formula_units_Z 46
_cell_length_a 5.109986
_cell_length_b 28.773408
_cell_length_c 17.056171
_cell_angle_alpha 90.000000
_cell_angle_beta 45.105050
_cell_angle_gamma 90.000000
_cell_volume 1776.529260
_symmetry_space_group_name_H-M "C 2/M"
_symmetry_group_IT_number 12
_symmetry_cell_setting 'monoclinic'
loop_
_space_group_symop_operation_xyz
x,y,z
-x,y,-z
-x,-y,-z
x,-y,z
1/2+x,1/2+y,z
1/2-x,1/2+y,-z
1/2-x,1/2-y,-z
1/2+x,1/2-y,z
loop_
_atom_site_type_symbol
_atom_site_label
_atom_site_fract_x
_atom_site_fract_y
_atom_site_fract_z
Si Si1 0.000000 0.915161 0.000000
Si Si2 0.861173 0.050518 0.367884
Si Si3 0.566238 0.356823 0.576463
Si Si4 0.000000 0.500000 0.000000
Si Si5 0.596596 0.838622 0.900906
Si Si6 0.571716 0.779342 0.752735
Si Si7 0.977772 0.926946 0.174677
O O1 0.696005 0.879757 0.033603
O O2 0.856944 0.938688 0.110649
O O3 0.500000 0.051042 0.500000
O O4 0.073318 0.097854 0.346064
O O5 0.764286 0.056087 0.296644
O O6 0.040062 0.000000 0.342156
O O7 0.500000 0.366284 0.500000
O O8 0.368915 0.309573 0.643072
O O9 0.000000 0.351237 0.500000
O O10 0.155156 0.459554 0.906725
O O11 0.497334 0.810854 0.844249
O O12 0.966827 0.870859 0.824215
O O13 0.500000 0.809957 0.000000
O O14 0.254475 0.765464 0.757858
#
# Coordination Sequence:
#
# PCOD9214301 Si02
#       7
#     4   8   8   2   8   8   8
#     4  10  22  39  70  93 132 194 241 284 371 422
#     4  10  22  42  69 103 145 189 238 295 362 441
#     4  11  25  47  76 103 144 190 236 298 364 426
#     4  12  20  38  62 106 132 182 240 302 344 412
#     4  10  23  43  64  95 135 182 227 294 362 434
#     4  12  28  45  72 107 140 184 243 298 363 436
#     4  11  21  41  66  99 143 183 239 298 354 433
#
# _framework density 25.893183000000001
#
# number of rings (size 3 to 8) (size 9 to 14) (size 15 to 20)
#    0.000    1.217    5.217    1.043    4.870    6.261 
#    0.000    0.000    3.826    0.000    0.000    0.000 
#    0.000    0.000    0.000    0.000    0.000    0.000 
#
# Total GULP energy -128129.793741 kJ/mol
# GULP energy per Si atom -5570.860597 kJ/mol
# Density = 2.583425 g / cm^3
# Si number density = 25.893183 Si / 1000 Ang^3
#
#
#
# Elastic Constant Matrix: (Units=GPa)
#
#
# Indices 1 2 3 4 5 6 
#
# 1 64.4921 -21.9003 19.7067 0.0000 33.0180 0.0000
# 2 -21.9003 88.6450 11.9916 0.0000 1.1711 0.0000
# 3 19.7067 11.9916 175.4513 0.0000 41.2494 0.0000
# 4 0.0000 0.0000 0.0000 35.5731 0.0000 34.3201
# 5 33.0180 1.1711 41.2494 0.0000 43.4563 0.0000
# 6 0.0000 0.0000 0.0000 34.3201 0.0000 2.2858
#
#
#
# Elastic Compliance Matrix: (Units=1/GPa)
#
#
# Indices 1 2 3 4 5 6 
#
# 1 0.030335 0.007558 0.001986 0.000000 -0.025137 0.000000
# 2 0.007558 0.013280 -0.000415 0.000000 -0.005706 0.000000
# 3 0.001986 -0.000415 0.007540 0.000000 -0.008655 0.000000
# 4 0.000000 0.000000 0.000000 -0.002085 0.000000 0.031298
# 5 -0.025137 -0.005706 -0.008655 0.000000 0.050480 0.000000
# 6 0.000000 0.000000 0.000000 0.031298 0.000000 -0.032441
#
#
# Mechanical properties :
#
#
# Convention : Reuss Voigt Hill
#
# Bulk Modulus (GPa) = 14.40670 38.68716 26.54693
# Shear Modulus (GPa) = 69.45627 37.51574 53.48600
#
# Velocity S-wave (km/s) = 5.18482 3.81053 4.54986
# Velocity P-wave (km/s) = 6.43577 5.85949 6.15438
#
# Compressibility (1/GPa) = 0.06941215
#
# Stress axis : x y z
#
# Youngs Moduli (GPa) = 32.96537 75.30306 132.63333
#
# Poissons Ratio (x) = -0.56913 -0.26342
# Poissons Ratio (y) = -0.24915 0.05503
# Poissons Ratio (z) = -0.06547 0.03124
#
# Static dielectric constant tensor:
#      x y z
#    x 2.214260 0.000000 -0.048790 
#    y 0.000000 2.102600 0.000000 
#    z -0.048790 0.000000 2.046340 
# 
# From -- ./inp_files/192543.got.cif
#   From: 2010.05.17/outbox.cif.g08.bks.cpg/sg12_97_cif.got.tgz:192543.got - 2010.06.03 13:09:07.
