data_PCOD9214802
_publ_section_title
;
Structure prediction by ZEFSAII (Michael W. Deem and Ramdas Pophale) SiO2 
 PCOD9214802
Probable space group: C 2/M
;
_chemical_formula_sum "Si O2"
_cell_formula_units_Z 48
_cell_length_a 15.866314
_cell_length_b 13.851412
_cell_length_c 31.704144
_cell_angle_alpha 90.000000
_cell_angle_beta 20.363598
_cell_angle_gamma 90.000000
_cell_volume 2424.577252
_symmetry_space_group_name_H-M "C 2/M"
_symmetry_group_IT_number 12
_symmetry_cell_setting 'monoclinic'
loop_
_space_group_symop_operation_xyz
x,y,z
-x,y,-z
-x,-y,-z
x,-y,z
1/2+x,1/2+y,z
1/2-x,1/2+y,-z
1/2-x,1/2-y,-z
1/2+x,1/2-y,z
loop_
_atom_site_type_symbol
_atom_site_label
_atom_site_fract_x
_atom_site_fract_y
_atom_site_fract_z
Si Si1 0.543270 0.775297 0.693361
Si Si2 0.260016 0.115771 0.751288
Si Si3 0.146654 0.386078 0.887807
Si Si4 0.882339 0.615635 0.254047
Si Si5 0.704116 0.116470 0.024527
Si Si6 0.043244 0.252258 0.561517
O O1 0.409837 0.839860 0.720181
O O2 0.380543 0.681150 0.777188
O O3 0.566539 0.836024 0.725075
O O4 0.805734 0.745581 0.552296
O O5 0.370014 0.160046 0.656688
O O6 0.276704 0.000000 0.743651
O O7 0.980102 0.146334 0.887819
O O8 0.206091 0.500000 0.855503
O O9 0.972507 0.356781 0.930839
O O10 0.000000 0.373820 0.000000
O O11 0.874130 0.500000 0.261125
O O12 0.626947 0.658184 0.357830
O O13 0.087166 0.644211 0.123983
O O14 0.709183 0.000000 0.022122
O O15 0.250000 0.250000 0.500000
#
# Coordination Sequence:
#
# PCOD9214802 Si02
#       6
#     8   8   8   8   8   8
#     4  11  24  39  62  97 127 168 218 261 318 394
#     4  10  22  40  64  93 130 166 211 272 323 376
#     4  10  23  42  64  92 127 170 217 266 320 378
#     4  11  24  42  66  94 132 170 209 266 323 385
#     4   9  20  39  63  92 120 163 216 255 319 383
#     4  10  23  40  59  90 121 166 218 249 308 380
#
# _framework density 19.797264999999999
#
# number of rings (size 3 to 8) (size 9 to 14) (size 15 to 20)
#    0.000    1.833    0.000    3.000    4.667    6.000 
#    0.000    2.500    0.000    2.000    0.000    0.000 
#    0.000    0.000    0.000    0.000    0.000    0.000 
#
# Total GULP energy -134092.248732 kJ/mol
# GULP energy per Si atom -5587.177031 kJ/mol
# Density = 1.975221 g / cm^3
# Si number density = 19.797265 Si / 1000 Ang^3
#
#
#
# Elastic Constant Matrix: (Units=GPa)
#
#
# Indices 1 2 3 4 5 6 
#
# 1 108.4851 52.6080 63.0406 0.1261 13.4742 0.0063
# 2 52.6080 139.7659 83.2010 -0.1894 15.8155 -0.0201
# 3 63.0406 83.2010 186.7816 -0.0698 14.2645 -0.0530
# 4 0.1261 -0.1894 -0.0698 -19.6181 -0.1398 -9.0907
# 5 13.4742 15.8155 14.2645 -0.1398 31.6412 -0.0219
# 6 0.0063 -0.0201 -0.0530 -9.0907 -0.0219 37.9723
#
#
#
# Elastic Compliance Matrix: (Units=1/GPa)
#
#
# Indices 1 2 3 4 5 6 
#
# 1 0.012504 -0.002738 -0.002795 0.000126 -0.002696 0.000021
# 2 -0.002738 0.010622 -0.003616 -0.000080 -0.002514 -0.000020
# 3 -0.002795 -0.003616 0.007953 -0.000010 -0.000588 0.000007
# 4 0.000126 -0.000080 -0.000010 -0.045880 -0.000219 -0.010984
# 5 -0.002696 -0.002514 -0.000588 -0.000219 0.034273 -0.000034
# 6 0.000021 -0.000020 0.000007 -0.010984 -0.000034 0.023705
#
#
# Mechanical properties :
#
#
# Convention : Reuss Voigt Hill
#
# Bulk Modulus (GPa) = 78.23149 92.52575 85.37862
# Shear Modulus (GPa) = 76.06464 25.74463 50.90463
#
# Velocity S-wave (km/s) = 6.20526 3.61004 5.07630
# Velocity P-wave (km/s) = 9.53637 8.01340 8.80786
#
# Compressibility (1/GPa) = 0.01278258
#
# Stress axis : x y z
#
# Youngs Moduli (GPa) = 79.97302 94.14512 125.74531
#
# Poissons Ratio (x) = 0.25773 0.35145
# Poissons Ratio (y) = 0.21893 0.45464
# Poissons Ratio (z) = 0.22352 0.34039
#
# Static dielectric constant tensor:
#      x y z
#    x 1.688740 0.000000 0.005800 
#    y 0.000000 1.689380 0.000000 
#    z 0.005800 0.000000 1.689530 
# 
# From -- ./inp_files/376570.got.cif
#   From: 2010.05.17/outbox.cif.g08.bks.cpg/sg12_189_cif.got.tgz:376570.got - 2010.06.03 13:09:07.
