data_PCOD9214254
_publ_section_title
;
Structure prediction by ZEFSAII (Michael W. Deem and Ramdas Pophale) SiO2 
 PCOD9214254
Probable space group: C 2/M
;
_chemical_formula_sum "Si O2"
_cell_formula_units_Z 64
_cell_length_a 28.078458
_cell_length_b 22.682220
_cell_length_c 9.190473
_cell_angle_alpha 90.000000
_cell_angle_beta 151.408809
_cell_angle_gamma 90.000000
_cell_volume 2801.110407
_symmetry_space_group_name_H-M "C 2/M"
_symmetry_group_IT_number 12
_symmetry_cell_setting 'monoclinic'
loop_
_space_group_symop_operation_xyz
x,y,z
-x,y,-z
-x,-y,-z
x,-y,z
1/2+x,1/2+y,z
1/2-x,1/2+y,-z
1/2-x,1/2-y,-z
1/2+x,1/2-y,z
loop_
_atom_site_type_symbol
_atom_site_label
_atom_site_fract_x
_atom_site_fract_y
_atom_site_fract_z
Si Si1 0.477643 0.860332 0.599122
Si Si2 0.782513 0.831670 0.297829
Si Si3 0.916246 0.564906 0.901636
Si Si4 0.601520 0.756044 0.941540
Si Si5 0.408834 0.383074 0.150856
Si Si6 0.386648 0.772038 0.693184
Si Si7 0.227308 0.360444 0.827427
Si Si8 0.695517 0.431614 0.396704
O O1 0.500000 0.882419 0.500000
O O2 0.375186 0.885255 0.384011
O O3 0.561007 0.883654 0.927851
O O4 0.494741 0.789782 0.645859
O O5 0.682084 0.794404 0.067612
O O6 0.875966 0.790802 0.587689
O O7 0.789167 0.888981 0.421240
O O8 0.778211 0.837637 0.112439
O O9 0.933683 0.500000 0.013031
O O10 0.797060 0.569779 0.569886
O O11 0.000000 0.569524 0.000000
O O12 0.639044 0.760644 0.208247
O O13 0.592861 0.688473 0.870827
O O14 0.500000 0.399641 0.500000
O O15 0.309775 0.399704 0.974492
O O16 0.393173 0.409529 0.947594
O O17 0.315351 0.815247 0.410043
O O18 0.500000 0.793640 0.000000
O O19 0.681040 0.500000 0.400522
#
# Coordination Sequence:
#
# PCOD9214254 Si02
#       8
#     8   8   8   8   8   8   8   8
#     4  12  23  39  63  99 138 178 214 270 338 409
#     4  12  24  43  64 100 142 181 226 277 340 415
#     4  10  22  39  65  96 128 170 226 276 332 404
#     4  12  23  40  64  97 142 175 220 266 339 416
#     4  12  28  45  69 101 138 184 234 287 341 406
#     4  12  25  38  66  99 138 182 224 271 343 419
#     4  12  26  40  67 104 142 181 221 282 348 407
#     4  11  24  48  74  95 131 187 235 287 344 401
#
# _framework density 22.848081000000001
#
# number of rings (size 3 to 8) (size 9 to 14) (size 15 to 20)
#    0.000    0.375    6.250    2.625    3.500    0.500 
#    0.000    1.250    0.000    2.625    0.000    0.000 
#    0.000    0.000    0.000    0.000    0.000    0.000 
#
# Total GULP energy -178630.270024 kJ/mol
# GULP energy per Si atom -5582.195938 kJ/mol
# Density = 2.279608 g / cm^3
# Si number density = 22.848081 Si / 1000 Ang^3
#
#
#
# Elastic Constant Matrix: (Units=GPa)
#
#
# Indices 1 2 3 4 5 6 
#
# 1 45.3877 -14.4450 14.2017 0.0000 -7.5208 0.0000
# 2 -14.4450 78.1986 22.1618 0.0000 2.7716 0.0000
# 3 14.2017 22.1618 123.1596 0.0000 -6.8557 0.0000
# 4 0.0000 0.0000 0.0000 -35.0614 0.0000 -2.9029
# 5 -7.5208 2.7716 -6.8557 0.0000 40.6539 0.0000
# 6 0.0000 0.0000 0.0000 -2.9029 0.0000 5.4747
#
#
#
# Elastic Compliance Matrix: (Units=1/GPa)
#
#
# Indices 1 2 3 4 5 6 
#
# 1 0.025633 0.005671 -0.003769 0.000000 0.003720 0.000000
# 2 0.005671 0.014803 -0.003347 0.000000 -0.000524 0.000000
# 3 -0.003769 -0.003347 0.009217 0.000000 0.001085 0.000000
# 4 0.000000 0.000000 0.000000 -0.027322 0.000000 -0.014487
# 5 0.003720 -0.000524 0.001085 0.000000 0.025505 0.000000
# 6 0.000000 0.000000 0.000000 -0.014487 0.000000 0.174977
#
#
# Mechanical properties :
#
#
# Convention : Reuss Voigt Hill
#
# Bulk Modulus (GPa) = 21.38431 32.28699 26.83565
# Shear Modulus (GPa) = 20.72201 17.20194 18.96197
#
# Velocity S-wave (km/s) = 3.01482 2.74685 2.88395
# Velocity P-wave (km/s) = 4.63665 4.92159 4.78125
#
# Compressibility (1/GPa) = 0.04676326
#
# Stress axis : x y z
#
# Youngs Moduli (GPa) = 39.01203 67.55539 108.49723
#
# Poissons Ratio (x) = -0.38313 0.40895
# Poissons Ratio (y) = -0.22125 0.36312
# Poissons Ratio (z) = 0.14705 0.22610
#
# Static dielectric constant tensor:
#      x y z
#    x 1.940150 0.000000 0.017150 
#    y 0.000000 1.848450 0.000000 
#    z 0.017150 0.000000 1.928120 
# 
# From -- ./inp_files/113644.got.cif
#   From: 2010.05.17/outbox.cif.g08.bks.cpg/sg12_57_cif.got.tgz:113644.got - 2010.06.03 13:09:07.
