data_PCOD9214808
_publ_section_title
;
Structure prediction by ZEFSAII (Michael W. Deem and Ramdas Pophale) SiO2 
 PCOD9214808
Probable space group: C 2/M
;
_chemical_formula_sum "Si O2"
_cell_formula_units_Z 48
_cell_length_a 23.995600
_cell_length_b 11.155740
_cell_length_c 9.890635
_cell_angle_alpha 90.000000
_cell_angle_beta 117.210142
_cell_angle_gamma 90.000000
_cell_volume 2354.614293
_symmetry_space_group_name_H-M "C 2/M"
_symmetry_group_IT_number 12
_symmetry_cell_setting 'monoclinic'
loop_
_space_group_symop_operation_xyz
x,y,z
-x,y,-z
-x,-y,-z
x,-y,z
1/2+x,1/2+y,z
1/2-x,1/2+y,-z
1/2-x,1/2-y,-z
1/2+x,1/2-y,z
loop_
_atom_site_type_symbol
_atom_site_label
_atom_site_fract_x
_atom_site_fract_y
_atom_site_fract_z
Si Si1 0.207924 0.644501 0.176806
Si Si2 0.654388 0.138255 0.401608
Si Si3 0.345059 0.272849 0.318401
Si Si4 0.901002 0.640179 0.143833
Si Si5 0.012929 0.000000 0.175408
Si Si6 0.026494 0.737164 0.181582
Si Si7 0.933152 0.000000 0.348020
O O1 0.208817 0.500000 0.168640
O O2 0.196954 0.675271 0.321615
O O3 0.274334 0.692141 0.200625
O O4 0.148560 0.686763 0.022924
O O5 0.657327 0.225859 0.531648
O O6 0.583465 0.148425 0.267360
O O7 0.668471 0.000000 0.453348
O O8 0.370076 0.165968 0.252918
O O9 0.391629 0.384575 0.343083
O O10 0.911361 0.500000 0.131337
O O11 0.967309 0.705261 0.207813
O O12 0.046951 0.873616 0.236767
O O13 0.952914 0.000000 0.210318
O O14 0.000000 0.000000 0.000000
O O15 0.000000 0.730103 0.000000
O O16 0.000000 0.000000 0.500000
#
# Coordination Sequence:
#
# PCOD9214808 Si02
#       7
#     8   8   8   8   4   8   4
#     4  10  22  43  65  91 122 173 217 254 312 385
#     4  11  24  40  66  93 128 166 213 264 317 378
#     4  12  24  42  64  91 131 166 211 265 320 375
#     4  11  23  39  66  95 128 162 208 260 320 382
#     4  10  22  40  64  94 128 158 209 253 310 372
#     4  11  21  40  67  96 127 161 205 265 315 376
#     4  12  24  42  64  92 128 173 205 259 330 379
#
# _framework density 20.385504999999998
#
# number of rings (size 3 to 8) (size 9 to 14) (size 15 to 20)
#    0.000    1.000    4.167    3.000    0.000    0.667 
#    0.000    1.667    5.500    0.000    0.000    0.000 
#    0.000    0.000    0.000    0.000    0.000    0.000 
#
# Total GULP energy -134054.567100 kJ/mol
# GULP energy per Si atom -5585.606963 kJ/mol
# Density = 2.033911 g / cm^3
# Si number density = 20.385505 Si / 1000 Ang^3
#
#
#
# Elastic Constant Matrix: (Units=GPa)
#
#
# Indices 1 2 3 4 5 6 
#
# 1 100.4638 4.0828 8.7724 0.0000 -2.7884 0.0000
# 2 4.0828 57.8148 5.6758 0.0000 -2.2232 0.0000
# 3 8.7724 5.6758 36.6307 0.0000 0.3371 0.0000
# 4 0.0000 0.0000 0.0000 19.6760 0.0000 -4.9993
# 5 -2.7884 -2.2232 0.3371 0.0000 26.4755 0.0000
# 6 0.0000 0.0000 0.0000 -4.9993 0.0000 10.8366
#
#
#
# Elastic Compliance Matrix: (Units=1/GPa)
#
#
# Indices 1 2 3 4 5 6 
#
# 1 0.010210 -0.000446 -0.002386 0.000000 0.001068 0.000000
# 2 -0.000446 0.017644 -0.002641 0.000000 0.001468 0.000000
# 3 -0.002386 -0.002641 0.028288 0.000000 -0.000833 0.000000
# 4 0.000000 0.000000 0.000000 0.057571 0.000000 0.026560
# 5 0.001068 0.001468 -0.000833 0.000000 0.038017 0.000000
# 6 0.000000 0.000000 0.000000 0.026560 0.000000 0.104533
#
#
# Mechanical properties :
#
#
# Convention : Reuss Voigt Hill
#
# Bulk Modulus (GPa) = 22.12536 25.77459 23.94997
# Shear Modulus (GPa) = 17.71333 23.15617 20.43475
#
# Velocity S-wave (km/s) = 2.95094 3.37399 3.16953
# Velocity P-wave (km/s) = 4.74213 5.27726 5.01683
#
# Compressibility (1/GPa) = 0.04519701
#
# Stress axis : x y z
#
# Youngs Moduli (GPa) = 97.94385 56.67721 35.35107
#
# Poissons Ratio (x) = 0.02526 0.08434
# Poissons Ratio (y) = 0.04365 0.09335
# Poissons Ratio (z) = 0.23368 0.14966
#
# Static dielectric constant tensor:
#      x y z
#    x 1.691690 0.000000 -0.016820 
#    y 0.000000 1.700000 0.000000 
#    z -0.016820 0.000000 1.744980 
# 
# From -- ./inp_files/95018.got.cif
#   From: 2010.05.17/outbox.cif.g08.bks.cpg/sg12_48_cif.got.tgz:95018.got - 2010.06.03 13:09:07.
