data_PCOD9214002
_publ_section_title
;
Structure prediction by ZEFSAII (Michael W. Deem and Ramdas Pophale) SiO2 
 PCOD9214002
Probable space group: C 2/M
;
_chemical_formula_sum "Si O2"
_cell_formula_units_Z 42
_cell_length_a 30.239892
_cell_length_b 7.715234
_cell_length_c 9.828643
_cell_angle_alpha 90.000000
_cell_angle_beta 126.386739
_cell_angle_gamma 90.000000
_cell_volume 1846.016460
_symmetry_space_group_name_H-M "C 2/M"
_symmetry_group_IT_number 12
_symmetry_cell_setting 'monoclinic'
loop_
_space_group_symop_operation_xyz
x,y,z
-x,y,-z
-x,-y,-z
x,-y,z
1/2+x,1/2+y,z
1/2-x,1/2+y,-z
1/2-x,1/2-y,-z
1/2+x,1/2-y,z
loop_
_atom_site_type_symbol
_atom_site_label
_atom_site_fract_x
_atom_site_fract_y
_atom_site_fract_z
Si Si1 0.034940 0.293127 0.756290
Si Si2 0.615505 0.199722 0.143898
Si Si3 0.819189 0.201039 0.226762
Si Si4 0.000000 0.000000 0.500000
Si Si5 0.592182 0.205025 0.398370
Si Si6 0.798003 0.799465 0.891955
O O1 0.043242 0.500000 0.737147
O O2 0.972486 0.273342 0.696658
O O3 0.037571 0.155009 0.640433
O O4 0.075449 0.237094 0.951491
O O5 0.608944 0.277908 0.281220
O O6 0.676068 0.208963 0.191249
O O7 0.598530 0.000000 0.130187
O O8 0.872330 0.215471 0.416196
O O9 0.767171 0.284197 0.207934
O O10 0.804422 0.000000 0.182066
O O11 0.823081 0.272640 0.080063
O O12 0.604385 0.000000 0.425925
O O13 0.813145 0.000000 0.904888
#
# Coordination Sequence:
#
# PCOD9214002 Si02
#       6
#     8   8   8   2   8   8
#     4  10  24  43  65  95 132 169 210 262 318 372
#     4  10  22  41  64  89 124 167 208 255 314 378
#     4  10  22  39  61  89 122 159 206 260 315 374
#     4  12  26  40  66  98 132 168 216 264 308 388
#     4  10  22  41  64  89 124 167 208 255 314 378
#     4  10  22  39  61  89 122 159 206 260 315 374
#
# _framework density 22.751691999999998
#
# number of rings (size 3 to 8) (size 9 to 14) (size 15 to 20)
#    0.000    1.905    0.000    2.000    5.333    6.095 
#    0.000    0.952    0.000    0.000    0.000    0.000 
#    0.000    0.000    0.000    0.000    0.000    0.000 
#
# Total GULP energy -117099.720082 kJ/mol
# GULP energy per Si atom -5576.177147 kJ/mol
# Density = 2.269991 g / cm^3
# Si number density = 22.751692 Si / 1000 Ang^3
#
#
#
# Elastic Constant Matrix: (Units=GPa)
#
#
# Indices 1 2 3 4 5 6 
#
# 1 88.9866 19.3232 36.0609 0.0000 -16.8402 0.0000
# 2 19.3232 73.2220 21.2925 0.0000 -6.0282 0.0000
# 3 36.0609 21.2925 50.3408 0.0000 -15.7936 0.0000
# 4 0.0000 0.0000 0.0000 -15.8499 0.0000 -22.2411
# 5 -16.8402 -6.0282 -15.7936 0.0000 20.3838 0.0000
# 6 0.0000 0.0000 0.0000 -22.2411 0.0000 -11.3809
#
#
#
# Elastic Compliance Matrix: (Units=1/GPa)
#
#
# Indices 1 2 3 4 5 6 
#
# 1 0.016424 -0.001101 -0.009439 0.000000 0.005930 0.000000
# 2 -0.001101 0.015653 -0.006163 0.000000 -0.001056 0.000000
# 3 -0.009439 -0.006163 0.034633 0.000000 0.017213 0.000000
# 4 0.000000 0.000000 0.000000 0.036212 0.000000 -0.070768
# 5 0.005930 -0.001056 0.017213 0.000000 0.066982 0.000000
# 6 0.000000 0.000000 0.000000 -0.070768 0.000000 0.050432
#
#
# Mechanical properties :
#
#
# Convention : Reuss Voigt Hill
#
# Bulk Modulus (GPa) = 30.02680 40.65585 35.34132
# Shear Modulus (GPa) = 18.87897 7.68879 13.28388
#
# Velocity S-wave (km/s) = 2.88372 1.84032 2.41895
# Velocity P-wave (km/s) = 4.93093 4.73538 4.83415
#
# Compressibility (1/GPa) = 0.03330359
#
# Stress axis : x y z
#
# Youngs Moduli (GPa) = 60.88653 63.88557 28.87399
#
# Poissons Ratio (x) = 0.07036 0.27254
# Poissons Ratio (y) = 0.06706 0.17795
# Poissons Ratio (z) = 0.57470 0.39373
#
# Static dielectric constant tensor:
#      x y z
#    x 1.860640 0.000000 -0.032220 
#    y 0.000000 1.846820 0.000000 
#    z -0.032220 0.000000 1.861800 
# 
# From -- ./inp_files/108515.got.cif
#   From: 2010.05.17/outbox.cif.g08.bks.cpg/sg12_55_cif.got.tgz:108515.got - 2010.06.03 13:09:07.
