data_PCOD9214208
_publ_section_title
;
Structure prediction by ZEFSAII (Michael W. Deem and Ramdas Pophale) SiO2 
 PCOD9214208
Probable space group: C 2/M
;
_chemical_formula_sum "Si O2"
_cell_formula_units_Z 56
_cell_length_a 19.174689
_cell_length_b 17.849703
_cell_length_c 18.917104
_cell_angle_alpha 90.000000
_cell_angle_beta 24.461486
_cell_angle_gamma 90.000000
_cell_volume 2681.018297
_symmetry_space_group_name_H-M "C 2/M"
_symmetry_group_IT_number 12
_symmetry_cell_setting 'monoclinic'
loop_
_space_group_symop_operation_xyz
x,y,z
-x,y,-z
-x,-y,-z
x,-y,z
1/2+x,1/2+y,z
1/2-x,1/2+y,-z
1/2-x,1/2-y,-z
1/2+x,1/2-y,z
loop_
_atom_site_type_symbol
_atom_site_label
_atom_site_fract_x
_atom_site_fract_y
_atom_site_fract_z
Si Si1 0.558198 0.205284 0.874653
Si Si2 0.679700 0.086324 0.980698
Si Si3 0.042332 0.590339 0.540007
Si Si4 0.760927 0.589540 0.910697
Si Si5 0.186820 0.082191 0.358361
Si Si6 0.075598 0.915454 0.618320
Si Si7 0.391794 0.657798 0.268017
O O1 0.707588 0.152084 0.763276
O O2 0.611295 0.260437 0.763263
O O3 0.500000 0.246847 0.000000
O O4 0.423517 0.147219 0.966784
O O5 0.878611 0.090230 0.780389
O O6 0.624820 0.000000 0.019217
O O7 0.670055 0.102201 0.073669
O O8 0.037703 0.500000 0.545809
O O9 0.228705 0.615521 0.388935
O O10 0.000000 0.615986 0.500000
O O11 0.897805 0.617068 0.727786
O O12 0.741612 0.500000 0.920552
O O13 0.574852 0.624519 0.077389
O O14 0.178670 0.087791 0.451131
O O15 0.000000 0.085164 0.500000
O O16 0.256156 0.000000 0.274787
O O17 0.115880 0.854340 0.640320
O O18 0.098739 0.000000 0.628045
#
# Coordination Sequence:
#
# PCOD9214208 Si02
#       7
#     8   8   8   8   8   8   8
#     4  12  27  40  57  91 128 174 212 249 321 387
#     4   9  19  40  65  90 120 157 211 271 314 370
#     4  10  22  39  64  95 123 166 222 267 310 365
#     4   9  20  40  68  96 123 163 212 265 319 371
#     4  10  22  42  67  94 123 161 213 270 319 371
#     4   9  19  39  69  96 120 160 210 264 321 372
#     4  11  24  41  62  91 137 169 206 256 319 383
#
# _framework density 20.887585999999999
#
# number of rings (size 3 to 8) (size 9 to 14) (size 15 to 20)
#    0.000    2.000    0.000    3.429    4.000    5.714 
#    2.571    2.143    0.000    0.000    0.000    0.000 
#    0.000    0.000    0.000    0.000    0.000    0.000 
#
# Total GULP energy -156390.093873 kJ/mol
# GULP energy per Si atom -5585.360495 kJ/mol
# Density = 2.084005 g / cm^3
# Si number density = 20.887586 Si / 1000 Ang^3
#
#
#
# Elastic Constant Matrix: (Units=GPa)
#
#
# Indices 1 2 3 4 5 6 
#
# 1 76.6129 20.5035 41.3132 -0.0392 -4.6663 0.1129
# 2 20.5035 35.9112 10.1500 -0.0565 3.1342 0.1660
# 3 41.3132 10.1500 66.9732 -0.0317 7.1222 0.0884
# 4 -0.0392 -0.0565 -0.0317 -143.7794 0.0420 363.5678
# 5 -4.6663 3.1342 7.1222 0.0420 36.9911 -0.0952
# 6 0.1129 0.1660 0.0884 363.5678 -0.0952 -820.6381
#
#
#
# Elastic Compliance Matrix: (Units=1/GPa)
#
#
# Indices 1 2 3 4 5 6 
#
# 1 0.023526 -0.010134 -0.013663 0.000001 0.006457 0.000000
# 2 -0.010134 0.033557 0.001637 -0.000027 -0.004437 -0.000006
# 3 -0.013663 0.001637 0.023797 -0.000003 -0.006444 0.000000
# 4 0.000001 -0.000027 -0.000003 0.057829 0.000003 0.025620
# 5 0.006457 -0.004437 -0.006444 0.000003 0.029465 -0.000003
# 6 0.000000 -0.000006 0.000000 0.025620 -0.000003 0.010132
#
#
# Mechanical properties :
#
#
# Convention : Reuss Voigt Hill
#
# Bulk Modulus (GPa) = 27.35209 35.93676 31.64442
# Shear Modulus (GPa) = 21.29377 -178.31659 -78.51141
#
# Velocity S-wave (km/s) = 3.19634 -9.24959 -6.13752
# Velocity P-wave (km/s) = 5.17160 9.84028 5.91970
#
# Compressibility (1/GPa) = 0.03656028
#
# Stress axis : x y z
#
# Youngs Moduli (GPa) = 42.50680 29.80026 42.02277
#
# Poissons Ratio (x) = 0.30199 0.57415
# Poissons Ratio (y) = 0.43075 -0.06881
# Poissons Ratio (z) = 0.58077 -0.04879
#
# Static dielectric constant tensor:
#      x y z
#    x 1.741720 -0.000010 0.027580 
#    y -0.000010 1.750150 0.000010 
#    z 0.027580 0.000010 1.764600 
# 
# From -- ./inp_files/322620.got.cif
#   From: 2010.05.17/outbox.cif.g08.bks.cpg/sg12_162_cif.got.tgz:322620.got - 2010.06.03 13:09:07.
