data_PCOD9214431
_publ_section_title
;
Structure prediction by ZEFSAII (Michael W. Deem and Ramdas Pophale) SiO2 
 PCOD9214431
Probable space group: C 2/M
;
_chemical_formula_sum "Si O2"
_cell_formula_units_Z 42
_cell_length_a 8.783968
_cell_length_b 25.951526
_cell_length_c 11.067237
_cell_angle_alpha 90.000000
_cell_angle_beta 66.619036
_cell_angle_gamma 90.000000
_cell_volume 2315.697620
_symmetry_space_group_name_H-M "C 2/M"
_symmetry_group_IT_number 12
_symmetry_cell_setting 'monoclinic'
loop_
_space_group_symop_operation_xyz
x,y,z
-x,y,-z
-x,-y,-z
x,-y,z
1/2+x,1/2+y,z
1/2-x,1/2+y,-z
1/2-x,1/2-y,-z
1/2+x,1/2-y,z
loop_
_atom_site_type_symbol
_atom_site_label
_atom_site_fract_x
_atom_site_fract_y
_atom_site_fract_z
Si Si1 0.138501 0.106870 0.357628
Si Si2 0.240935 0.805693 0.151165
Si Si3 0.107898 0.694308 0.151166
Si Si4 0.031200 0.000000 0.273610
Si Si5 0.804813 0.500000 0.726393
Si Si6 0.000000 0.000000 0.000000
Si Si7 0.503869 0.106870 0.357628
O O1 0.143462 0.149442 0.250187
O O2 0.318378 0.106228 0.363241
O O3 0.000000 0.119869 0.500000
O O4 0.098280 0.051172 0.315023
O O5 0.156286 0.750000 0.187426
O O6 0.423103 0.802684 0.153793
O O7 0.269651 0.816902 0.999999
O O8 0.106348 0.649442 0.250189
O O9 0.829833 0.000000 0.340328
O O10 0.070924 0.000000 0.118286
O O11 0.689211 0.500000 0.881716
O O12 0.913305 0.551172 0.684981
O O13 0.500000 0.119868 0.500000
#
# Coordination Sequence:
#
# PCOD9214431 Si02
#       7
#     8   8   8   4   4   2   8
#     4  11  23  39  60  87 120 159 197 240 293 350
#     4   9  20  38  59  84 113 150 195 244 295 346
#     4   9  20  38  59  84 113 150 195 244 295 346
#     4  10  22  40  60  88 118 149 192 236 290 348
#     4  10  22  40  60  88 118 149 192 236 290 348
#     4   8  24  40  62  92 116 148 200 240 296 342
#     4  11  23  39  60  87 120 159 197 240 293 350
#
# _framework density 18.137083000000001
#
# number of rings (size 3 to 8) (size 9 to 14) (size 15 to 20)
#    0.571    1.524    0.000    2.286    2.667    3.810 
#    0.000    4.762    0.000    0.000    0.000    0.000 
#    0.000    0.000    0.000    0.000    0.000    0.000 
#
# Total GULP energy -116924.634725 kJ/mol
# GULP energy per Si atom -5567.839749 kJ/mol
# Density = 1.809580 g / cm^3
# Si number density = 18.137083 Si / 1000 Ang^3
#
#
#
# Elastic Constant Matrix: (Units=GPa)
#
#
# Indices 1 2 3 4 5 6 
#
# 1 54.3978 48.5793 42.4505 0.0000 -0.4553 0.0000
# 2 48.5793 180.7504 104.8521 0.0000 -1.0321 0.0000
# 3 42.4505 104.8521 126.8222 0.0000 -0.8722 0.0000
# 4 0.0000 0.0000 0.0000 31.3869 0.0000 0.0143
# 5 -0.4553 -1.0321 -0.8722 0.0000 18.3911 0.0000
# 6 0.0000 0.0000 0.0000 0.0143 0.0000 32.1678
#
#
#
# Elastic Compliance Matrix: (Units=1/GPa)
#
#
# Indices 1 2 3 4 5 6 
#
# 1 0.026140 -0.003746 -0.005651 0.000000 0.000169 0.000000
# 2 -0.003746 0.011169 -0.007979 0.000000 0.000156 0.000000
# 3 -0.005651 -0.007979 0.016375 0.000000 0.000189 0.000000
# 4 0.000000 0.000000 0.000000 0.031860 0.000000 -0.000014
# 5 0.000169 0.000156 0.000189 0.000000 0.054396 0.000000
# 6 0.000000 0.000000 0.000000 -0.000014 0.000000 0.031087
#
#
# Mechanical properties :
#
#
# Convention : Reuss Voigt Hill
#
# Bulk Modulus (GPa) = 52.82440 83.74823 68.28631
# Shear Modulus (GPa) = 23.57487 27.46172 25.51829
#
# Velocity S-wave (km/s) = 3.60921 3.89539 3.75503
# Velocity P-wave (km/s) = 6.82325 8.15521 7.51879
#
# Compressibility (1/GPa) = 0.01893065
#
# Stress axis : x y z
#
# Youngs Moduli (GPa) = 38.25522 89.53550 61.07010
#
# Poissons Ratio (x) = 0.33543 0.34512
# Poissons Ratio (y) = 0.14332 0.48727
# Poissons Ratio (z) = 0.21619 0.71439
#
# Static dielectric constant tensor:
#      x y z
#    x 1.624430 0.000000 0.000110 
#    y 0.000000 1.588220 0.000000 
#    z 0.000110 0.000000 1.618710 
# 
# From -- ./inp_files/120661.got.cif
#   From: 2010.05.17/outbox.cif.g08.bks.cpg/sg12_61_cif.got.tgz:120661.got - 2010.06.03 13:09:07.
