data_PCOD9214773
_publ_section_title
;
Structure prediction by ZEFSAII (Michael W. Deem and Ramdas Pophale) SiO2 
 PCOD9214773
Probable space group: C 2/M
;
_chemical_formula_sum "Si O2"
_cell_formula_units_Z 36
_cell_length_a 16.346073
_cell_length_b 9.672404
_cell_length_c 18.373801
_cell_angle_alpha 90.000000
_cell_angle_beta 37.532266
_cell_angle_gamma 90.000000
_cell_volume 1769.752543
_symmetry_space_group_name_H-M "C 2/M"
_symmetry_group_IT_number 12
_symmetry_cell_setting 'monoclinic'
loop_
_space_group_symop_operation_xyz
x,y,z
-x,y,-z
-x,-y,-z
x,-y,z
1/2+x,1/2+y,z
1/2-x,1/2+y,-z
1/2-x,1/2-y,-z
1/2+x,1/2-y,z
loop_
_atom_site_type_symbol
_atom_site_label
_atom_site_fract_x
_atom_site_fract_y
_atom_site_fract_z
Si Si1 0.000000 0.741901 0.000000
Si Si2 0.279449 0.150600 0.261021
Si Si3 0.572184 0.836841 0.333665
Si Si4 0.311380 0.340389 0.519876
Si Si5 0.243569 0.159939 0.931225
O O1 0.086111 0.657873 0.880427
O O2 0.111912 0.817937 0.971955
O O3 0.192522 0.281734 0.298597
O O4 0.288877 0.158429 0.340825
O O5 0.213419 0.000000 0.291727
O O6 0.448491 0.739321 0.441028
O O7 0.628621 0.812905 0.211957
O O8 0.544511 0.000000 0.362096
O O9 0.336106 0.500000 0.482202
O O10 0.250000 0.250000 0.500000
O O11 0.246219 0.000000 0.950687
O O12 0.250000 0.250000 0.000000
#
# Coordination Sequence:
#
# PCOD9214773 Si02
#       5
#     4   8   8   8   8
#     4  10  22  42  66  96 128 170 212 262 322 384
#     4  10  22  40  64  91 122 161 207 258 310 375
#     4  10  22  41  62  89 123 161 206 256 314 377
#     4  11  24  40  60  90 125 163 207 257 311 372
#     4  10  23  41  64  93 129 168 213 265 318 380
#
# _framework density 20.341826999999999
#
# number of rings (size 3 to 8) (size 9 to 14) (size 15 to 20)
#    0.000    1.778    0.000    2.667    3.111   10.667 
#    0.000    0.000    0.000    0.000    0.000    0.000 
#    0.000    0.000    0.000    0.000    0.000    0.000 
#
# Total GULP energy -100357.851805 kJ/mol
# GULP energy per Si atom -5575.436211 kJ/mol
# Density = 2.029553 g / cm^3
# Si number density = 20.341827 Si / 1000 Ang^3
#
#
#
# Elastic Constant Matrix: (Units=GPa)
#
#
# Indices 1 2 3 4 5 6 
#
# 1 56.2422 31.9325 42.7462 0.0000 15.6325 0.0000
# 2 31.9325 137.3369 68.0054 0.0000 25.2712 0.0000
# 3 42.7462 68.0054 123.5358 0.0000 18.7731 0.0000
# 4 0.0000 0.0000 0.0000 28.3231 0.0000 0.9125
# 5 15.6325 25.2712 18.7731 0.0000 31.9588 0.0000
# 6 0.0000 0.0000 0.0000 0.9125 0.0000 29.3212
#
#
#
# Elastic Compliance Matrix: (Units=1/GPa)
#
#
# Indices 1 2 3 4 5 6 
#
# 1 0.026019 -0.001047 -0.007267 0.000000 -0.007630 0.000000
# 2 -0.001047 0.010884 -0.004830 0.000000 -0.005257 0.000000
# 3 -0.007267 -0.004830 0.013339 0.000000 -0.000461 0.000000
# 4 0.000000 0.000000 0.000000 0.035342 0.000000 -0.001100
# 5 -0.007630 -0.005257 -0.000461 0.000000 0.039450 0.000000
# 6 0.000000 0.000000 0.000000 -0.001100 0.000000 0.034139
#
#
# Mechanical properties :
#
#
# Convention : Reuss Voigt Hill
#
# Bulk Modulus (GPa) = 41.75012 66.94257 54.34634
# Shear Modulus (GPa) = 25.84695 29.54935 27.69815
#
# Velocity S-wave (km/s) = 3.56846 3.81549 3.69404
# Velocity P-wave (km/s) = 6.12759 7.23815 6.70590
#
# Compressibility (1/GPa) = 0.02395203
#
# Stress axis : x y z
#
# Youngs Moduli (GPa) = 38.43361 91.87799 74.97072
#
# Poissons Ratio (x) = 0.09622 0.54482
# Poissons Ratio (y) = 0.04025 0.36213
# Poissons Ratio (z) = 0.27930 0.44380
#
# Static dielectric constant tensor:
#      x y z
#    x 1.864710 0.000000 -0.060190 
#    y 0.000000 1.711370 0.000000 
#    z -0.060190 0.000000 1.761510 
# 
# From -- ./inp_files/273907.got.cif
#   From: 2010.05.17/outbox.cif.g08.bks.cpg/sg12_137_cif.got.tgz:273907.got - 2010.06.03 13:09:07.
