data_PCOD9214568
_publ_section_title
;
Structure prediction by ZEFSAII (Michael W. Deem and Ramdas Pophale) SiO2 
 PCOD9214568
Probable space group: C 2/M
;
_chemical_formula_sum "Si O2"
_cell_formula_units_Z 32
_cell_length_a 8.208888
_cell_length_b 12.974098
_cell_length_c 16.930894
_cell_angle_alpha 90.000000
_cell_angle_beta 134.182249
_cell_angle_gamma 90.000000
_cell_volume 1293.115166
_symmetry_space_group_name_H-M "C 2/M"
_symmetry_group_IT_number 12
_symmetry_cell_setting 'monoclinic'
loop_
_space_group_symop_operation_xyz
x,y,z
-x,y,-z
-x,-y,-z
x,-y,z
1/2+x,1/2+y,z
1/2-x,1/2+y,-z
1/2-x,1/2-y,-z
1/2+x,1/2-y,z
loop_
_atom_site_type_symbol
_atom_site_label
_atom_site_fract_x
_atom_site_fract_y
_atom_site_fract_z
Si Si1 0.260094 0.298798 0.917624
Si Si2 0.586693 0.623434 0.754636
Si Si3 0.670680 0.881329 0.313857
Si Si4 0.567578 0.125528 0.609416
O O1 0.253794 0.199385 0.857398
O O2 0.052103 0.366970 0.816695
O O3 0.500000 0.356642 0.000000
O O4 0.250000 0.250000 0.000000
O O5 0.627217 0.500000 0.777672
O O6 0.337729 0.647093 0.706748
O O7 0.620963 0.648092 0.672946
O O8 0.591467 0.839870 0.372064
O O9 0.716078 0.000000 0.345149
O O10 0.500000 0.163515 0.500000
O O11 0.553638 0.000000 0.603180
#
# Coordination Sequence:
#
# PCOD9214568 Si02
#       4
#     8   8   8   8
#     4  12  23  38  61  86 121 161 201 249 301 351
#     4  10  22  40  62  88 122 159 200 249 296 358
#     4  10  22  40  62  89 122 158 202 249 296 358
#     4   9  19  38  64  91 119 155 198 248 305 357
#
# _framework density 24.746441999999998
#
# number of rings (size 3 to 8) (size 9 to 14) (size 15 to 20)
#    0.000    1.750    2.500    1.500    0.000    3.000 
#    0.000    6.250    0.000    0.000    0.000    0.000 
#    0.000    0.000    0.000    0.000    0.000    0.000 
#
# Total GULP energy -89336.998672 kJ/mol
# GULP energy per Si atom -5583.562417 kJ/mol
# Density = 2.469012 g / cm^3
# Si number density = 24.746442 Si / 1000 Ang^3
#
#
#
# Elastic Constant Matrix: (Units=GPa)
#
#
# Indices 1 2 3 4 5 6 
#
# 1 110.8102 42.9315 24.7242 0.0000 -50.3223 0.0000
# 2 42.9315 92.3280 -1.8845 0.0000 -8.3281 0.0000
# 3 24.7242 -1.8845 81.2948 0.0000 -35.6443 0.0000
# 4 0.0000 0.0000 0.0000 19.0981 0.0000 -4.6256
# 5 -50.3223 -8.3281 -35.6443 0.0000 58.1008 0.0000
# 6 0.0000 0.0000 0.0000 -4.6256 0.0000 40.8824
#
#
#
# Elastic Compliance Matrix: (Units=1/GPa)
#
#
# Indices 1 2 3 4 5 6 
#
# 1 0.018858 -0.007307 0.001091 0.000000 0.015955 0.000000
# 2 -0.007307 0.013904 0.000880 0.000000 -0.003796 0.000000
# 3 0.001091 0.000880 0.017044 0.000000 0.011527 0.000000
# 4 0.000000 0.000000 0.000000 0.053836 0.000000 0.006091
# 5 0.015955 -0.003796 0.011527 0.000000 0.037558 0.000000
# 6 0.000000 0.000000 0.000000 0.006091 0.000000 0.025150
#
#
# Mechanical properties :
#
#
# Convention : Reuss Voigt Hill
#
# Bulk Modulus (GPa) = 25.55321 46.21949 35.88635
# Shear Modulus (GPa) = 26.30659 38.19371 32.25015
#
# Velocity S-wave (km/s) = 3.26398 3.93288 3.61394
# Velocity P-wave (km/s) = 4.95511 6.27225 5.65218
#
# Compressibility (1/GPa) = 0.03913403
#
# Stress axis : x y z
#
# Youngs Moduli (GPa) = 53.02871 71.92011 58.67252
#
# Poissons Ratio (x) = 0.52554 -0.06401
# Poissons Ratio (y) = 0.38749 -0.05165
# Poissons Ratio (z) = -0.05785 -0.06332
#
# Static dielectric constant tensor:
#      x y z
#    x 1.956550 0.000000 -0.074340 
#    y 0.000000 1.982650 0.000000 
#    z -0.074340 0.000000 1.802610 
# 
# From -- ./inp_files/261183.got.cif
#   From: 2010.05.17/outbox.cif.g08.bks.cpg/sg12_131_cif.got.tgz:261183.got - 2010.06.03 13:09:07.
