data_PCOD9214035
_publ_section_title
;
Structure prediction by ZEFSAII (Michael W. Deem and Ramdas Pophale) SiO2 
 PCOD9214035
Probable space group: C 2/M
;
_chemical_formula_sum "Si O2"
_cell_formula_units_Z 56
_cell_length_a 8.829381
_cell_length_b 14.832457
_cell_length_c 22.916115
_cell_angle_alpha 90.000000
_cell_angle_beta 120.857803
_cell_angle_gamma 90.000000
_cell_volume 2576.295967
_symmetry_space_group_name_H-M "C 2/M"
_symmetry_group_IT_number 12
_symmetry_cell_setting 'monoclinic'
loop_
_space_group_symop_operation_xyz
x,y,z
-x,y,-z
-x,-y,-z
x,-y,z
1/2+x,1/2+y,z
1/2-x,1/2+y,-z
1/2-x,1/2-y,-z
1/2+x,1/2-y,z
loop_
_atom_site_type_symbol
_atom_site_label
_atom_site_fract_x
_atom_site_fract_y
_atom_site_fract_z
Si Si1 0.310199 0.102289 0.108828
Si Si2 0.700046 0.156137 0.018927
Si Si3 0.945906 0.712678 0.549188
Si Si4 0.570370 0.392801 0.284082
Si Si5 0.834639 0.607779 0.765870
Si Si6 0.537772 0.608587 0.147743
Si Si7 0.306444 0.789686 0.639810
O O1 0.271355 0.096494 0.032978
O O2 0.504636 0.139761 0.161104
O O3 0.157725 0.145432 0.118335
O O4 0.316455 0.000000 0.131879
O O5 0.500000 0.149236 0.000000
O O6 0.750000 0.250000 0.000000
O O7 0.838175 0.139148 0.097378
O O8 0.750000 0.750000 0.500000
O O9 0.922306 0.671896 0.609151
O O10 0.000000 0.661738 0.500000
O O11 0.096849 0.789408 0.585306
O O12 0.606863 0.500000 0.302856
O O13 0.359534 0.378448 0.246607
O O14 0.618666 0.369756 0.226663
O O15 0.653741 0.317341 0.342526
O O16 0.846578 0.500000 0.758931
O O17 0.847659 0.658482 0.707071
O O18 0.526047 0.500000 0.143784
#
# Coordination Sequence:
#
# PCOD9214035 Si02
#       7
#     8   8   8   8   8   8   8
#     4  10  22  40  61  86 119 158 202 256 311 370
#     4  12  25  40  59  83 115 161 207 260 308 367
#     4   9  20  38  64  94 127 163 208 240 299 371
#     4  10  22  39  61  92 128 164 212 260 308 372
#     4  10  22  39  61  92 127 165 213 258 307 375
#     4  10  22  40  61  86 119 158 201 257 312 368
#     4  11  20  38  66  93 121 172 198 255 309 358
#
# _framework density 21.736633999999999
#
# number of rings (size 3 to 8) (size 9 to 14) (size 15 to 20)
#    0.000    1.714    1.429    2.571    4.000    3.429 
#    0.000    0.000    0.000   17.143    0.000    0.000 
#    0.000    0.000    0.000    0.000    0.000    0.000 
#
# Total GULP energy -156132.142673 kJ/mol
# GULP energy per Si atom -5576.147953 kJ/mol
# Density = 2.168716 g / cm^3
# Si number density = 21.736634 Si / 1000 Ang^3
#
#
#
# Elastic Constant Matrix: (Units=GPa)
#
#
# Indices 1 2 3 4 5 6 
#
# 1 104.6920 16.2660 13.0734 0.0000 -11.4238 0.0000
# 2 16.2660 40.1477 14.4846 0.0000 0.4154 0.0000
# 3 13.0734 14.4846 74.6595 0.0000 -4.8032 0.0000
# 4 0.0000 0.0000 0.0000 2.4062 0.0000 -3.8070
# 5 -11.4238 0.4154 -4.8032 0.0000 46.7436 0.0000
# 6 0.0000 0.0000 0.0000 -3.8070 0.0000 18.2602
#
#
#
# Elastic Compliance Matrix: (Units=1/GPa)
#
#
# Indices 1 2 3 4 5 6 
#
# 1 0.010559 -0.003974 -0.000916 0.000000 0.002522 0.000000
# 2 -0.003974 0.028306 -0.004907 0.000000 -0.001727 0.000000
# 3 -0.000916 -0.004907 0.014591 0.000000 0.001319 0.000000
# 4 0.000000 0.000000 0.000000 0.620156 0.000000 0.129293
# 5 0.002522 -0.001727 0.001319 0.000000 0.022161 0.000000
# 6 0.000000 0.000000 0.000000 0.129293 0.000000 0.081719
#
#
# Mechanical properties :
#
#
# Convention : Reuss Voigt Hill
#
# Bulk Modulus (GPa) = 29.53021 34.12747 31.82884
# Shear Modulus (GPa) = 6.18527 25.19366 15.68947
#
# Velocity S-wave (km/s) = 1.68871 3.40816 2.68955
# Velocity P-wave (km/s) = 4.17340 5.58766 4.93149
#
# Compressibility (1/GPa) = 0.03386363
#
# Stress axis : x y z
#
# Youngs Moduli (GPa) = 94.70837 35.32794 68.53370
#
# Poissons Ratio (x) = 0.14038 0.06276
# Poissons Ratio (y) = 0.37634 0.33629
# Poissons Ratio (z) = 0.08673 0.17335
#
# Static dielectric constant tensor:
#      x y z
#    x 1.841260 0.000000 -0.015280 
#    y 0.000000 1.693980 0.000000 
#    z -0.015280 0.000000 1.873040 
# 
# From -- ./inp_files/300668.got.cif
#   From: 2010.05.17/outbox.cif.g08.bks.cpg/sg12_151_cif.got.tgz:300668.got - 2010.06.03 13:09:07.
