data_PCOD9214342
_publ_section_title
;
Structure prediction by ZEFSAII (Michael W. Deem and Ramdas Pophale) SiO2 
 PCOD9214342
Probable space group: C 2/M
;
_chemical_formula_sum "Si O2"
_cell_formula_units_Z 50
_cell_length_a 13.032271
_cell_length_b 24.800745
_cell_length_c 9.447061
_cell_angle_alpha 90.000000
_cell_angle_beta 56.542827
_cell_angle_gamma 90.000000
_cell_volume 2547.433336
_symmetry_space_group_name_H-M "C 2/M"
_symmetry_group_IT_number 12
_symmetry_cell_setting 'monoclinic'
loop_
_space_group_symop_operation_xyz
x,y,z
-x,y,-z
-x,-y,-z
x,-y,z
1/2+x,1/2+y,z
1/2-x,1/2+y,-z
1/2-x,1/2-y,-z
1/2+x,1/2-y,z
loop_
_atom_site_type_symbol
_atom_site_label
_atom_site_fract_x
_atom_site_fract_y
_atom_site_fract_z
Si Si1 0.500000 0.000000 0.500000
Si Si2 0.314745 0.773795 0.764784
Si Si3 0.508621 0.310567 0.661150
Si Si4 0.754443 0.558689 0.737134
Si Si5 0.277499 0.839467 0.529523
Si Si6 0.296866 0.630427 0.962752
Si Si7 0.860654 0.671071 0.155798
O O1 0.599838 0.954005 0.372142
O O2 0.433091 0.744564 0.739890
O O3 0.345767 0.804935 0.596985
O O4 0.254750 0.817669 0.912387
O O5 0.217138 0.726239 0.806666
O O6 0.500000 0.322386 0.500000
O O7 0.649283 0.308895 0.596649
O O8 0.433169 0.355157 0.806146
O O9 0.696784 0.500000 0.749165
O O10 0.739350 0.603621 0.628140
O O11 0.711214 0.582156 0.920045
O O12 0.349106 0.844903 0.328603
O O13 0.209999 0.627931 0.890743
O O14 0.000000 0.677072 0.000000
#
# Coordination Sequence:
#
# PCOD9214342 Si02
#       7
#     2   8   8   8   8   8   8
#     4   8  20  44  72  84 120 144 196 278 306 372
#     4  10  23  36  57  88 126 174 209 243 300 363
#     4  11  21  38  59  85 136 169 204 246 306 366
#     4   9  22  43  68  90 113 154 210 258 320 359
#     4  11  23  40  61  93 123 170 210 252 303 370
#     4  10  22  40  58  92 122 168 203 259 311 355
#     4  11  23  33  56  89 130 158 209 250 301 367
#
# _framework density 19.627599
#
# number of rings (size 3 to 8) (size 9 to 14) (size 15 to 20)
#    0.480    1.280    3.200    2.400    6.720    1.920 
#    2.880    2.400    0.000    2.880    0.000    0.000 
#    0.000    0.000    0.000    0.000    0.000    0.000 
#
# Total GULP energy -139338.582557 kJ/mol
# GULP energy per Si atom -5573.543302 kJ/mol
# Density = 1.958293 g / cm^3
# Si number density = 19.627599 Si / 1000 Ang^3
#
#
#
# Elastic Constant Matrix: (Units=GPa)
#
#
# Indices 1 2 3 4 5 6 
#
# 1 43.8531 14.4789 27.8940 0.0000 -4.5665 0.0000
# 2 14.4789 83.1608 18.1152 0.0000 8.1782 0.0000
# 3 27.8940 18.1152 117.4706 0.0000 4.7709 0.0000
# 4 0.0000 0.0000 0.0000 20.8738 0.0000 -6.8554
# 5 -4.5665 8.1782 4.7709 0.0000 39.2185 0.0000
# 6 0.0000 0.0000 0.0000 -6.8554 0.0000 12.9272
#
#
#
# Elastic Compliance Matrix: (Units=1/GPa)
#
#
# Indices 1 2 3 4 5 6 
#
# 1 0.028744 -0.004101 -0.006395 0.000000 0.004980 0.000000
# 2 -0.004101 0.013252 -0.000943 0.000000 -0.003126 0.000000
# 3 -0.006395 -0.000943 0.010250 0.000000 -0.001795 0.000000
# 4 0.000000 0.000000 0.000000 0.058010 0.000000 0.030763
# 5 0.004980 -0.003126 -0.001795 0.000000 0.026948 0.000000
# 6 0.000000 0.000000 0.000000 0.030763 0.000000 0.093671
#
#
# Mechanical properties :
#
#
# Convention : Reuss Voigt Hill
#
# Bulk Modulus (GPa) = 34.05180 40.60674 37.32927
# Shear Modulus (GPa) = 18.97234 26.87033 22.92134
#
# Velocity S-wave (km/s) = 3.11242 3.70402 3.42103
# Velocity P-wave (km/s) = 5.50480 6.24712 5.88767
#
# Compressibility (1/GPa) = 0.02936703
#
# Stress axis : x y z
#
# Youngs Moduli (GPa) = 34.79001 75.46184 97.56461
#
# Poissons Ratio (x) = 0.30948 0.62394
# Poissons Ratio (y) = 0.14268 0.09198
# Poissons Ratio (z) = 0.22249 0.07114
#
# Static dielectric constant tensor:
#      x y z
#    x 1.720020 0.000000 0.019580 
#    y 0.000000 1.691910 0.000000 
#    z 0.019580 0.000000 1.718460 
# 
# From -- ./inp_files/66789.got.cif
#   From: 2010.05.17/outbox.cif.g08.bks.cpg/sg12_34_cif.got.tgz:66789.got - 2010.06.03 13:09:07.
