data_PCOD9214718
_publ_section_title
;
Structure prediction by ZEFSAII (Michael W. Deem and Ramdas Pophale) SiO2 
 PCOD9214718
Probable space group: C 2/M
;
_chemical_formula_sum "Si O2"
_cell_formula_units_Z 64
_cell_length_a 15.252845
_cell_length_b 17.179722
_cell_length_c 16.101044
_cell_angle_alpha 90.000000
_cell_angle_beta 133.811357
_cell_angle_gamma 90.000000
_cell_volume 3044.608140
_symmetry_space_group_name_H-M "C 2/M"
_symmetry_group_IT_number 12
_symmetry_cell_setting 'monoclinic'
loop_
_space_group_symop_operation_xyz
x,y,z
-x,y,-z
-x,-y,-z
x,-y,z
1/2+x,1/2+y,z
1/2-x,1/2+y,-z
1/2-x,1/2-y,-z
1/2+x,1/2-y,z
loop_
_atom_site_type_symbol
_atom_site_label
_atom_site_fract_x
_atom_site_fract_y
_atom_site_fract_z
Si Si1 0.264852 0.088730 0.521418
Si Si2 0.672831 0.588022 0.646372
Si Si3 0.770020 0.342205 0.009246
Si Si4 0.502498 0.833797 0.731519
Si Si5 0.864212 0.590898 0.908339
Si Si6 0.338438 0.694307 0.692897
Si Si7 0.399724 0.752936 0.367346
Si Si8 0.977303 0.907530 0.080573
O O1 0.194267 0.098367 0.562573
O O2 0.406742 0.103529 0.634557
O O3 0.218921 0.151120 0.424555
O O4 0.246319 0.000000 0.480350
O O5 0.627056 0.500000 0.632651
O O6 0.802569 0.594094 0.778134
O O7 0.595965 0.658815 0.633036
O O8 0.896493 0.362900 0.137776
O O9 0.750000 0.250000 0.000000
O O10 0.781290 0.366702 0.921020
O O11 0.656905 0.383350 0.978608
O O12 0.419007 0.767181 0.717541
O O13 0.572799 0.793445 0.701280
O O14 0.870510 0.500000 0.936903
O O15 0.000000 0.623775 0.000000
O O16 0.230630 0.723520 0.681598
O O17 0.425635 0.635509 0.798328
O O18 0.500000 0.778554 0.500000
O O19 0.991356 0.000000 0.096729
O O20 0.000000 0.884538 0.000000
#
# Coordination Sequence:
#
# PCOD9214718 Si02
#       8
#     8   8   8   8   8   8   8   8
#     4  11  23  43  70 101 134 177 226 280 350 407
#     4  10  22  40  63  98 135 173 221 274 338 409
#     4  12  24  42  66 102 134 179 233 275 334 408
#     4  12  24  43  69 103 138 180 231 286 341 406
#     4  10  22  40  63  93 135 175 213 270 337 397
#     4  12  24  47  70 100 139 181 231 282 346 417
#     4  12  24  42  68  97 136 177 225 281 341 408
#     4  11  26  48  72 100 138 184 233 286 343 405
#
# _framework density 21.020765999999998
#
# number of rings (size 3 to 8) (size 9 to 14) (size 15 to 20)
#    0.000    0.750    3.750    4.125    0.000    2.750 
#    0.000    2.500    0.000    0.000    0.000    0.000 
#    0.000    0.000    0.000    0.000    0.000    0.000 
#
# Total GULP energy -179151.436852 kJ/mol
# GULP energy per Si atom -5598.482402 kJ/mol
# Density = 2.097292 g / cm^3
# Si number density = 21.020766 Si / 1000 Ang^3
#
#
#
# Elastic Constant Matrix: (Units=GPa)
#
#
# Indices 1 2 3 4 5 6 
#
# 1 115.8248 17.6015 20.3611 0.0000 -1.1007 0.0000
# 2 17.6015 58.7252 8.0589 0.0000 -6.2768 0.0000
# 3 20.3611 8.0589 99.2671 0.0000 17.4032 0.0000
# 4 0.0000 0.0000 0.0000 20.8822 0.0000 6.4570
# 5 -1.1007 -6.2768 17.4032 0.0000 35.0392 0.0000
# 6 0.0000 0.0000 0.0000 6.4570 0.0000 34.2536
#
#
#
# Elastic Compliance Matrix: (Units=1/GPa)
#
#
# Indices 1 2 3 4 5 6 
#
# 1 0.009341 -0.002463 -0.001851 0.000000 0.000772 0.000000
# 2 -0.002463 0.018436 -0.001705 0.000000 0.004072 0.000000
# 3 -0.001851 -0.001705 0.011672 0.000000 -0.006161 0.000000
# 4 0.000000 0.000000 0.000000 0.050852 0.000000 -0.009586
# 5 0.000772 0.004072 -0.006161 0.000000 0.032353 0.000000
# 6 0.000000 0.000000 0.000000 -0.009586 0.000000 0.031001
#
#
# Mechanical properties :
#
#
# Convention : Reuss Voigt Hill
#
# Bulk Modulus (GPa) = 36.48397 40.65114 38.56755
# Shear Modulus (GPa) = 28.59906 33.22138 30.91022
#
# Velocity S-wave (km/s) = 3.69252 3.97975 3.83882
# Velocity P-wave (km/s) = 5.96434 6.36383 6.16733
#
# Compressibility (1/GPa) = 0.02740930
#
# Stress axis : x y z
#
# Youngs Moduli (GPa) = 107.05696 54.24162 85.67427
#
# Poissons Ratio (x) = 0.13361 0.15860
# Poissons Ratio (y) = 0.26370 0.14611
# Poissons Ratio (z) = 0.19819 0.09250
#
# Static dielectric constant tensor:
#      x y z
#    x 1.728300 0.000000 0.015180 
#    y 0.000000 1.742200 0.000000 
#    z 0.015180 0.000000 1.762290 
# 
# From -- ./inp_files/216821.got.cif
#   From: 2010.05.17/outbox.cif.g08.bks.cpg/sg12_109_cif.got.tgz:216821.got - 2010.06.03 13:09:07.
