data_PCOD9214198
_publ_section_title
;
Structure prediction by ZEFSAII (Michael W. Deem and Ramdas Pophale) SiO2 
 PCOD9214198
Probable space group: C 2/M
;
_chemical_formula_sum "Si O2"
_cell_formula_units_Z 56
_cell_length_a 8.999268
_cell_length_b 30.157470
_cell_length_c 11.314906
_cell_angle_alpha 90.000000
_cell_angle_beta 62.866141
_cell_angle_gamma 90.000000
_cell_volume 2732.847820
_symmetry_space_group_name_H-M "C 2/M"
_symmetry_group_IT_number 12
_symmetry_cell_setting 'monoclinic'
loop_
_space_group_symop_operation_xyz
x,y,z
-x,y,-z
-x,-y,-z
x,-y,z
1/2+x,1/2+y,z
1/2-x,1/2+y,-z
1/2-x,1/2-y,-z
1/2+x,1/2-y,z
loop_
_atom_site_type_symbol
_atom_site_label
_atom_site_fract_x
_atom_site_fract_y
_atom_site_fract_z
Si Si1 0.679475 0.797475 0.992210
Si Si2 0.818299 0.339935 0.583830
Si Si3 0.247445 0.102036 0.379597
Si Si4 0.877128 0.072005 0.950794
Si Si5 0.815190 0.500000 0.119597
Si Si6 0.044477 0.851270 0.248157
Si Si7 0.300513 0.500000 0.579730
Si Si8 0.393190 0.876124 0.807026
O O1 0.805236 0.820909 0.854181
O O2 0.500000 0.792298 0.000000
O O3 0.750000 0.750000 0.000000
O O4 0.649796 0.829080 0.116472
O O5 0.779670 0.365453 0.477200
O O6 0.628578 0.323355 0.679961
O O7 0.858115 0.371701 0.680596
O O8 0.000000 0.315314 0.500000
O O9 0.102490 0.121532 0.345300
O O10 0.232233 0.052436 0.440958
O O11 0.418120 0.107443 0.242342
O O12 0.971911 0.111562 0.848571
O O13 0.793326 0.041277 0.884978
O O14 0.726955 0.090584 0.082993
O O15 0.000000 0.049965 0.000000
O O16 0.806399 0.500000 0.261860
O O17 0.000000 0.500000 0.000000
O O18 0.500000 0.500000 0.500000
#
# Coordination Sequence:
#
# PCOD9214198 Si02
#       8
#     8   8   8   8   4   8   4   8
#     4  11  25  41  71 106 133 165 210 279 345 408
#     4  10  22  39  64  91 124 173 224 266 317 388
#     4  11  22  41  65  91 132 180 230 275 329 393
#     4  11  22  36  60  87 126 167 214 271 342 391
#     4  12  25  39  58  89 128 173 225 293 342 402
#     4  11  21  40  66  92 128 170 219 266 336 404
#     4  12  24  37  61  99 131 172 237 292 321 385
#     4  10  22  42  63  96 130 169 219 267 335 415
#
# _framework density 20.491446
#
# number of rings (size 3 to 8) (size 9 to 14) (size 15 to 20)
#    0.000    1.143    4.286    2.357    2.000    0.000 
#    0.000    3.929    0.000    9.429    0.000    0.000 
#    0.000    0.000    0.000    0.000    0.000    0.000 
#
# Total GULP energy -155872.688556 kJ/mol
# GULP energy per Si atom -5566.881734 kJ/mol
# Density = 2.044481 g / cm^3
# Si number density = 20.491446 Si / 1000 Ang^3
#
#
#
# Elastic Constant Matrix: (Units=GPa)
#
#
# Indices 1 2 3 4 5 6 
#
# 1 106.8974 12.3907 23.4120 0.0000 -29.7520 0.0000
# 2 12.3907 64.1078 -2.7253 0.0000 -16.1019 0.0000
# 3 23.4120 -2.7253 70.8846 0.0000 -22.5135 0.0000
# 4 0.0000 0.0000 0.0000 35.8963 0.0000 -32.6736
# 5 -29.7520 -16.1019 -22.5135 0.0000 48.4960 0.0000
# 6 0.0000 0.0000 0.0000 -32.6736 0.0000 49.5116
#
#
#
# Elastic Compliance Matrix: (Units=1/GPa)
#
#
# Indices 1 2 3 4 5 6 
#
# 1 0.011518 -0.000835 -0.001971 0.000000 0.005874 0.000000
# 2 -0.000835 0.017592 0.003102 0.000000 0.006769 0.000000
# 3 -0.001971 0.003102 0.017384 0.000000 0.007891 0.000000
# 4 0.000000 0.000000 0.000000 0.069763 0.000000 0.046038
# 5 0.005874 0.006769 0.007891 0.000000 0.030135 0.000000
# 6 0.000000 0.000000 0.000000 0.046038 0.000000 0.050578
#
#
# Mechanical properties :
#
#
# Convention : Reuss Voigt Hill
#
# Bulk Modulus (GPa) = 21.23706 34.22719 27.73213
# Shear Modulus (GPa) = 23.57689 40.70160 32.13925
#
# Velocity S-wave (km/s) = 3.39569 4.46160 3.96463
# Velocity P-wave (km/s) = 5.07549 6.57880 5.87542
#
# Compressibility (1/GPa) = 0.04708749
#
# Stress axis : x y z
#
# Youngs Moduli (GPa) = 86.82023 56.84391 57.52475
#
# Poissons Ratio (x) = 0.04744 0.11336
# Poissons Ratio (y) = 0.07245 -0.17843
# Poissons Ratio (z) = 0.17108 -0.17632
#
# Static dielectric constant tensor:
#      x y z
#    x 1.775080 0.000000 -0.036480 
#    y 0.000000 1.715260 0.000000 
#    z -0.036480 0.000000 1.783860 
# 
# From -- ./inp_files/125683.got.cif
#   From: 2010.05.17/outbox.cif.g08.bks.cpg/sg12_63_cif.got.tgz:125683.got - 2010.06.03 13:09:07.
