data_PCOD9214511
_publ_section_title
;
Structure prediction by ZEFSAII (Michael W. Deem and Ramdas Pophale) SiO2 
 PCOD9214511
Probable space group: C 2/M
;
_chemical_formula_sum "Si O2"
_cell_formula_units_Z 48
_cell_length_a 9.246832
_cell_length_b 22.905948
_cell_length_c 12.741560
_cell_angle_alpha 90.000000
_cell_angle_beta 124.430967
_cell_angle_gamma 90.000000
_cell_volume 2225.956741
_symmetry_space_group_name_H-M "C 2/M"
_symmetry_group_IT_number 12
_symmetry_cell_setting 'monoclinic'
loop_
_space_group_symop_operation_xyz
x,y,z
-x,y,-z
-x,-y,-z
x,-y,z
1/2+x,1/2+y,z
1/2-x,1/2+y,-z
1/2-x,1/2-y,-z
1/2+x,1/2-y,z
loop_
_atom_site_type_symbol
_atom_site_label
_atom_site_fract_x
_atom_site_fract_y
_atom_site_fract_z
Si Si1 0.383425 0.868561 0.050045
Si Si2 0.165557 0.724330 0.797918
Si Si3 0.312459 0.931793 0.696265
Si Si4 0.087029 0.816957 0.271583
Si Si5 0.124782 0.655528 0.456470
Si Si6 0.921150 0.932395 0.196629
O O1 0.315019 0.814402 0.090308
O O2 0.514085 0.907143 0.175123
O O3 0.500000 0.847481 0.000000
O O4 0.231899 0.910547 0.944045
O O5 0.332785 0.717410 0.793266
O O6 0.104471 0.790551 0.787637
O O7 0.002506 0.695141 0.667074
O O8 0.294084 0.893984 0.584104
O O9 0.156208 0.925600 0.717033
O O10 0.330503 0.000000 0.680192
O O11 0.217939 0.810392 0.422668
O O12 0.075089 0.885788 0.244722
O O13 0.000000 0.633126 0.500000
O O14 0.964654 0.000000 0.197481
#
# Coordination Sequence:
#
# PCOD9214511 Si02
#       6
#     8   8   8   8   8   8
#     4   9  19  38  63  90 121 160 202 249 300 359
#     4  10  23  41  62  90 121 160 205 248 306 358
#     4   9  18  35  62  90 120 161 206 248 296 359
#     4  11  24  40  62  91 123 161 199 254 303 360
#     4   9  20  39  58  87 125 159 203 246 302 364
#     4  10  22  40  61  89 124 161 202 249 303 359
#
# _framework density 21.563761
#
# number of rings (size 3 to 8) (size 9 to 14) (size 15 to 20)
#    0.000    2.333    0.000    1.000    7.000    5.000 
#    0.000   10.000    0.000    0.000    0.000    0.000 
#    0.000    0.000    0.000    0.000    0.000    0.000 
#
# Total GULP energy -134154.953810 kJ/mol
# GULP energy per Si atom -5589.789742 kJ/mol
# Density = 2.151468 g / cm^3
# Si number density = 21.563761 Si / 1000 Ang^3
#
#
#
# Elastic Constant Matrix: (Units=GPa)
#
#
# Indices 1 2 3 4 5 6 
#
# 1 43.0340 30.5691 27.4340 0.0000 2.1588 0.0000
# 2 30.5691 103.1975 22.4298 0.0000 -15.7925 0.0000
# 3 27.4340 22.4298 67.3096 0.0000 -21.2174 0.0000
# 4 0.0000 0.0000 0.0000 15.6031 0.0000 -1.7551
# 5 2.1588 -15.7925 -21.2174 0.0000 22.1573 0.0000
# 6 0.0000 0.0000 0.0000 -1.7551 0.0000 31.8907
#
#
#
# Elastic Compliance Matrix: (Units=1/GPa)
#
#
# Indices 1 2 3 4 5 6 
#
# 1 0.062647 -0.018986 -0.036377 0.000000 -0.054470 0.000000
# 2 -0.018986 0.016767 0.009312 0.000000 0.022717 0.000000
# 3 -0.036377 0.009312 0.042669 0.000000 0.051040 0.000000
# 4 0.000000 0.000000 0.000000 0.064489 0.000000 0.003549
# 5 -0.054470 0.022717 0.051040 0.000000 0.115506 0.000000
# 6 0.000000 0.000000 0.000000 0.003549 0.000000 0.031552
#
#
# Mechanical properties :
#
#
# Convention : Reuss Voigt Hill
#
# Bulk Modulus (GPa) = 33.35446 41.60075 37.47761
# Shear Modulus (GPa) = 11.47514 22.80412 17.13963
#
# Velocity S-wave (km/s) = 2.30934 3.25548 2.82234
# Velocity P-wave (km/s) = 4.75522 5.78487 5.29513
#
# Compressibility (1/GPa) = 0.02998099
#
# Stress axis : x y z
#
# Youngs Moduli (GPa) = 15.96252 59.64183 23.43623
#
# Poissons Ratio (x) = 1.13238 0.85253
# Poissons Ratio (y) = 0.30307 -0.21824
# Poissons Ratio (z) = 0.58066 -0.55540
#
# Static dielectric constant tensor:
#      x y z
#    x 1.774100 0.000000 0.007150 
#    y 0.000000 1.752950 0.000000 
#    z 0.007150 0.000000 1.793900 
# 
# From -- ./inp_files/122010.got.cif
#   From: 2010.05.17/outbox.cif.g08.bks.cpg/sg12_62_cif.got.tgz:122010.got - 2010.06.03 13:09:07.
