data_PCOD9214173
_publ_section_title
;
Structure prediction by ZEFSAII (Michael W. Deem and Ramdas Pophale) SiO2 
 PCOD9214173
Probable space group: C 2/M
;
_chemical_formula_sum "Si O2"
_cell_formula_units_Z 64
_cell_length_a 18.251736
_cell_length_b 17.365058
_cell_length_c 14.552456
_cell_angle_alpha 90.000000
_cell_angle_beta 40.530637
_cell_angle_gamma 90.000000
_cell_volume 2997.318403
_symmetry_space_group_name_H-M "C 2/M"
_symmetry_group_IT_number 12
_symmetry_cell_setting 'monoclinic'
loop_
_space_group_symop_operation_xyz
x,y,z
-x,y,-z
-x,-y,-z
x,-y,z
1/2+x,1/2+y,z
1/2-x,1/2+y,-z
1/2-x,1/2-y,-z
1/2+x,1/2-y,z
loop_
_atom_site_type_symbol
_atom_site_label
_atom_site_fract_x
_atom_site_fract_y
_atom_site_fract_z
Si Si1 0.225110 0.415682 0.567715
Si Si2 0.624999 0.155007 0.839403
Si Si3 0.708292 0.087678 0.306895
Si Si4 0.415471 0.180306 0.434270
Si Si5 0.789611 0.162614 0.852803
Si Si6 0.922991 0.829221 0.163866
Si Si7 0.535211 0.647943 0.665290
Si Si8 0.331279 0.154726 0.844634
O O1 0.197008 0.500000 0.557233
O O2 0.160796 0.401298 0.724112
O O3 0.181112 0.350010 0.541436
O O4 0.359336 0.407519 0.449933
O O5 0.717007 0.149011 0.831786
O O6 0.625393 0.242363 0.798558
O O7 0.500000 0.142265 0.000000
O O8 0.618320 0.147159 0.434828
O O9 0.825049 0.108231 0.245459
O O10 0.720981 0.105299 0.187403
O O11 0.674347 0.000000 0.354187
O O12 0.426900 0.271453 0.416809
O O13 0.534144 0.146165 0.287104
O O14 0.805788 0.255216 0.848049
O O15 0.914498 0.127062 0.738136
O O16 0.719584 0.136064 0.008347
O O17 0.979438 0.837921 0.210287
O O18 0.000000 0.837528 0.000000
#
# Coordination Sequence:
#
# PCOD9214173 Si02
#       8
#     8   8   8   8   8   8   8   8
#     4  12  25  42  65  94 132 173 215 268 328 388
#     4  11  23  42  70  99 127 166 218 274 319 379
#     4  12  24  39  59  93 137 173 212 262 326 394
#     4  11  22  39  65  94 128 168 217 267 318 386
#     4  10  22  41  68  95 126 162 221 273 316 376
#     4  11  22  39  66  94 128 167 216 269 316 382
#     4  11  23  41  67  97 128 169 220 266 319 388
#     4  10  22  39  63  96 126 166 214 269 323 381
#
# _framework density 21.352419999999999
#
# number of rings (size 3 to 8) (size 9 to 14) (size 15 to 20)
#    0.000    1.000    3.750    3.375    7.000    2.500 
#    0.000    3.750    0.000    0.000    0.000    0.000 
#    0.000    0.000    0.000    0.000    0.000    0.000 
#
# Total GULP energy -178994.302811 kJ/mol
# GULP energy per Si atom -5593.571963 kJ/mol
# Density = 2.130382 g / cm^3
# Si number density = 21.352420 Si / 1000 Ang^3
#
#
#
# Elastic Constant Matrix: (Units=GPa)
#
#
# Indices 1 2 3 4 5 6 
#
# 1 100.6704 -4.1989 13.0829 0.0000 -7.4536 0.0000
# 2 -4.1989 32.7350 17.8639 0.0000 7.2339 0.0000
# 3 13.0829 17.8639 71.5786 0.0000 7.0557 0.0000
# 4 0.0000 0.0000 0.0000 -5.5191 0.0000 2.6999
# 5 -7.4536 7.2339 7.0557 0.0000 37.9676 0.0000
# 6 0.0000 0.0000 0.0000 2.6999 0.0000 -1.7388
#
#
#
# Elastic Compliance Matrix: (Units=1/GPa)
#
#
# Indices 1 2 3 4 5 6 
#
# 1 0.010544 0.002372 -0.002729 0.000000 0.002125 0.000000
# 2 0.002372 0.036933 -0.009171 0.000000 -0.004867 0.000000
# 3 -0.002729 -0.009171 0.016949 0.000000 -0.001938 0.000000
# 4 0.000000 0.000000 0.000000 -0.753786 0.000000 -1.170470
# 5 0.002125 -0.004867 -0.001938 0.000000 0.028043 0.000000
# 6 0.000000 0.000000 0.000000 -1.170470 0.000000 -2.392610
#
#
# Mechanical properties :
#
#
# Convention : Reuss Voigt Hill
#
# Bulk Modulus (GPa) = 22.04064 28.71997 25.38030
# Shear Modulus (GPa) = -1.65577 18.02437 8.18430
#
# Velocity S-wave (km/s) = -0.88155 2.90856 1.95992
# Velocity P-wave (km/s) = 3.05099 4.97587 4.12721
#
# Compressibility (1/GPa) = 0.04537074
#
# Stress axis : x y z
#
# Youngs Moduli (GPa) = 94.83802 27.07610 58.99960
#
# Poissons Ratio (x) = -0.06422 0.16099
# Poissons Ratio (y) = -0.22495 0.54109
# Poissons Ratio (z) = 0.25878 0.24832
#
# Static dielectric constant tensor:
#      x y z
#    x 1.783990 0.000000 -0.003790 
#    y 0.000000 1.729870 0.000000 
#    z -0.003790 0.000000 1.791220 
# 
# From -- ./inp_files/226810.got.cif
#   From: 2010.05.17/outbox.cif.g08.bks.cpg/sg12_114_cif.got.tgz:226810.got - 2010.06.03 13:09:07.
