data_PCOD9214910
_publ_section_title
;
Structure prediction by ZEFSAII (Michael W. Deem and Ramdas Pophale) SiO2 
 PCOD9214910
Probable space group: C 2/M
;
_chemical_formula_sum "Si O2"
_cell_formula_units_Z 48
_cell_length_a 15.878912
_cell_length_b 25.620408
_cell_length_c 5.804094
_cell_angle_alpha 90.000000
_cell_angle_beta 62.832086
_cell_angle_gamma 90.000000
_cell_volume 2100.734881
_symmetry_space_group_name_H-M "C 2/M"
_symmetry_group_IT_number 12
_symmetry_cell_setting 'monoclinic'
loop_
_space_group_symop_operation_xyz
x,y,z
-x,y,-z
-x,-y,-z
x,-y,z
1/2+x,1/2+y,z
1/2-x,1/2+y,-z
1/2-x,1/2-y,-z
1/2+x,1/2-y,z
loop_
_atom_site_type_symbol
_atom_site_label
_atom_site_fract_x
_atom_site_fract_y
_atom_site_fract_z
Si Si1 0.602725 0.902092 0.757432
Si Si2 0.858144 0.696304 0.015753
Si Si3 0.000000 0.359712 0.500000
Si Si4 0.663478 0.500000 0.920556
Si Si5 0.660295 0.313405 0.996651
Si Si6 0.000000 0.869184 0.500000
Si Si7 0.904196 0.102197 0.198242
Si Si8 0.269229 0.000000 0.286611
O O1 0.578291 0.897247 0.519115
O O2 0.669694 0.947268 0.766662
O O3 0.500000 0.910851 0.000000
O O4 0.640046 0.845378 0.782806
O O5 0.866892 0.756853 0.067970
O O6 0.944817 0.677037 0.747321
O O7 0.759202 0.690644 0.005901
O O8 0.604830 0.552731 0.955821
O O9 0.717200 0.500000 0.602818
O O10 0.715884 0.500000 0.103411
O O11 0.578616 0.332899 0.275853
O O12 0.673502 0.356427 0.778294
O O13 0.070396 0.905272 0.568577
O O14 0.000000 0.130792 0.000000
#
# Coordination Sequence:
#
# PCOD9214910 Si02
#       8
#     8   8   4   4   8   4   8   4
#     4  10  24  43  66  94 136 176 230 280 348 411
#     4  10  22  40  65  96 135 177 228 283 343 410
#     4  10  23  39  66  96 136 177 223 284 340 424
#     4  12  29  45  74 102 136 181 232 294 346 419
#     4  10  22  40  65  96 135 177 228 283 343 410
#     4  10  23  39  66  96 136 177 223 284 340 424
#     4  10  24  43  66  94 136 176 230 280 348 411
#     4  12  29  45  74 102 136 181 232 294 346 419
#
# _framework density 22.849146999999999
#
# number of rings (size 3 to 8) (size 9 to 14) (size 15 to 20)
#    0.000    1.667    0.000    2.000   14.000    8.000 
#    0.000    3.333    0.000    0.000    0.000    0.000 
#    0.000    0.000    0.000    0.000    0.000    0.000 
#
# Total GULP energy -133743.299513 kJ/mol
# GULP energy per Si atom -5572.637480 kJ/mol
# Density = 2.279714 g / cm^3
# Si number density = 22.849147 Si / 1000 Ang^3
#
#
#
# Elastic Constant Matrix: (Units=GPa)
#
#
# Indices 1 2 3 4 5 6 
#
# 1 113.3214 62.2435 34.6710 0.0000 32.7679 0.0000
# 2 62.2435 121.9124 24.3650 0.0000 41.9686 0.0000
# 3 34.6710 24.3650 58.2485 0.0000 9.3967 0.0000
# 4 0.0000 0.0000 0.0000 55.8804 0.0000 17.5665
# 5 32.7679 41.9686 9.3967 0.0000 52.8790 0.0000
# 6 0.0000 0.0000 0.0000 17.5665 0.0000 49.1902
#
#
#
# Elastic Compliance Matrix: (Units=1/GPa)
#
#
# Indices 1 2 3 4 5 6 
#
# 1 0.014455 -0.004778 -0.005943 0.000000 -0.004109 0.000000
# 2 -0.004778 0.013548 -0.001612 0.000000 -0.007505 0.000000
# 3 -0.005943 -0.001612 0.021186 0.000000 0.001197 0.000000
# 4 0.000000 0.000000 0.000000 0.020158 0.000000 -0.007199
# 5 -0.004109 -0.007505 0.001197 0.000000 0.027202 0.000000
# 6 0.000000 0.000000 0.000000 -0.007199 0.000000 0.022900
#
#
# Mechanical properties :
#
#
# Convention : Reuss Voigt Hill
#
# Bulk Modulus (GPa) = 40.77666 59.56013 50.16839
# Shear Modulus (GPa) = 32.83211 43.07012 37.95112
#
# Velocity S-wave (km/s) = 3.79477 4.34634 4.07989
# Velocity P-wave (km/s) = 6.08976 7.16316 6.64816
#
# Compressibility (1/GPa) = 0.02452383
#
# Stress axis : x y z
#
# Youngs Moduli (GPa) = 69.17912 73.81171 47.20035
#
# Poissons Ratio (x) = 0.35266 0.28049
# Poissons Ratio (y) = 0.33053 0.07610
# Poissons Ratio (z) = 0.41111 0.11901
#
# Static dielectric constant tensor:
#      x y z
#    x 1.898450 0.000000 0.072140 
#    y 0.000000 1.929540 0.000000 
#    z 0.072140 0.000000 2.023900 
# 
# From -- ./inp_files/16927.got.cif
#   From: 2010.05.17/outbox.cif.g08.bks.cpg/sg12_9_cif.got.tgz:16927.got - 2010.06.03 13:09:07.
