data_PCOD9214138
_publ_section_title
;
Structure prediction by ZEFSAII (Michael W. Deem and Ramdas Pophale) SiO2 
 PCOD9214138
Probable space group: C 2/M
;
_chemical_formula_sum "Si O2"
_cell_formula_units_Z 48
_cell_length_a 10.034514
_cell_length_b 16.177226
_cell_length_c 29.476667
_cell_angle_alpha 90.000000
_cell_angle_beta 150.457840
_cell_angle_gamma 90.000000
_cell_volume 2359.293350
_symmetry_space_group_name_H-M "C 2/M"
_symmetry_group_IT_number 12
_symmetry_cell_setting 'monoclinic'
loop_
_space_group_symop_operation_xyz
x,y,z
-x,y,-z
-x,-y,-z
x,-y,z
1/2+x,1/2+y,z
1/2-x,1/2+y,-z
1/2-x,1/2-y,-z
1/2+x,1/2-y,z
loop_
_atom_site_type_symbol
_atom_site_label
_atom_site_fract_x
_atom_site_fract_y
_atom_site_fract_z
Si Si1 0.834266 0.168827 0.496554
Si Si2 0.756762 0.154528 0.704236
Si Si3 0.776550 0.095588 0.219141
Si Si4 0.692224 0.399125 0.015138
Si Si5 0.825246 0.097474 0.825224
Si Si6 0.242631 0.347660 0.307577
O O1 0.750000 0.250000 0.500000
O O2 0.550603 0.128258 0.398326
O O3 0.000000 0.189489 0.500000
O O4 0.038533 0.122318 0.590793
O O5 0.804302 0.145558 0.771858
O O6 0.794167 0.249052 0.698977
O O7 0.979247 0.103513 0.743207
O O8 0.840919 0.138609 0.285651
O O9 0.727535 0.000000 0.215696
O O10 0.497474 0.128626 0.114965
O O11 0.689454 0.500000 0.013215
O O12 0.561866 0.372871 0.928920
O O13 0.500000 0.373954 0.000000
O O14 0.543479 0.109323 0.768480
O O15 0.863088 0.000000 0.826608
#
# Coordination Sequence:
#
# PCOD9214138 Si02
#       6
#     8   8   8   8   8   8
#     4  10  22  39  63  89 121 165 205 239 297 376
#     4  11  24  40  60  92 126 154 197 257 305 353
#     4  11  23  41  63  90 123 160 203 251 301 358
#     4   9  18  36  62  87 116 162 207 238 291 374
#     4  11  21  39  64  89 119 160 204 247 299 359
#     4  11  22  40  65  89 118 161 206 244 297 363
#
# _framework density 20.345074
#
# number of rings (size 3 to 8) (size 9 to 14) (size 15 to 20)
#    0.000    1.500    3.333    2.000    7.000    0.667 
#    0.000   12.500    0.000    0.000    0.000    0.000 
#    0.000    0.000    0.000    0.000    0.000    0.000 
#
# Total GULP energy -134034.507503 kJ/mol
# GULP energy per Si atom -5584.771146 kJ/mol
# Density = 2.029877 g / cm^3
# Si number density = 20.345074 Si / 1000 Ang^3
#
#
#
# Elastic Constant Matrix: (Units=GPa)
#
#
# Indices 1 2 3 4 5 6 
#
# 1 117.7558 -10.5668 64.7370 0.0001 -5.6915 0.0000
# 2 -10.5668 20.6827 8.9410 -0.0004 -4.5265 0.0001
# 3 64.7370 8.9410 154.8061 0.0000 -17.7665 0.0018
# 4 0.0001 -0.0004 0.0000 15.1001 0.0003 0.0005
# 5 -5.6915 -4.5265 -17.7665 0.0003 41.8529 0.0002
# 6 0.0000 0.0001 0.0018 0.0005 0.0002 33.3899
#
#
#
# Elastic Compliance Matrix: (Units=1/GPa)
#
#
# Indices 1 2 3 4 5 6 
#
# 1 0.012419 0.008851 -0.005678 0.000000 0.000236 0.000000
# 2 0.008851 0.056664 -0.006447 0.000001 0.004595 0.000000
# 3 -0.005678 -0.006447 0.009500 0.000000 0.002564 -0.000001
# 4 0.000000 0.000001 0.000000 0.066225 0.000000 -0.000001
# 5 0.000236 0.004595 0.002564 0.000000 0.025511 0.000000
# 6 0.000000 0.000000 -0.000001 -0.000001 0.000000 0.029949
#
#
# Mechanical properties :
#
#
# Convention : Reuss Voigt Hill
#
# Bulk Modulus (GPa) = 13.88172 46.60744 30.24458
# Shear Modulus (GPa) = 21.66127 33.41080 27.53604
#
# Velocity S-wave (km/s) = 3.26650 4.05681 3.68292
# Velocity P-wave (km/s) = 4.58963 6.70088 5.74310
#
# Compressibility (1/GPa) = 0.07203718
#
# Stress axis : x y z
#
# Youngs Moduli (GPa) = 80.52145 17.64788 105.25786
#
# Poissons Ratio (x) = -0.15620 0.59760
# Poissons Ratio (y) = -0.71269 0.67855
# Poissons Ratio (z) = 0.45716 0.11377
#
# Static dielectric constant tensor:
#      x y z
#    x 0.671640 0.000010 -0.876720 
#    y 0.000010 1.717120 0.000010 
#    z -0.876720 0.000010 1.005420 
# 
# From -- ./inp_files/356886.got.cif
#   From: 2010.05.17/outbox.cif.g08.bks.cpg/sg12_179_cif.got.tgz:356886.got - 2010.06.03 13:09:07.
