data_PCOD9214365
_publ_section_title
;
Structure prediction by ZEFSAII (Michael W. Deem and Ramdas Pophale) SiO2 
 PCOD9214365
Probable space group: C 2/M
;
_chemical_formula_sum "Si O2"
_cell_formula_units_Z 34
_cell_length_a 9.931006
_cell_length_b 9.016762
_cell_length_c 18.308536
_cell_angle_alpha 90.000000
_cell_angle_beta 85.083676
_cell_angle_gamma 90.000000
_cell_volume 1633.415673
_symmetry_space_group_name_H-M "C 2/M"
_symmetry_group_IT_number 12
_symmetry_cell_setting 'monoclinic'
loop_
_space_group_symop_operation_xyz
x,y,z
-x,y,-z
-x,-y,-z
x,-y,z
1/2+x,1/2+y,z
1/2-x,1/2+y,-z
1/2-x,1/2-y,-z
1/2+x,1/2-y,z
loop_
_atom_site_type_symbol
_atom_site_label
_atom_site_fract_x
_atom_site_fract_y
_atom_site_fract_z
Si Si1 0.639252 0.335420 0.122195
Si Si2 0.500000 0.500000 0.000000
Si Si3 0.945675 0.823438 0.421851
Si Si4 0.643106 0.322278 0.809354
Si Si5 0.772697 0.176089 0.661360
O O1 0.676512 0.500000 0.151042
O O2 0.511671 0.273829 0.173655
O O3 0.766700 0.231173 0.126605
O O4 0.579402 0.373021 0.045821
O O5 0.070081 0.792589 0.361139
O O6 0.000000 0.788600 0.500000
O O7 0.815961 0.732800 0.402728
O O8 0.916420 0.000000 0.420498
O O9 0.639874 0.500000 0.808630
O O10 0.713668 0.258276 0.734559
O O11 0.757658 0.000000 0.669286
#
# Coordination Sequence:
#
# PCOD9214365 Si02
#       5
#     8   2   8   8   8
#     4   9  21  40  60  84 117 152 187 237 289 343
#     4   8  20  44  62  82 120 156 180 238 296 340
#     4  10  22  40  59  84 119 156 196 244 293 343
#     4  11  22  38  60  89 117 152 197 240 286 344
#     4  11  23  37  59  88 117 156 197 241 292 341
#
# _framework density 20.815276999999998
#
# number of rings (size 3 to 8) (size 9 to 14) (size 15 to 20)
#    0.706    1.176    0.000    3.529    0.000   10.824 
#    0.000    0.588    0.000    0.000    0.000    0.000 
#    0.000    0.000    0.000    0.000    0.000    0.000 
#
# Total GULP energy -94665.549183 kJ/mol
# GULP energy per Si atom -5568.561717 kJ/mol
# Density = 2.076790 g / cm^3
# Si number density = 20.815277 Si / 1000 Ang^3
#
#
#
# Elastic Constant Matrix: (Units=GPa)
#
#
# Indices 1 2 3 4 5 6 
#
# 1 65.9312 27.9196 -3.8025 0.0000 1.7983 0.0000
# 2 27.9196 29.7756 -1.4909 0.0000 2.4445 0.0000
# 3 -3.8025 -1.4909 51.3630 0.0000 12.2385 0.0000
# 4 0.0000 0.0000 0.0000 39.6492 0.0000 14.6949
# 5 1.7983 2.4445 12.2385 0.0000 27.5732 0.0000
# 6 0.0000 0.0000 0.0000 14.6949 0.0000 25.7662
#
#
#
# Elastic Compliance Matrix: (Units=1/GPa)
#
#
# Indices 1 2 3 4 5 6 
#
# 1 0.025228 -0.023588 0.001204 0.000000 -0.000089 0.000000
# 2 -0.023588 0.056051 0.000781 0.000000 -0.003778 0.000000
# 3 0.001204 0.000781 0.021936 0.000000 -0.009884 0.000000
# 4 0.000000 0.000000 0.000000 0.031981 0.000000 -0.018239
# 5 -0.000089 -0.003778 -0.009884 0.000000 0.040995 0.000000
# 6 0.000000 0.000000 0.000000 -0.018239 0.000000 0.049213
#
#
# Mechanical properties :
#
#
# Convention : Reuss Voigt Hill
#
# Bulk Modulus (GPa) = 16.66396 21.36911 19.01654
# Shear Modulus (GPa) = 17.32425 26.89397 22.10911
#
# Velocity S-wave (km/s) = 2.88807 3.59838 3.26261
# Velocity P-wave (km/s) = 4.37541 5.24908 4.83203
#
# Compressibility (1/GPa) = 0.06000974
#
# Stress axis : x y z
#
# Youngs Moduli (GPa) = 39.63890 17.84083 45.58661
#
# Poissons Ratio (x) = 0.42082 -0.05489
# Poissons Ratio (y) = 0.93499 -0.03560
# Poissons Ratio (z) = -0.04773 -0.01393
#
# Static dielectric constant tensor:
#      x y z
#    x 1.727960 0.000000 -0.008660 
#    y 0.000000 1.693520 0.000000 
#    z -0.008660 0.000000 1.825000 
# 
# From -- ./inp_files/298722.got.cif
#   From: 2010.05.17/outbox.cif.g08.bks.cpg/sg12_150_cif.got.tgz:298722.got - 2010.06.03 13:09:07.
