data_PCOD9214272
_publ_section_title
;
Structure prediction by ZEFSAII (Michael W. Deem and Ramdas Pophale) SiO2 
 PCOD9214272
Probable space group: C 2/M
;
_chemical_formula_sum "Si O2"
_cell_formula_units_Z 42
_cell_length_a 9.469712
_cell_length_b 13.781693
_cell_length_c 17.957277
_cell_angle_alpha 90.000000
_cell_angle_beta 111.802280
_cell_angle_gamma 90.000000
_cell_volume 2175.946386
_symmetry_space_group_name_H-M "C 2/M"
_symmetry_group_IT_number 12
_symmetry_cell_setting 'monoclinic'
loop_
_space_group_symop_operation_xyz
x,y,z
-x,y,-z
-x,-y,-z
x,-y,z
1/2+x,1/2+y,z
1/2-x,1/2+y,-z
1/2-x,1/2-y,-z
1/2+x,1/2-y,z
loop_
_atom_site_type_symbol
_atom_site_label
_atom_site_fract_x
_atom_site_fract_y
_atom_site_fract_z
Si Si1 0.833016 0.773268 0.439874
Si Si2 0.000000 0.500000 0.000000
Si Si3 0.308412 0.280256 0.828026
Si Si4 0.166124 0.887123 0.700457
Si Si5 0.879342 0.687913 0.066817
Si Si6 0.179930 0.112470 0.321975
O O1 0.750000 0.750000 0.500000
O O2 0.780642 0.856647 0.372008
O O3 0.809570 0.677546 0.385039
O O4 0.000000 0.796616 0.500000
O O5 0.083400 0.586820 0.966035
O O6 0.244316 0.182466 0.776107
O O7 0.186917 0.321637 0.862498
O O8 0.465602 0.250099 0.897526
O O9 0.336679 0.354664 0.766489
O O10 0.984017 0.869642 0.671137
O O11 0.195218 0.000000 0.721477
O O12 0.750000 0.750000 0.000000
O O13 0.214962 0.000000 0.335123
#
# Coordination Sequence:
#
# PCOD9214272 Si02
#       6
#     8   2   8   8   8   8
#     4  11  22  39  61  90 129 170 211 271 332 388
#     4  12  28  44  74 106 136 184 230 274 354 418
#     4  11  23  44  67  95 136 174 215 285 334 397
#     4  10  22  39  66  95 124 174 226 269 335 409
#     4  12  25  47  69 102 140 177 226 281 339 413
#     4  10  22  40  62  95 126 168 222 269 332 398
#
# _framework density 19.301945
#
# number of rings (size 3 to 8) (size 9 to 14) (size 15 to 20)
#    0.000    1.143    5.714    0.000    2.667    1.524 
#    1.714    2.857    0.000    0.000    0.000    0.000 
#    0.000    0.000    0.000    0.000    0.000    0.000 
#
# Total GULP energy -116921.949201 kJ/mol
# GULP energy per Si atom -5567.711867 kJ/mol
# Density = 1.925801 g / cm^3
# Si number density = 19.301945 Si / 1000 Ang^3
#
#
#
# Elastic Constant Matrix: (Units=GPa)
#
#
# Indices 1 2 3 4 5 6 
#
# 1 64.6878 11.9487 25.9825 0.0000 -32.1281 0.0000
# 2 11.9487 85.3436 37.6651 0.0000 -5.8237 0.0000
# 3 25.9825 37.6651 91.6382 0.0000 -11.3192 0.0000
# 4 0.0000 0.0000 0.0000 10.3779 0.0000 -5.5762
# 5 -32.1281 -5.8237 -11.3192 0.0000 47.1819 0.0000
# 6 0.0000 0.0000 0.0000 -5.5762 0.0000 25.8245
#
#
#
# Elastic Compliance Matrix: (Units=1/GPa)
#
#
# Indices 1 2 3 4 5 6 
#
# 1 0.025608 -0.000194 -0.005184 0.000000 0.016170 0.000000
# 2 -0.000194 0.014321 -0.005801 0.000000 0.000244 0.000000
# 3 -0.005184 -0.005801 0.014677 0.000000 -0.000725 0.000000
# 4 0.000000 0.000000 0.000000 0.109006 0.000000 0.023537
# 5 0.016170 0.000244 -0.000725 0.000000 0.032061 0.000000
# 6 0.000000 0.000000 0.000000 0.023537 0.000000 0.043805
#
#
# Mechanical properties :
#
#
# Convention : Reuss Voigt Hill
#
# Bulk Modulus (GPa) = 31.00934 43.65135 37.33035
# Shear Modulus (GPa) = 18.34281 27.74841 23.04561
#
# Velocity S-wave (km/s) = 3.08605 3.79568 3.45911
# Velocity P-wave (km/s) = 5.36643 6.47099 5.94442
#
# Compressibility (1/GPa) = 0.03224835
#
# Stress axis : x y z
#
# Youngs Moduli (GPa) = 39.05076 69.82530 68.13330
#
# Poissons Ratio (x) = 0.01356 0.35317
# Poissons Ratio (y) = 0.00758 0.39526
# Poissons Ratio (z) = 0.20242 0.40507
#
# Static dielectric constant tensor:
#      x y z
#    x 1.594470 0.000000 0.065800 
#    y 0.000000 1.631700 0.000000 
#    z 0.065800 0.000000 1.625270 
# 
# From -- ./inp_files/251357.got.cif
#   From: 2010.05.17/outbox.cif.g08.bks.cpg/sg12_126_cif.got.tgz:251357.got - 2010.06.03 13:09:07.
