data_PCOD9214231
_publ_section_title
;
Structure prediction by ZEFSAII (Michael W. Deem and Ramdas Pophale) SiO2 
 PCOD9214231
Probable space group: C 2/M
;
_chemical_formula_sum "Si O2"
_cell_formula_units_Z 42
_cell_length_a 8.975477
_cell_length_b 25.835563
_cell_length_c 13.484375
_cell_angle_alpha 90.000000
_cell_angle_beta 36.504504
_cell_angle_gamma 90.000000
_cell_volume 1860.115967
_symmetry_space_group_name_H-M "C 2/M"
_symmetry_group_IT_number 12
_symmetry_cell_setting 'monoclinic'
loop_
_space_group_symop_operation_xyz
x,y,z
-x,y,-z
-x,-y,-z
x,-y,z
1/2+x,1/2+y,z
1/2-x,1/2+y,-z
1/2-x,1/2-y,-z
1/2+x,1/2-y,z
loop_
_atom_site_type_symbol
_atom_site_label
_atom_site_fract_x
_atom_site_fract_y
_atom_site_fract_z
Si Si1 0.213508 0.725833 0.186001
Si Si2 0.500000 0.000000 0.500000
Si Si3 0.337161 0.938795 0.244199
Si Si4 0.346925 0.315432 0.317034
Si Si5 0.310350 0.376522 0.017656
Si Si6 0.808505 0.912336 0.451879
O O1 0.194772 0.713096 0.311960
O O2 0.178094 0.673220 0.140963
O O3 0.023506 0.771346 0.266381
O O4 0.500000 0.741149 0.000000
O O5 0.309972 0.045590 0.558069
O O6 0.607947 0.914789 0.081701
O O7 0.289643 0.926636 0.385997
O O8 0.108822 0.915480 0.303929
O O9 0.334586 0.000000 0.231248
O O10 0.234993 0.354651 0.457155
O O11 0.517099 0.353991 0.160028
O O12 0.500000 0.399186 0.000000
#
# Coordination Sequence:
#
# PCOD9214231 Si02
#       6
#     8   2   8   8   8   8
#     4   9  19  37  62  94 132 173 209 252 328 390
#     4  12  24  46  68  92 126 176 224 260 324 398
#     4  11  23  47  64  95 128 173 219 264 333 380
#     4  10  22  39  65 101 123 174 217 261 322 381
#     4   9  21  39  66  98 135 170 211 263 322 386
#     4  11  25  41  71  90 125 176 218 268 322 387
#
# _framework density 22.579238
#
# number of rings (size 3 to 8) (size 9 to 14) (size 15 to 20)
#    0.000    2.286    1.905    2.857   10.667    0.381 
#    1.714    1.905    0.000    0.000    0.000    0.000 
#    0.000    0.000    0.000    0.000    0.000    0.000 
#
# Total GULP energy -117142.859499 kJ/mol
# GULP energy per Si atom -5578.231405 kJ/mol
# Density = 2.252785 g / cm^3
# Si number density = 22.579238 Si / 1000 Ang^3
#
#
#
# Elastic Constant Matrix: (Units=GPa)
#
#
# Indices 1 2 3 4 5 6 
#
# 1 123.1669 58.7829 24.6694 0.0000 -23.8003 0.0000
# 2 58.7829 65.1338 5.1140 0.0000 -12.4398 0.0000
# 3 24.6694 5.1140 35.2714 0.0000 -8.7943 0.0000
# 4 0.0000 0.0000 0.0000 -0.1686 0.0000 -64.9136
# 5 -23.8003 -12.4398 -8.7943 0.0000 26.5682 0.0000
# 6 0.0000 0.0000 0.0000 -64.9136 0.0000 -13.4120
#
#
#
# Elastic Compliance Matrix: (Units=1/GPa)
#
#
# Indices 1 2 3 4 5 6 
#
# 1 0.017961 -0.014278 -0.008880 0.000000 0.006465 0.000000
# 2 -0.014278 0.028219 0.006540 0.000000 0.002587 0.000000
# 3 -0.008880 0.006540 0.035308 0.000000 0.006794 0.000000
# 4 0.000000 0.000000 0.000000 0.003185 0.000000 -0.015413
# 5 0.006465 0.002587 0.006794 0.000000 0.046891 0.000000
# 6 0.000000 0.000000 0.000000 -0.015413 0.000000 0.000040
#
#
# Mechanical properties :
#
#
# Convention : Reuss Voigt Hill
#
# Bulk Modulus (GPa) = 20.72444 44.52275 32.62360
# Shear Modulus (GPa) = 27.63556 11.59791 19.61674
#
# Velocity S-wave (km/s) = 3.50228 2.26885 2.95073
# Velocity P-wave (km/s) = 5.05500 5.15993 5.10773
#
# Compressibility (1/GPa) = 0.04825221
#
# Stress axis : x y z
#
# Youngs Moduli (GPa) = 55.67483 35.43652 28.32190
#
# Poissons Ratio (x) = 0.50596 0.25151
# Poissons Ratio (y) = 0.79493 -0.18522
# Poissons Ratio (z) = 0.49441 -0.23175
#
# Static dielectric constant tensor:
#      x y z
#    x 1.849490 0.000000 -0.016390 
#    y 0.000000 1.782840 0.000000 
#    z -0.016390 0.000000 1.978640 
# 
# From -- ./inp_files/199589.got.cif
#   From: 2010.05.17/outbox.cif.g08.bks.cpg/sg12_100_cif.got.tgz:199589.got - 2010.06.03 13:09:07.
