data_PCOD9214574
_publ_section_title
;
Structure prediction by ZEFSAII (Michael W. Deem and Ramdas Pophale) SiO2 
 PCOD9214574
Probable space group: C 2/M
;
_chemical_formula_sum "Si O2"
_cell_formula_units_Z 40
_cell_length_a 9.589188
_cell_length_b 18.181011
_cell_length_c 12.251594
_cell_angle_alpha 90.000000
_cell_angle_beta 79.424916
_cell_angle_gamma 90.000000
_cell_volume 2099.678082
_symmetry_space_group_name_H-M "C 2/M"
_symmetry_group_IT_number 12
_symmetry_cell_setting 'monoclinic'
loop_
_space_group_symop_operation_xyz
x,y,z
-x,y,-z
-x,-y,-z
x,-y,z
1/2+x,1/2+y,z
1/2-x,1/2+y,-z
1/2-x,1/2-y,-z
1/2+x,1/2-y,z
loop_
_atom_site_type_symbol
_atom_site_label
_atom_site_fract_x
_atom_site_fract_y
_atom_site_fract_z
Si Si1 0.557063 0.201537 0.319145
Si Si2 0.908604 0.084401 0.778017
Si Si3 0.719541 0.587383 0.632794
Si Si4 0.227017 0.165048 0.399588
Si Si5 0.112036 0.777482 0.079422
O O1 0.649996 0.128571 0.327418
O O2 0.391893 0.188424 0.368063
O O3 0.628967 0.264708 0.384369
O O4 0.573357 0.229980 0.192505
O O5 0.813274 0.106395 0.687857
O O6 0.871424 0.140086 0.878823
O O7 0.073154 0.096652 0.720296
O O8 0.889358 0.000000 0.809750
O O9 0.744301 0.500000 0.614684
O O10 0.699004 0.628004 0.519916
O O11 0.250000 0.750000 0.000000
O O12 0.000000 0.774479 0.000000
#
# Coordination Sequence:
#
# PCOD9214574 Si02
#       5
#     8   8   8   8   8
#     4  11  23  39  60  88 120 155 202 248 289 350
#     4  10  22  40  62  89 119 153 197 243 291 352
#     4  11  23  39  60  89 125 159 191 235 293 356
#     4  11  22  38  61  89 124 159 194 235 290 357
#     4  11  22  40  62  84 112 151 201 252 299 339
#
# _framework density 19.050539000000001
#
# number of rings (size 3 to 8) (size 9 to 14) (size 15 to 20)
#    0.000    1.200    0.000    8.400    0.000    7.600 
#    0.000    1.000    0.000    2.400    0.000    0.000 
#    0.000    0.000    0.000    0.000    0.000    0.000 
#
# Total GULP energy -111867.119233 kJ/mol
# GULP energy per Si atom -5593.355962 kJ/mol
# Density = 1.900718 g / cm^3
# Si number density = 19.050539 Si / 1000 Ang^3
#
#
#
# Elastic Constant Matrix: (Units=GPa)
#
#
# Indices 1 2 3 4 5 6 
#
# 1 74.1158 57.5143 24.7027 0.0000 4.0218 0.0000
# 2 57.5143 126.9853 67.9506 0.0000 -10.6458 0.0000
# 3 24.7027 67.9506 106.2301 0.0000 3.9107 0.0000
# 4 0.0000 0.0000 0.0000 21.6891 0.0000 -6.5170
# 5 4.0218 -10.6458 3.9107 0.0000 35.5947 0.0000
# 6 0.0000 0.0000 0.0000 -6.5170 0.0000 31.0341
#
#
#
# Elastic Compliance Matrix: (Units=1/GPa)
#
#
# Indices 1 2 3 4 5 6 
#
# 1 0.022355 -0.012185 0.002835 0.000000 -0.006482 0.000000
# 2 -0.012185 0.019357 -0.009852 0.000000 0.008249 0.000000
# 3 0.002835 -0.009852 0.015238 0.000000 -0.004941 0.000000
# 4 0.000000 0.000000 0.000000 0.049211 0.000000 0.010334
# 5 -0.006482 0.008249 -0.004941 0.000000 0.031836 0.000000
# 6 0.000000 0.000000 0.000000 0.010334 0.000000 0.034393
#
#
# Mechanical properties :
#
#
# Convention : Reuss Voigt Hill
#
# Bulk Modulus (GPa) = 53.92280 67.51847 60.72064
# Shear Modulus (GPa) = 23.04374 28.14116 25.59245
#
# Velocity S-wave (km/s) = 3.48172 3.84759 3.66922
# Velocity P-wave (km/s) = 6.67306 7.43352 7.06353
#
# Compressibility (1/GPa) = 0.01854503
#
# Stress axis : x y z
#
# Youngs Moduli (GPa) = 44.73219 51.65990 65.62439
#
# Poissons Ratio (x) = 0.62949 -0.18601
# Poissons Ratio (y) = 0.54508 0.64654
# Poissons Ratio (z) = -0.12679 0.50896
#
# Static dielectric constant tensor:
#      x y z
#    x 1.631250 0.000000 0.003710 
#    y 0.000000 1.656890 0.000000 
#    z 0.003710 0.000000 1.642490 
# 
# From -- ./inp_files/118867.got.cif
#   From: 2010.05.17/outbox.cif.g08.bks.cpg/sg12_60_cif.got.tgz:118867.got - 2010.06.03 13:09:07.
