data_PCOD9214227
_publ_section_title
;
Structure prediction by ZEFSAII (Michael W. Deem and Ramdas Pophale) SiO2 
 PCOD9214227
Probable space group: C 2/M
;
_chemical_formula_sum "Si O2"
_cell_formula_units_Z 48
_cell_length_a 27.497385
_cell_length_b 13.268179
_cell_length_c 8.907603
_cell_angle_alpha 90.000000
_cell_angle_beta 137.070401
_cell_angle_gamma 90.000000
_cell_volume 2213.471557
_symmetry_space_group_name_H-M "C 2/M"
_symmetry_group_IT_number 12
_symmetry_cell_setting 'monoclinic'
loop_
_space_group_symop_operation_xyz
x,y,z
-x,y,-z
-x,-y,-z
x,-y,z
1/2+x,1/2+y,z
1/2-x,1/2+y,-z
1/2-x,1/2-y,-z
1/2+x,1/2-y,z
loop_
_atom_site_type_symbol
_atom_site_label
_atom_site_fract_x
_atom_site_fract_y
_atom_site_fract_z
Si Si1 0.825902 0.800264 0.701456
Si Si2 0.067019 0.114172 0.262263
Si Si3 0.147760 0.231457 0.689233
Si Si4 0.076117 0.390670 0.091861
Si Si5 0.229409 0.881173 0.117569
Si Si6 0.579046 0.892763 0.741831
O O1 0.750000 0.750000 0.500000
O O2 0.859235 0.883061 0.666451
O O3 0.878191 0.707714 0.781436
O O4 0.820712 0.846110 0.856713
O O5 0.084979 0.187903 0.442099
O O6 0.053202 0.000000 0.284417
O O7 0.000000 0.139840 0.000000
O O8 0.201955 0.306392 0.724721
O O9 0.118977 0.300411 0.758884
O O10 0.191675 0.143271 0.872277
O O11 0.108122 0.500000 0.209984
O O12 0.070505 0.390941 0.899901
O O13 0.000000 0.384151 0.000000
O O14 0.245364 0.000000 0.167540
O O15 0.500000 0.892498 0.500000
O O16 0.614641 0.000000 0.780541
#
# Coordination Sequence:
#
# PCOD9214227 Si02
#       6
#     8   8   8   8   8   8
#     4  12  24  44  65  99 136 182 228 284 344 405
#     4  11  26  46  70 100 138 183 232 288 345 411
#     4  11  23  44  69 101 137 183 230 281 351 413
#     4  10  23  43  68  99 134 175 227 281 340 406
#     4  11  24  43  69 101 138 180 232 288 345 415
#     4  10  22  39  64  98 132 169 216 276 338 399
#
# _framework density 21.685393000000001
#
# number of rings (size 3 to 8) (size 9 to 14) (size 15 to 20)
#    0.000    1.167    3.333    2.000    4.667    1.333 
#    0.000    0.000    0.000    6.000    0.000    0.000 
#    0.000    0.000    0.000    0.000    0.000    0.000 
#
# Total GULP energy -133937.379787 kJ/mol
# GULP energy per Si atom -5580.724158 kJ/mol
# Density = 2.163604 g / cm^3
# Si number density = 21.685393 Si / 1000 Ang^3
#
#
#
# Elastic Constant Matrix: (Units=GPa)
#
#
# Indices 1 2 3 4 5 6 
#
# 1 97.7443 35.8645 -1.1519 0.0000 -7.0431 0.0000
# 2 35.8645 145.8826 38.8520 0.0000 -4.2880 0.0000
# 3 -1.1519 38.8520 80.5214 0.0000 -6.2451 0.0000
# 4 0.0000 0.0000 0.0000 11.2936 0.0000 -0.4115
# 5 -7.0431 -4.2880 -6.2451 0.0000 29.2656 0.0000
# 6 0.0000 0.0000 0.0000 -0.4115 0.0000 33.4645
#
#
#
# Elastic Compliance Matrix: (Units=1/GPa)
#
#
# Indices 1 2 3 4 5 6 
#
# 1 0.011668 -0.003315 0.001979 0.000000 0.002745 0.000000
# 2 -0.003315 0.008811 -0.004332 0.000000 -0.000431 0.000000
# 3 0.001979 -0.004332 0.014770 0.000000 0.002993 0.000000
# 4 0.000000 0.000000 0.000000 0.088586 0.000000 0.001089
# 5 0.002745 -0.000431 0.002993 0.000000 0.035406 0.000000
# 6 0.000000 0.000000 0.000000 0.001089 0.000000 0.029896
#
#
# Mechanical properties :
#
#
# Convention : Reuss Voigt Hill
#
# Bulk Modulus (GPa) = 41.81796 52.36417 47.09106
# Shear Modulus (GPa) = 23.98733 31.51031 27.74882
#
# Velocity S-wave (km/s) = 3.32949 3.81605 3.58104
# Velocity P-wave (km/s) = 5.84008 6.60423 6.23388
#
# Compressibility (1/GPa) = 0.02391317
#
# Stress axis : x y z
#
# Youngs Moduli (GPa) = 85.70280 113.49582 67.70558
#
# Poissons Ratio (x) = 0.37624 -0.13401
# Poissons Ratio (y) = 0.28411 0.29331
# Poissons Ratio (z) = -0.16963 0.49168
#
# Static dielectric constant tensor:
#      x y z
#    x 1.735950 0.000000 0.016500 
#    y 0.000000 1.860810 0.000000 
#    z 0.016500 0.000000 1.801190 
# 
# From -- ./inp_files/105049.got.cif
#   From: 2010.05.17/outbox.cif.g08.bks.cpg/sg12_53_cif.got.tgz:105049.got - 2010.06.03 13:09:07.
