data_PCOD9214337
_publ_section_title
;
Structure prediction by ZEFSAII (Michael W. Deem and Ramdas Pophale) SiO2 
 PCOD9214337
Probable space group: C 2/M
;
_chemical_formula_sum "Si O2"
_cell_formula_units_Z 56
_cell_length_a 27.306991
_cell_length_b 19.084944
_cell_length_c 5.284503
_cell_angle_alpha 90.000000
_cell_angle_beta 111.561728
_cell_angle_gamma 90.000000
_cell_volume 2561.310264
_symmetry_space_group_name_H-M "C 2/M"
_symmetry_group_IT_number 12
_symmetry_cell_setting 'monoclinic'
loop_
_space_group_symop_operation_xyz
x,y,z
-x,y,-z
-x,-y,-z
x,-y,z
1/2+x,1/2+y,z
1/2-x,1/2+y,-z
1/2-x,1/2-y,-z
1/2+x,1/2-y,z
loop_
_atom_site_type_symbol
_atom_site_label
_atom_site_fract_x
_atom_site_fract_y
_atom_site_fract_z
Si Si1 0.560681 0.145680 0.128338
Si Si2 0.762054 0.626020 0.058777
Si Si3 0.438908 0.760779 0.364364
Si Si4 0.163178 0.422661 0.224466
Si Si5 0.355528 0.653050 0.384286
Si Si6 0.779426 0.000000 0.728464
Si Si7 0.194967 0.273105 0.507759
Si Si8 0.347611 0.500000 0.365604
O O1 0.570190 0.183451 0.420355
O O2 0.600200 0.083825 0.127439
O O3 0.500000 0.122931 0.000000
O O4 0.567254 0.201918 0.915737
O O5 0.748198 0.574433 0.266281
O O6 0.791811 0.697727 0.186284
O O7 0.802954 0.582183 0.968500
O O8 0.704537 0.642632 0.834071
O O9 0.500000 0.737684 0.500000
O O10 0.397700 0.697319 0.307437
O O11 0.175526 0.500000 0.353448
O O12 0.175518 0.344881 0.352079
O O13 0.343358 0.707215 0.587832
O O14 0.375315 0.574366 0.466560
O O15 0.800943 0.000000 0.485664
O O16 0.825147 0.000000 0.035679
O O17 0.250000 0.250000 0.500000
#
# Coordination Sequence:
#
# PCOD9214337 Si02
#       8
#     8   8   8   8   8   4   8   4
#     4  10  23  45  69  96 131 175 222 274 335 395
#     4  11  24  37  60  90 130 177 210 274 323 397
#     4  10  22  42  71  99 128 171 225 279 332 394
#     4  12  26  41  62  98 134 174 224 278 328 387
#     4  11  22  41  63  93 130 172 223 268 334 399
#     4  10  22  40  58  84 132 169 213 248 323 387
#     4  12  24  37  62  89 129 172 224 265 328 396
#     4  10  24  40  61  92 124 174 208 265 321 395
#
# _framework density 21.863807999999999
#
# number of rings (size 3 to 8) (size 9 to 14) (size 15 to 20)
#    0.000    1.143    3.571    2.143    5.000    2.571 
#    0.000    0.357    0.000    2.571    0.000    7.000 
#    0.000    0.000    0.000    0.000    0.000    0.000 
#
# Total GULP energy -156054.173866 kJ/mol
# GULP energy per Si atom -5573.363352 kJ/mol
# Density = 2.181405 g / cm^3
# Si number density = 21.863808 Si / 1000 Ang^3
#
#
#
# Elastic Constant Matrix: (Units=GPa)
#
#
# Indices 1 2 3 4 5 6 
#
# 1 122.6696 37.7141 18.7037 0.0000 -3.6210 0.0000
# 2 37.7141 149.0809 17.4765 0.0000 12.0841 0.0000
# 3 18.7037 17.4765 55.9412 0.0000 -3.2414 0.0000
# 4 0.0000 0.0000 0.0000 20.5355 0.0000 1.1817
# 5 -3.6210 12.0841 -3.2414 0.0000 19.9153 0.0000
# 6 0.0000 0.0000 0.0000 1.1817 0.0000 7.5909
#
#
#
# Elastic Compliance Matrix: (Units=1/GPa)
#
#
# Indices 1 2 3 4 5 6 
#
# 1 0.009281 -0.002308 -0.002224 0.000000 0.002726 0.000000
# 2 -0.002308 0.007985 -0.002047 0.000000 -0.005598 0.000000
# 3 -0.002224 -0.002047 0.019492 0.000000 0.004010 0.000000
# 4 0.000000 0.000000 0.000000 0.049136 0.000000 -0.007649
# 5 0.002726 -0.005598 0.004010 0.000000 0.054758 0.000000
# 6 0.000000 0.000000 0.000000 -0.007649 0.000000 0.132928
#
#
# Mechanical properties :
#
#
# Convention : Reuss Voigt Hill
#
# Bulk Modulus (GPa) = 42.37484 52.83113 47.60299
# Shear Modulus (GPa) = 16.97184 26.52816 21.75000
#
# Velocity S-wave (km/s) = 2.78915 3.48708 3.15746
# Velocity P-wave (km/s) = 5.45856 6.35839 5.92558
#
# Compressibility (1/GPa) = 0.02359891
#
# Stress axis : x y z
#
# Youngs Moduli (GPa) = 107.74475 125.22740 51.30440
#
# Poissons Ratio (x) = 0.28905 0.11411
# Poissons Ratio (y) = 0.24869 0.10504
# Poissons Ratio (z) = 0.23963 0.25639
#
# Static dielectric constant tensor:
#      x y z
#    x 1.866640 0.000000 0.041180 
#    y 0.000000 1.834090 0.000000 
#    z 0.041180 0.000000 1.970040 
# 
# From -- ./inp_files/28848.got.cif
#   From: 2010.05.17/outbox.cif.g08.bks.cpg/sg12_15_cif.got.tgz:28848.got - 2010.06.03 13:09:07.
