data_PCOD9214860
_publ_section_title
;
Structure prediction by ZEFSAII (Michael W. Deem and Ramdas Pophale) SiO2 
 PCOD9214860
Probable space group: C 2/M
;
_chemical_formula_sum "Si O2"
_cell_formula_units_Z 48
_cell_length_a 16.848062
_cell_length_b 12.891602
_cell_length_c 9.899523
_cell_angle_alpha 90.000000
_cell_angle_beta 74.299080
_cell_angle_gamma 90.000000
_cell_volume 2069.933524
_symmetry_space_group_name_H-M "C 2/M"
_symmetry_group_IT_number 12
_symmetry_cell_setting 'monoclinic'
loop_
_space_group_symop_operation_xyz
x,y,z
-x,y,-z
-x,-y,-z
x,-y,z
1/2+x,1/2+y,z
1/2-x,1/2+y,-z
1/2-x,1/2-y,-z
1/2+x,1/2-y,z
loop_
_atom_site_type_symbol
_atom_site_label
_atom_site_fract_x
_atom_site_fract_y
_atom_site_fract_z
Si Si1 0.794789 0.383866 0.701134
Si Si2 0.572387 0.887041 0.851820
Si Si3 0.109309 0.166518 0.723829
Si Si4 0.569765 0.612214 0.149861
Si Si5 0.665498 0.190012 0.033079
Si Si6 0.905551 0.198794 0.563425
O O1 0.804582 0.500000 0.643029
O O2 0.697137 0.357506 0.750045
O O3 0.836793 0.375911 0.829680
O O4 0.841800 0.293372 0.600707
O O5 0.582369 0.788082 0.751011
O O6 0.564196 0.000000 0.789951
O O7 0.500000 0.880260 0.000000
O O8 0.653484 0.878839 0.907796
O O9 0.116132 0.137866 0.562719
O O10 0.028895 0.110183 0.817580
O O11 0.604226 0.500000 0.093002
O O12 0.601031 0.714710 0.060549
O O13 0.593516 0.635357 0.296433
O O14 0.750000 0.250000 0.000000
O O15 0.000000 0.235281 0.500000
#
# Coordination Sequence:
#
# PCOD9214860 Si02
#       6
#     8   8   8   8   8   8
#     4  11  23  38  61  89 119 157 196 246 304 351
#     4  11  23  41  64  87 120 164 202 242 298 356
#     4  11  21  41  62  90 123 155 200 253 292 356
#     4  10  22  40  65  90 118 161 201 247 305 354
#     4  11  22  42  59  87 126 154 199 250 292 358
#     4   9  22  41  61  86 123 155 198 252 295 354
#
# _framework density 23.189153000000001
#
# number of rings (size 3 to 8) (size 9 to 14) (size 15 to 20)
#    0.000    1.500    3.333    1.500    0.000    6.000 
#    0.000    0.833    0.000    0.000    0.000    0.000 
#    0.000    0.000    0.000    0.000    0.000    0.000 
#
# Total GULP energy -134041.379766 kJ/mol
# GULP energy per Si atom -5585.057490 kJ/mol
# Density = 2.313637 g / cm^3
# Si number density = 23.189153 Si / 1000 Ang^3
#
#
#
# Elastic Constant Matrix: (Units=GPa)
#
#
# Indices 1 2 3 4 5 6 
#
# 1 87.2158 29.3982 -2.5470 0.0000 -2.1460 0.0000
# 2 29.3982 143.3837 -1.4854 0.0000 -7.0785 0.0000
# 3 -2.5470 -1.4854 34.3989 0.0000 10.3351 0.0000
# 4 0.0000 0.0000 0.0000 2.4447 0.0000 -12.0523
# 5 -2.1460 -7.0785 10.3351 0.0000 28.7433 0.0000
# 6 0.0000 0.0000 0.0000 -12.0523 0.0000 5.7075
#
#
#
# Elastic Compliance Matrix: (Units=1/GPa)
#
#
# Indices 1 2 3 4 5 6 
#
# 1 0.012339 -0.002521 0.000801 0.000000 0.000012 0.000000
# 2 -0.002521 0.007577 -0.000408 0.000000 0.001824 0.000000
# 3 0.000801 -0.000408 0.032652 0.000000 -0.011781 0.000000
# 4 0.000000 0.000000 0.000000 -0.043468 0.000000 -0.091789
# 5 0.000012 0.001824 -0.011781 0.000000 0.039477 0.000000
# 6 0.000000 0.000000 0.000000 -0.091789 0.000000 -0.018619
#
#
# Mechanical properties :
#
#
# Convention : Reuss Voigt Hill
#
# Bulk Modulus (GPa) = 20.69826 35.08110 27.88968
# Shear Modulus (GPa) = 99.36718 23.35462 61.36090
#
# Velocity S-wave (km/s) = 6.55315 3.17698 5.14961
# Velocity P-wave (km/s) = 8.13656 5.34965 6.88557
#
# Compressibility (1/GPa) = 0.04831323
#
# Stress axis : x y z
#
# Youngs Moduli (GPa) = 81.04199 131.97793 30.62596
#
# Poissons Ratio (x) = 0.33272 -0.02453
# Poissons Ratio (y) = 0.20431 0.01248
# Poissons Ratio (z) = -0.06492 0.05379
#
# Static dielectric constant tensor:
#      x y z
#    x 1.913680 0.000000 0.004050 
#    y 0.000000 1.862100 0.000000 
#    z 0.004050 0.000000 1.901630 
# 
# From -- ./inp_files/153716.got.cif
#   From: 2010.05.17/outbox.cif.g08.bks.cpg/sg12_77_cif.got.tgz:153716.got - 2010.06.03 13:09:07.
