data_PCOD9214739
_publ_section_title
;
Structure prediction by ZEFSAII (Michael W. Deem and Ramdas Pophale) SiO2 
 PCOD9214739
Probable space group: C 2/M
;
_chemical_formula_sum "Si O2"
_cell_formula_units_Z 56
_cell_length_a 25.575090
_cell_length_b 8.742216
_cell_length_c 14.645952
_cell_angle_alpha 90.000000
_cell_angle_beta 119.603677
_cell_angle_gamma 90.000000
_cell_volume 2847.131520
_symmetry_space_group_name_H-M "C 2/M"
_symmetry_group_IT_number 12
_symmetry_cell_setting 'monoclinic'
loop_
_space_group_symop_operation_xyz
x,y,z
-x,y,-z
-x,-y,-z
x,-y,z
1/2+x,1/2+y,z
1/2-x,1/2+y,-z
1/2-x,1/2-y,-z
1/2+x,1/2-y,z
loop_
_atom_site_type_symbol
_atom_site_label
_atom_site_fract_x
_atom_site_fract_y
_atom_site_fract_z
Si Si1 0.141368 0.316192 0.476946
Si Si2 0.701730 0.682170 0.888210
Si Si3 0.733685 0.183423 0.718137
Si Si4 0.072886 0.680191 0.814681
Si Si5 0.511195 0.676961 0.402142
Si Si6 0.519725 0.318901 0.121504
Si Si7 0.150851 0.316965 0.276362
O O1 0.131811 0.500000 0.472829
O O2 0.187619 0.273671 0.596846
O O3 0.164080 0.280406 0.394378
O O4 0.078073 0.232841 0.436965
O O5 0.705897 0.500000 0.890416
O O6 0.713645 0.745996 0.796893
O O7 0.636047 0.734142 0.864407
O O8 0.750000 0.750000 0.000000
O O9 0.799148 0.241825 0.744563
O O10 0.733935 0.000000 0.726127
O O11 0.082737 0.500000 0.832492
O O12 0.036314 0.718547 0.691249
O O13 0.030185 0.741964 0.857794
O O14 0.500000 0.686116 0.500000
O O15 0.503389 0.500000 0.366570
O O16 0.523111 0.500000 0.143826
O O17 0.584479 0.244518 0.196500
O O18 0.500000 0.298410 0.000000
O O19 0.152085 0.500000 0.266810
#
# Coordination Sequence:
#
# PCOD9214739 Si02
#       7
#     8   8   8   8   8   8   8
#     4  10  22  40  63  95 132 173 218 268 326 387
#     4  12  27  48  71  97 130 171 221 273 328 390
#     4  11  24  43  67  97 135 177 221 270 327 390
#     4  12  25  44  69  98 133 171 216 270 327 390
#     4  11  23  38  62  95 131 173 218 267 323 386
#     4  11  25  44  68  98 132 173 221 273 328 389
#     4  11  23  41  66  99 135 175 222 270 326 390
#
# _framework density 19.668921000000001
#
# number of rings (size 3 to 8) (size 9 to 14) (size 15 to 20)
#    0.000    0.857    1.429    5.571    2.000    6.286 
#    0.000    0.000    0.000    0.000    0.000    0.000 
#    0.000    0.000    0.000    0.000    0.000    0.000 
#
# Total GULP energy -156736.096124 kJ/mol
# GULP energy per Si atom -5597.717719 kJ/mol
# Density = 1.962415 g / cm^3
# Si number density = 19.668921 Si / 1000 Ang^3
#
#
#
# Elastic Constant Matrix: (Units=GPa)
#
#
# Indices 1 2 3 4 5 6 
#
# 1 -226.5773 -73.4242 -102.5416 0.0000 188.7525 0.0000
# 2 -73.4242 65.7913 3.7314 0.0000 60.6559 0.0000
# 3 -102.5416 3.7314 52.3037 0.0000 80.7637 0.0000
# 4 0.0000 0.0000 0.0000 43.5245 0.0000 -7.6913
# 5 188.7525 60.6559 80.7637 0.0000 -51.7035 0.0000
# 6 0.0000 0.0000 0.0000 -7.6913 0.0000 45.9308
#
#
#
# Elastic Compliance Matrix: (Units=1/GPa)
#
#
# Indices 1 2 3 4 5 6 
#
# 1 0.004273 -0.002167 -0.003408 0.000000 0.007732 0.000000
# 2 -0.002167 0.013205 -0.004952 0.000000 -0.000155 0.000000
# 3 -0.003408 -0.004952 0.012009 0.000000 0.000506 0.000000
# 4 0.000000 0.000000 0.000000 0.023676 0.000000 0.003965
# 5 0.007732 -0.000155 0.000506 0.000000 0.009497 0.000000
# 6 0.000000 0.000000 0.000000 0.003965 0.000000 0.022436
#
#
# Mechanical properties :
#
#
# Convention : Reuss Voigt Hill
#
# Bulk Modulus (GPa) = 118.59477 -50.32788 34.13345
# Shear Modulus (GPa) = 45.88865 11.80049 28.84457
#
# Velocity S-wave (km/s) = 4.83541 2.45206 3.83365
# Velocity P-wave (km/s) = 9.57086 4.19837 6.08174
#
# Compressibility (1/GPa) = 0.00843207
#
# Stress axis : x y z
#
# Youngs Moduli (GPa) = 234.03634 75.73109 83.27392
#
# Poissons Ratio (x) = 0.16411 0.28383
# Poissons Ratio (y) = 0.50716 0.41234
# Poissons Ratio (z) = 0.79768 0.37499
#
# Static dielectric constant tensor:
#      x y z
#    x 1.646650 0.000000 -0.009470 
#    y 0.000000 1.662970 0.000000 
#    z -0.009470 0.000000 1.675310 
# 
# From -- ./inp_files/238917.got.cif
#   From: 2010.05.17/outbox.cif.g08.bks.cpg/sg12_120_cif.got.tgz:238917.got - 2010.06.03 13:09:07.
