data_PCOD9214849
_publ_section_title
;
Structure prediction by ZEFSAII (Michael W. Deem and Ramdas Pophale) SiO2 
 PCOD9214849
Probable space group: C 2/M
;
_chemical_formula_sum "Si O2"
_cell_formula_units_Z 40
_cell_length_a 21.694959
_cell_length_b 15.328137
_cell_length_c 13.469910
_cell_angle_alpha 90.000000
_cell_angle_beta 22.906868
_cell_angle_gamma 90.000000
_cell_volume 1743.508553
_symmetry_space_group_name_H-M "C 2/M"
_symmetry_group_IT_number 12
_symmetry_cell_setting 'monoclinic'
loop_
_space_group_symop_operation_xyz
x,y,z
-x,y,-z
-x,-y,-z
x,-y,z
1/2+x,1/2+y,z
1/2-x,1/2+y,-z
1/2-x,1/2-y,-z
1/2+x,1/2-y,z
loop_
_atom_site_type_symbol
_atom_site_label
_atom_site_fract_x
_atom_site_fract_y
_atom_site_fract_z
Si Si1 0.672518 0.903921 0.653204
Si Si2 0.631186 0.712472 0.489599
Si Si3 0.389479 0.172506 0.970590
Si Si4 0.190088 0.851693 0.094712
Si Si5 0.312105 0.500000 0.271387
Si Si6 0.189310 0.500000 0.228899
O O1 0.777093 0.837796 0.559762
O O2 0.492029 0.877350 0.900441
O O3 0.748083 0.918849 0.431314
O O4 0.684425 0.000000 0.681711
O O5 0.521904 0.782624 0.705937
O O6 0.499546 0.653830 0.628229
O O7 0.767498 0.736859 0.208597
O O8 0.278407 0.116228 0.063085
O O9 0.250000 0.750000 0.000000
O O10 0.245904 0.914024 0.923328
O O11 0.246387 0.500000 0.258027
O O12 0.500000 0.500000 0.000000
O O13 0.000000 0.500000 0.500000
#
# Coordination Sequence:
#
# PCOD9214849 Si02
#       6
#     8   8   8   8   4   4
#     4  10  24  42  63 101 136 180 236 290 356 426
#     4  11  24  44  70  99 142 186 237 294 362 429
#     4  11  24  44  69 101 138 191 234 297 358 437
#     4  10  25  44  68 107 144 189 242 303 363 433
#     4  10  22  40  65 100 137 184 233 296 346 432
#     4  12  24  44  75 106 147 198 245 304 366 434
#
# _framework density 22.942246000000001
#
# number of rings (size 3 to 8) (size 9 to 14) (size 15 to 20)
#    0.600    0.800    0.000    4.200    2.800   12.800 
#    0.000    1.000    0.000    0.000    0.000    0.000 
#    0.000    0.000    0.000    0.000    0.000    0.000 
#
# Total GULP energy -111627.924077 kJ/mol
# GULP energy per Si atom -5581.396204 kJ/mol
# Density = 2.289003 g / cm^3
# Si number density = 22.942246 Si / 1000 Ang^3
#
#
#
# Elastic Constant Matrix: (Units=GPa)
#
#
# Indices 1 2 3 4 5 6 
#
# 1 176.4530 19.9654 35.2814 0.0000 -27.6794 -0.0001
# 2 19.9654 44.8121 21.1734 -0.0009 2.3132 0.0005
# 3 35.2814 21.1734 152.4183 -0.0010 -1.1133 0.0009
# 4 0.0000 -0.0009 -0.0010 21.8737 0.0006 17.2978
# 5 -27.6794 2.3132 -1.1133 0.0006 51.1718 -0.0004
# 6 -0.0001 0.0005 0.0009 17.2978 -0.0004 27.5201
#
#
#
# Elastic Compliance Matrix: (Units=1/GPa)
#
#
# Indices 1 2 3 4 5 6 
#
# 1 0.006795 -0.002667 -0.001175 -0.000001 0.003771 0.000001
# 2 -0.002667 0.024998 -0.002874 0.000003 -0.002635 -0.000002
# 3 -0.001175 -0.002874 0.007230 0.000001 -0.000348 -0.000001
# 4 -0.000001 0.000003 0.000001 0.090899 -0.000002 -0.057135
# 5 0.003771 -0.002635 -0.000348 -0.000002 0.021693 0.000002
# 6 0.000001 -0.000002 -0.000001 -0.057135 0.000002 0.072249
#
#
# Mechanical properties :
#
#
# Convention : Reuss Voigt Hill
#
# Bulk Modulus (GPa) = 39.07790 58.50264 48.79027
# Shear Modulus (GPa) = 20.33943 39.93067 30.13505
#
# Velocity S-wave (km/s) = 2.98073 4.17644 3.62818
# Velocity P-wave (km/s) = 5.37740 6.98657 6.23413
#
# Compressibility (1/GPa) = 0.02558991
#
# Stress axis : x y z
#
# Youngs Moduli (GPa) = 147.15758 40.00334 138.31955
#
# Poissons Ratio (x) = 0.10669 0.16252
# Poissons Ratio (y) = 0.39248 0.39760
# Poissons Ratio (z) = 0.17290 0.11499
#
# Static dielectric constant tensor:
#      x y z
#    x 1.928670 0.000000 0.039640 
#    y 0.000000 1.905620 0.000000 
#    z 0.039640 0.000000 1.885370 
# 
# From -- ./inp_files/241241.got.cif
#   From: 2010.05.17/outbox.cif.g08.bks.cpg/sg12_121_cif.got.tgz:241241.got - 2010.06.03 13:09:07.
