data_PCOD9214176
_publ_section_title
;
Structure prediction by ZEFSAII (Michael W. Deem and Ramdas Pophale) SiO2 
 PCOD9214176
Probable space group: C 2/M
;
_chemical_formula_sum "Si O2"
_cell_formula_units_Z 64
_cell_length_a 12.089492
_cell_length_b 17.893584
_cell_length_c 28.515964
_cell_angle_alpha 90.000000
_cell_angle_beta 152.905730
_cell_angle_gamma 90.000000
_cell_volume 2809.569353
_symmetry_space_group_name_H-M "C 2/M"
_symmetry_group_IT_number 12
_symmetry_cell_setting 'monoclinic'
loop_
_space_group_symop_operation_xyz
x,y,z
-x,y,-z
-x,-y,-z
x,-y,z
1/2+x,1/2+y,z
1/2-x,1/2+y,-z
1/2-x,1/2-y,-z
1/2+x,1/2-y,z
loop_
_atom_site_type_symbol
_atom_site_label
_atom_site_fract_x
_atom_site_fract_y
_atom_site_fract_z
Si Si1 0.590559 0.304107 0.408632
Si Si2 0.350907 0.414579 0.491500
Si Si3 0.843503 0.344694 0.895466
Si Si4 0.104392 0.918970 0.245961
Si Si5 0.914311 0.410758 0.827523
Si Si6 0.363677 0.832296 0.272760
Si Si7 0.236509 0.323858 0.872501
Si Si8 0.673725 0.583019 0.376398
O O1 0.750000 0.250000 0.500000
O O2 0.508578 0.364103 0.417207
O O3 0.424717 0.252832 0.311978
O O4 0.770328 0.350515 0.443523
O O5 0.500000 0.414493 0.500000
O O6 0.325970 0.500000 0.498823
O O7 0.090904 0.379876 0.379045
O O8 0.667996 0.414079 0.838526
O O9 0.706581 0.264651 0.847546
O O10 0.984377 0.363683 0.900869
O O11 0.000000 0.341431 0.000000
O O12 0.232630 0.906973 0.344189
O O13 0.142618 0.857577 0.221669
O O14 0.166917 0.000000 0.250587
O O15 0.980805 0.500000 0.852208
O O16 0.041000 0.365973 0.832265
O O17 0.617740 0.409750 0.720645
O O18 0.299377 0.852715 0.194817
O O19 0.500000 0.331643 0.000000
O O20 0.744211 0.500000 0.416662
#
# Coordination Sequence:
#
# PCOD9214176 Si02
#       8
#     8   8   8   8   8   8   8   8
#     4  10  22  39  63  97 125 167 217 272 334 410
#     4  10  23  42  66  98 135 176 224 279 344 418
#     4  10  23  40  66  94 130 176 233 289 346 407
#     4  10  22  39  64  94 128 171 219 275 344 409
#     4  10  23  42  66  96 131 176 234 286 343 416
#     4  11  24  41  65  99 138 180 222 283 347 414
#     4  11  27  44  67 100 141 186 234 288 352 410
#     4   9  19  39  64  91 123 169 217 268 331 402
#
# _framework density 22.779292000000002
#
# number of rings (size 3 to 8) (size 9 to 14) (size 15 to 20)
#    0.000    1.875    0.000    3.375    7.000    5.250 
#    0.000    1.875    0.000    6.750    0.000    0.000 
#    0.000    0.000    0.000    0.000    0.000    0.000 
#
# Total GULP energy -178148.483276 kJ/mol
# GULP energy per Si atom -5567.140102 kJ/mol
# Density = 2.272745 g / cm^3
# Si number density = 22.779292 Si / 1000 Ang^3
#
#
#
# Elastic Constant Matrix: (Units=GPa)
#
#
# Indices 1 2 3 4 5 6 
#
# 1 173.9519 70.2413 31.5140 0.0001 -31.7439 -0.0003
# 2 70.2413 146.0822 15.2177 -0.0010 -15.0933 0.0007
# 3 31.5140 15.2177 53.9578 -0.0038 -9.1849 0.0016
# 4 0.0001 -0.0010 -0.0038 -11.8509 0.0001 -22.6064
# 5 -31.7439 -15.0933 -9.1849 0.0001 34.4249 0.0002
# 6 -0.0003 0.0007 0.0016 -22.6064 0.0002 14.4520
#
#
#
# Elastic Compliance Matrix: (Units=1/GPa)
#
#
# Indices 1 2 3 4 5 6 
#
# 1 0.008684 -0.003252 -0.003179 0.000000 0.005734 0.000001
# 2 -0.003252 0.008515 -0.000395 0.000000 0.000629 0.000000
# 3 -0.003179 -0.000395 0.020923 -0.000001 0.002478 -0.000003
# 4 0.000000 0.000000 -0.000001 -0.021181 0.000000 -0.033132
# 5 0.005734 0.000629 0.002478 0.000000 0.035273 0.000000
# 6 0.000001 0.000000 -0.000003 -0.033132 0.000000 0.017369
#
#
# Mechanical properties :
#
#
# Convention : Reuss Voigt Hill
#
# Bulk Modulus (GPa) = 40.86566 67.54867 54.20716
# Shear Modulus (GPa) = 54.70952 24.53979 39.62465
#
# Velocity S-wave (km/s) = 4.90605 3.28576 4.17526
# Velocity P-wave (km/s) = 7.07610 6.64175 6.86237
#
# Compressibility (1/GPa) = 0.02447043
#
# Stress axis : x y z
#
# Youngs Moduli (GPa) = 115.15285 117.43522 47.79481
#
# Poissons Ratio (x) = 0.38191 0.15193
# Poissons Ratio (y) = 0.37448 0.01888
# Poissons Ratio (z) = 0.36604 0.04640
#
# Static dielectric constant tensor:
#      x y z
#    x 2.077940 0.000010 -0.153090 
#    y 0.000010 1.918140 0.000000 
#    z -0.153090 0.000000 2.197300 
# 
# From -- ./inp_files/374472.got.cif
#   From: 2010.05.17/outbox.cif.g08.bks.cpg/sg12_188_cif.got.tgz:374472.got - 2010.06.03 13:09:07.
