data_PCOD9214293
_publ_section_title
;
Structure prediction by ZEFSAII (Michael W. Deem and Ramdas Pophale) SiO2 
 PCOD9214293
Probable space group: C 2/M
;
_chemical_formula_sum "Si O2"
_cell_formula_units_Z 64
_cell_length_a 17.627382
_cell_length_b 16.761960
_cell_length_c 14.499047
_cell_angle_alpha 90.000000
_cell_angle_beta 49.109162
_cell_angle_gamma 90.000000
_cell_volume 3238.544220
_symmetry_space_group_name_H-M "C 2/M"
_symmetry_group_IT_number 12
_symmetry_cell_setting 'monoclinic'
loop_
_space_group_symop_operation_xyz
x,y,z
-x,y,-z
-x,-y,-z
x,-y,z
1/2+x,1/2+y,z
1/2-x,1/2+y,-z
1/2-x,1/2-y,-z
1/2+x,1/2-y,z
loop_
_atom_site_type_symbol
_atom_site_label
_atom_site_fract_x
_atom_site_fract_y
_atom_site_fract_z
Si Si1 0.757460 0.300882 0.837720
Si Si2 0.975906 0.822514 0.231241
Si Si3 0.155048 0.637900 0.926796
Si Si4 0.691636 0.407723 0.050201
Si Si5 0.554348 0.856733 0.816275
Si Si6 0.714212 0.407982 0.694403
Si Si7 0.587805 0.090297 0.583459
Si Si8 0.478533 0.751585 0.619357
O O1 0.675268 0.232675 0.919801
O O2 0.760207 0.359064 0.923132
O O3 0.734262 0.352211 0.765989
O O4 0.861958 0.256002 0.737892
O O5 0.966254 0.798989 0.346301
O O6 0.959030 0.738588 0.190919
O O7 0.890486 0.882333 0.266549
O O8 0.084699 0.862985 0.133361
O O9 0.131266 0.625148 0.837973
O O10 0.250880 0.597514 0.897836
O O11 0.054948 0.614636 0.062420
O O12 0.679877 0.500000 0.033347
O O13 0.586703 0.894902 0.694026
O O14 0.712588 0.500000 0.724778
O O15 0.803350 0.398189 0.549161
O O16 0.516947 0.157489 0.596874
O O17 0.554313 0.000000 0.590518
O O18 0.500000 0.722005 0.500000
#
# Coordination Sequence:
#
# PCOD9214293 Si02
#       8
#     8   8   8   8   8   8   8   8
#     4  12  22  41  63  93 126 160 208 252 310 372
#     4  11  22  41  63  90 127 161 212 253 304 370
#     4  11  22  41  64  92 125 162 206 259 305 361
#     4  12  25  40  62  93 131 168 201 253 314 373
#     4  10  22  39  68  91 117 165 211 255 304 364
#     4  11  24  41  64  92 127 164 203 259 314 367
#     4  10  23  41  61  91 128 162 203 261 315 365
#     4  11  23  39  66  95 119 164 210 258 308 369
#
# _framework density 19.761965
#
# number of rings (size 3 to 8) (size 9 to 14) (size 15 to 20)
#    0.000    1.000    5.000    2.625    0.000    6.750 
#    0.000    2.500    0.000    0.750    0.000    0.000 
#    0.000    0.000    0.000    0.000    0.000    0.000 
#
# Total GULP energy -178825.004073 kJ/mol
# GULP energy per Si atom -5588.281377 kJ/mol
# Density = 1.971699 g / cm^3
# Si number density = 19.761965 Si / 1000 Ang^3
#
#
#
# Elastic Constant Matrix: (Units=GPa)
#
#
# Indices 1 2 3 4 5 6 
#
# 1 87.7101 -4.0258 16.8283 0.0000 9.5193 0.0000
# 2 -4.0258 48.6213 6.8994 0.0000 0.2763 0.0000
# 3 16.8283 6.8994 62.3141 0.0000 9.5285 0.0000
# 4 0.0000 0.0000 0.0000 10.1699 0.0000 -3.6068
# 5 9.5193 0.2763 9.5285 0.0000 30.4157 0.0000
# 6 0.0000 0.0000 0.0000 -3.6068 0.0000 20.8399
#
#
#
# Elastic Compliance Matrix: (Units=1/GPa)
#
#
# Indices 1 2 3 4 5 6 
#
# 1 0.012373 0.001475 -0.003057 0.000000 -0.002928 0.000000
# 2 0.001475 0.021080 -0.002765 0.000000 0.000213 0.000000
# 3 -0.003057 -0.002765 0.017886 0.000000 -0.004621 0.000000
# 4 0.000000 0.000000 0.000000 0.104760 0.000000 0.018131
# 5 -0.002928 0.000213 -0.004621 0.000000 0.035240 0.000000
# 6 0.000000 0.000000 0.000000 0.018131 0.000000 0.051123
#
#
# Mechanical properties :
#
#
# Convention : Reuss Voigt Hill
#
# Bulk Modulus (GPa) = 23.44902 26.44992 24.94947
# Shear Modulus (GPa) = 18.84150 24.21466 21.52808
#
# Velocity S-wave (km/s) = 3.09110 3.50425 3.30414
# Velocity P-wave (km/s) = 4.96300 5.45769 5.21621
#
# Compressibility (1/GPa) = 0.04264571
#
# Stress axis : x y z
#
# Youngs Moduli (GPa) = 80.81968 47.43751 55.90940
#
# Poissons Ratio (x) = -0.06997 0.17092
# Poissons Ratio (y) = -0.11920 0.15458
# Poissons Ratio (z) = 0.24707 0.13116
#
# Static dielectric constant tensor:
#      x y z
#    x 1.689730 0.000000 0.000080 
#    y 0.000000 1.682690 0.000000 
#    z 0.000080 0.000000 1.688010 
# 
# From -- ./inp_files/225662.got.cif
#   From: 2010.05.17/outbox.cif.g08.bks.cpg/sg12_113_cif.got.tgz:225662.got - 2010.06.03 13:09:07.
