data_PCOD9214045
_publ_section_title
;
Structure prediction by ZEFSAII (Michael W. Deem and Ramdas Pophale) SiO2 
 PCOD9214045
Probable space group: C 2/M
;
_chemical_formula_sum "Si O2"
_cell_formula_units_Z 28
_cell_length_a 22.554137
_cell_length_b 10.489135
_cell_length_c 5.139334
_cell_angle_alpha 90.000000
_cell_angle_beta 120.237917
_cell_angle_gamma 90.000000
_cell_volume 1050.405971
_symmetry_space_group_name_H-M "C 2/M"
_symmetry_group_IT_number 12
_symmetry_cell_setting 'monoclinic'
loop_
_space_group_symop_operation_xyz
x,y,z
-x,y,-z
-x,-y,-z
x,-y,z
1/2+x,1/2+y,z
1/2-x,1/2+y,-z
1/2-x,1/2-y,-z
1/2+x,1/2-y,z
loop_
_atom_site_type_symbol
_atom_site_label
_atom_site_fract_x
_atom_site_fract_y
_atom_site_fract_z
Si Si1 0.451521 0.000000 0.140940
Si Si2 0.951209 0.777642 0.139056
Si Si3 0.841485 0.866672 0.237521
Si Si4 0.711646 0.852194 0.603937
O O1 0.500000 0.000000 0.500000
O O2 0.416932 0.863340 0.052491
O O3 0.500000 0.000000 0.000000
O O4 0.888878 0.864636 0.087325
O O5 0.000000 0.781829 0.500000
O O6 0.000000 0.803620 0.000000
O O7 0.849950 0.736306 0.419151
O O8 0.855217 0.000000 0.413253
O O9 0.764364 0.870200 0.960284
O O10 0.750000 0.750000 0.500000
O O11 0.697375 0.000000 0.485933
#
# Coordination Sequence:
#
# PCOD9214045 Si02
#       4
#     4   8   8   8
#     4   8  16  34  54  80 124 160 208 256 304 370
#     4  10  22  39  61  94 130 173 215 266 326 394
#     4  10  23  41  63  92 130 168 215 270 325 393
#     4  10  22  42  66  94 125 166 219 272 330 384
#
# _framework density 26.656364
#
# number of rings (size 3 to 8) (size 9 to 14) (size 15 to 20)
#    0.000    2.286    0.000    0.857    6.000    2.286 
#    0.000    0.000    0.000    0.000    0.000    0.000 
#    0.000    0.000    0.000    0.000    0.000    0.000 
#
# Total GULP energy -78133.151803 kJ/mol
# GULP energy per Si atom -5580.939414 kJ/mol
# Density = 2.659569 g / cm^3
# Si number density = 26.656364 Si / 1000 Ang^3
#
#
#
# Elastic Constant Matrix: (Units=GPa)
#
#
# Indices 1 2 3 4 5 6 
#
# 1 133.6395 78.0859 18.0945 0.0000 -36.1055 0.0000
# 2 78.0859 282.5155 33.2470 0.0000 -23.6162 0.0000
# 3 18.0945 33.2470 102.8056 0.0000 -26.5743 0.0000
# 4 0.0000 0.0000 0.0000 35.0356 0.0000 -10.0901
# 5 -36.1055 -23.6162 -26.5743 0.0000 46.8827 0.0000
# 6 0.0000 0.0000 0.0000 -10.0901 0.0000 -14.0134
#
#
#
# Elastic Compliance Matrix: (Units=1/GPa)
#
#
# Indices 1 2 3 4 5 6 
#
# 1 0.010864 -0.002467 0.000852 0.000000 0.007607 0.000000
# 2 -0.002467 0.004318 -0.001044 0.000000 -0.000317 0.000000
# 3 0.000852 -0.001044 0.011656 0.000000 0.006737 0.000000
# 4 0.000000 0.000000 0.000000 0.023640 0.000000 -0.017022
# 5 0.007607 -0.000317 0.006737 0.000000 0.030847 0.000000
# 6 0.000000 0.000000 0.000000 -0.017022 0.000000 -0.059104
#
#
# Mechanical properties :
#
#
# Convention : Reuss Voigt Hill
#
# Bulk Modulus (GPa) = 46.46825 86.42395 66.44610
# Shear Modulus (GPa) = 144.03487 39.54987 91.79237
#
# Velocity S-wave (km/s) = 7.35875 3.85605 5.87454
# Velocity P-wave (km/s) = 9.46952 7.23308 8.42583
#
# Compressibility (1/GPa) = 0.02152007
#
# Stress axis : x y z
#
# Youngs Moduli (GPa) = 92.04519 231.59202 85.79033
#
# Poissons Ratio (x) = 0.57139 -0.07310
# Poissons Ratio (y) = 0.22709 0.08957
# Poissons Ratio (z) = -0.07843 0.24179
#
# Static dielectric constant tensor:
#      x y z
#    x 2.076550 0.000000 -0.000350 
#    y 0.000000 2.306310 0.000000 
#    z -0.000350 0.000000 2.145240 
# 
# From -- ./inp_files/18923.got.cif
#   From: 2010.05.17/outbox.cif.g08.bks.cpg/sg12_10_cif.got.tgz:18923.got - 2010.06.03 13:09:07.
