data_PCOD9214325
_publ_section_title
;
Structure prediction by ZEFSAII (Michael W. Deem and Ramdas Pophale) SiO2 
 PCOD9214325
Probable space group: C 2/M
;
_chemical_formula_sum "Si O2"
_cell_formula_units_Z 64
_cell_length_a 14.748684
_cell_length_b 9.183829
_cell_length_c 30.953028
_cell_angle_alpha 90.000000
_cell_angle_beta 57.328262
_cell_angle_gamma 90.000000
_cell_volume 3529.208678
_symmetry_space_group_name_H-M "C 2/M"
_symmetry_group_IT_number 12
_symmetry_cell_setting 'monoclinic'
loop_
_space_group_symop_operation_xyz
x,y,z
-x,y,-z
-x,-y,-z
x,-y,z
1/2+x,1/2+y,z
1/2-x,1/2+y,-z
1/2-x,1/2-y,-z
1/2+x,1/2-y,z
loop_
_atom_site_type_symbol
_atom_site_label
_atom_site_fract_x
_atom_site_fract_y
_atom_site_fract_z
Si Si1 0.255481 0.675395 0.635461
Si Si2 0.802155 0.331647 0.099739
Si Si3 0.990684 0.674822 0.281031
Si Si4 0.957208 0.173417 0.115273
Si Si5 0.445741 0.329517 0.821763
Si Si6 0.193509 0.674907 0.554788
Si Si7 0.141358 0.673779 0.011943
Si Si8 0.053260 0.324419 0.360626
O O1 0.266438 0.500000 0.635538
O O2 0.136237 0.714412 0.683733
O O3 0.249809 0.714381 0.585971
O O4 0.351310 0.750480 0.637108
O O5 0.824574 0.500000 0.106002
O O6 0.674240 0.316313 0.127874
O O7 0.844144 0.223657 0.125277
O O8 0.860419 0.303309 0.039210
O O9 0.995720 0.500000 0.277926
O O10 0.041571 0.742545 0.225416
O O11 0.048003 0.718768 0.311258
O O12 0.974622 0.217405 0.160426
O O13 0.044138 0.254325 0.062881
O O14 0.972921 0.000000 0.108395
O O15 0.464206 0.500000 0.807877
O O16 0.200128 0.500000 0.549199
O O17 0.250000 0.750000 0.500000
O O18 0.066311 0.711812 0.590685
O O19 0.144404 0.500000 0.018473
O O20 0.250000 0.750000 0.000000
O O21 0.064837 0.500000 0.359590
#
# Coordination Sequence:
#
# PCOD9214325 Si02
#       8
#     8   8   8   8   8   8   8   8
#     4   9  19  36  56  79 109 144 183 226 271 321
#     4  10  22  40  57  79 111 144 176 218 271 325
#     4   9  20  38  57  78 106 140 181 225 271 324
#     4  11  23  39  57  83 112 141 180 223 267 325
#     4  10  22  40  57  78 112 143 175 224 276 323
#     4   9  19  35  53  78 114 150 182 223 269 317
#     4  11  21  37  60  82 110 145 179 219 269 323
#     4   9  19  36  56  79 109 143 182 227 271 317
#
# _framework density 18.134377000000001
#
# number of rings (size 3 to 8) (size 9 to 14) (size 15 to 20)
#    0.000    2.250    1.250    2.625    0.000    7.500 
#    0.000   10.000    0.000    0.000    0.000    0.000 
#    0.000    0.000    0.000    0.000    0.000    0.000 
#
# Total GULP energy -178555.717019 kJ/mol
# GULP energy per Si atom -5579.866157 kJ/mol
# Density = 1.809310 g / cm^3
# Si number density = 18.134377 Si / 1000 Ang^3
#
#
#
# Elastic Constant Matrix: (Units=GPa)
#
#
# Indices 1 2 3 4 5 6 
#
# 1 111.8678 36.7315 24.0024 0.0000 20.9823 0.0000
# 2 36.7315 31.9064 29.8935 0.0000 11.4745 0.0000
# 3 24.0024 29.8935 93.5880 0.0000 18.8218 0.0000
# 4 0.0000 0.0000 0.0000 33.8934 0.0000 -0.2297
# 5 20.9823 11.4745 18.8218 0.0000 14.5587 0.0000
# 6 0.0000 0.0000 0.0000 -0.2297 0.0000 37.8421
#
#
#
# Elastic Compliance Matrix: (Units=1/GPa)
#
#
# Indices 1 2 3 4 5 6 
#
# 1 0.016879 -0.017987 0.004673 0.000000 -0.016191 0.000000
# 2 -0.017987 0.070218 -0.016080 0.000000 -0.008631 0.000000
# 3 0.004673 -0.016080 0.018147 0.000000 -0.017521 0.000000
# 4 0.000000 0.000000 0.000000 0.029505 0.000000 0.000179
# 5 -0.016191 -0.008631 -0.017521 0.000000 0.121476 0.000000
# 6 0.000000 0.000000 0.000000 0.000179 0.000000 0.026427
#
#
# Mechanical properties :
#
#
# Convention : Reuss Voigt Hill
#
# Bulk Modulus (GPa) = 21.52598 46.51302 34.01950
# Shear Modulus (GPa) = 14.00847 27.04116 20.52481
#
# Velocity S-wave (km/s) = 2.78237 3.86574 3.36790
# Velocity P-wave (km/s) = 4.71361 6.75500 5.82444
#
# Compressibility (1/GPa) = 0.04645549
#
# Stress axis : x y z
#
# Youngs Moduli (GPa) = 59.24359 14.24131 55.10641
#
# Poissons Ratio (x) = 0.25616 -0.25749
# Poissons Ratio (y) = 1.06562 0.88611
# Poissons Ratio (z) = -0.27682 0.22900
#
# Static dielectric constant tensor:
#      x y z
#    x 1.637400 0.000000 -0.003450 
#    y 0.000000 1.603040 0.000000 
#    z -0.003450 0.000000 1.608280 
# 
# From -- ./inp_files/359899.got.cif
#   From: 2010.05.17/outbox.cif.g08.bks.cpg/sg12_180_cif.got.tgz:359899.got - 2010.06.03 13:09:07.
