data_PCOD9214170
_publ_section_title
;
Structure prediction by ZEFSAII (Michael W. Deem and Ramdas Pophale) SiO2 
 PCOD9214170
Probable space group: C 2/M
;
_chemical_formula_sum "Si O2"
_cell_formula_units_Z 50
_cell_length_a 25.344455
_cell_length_b 18.934905
_cell_length_c 5.384144
_cell_angle_alpha 90.000000
_cell_angle_beta 63.567365
_cell_angle_gamma 90.000000
_cell_volume 2313.705864
_symmetry_space_group_name_H-M "C 2/M"
_symmetry_group_IT_number 12
_symmetry_cell_setting 'monoclinic'
loop_
_space_group_symop_operation_xyz
x,y,z
-x,y,-z
-x,-y,-z
x,-y,z
1/2+x,1/2+y,z
1/2-x,1/2+y,-z
1/2-x,1/2-y,-z
1/2+x,1/2-y,z
loop_
_atom_site_type_symbol
_atom_site_label
_atom_site_fract_x
_atom_site_fract_y
_atom_site_fract_z
Si Si1 0.731418 0.312136 0.857679
Si Si2 0.119602 0.578245 0.166373
Si Si3 0.554405 0.421738 0.199921
Si Si4 0.172766 0.921117 0.284371
Si Si5 0.851785 0.336731 0.392998
Si Si6 0.880270 0.812255 0.220294
Si Si7 0.000000 0.500000 0.500000
O O1 0.782091 0.318678 0.546779
O O2 0.665771 0.295537 0.902876
O O3 0.750000 0.250000 0.000000
O O4 0.724693 0.386060 0.017372
O O5 0.148572 0.500000 0.095930
O O6 0.136187 0.618515 0.383962
O O7 0.050088 0.560189 0.327656
O O8 0.133429 0.621359 0.888414
O O9 0.500000 0.412155 0.500000
O O10 0.549174 0.500000 0.091272
O O11 0.614469 0.424204 0.234251
O O12 0.564362 0.356744 0.993493
O O13 0.155728 0.867044 0.534986
O O14 0.185517 0.000000 0.347598
O O15 0.888281 0.263285 0.330059
#
# Coordination Sequence:
#
# PCOD9214170 Si02
#       7
#     8   8   8   8   8   8   2
#     4  11  23  42  64  92 138 186 220 286 355 414
#     4  10  25  46  72  98 132 180 232 282 354 424
#     4   9  20  41  64  89 131 180 226 274 330 404
#     4  10  22  39  63  95 131 179 223 270 340 413
#     4  12  24  41  71 105 133 179 236 286 345 427
#     4  11  23  39  65  95 137 172 226 281 354 407
#     4   8  24  54  76  90 148 186 222 302 370 414
#
# _framework density 21.610353
#
# number of rings (size 3 to 8) (size 9 to 14) (size 15 to 20)
#    0.480    1.120    1.600    2.400    4.480    3.840 
#    1.440    4.000    0.000    0.000    0.000    0.000 
#    0.000    0.000    0.000    0.000    0.000    0.000 
#
# Total GULP energy -139368.372259 kJ/mol
# GULP energy per Si atom -5574.734890 kJ/mol
# Density = 2.156117 g / cm^3
# Si number density = 21.610353 Si / 1000 Ang^3
#
#
#
# Elastic Constant Matrix: (Units=GPa)
#
#
# Indices 1 2 3 4 5 6 
#
# 1 61.1007 27.5475 42.0679 0.0000 -8.9678 0.0000
# 2 27.5475 188.7342 83.2926 0.0000 -3.1639 0.0000
# 3 42.0679 83.2926 119.3942 0.0000 -10.5151 0.0000
# 4 0.0000 0.0000 0.0000 44.4323 0.0000 -8.6688
# 5 -8.9678 -3.1639 -10.5151 0.0000 37.6396 0.0000
# 6 0.0000 0.0000 0.0000 -8.6688 0.0000 10.3726
#
#
#
# Elastic Compliance Matrix: (Units=1/GPa)
#
#
# Indices 1 2 3 4 5 6 
#
# 1 0.021972 0.000203 -0.007608 0.000000 0.003127 0.000000
# 2 0.000203 0.007685 -0.005507 0.000000 -0.000844 0.000000
# 3 -0.007608 -0.005507 0.015069 0.000000 0.001934 0.000000
# 4 0.000000 0.000000 0.000000 0.026891 0.000000 0.022474
# 5 0.003127 -0.000844 0.001934 0.000000 0.027782 0.000000
# 6 0.000000 0.000000 0.000000 0.022474 0.000000 0.115190
#
#
# Mechanical properties :
#
#
# Convention : Reuss Voigt Hill
#
# Bulk Modulus (GPa) = 52.90665 75.00501 63.95583
# Shear Modulus (GPa) = 20.26648 32.91031 26.58840
#
# Velocity S-wave (km/s) = 3.06570 3.90666 3.51145
# Velocity P-wave (km/s) = 6.08823 7.42513 6.78967
#
# Compressibility (1/GPa) = 0.01890122
#
# Stress axis : x y z
#
# Youngs Moduli (GPa) = 45.51280 130.12132 66.36354
#
# Poissons Ratio (x) = -0.02641 0.50489
# Poissons Ratio (y) = -0.00924 0.36548
# Poissons Ratio (z) = 0.34626 0.71660
#
# Static dielectric constant tensor:
#      x y z
#    x 1.797940 0.000000 0.041530 
#    y 0.000000 1.844830 0.000000 
#    z 0.041530 0.000000 1.797470 
# 
# From -- ./inp_files/28726.got.cif
#   From: 2010.05.17/outbox.cif.g08.bks.cpg/sg12_15_cif.got.tgz:28726.got - 2010.06.03 13:09:07.
