data_PCOD9214964
_publ_section_title
;
Structure prediction by ZEFSAII (Michael W. Deem and Ramdas Pophale) SiO2 
 PCOD9214964
Probable space group: C 2/M
;
_chemical_formula_sum "Si O2"
_cell_formula_units_Z 42
_cell_length_a 9.480997
_cell_length_b 13.437664
_cell_length_c 16.329124
_cell_angle_alpha 90.000000
_cell_angle_beta 109.708937
_cell_angle_gamma 90.000000
_cell_volume 1958.498079
_symmetry_space_group_name_H-M "C 2/M"
_symmetry_group_IT_number 12
_symmetry_cell_setting 'monoclinic'
loop_
_space_group_symop_operation_xyz
x,y,z
-x,y,-z
-x,-y,-z
x,-y,z
1/2+x,1/2+y,z
1/2-x,1/2+y,-z
1/2-x,1/2-y,-z
1/2+x,1/2-y,z
loop_
_atom_site_type_symbol
_atom_site_label
_atom_site_fract_x
_atom_site_fract_y
_atom_site_fract_z
Si Si1 0.330474 0.621203 0.477417
Si Si2 0.545804 0.716516 0.189177
Si Si3 0.278655 0.812759 0.923486
Si Si4 0.055861 0.381817 0.315780
Si Si5 0.229155 0.619712 0.637526
Si Si6 0.000000 0.500000 0.000000
O O1 0.500000 0.656191 0.500000
O O2 0.334119 0.500000 0.480005
O O3 0.220666 0.644654 0.380810
O O4 0.262844 0.652174 0.551554
O O5 0.632818 0.741976 0.123097
O O6 0.386586 0.665076 0.144512
O O7 0.516895 0.823081 0.226615
O O8 0.649498 0.658338 0.273800
O O9 0.250000 0.750000 0.000000
O O10 0.373791 0.911365 0.958395
O O11 0.048133 0.500000 0.301171
O O12 0.935122 0.353619 0.361368
O O13 0.235279 0.500000 0.638322
#
# Coordination Sequence:
#
# PCOD9214964 Si02
#       6
#     8   8   8   8   8   2
#     4   9  19  36  60  96 137 187 244 294 349 424
#     4  12  25  45  70 105 144 177 236 312 354 443
#     4  12  27  52  76 110 146 185 242 301 372 467
#     4  10  22  40  66  96 137 192 239 294 360 426
#     4  10  22  41  63  95 140 187 236 290 358 422
#     4  12  28  52  86 106 144 206 222 304 396 442
#
# _framework density 21.445004999999998
#
# number of rings (size 3 to 8) (size 9 to 14) (size 15 to 20)
#    0.000    1.333    3.810    0.571    5.333    3.048 
#    1.714    0.952    0.000    0.000    0.000    0.000 
#    0.000    0.000    0.000    0.000    0.000    0.000 
#
# Total GULP energy -117229.325689 kJ/mol
# GULP energy per Si atom -5582.348842 kJ/mol
# Density = 2.139620 g / cm^3
# Si number density = 21.445005 Si / 1000 Ang^3
#
#
#
# Elastic Constant Matrix: (Units=GPa)
#
#
# Indices 1 2 3 4 5 6 
#
# 1 126.2592 15.8293 57.8255 0.0000 12.8136 0.0000
# 2 15.8293 61.1764 33.3754 0.0000 4.6734 0.0000
# 3 57.8255 33.3754 106.8166 0.0000 12.0361 0.0000
# 4 0.0000 0.0000 0.0000 40.1223 0.0000 13.2162
# 5 12.8136 4.6734 12.0361 0.0000 55.8324 0.0000
# 6 0.0000 0.0000 0.0000 13.2162 0.0000 20.8828
#
#
#
# Elastic Compliance Matrix: (Units=1/GPa)
#
#
# Indices 1 2 3 4 5 6 
#
# 1 0.010625 0.000491 -0.005766 0.000000 -0.001237 0.000000
# 2 0.000491 0.019734 -0.006388 0.000000 -0.000387 0.000000
# 3 -0.005766 -0.006388 0.014625 0.000000 -0.001295 0.000000
# 4 0.000000 0.000000 0.000000 0.031488 0.000000 -0.019928
# 5 -0.001237 -0.000387 -0.001295 0.000000 0.018506 0.000000
# 6 0.000000 0.000000 0.000000 -0.019928 0.000000 0.060498
#
#
# Mechanical properties :
#
#
# Convention : Reuss Voigt Hill
#
# Bulk Modulus (GPa) = 46.17281 56.47920 51.32600
# Shear Modulus (GPa) = 26.87861 35.84895 31.36378
#
# Velocity S-wave (km/s) = 3.54414 4.09304 3.82844
# Velocity P-wave (km/s) = 6.19076 6.98078 6.59760
#
# Compressibility (1/GPa) = 0.02165777
#
# Stress axis : x y z
#
# Youngs Moduli (GPa) = 94.11875 50.67450 68.37565
#
# Poissons Ratio (x) = -0.02488 0.39424
# Poissons Ratio (y) = -0.04620 0.43679
# Poissons Ratio (z) = 0.54268 0.32371
#
# Static dielectric constant tensor:
#      x y z
#    x 1.776020 0.000000 -0.008220 
#    y 0.000000 1.789210 0.000000 
#    z -0.008220 0.000000 1.762010 
# 
# From -- ./inp_files/255902.got.cif
#   From: 2010.05.17/outbox.cif.g08.bks.cpg/sg12_128_cif.got.tgz:255902.got - 2010.06.03 13:09:07.
