data_PCOD9214065
_publ_section_title
;
Structure prediction by ZEFSAII (Michael W. Deem and Ramdas Pophale) SiO2 
 PCOD9214065
Probable space group: C 2/M
;
_chemical_formula_sum "Si O2"
_cell_formula_units_Z 48
_cell_length_a 15.717995
_cell_length_b 18.768416
_cell_length_c 14.660944
_cell_angle_alpha 90.000000
_cell_angle_beta 34.524706
_cell_angle_gamma 90.000000
_cell_volume 2451.247029
_symmetry_space_group_name_H-M "C 2/M"
_symmetry_group_IT_number 12
_symmetry_cell_setting 'monoclinic'
loop_
_space_group_symop_operation_xyz
x,y,z
-x,y,-z
-x,-y,-z
x,-y,z
1/2+x,1/2+y,z
1/2-x,1/2+y,-z
1/2-x,1/2-y,-z
1/2+x,1/2-y,z
loop_
_atom_site_type_symbol
_atom_site_label
_atom_site_fract_x
_atom_site_fract_y
_atom_site_fract_z
Si Si1 0.896493 0.000000 0.924419
Si Si2 0.674894 0.385610 0.874135
Si Si3 0.354710 0.000000 0.364482
Si Si4 0.871033 0.143410 0.662907
Si Si5 0.748008 0.000000 0.337493
Si Si6 0.805168 0.265503 0.051686
Si Si7 0.503929 0.500000 0.363715
Si Si8 0.440173 0.120503 0.152193
O O1 0.818315 0.067652 0.039780
O O2 0.901395 0.000000 0.812907
O O3 0.074519 0.000000 0.792805
O O4 0.766100 0.429446 0.715209
O O5 0.500000 0.388834 0.000000
O O6 0.703001 0.304166 0.876640
O O7 0.435213 0.066985 0.242579
O O8 0.345804 0.000000 0.484086
O O9 0.176226 0.000000 0.493799
O O10 0.732193 0.136548 0.717767
O O11 0.000000 0.187625 0.500000
O O12 0.942530 0.069604 0.631382
O O13 0.811552 0.179190 0.805068
O O14 0.963895 0.307771 0.914890
O O15 0.750000 0.250000 0.000000
O O16 0.500000 0.091127 0.000000
#
# Coordination Sequence:
#
# PCOD9214065 Si02
#       8
#     4   8   4   8   4   8   4   8
#     4   8  16  29  58  89 112 150 206 246 297 364
#     4   9  16  36  59  85 118 157 203 255 311 360
#     4  11  19  37  61  98 129 154 212 252 316 377
#     4  11  21  38  60  93 121 160 202 248 321 366
#     4   8  18  31  60  90 114 156 201 257 306 371
#     4  11  24  41  60  85 125 165 214 258 307 376
#     4  11  19  32  61  92 128 155 196 263 296 375
#     4  10  22  39  62  88 124 167 203 255 316 372
#
# _framework density 19.581869000000001
#
# number of rings (size 3 to 8) (size 9 to 14) (size 15 to 20)
#    0.000    2.000    1.667    4.500    0.000    2.000 
#    3.000    2.500    0.000    1.000    0.000    0.000 
#    0.000    0.000    0.000    0.000    0.000    0.000 
#
# Total GULP energy -133659.509653 kJ/mol
# GULP energy per Si atom -5569.146236 kJ/mol
# Density = 1.953730 g / cm^3
# Si number density = 19.581869 Si / 1000 Ang^3
#
#
#
# Elastic Constant Matrix: (Units=GPa)
#
#
# Indices 1 2 3 4 5 6 
#
# 1 74.9920 34.7374 40.4940 -0.0006 28.4459 0.0006
# 2 34.7374 116.9292 35.9723 0.0012 20.5586 0.0001
# 3 40.4940 35.9723 90.5073 0.0020 23.8846 0.0002
# 4 -0.0006 0.0012 0.0020 -15.9834 -0.0003 24.0219
# 5 28.4459 20.5586 23.8846 -0.0003 40.8592 -0.0007
# 6 0.0006 0.0001 0.0002 24.0219 -0.0007 5.3617
#
#
#
# Elastic Compliance Matrix: (Units=1/GPa)
#
#
# Indices 1 2 3 4 5 6 
#
# 1 0.021714 -0.002839 -0.005882 -0.000001 -0.010250 0.000000
# 2 -0.002839 0.010463 -0.002389 0.000000 -0.001891 0.000000
# 3 -0.005882 -0.002389 0.015646 0.000000 -0.003849 -0.000001
# 4 -0.000001 0.000000 0.000000 -0.008090 0.000001 0.036246
# 5 -0.010250 -0.001891 -0.003849 0.000001 0.034812 0.000001
# 6 0.000000 0.000000 -0.000001 0.036246 0.000001 0.024117
#
#
# Mechanical properties :
#
#
# Convention : Reuss Voigt Hill
#
# Bulk Modulus (GPa) = 39.05801 56.09288 47.57545
# Shear Modulus (GPa) = 38.63508 17.46249 28.04879
#
# Velocity S-wave (km/s) = 4.44667 2.98949 3.78879
# Velocity P-wave (km/s) = 6.80831 6.37366 6.59457
#
# Compressibility (1/GPa) = 0.02560294
#
# Stress axis : x y z
#
# Youngs Moduli (GPa) = 46.05319 95.57299 63.91549
#
# Poissons Ratio (x) = 0.27134 0.37593
# Poissons Ratio (y) = 0.13075 0.15271
# Poissons Ratio (z) = 0.27087 0.22835
#
# Static dielectric constant tensor:
#      x y z
#    x 1.705940 0.000000 0.001200 
#    y 0.000000 1.677800 0.000000 
#    z 0.001200 0.000000 1.698550 
# 
# From -- ./inp_files/226791.got.cif
#   From: 2010.05.17/outbox.cif.g08.bks.cpg/sg12_114_cif.got.tgz:226791.got - 2010.06.03 13:09:07.
