data_PCOD9214050
_publ_section_title
;
Structure prediction by ZEFSAII (Michael W. Deem and Ramdas Pophale) SiO2 
 PCOD9214050
Probable space group: C 2/M
;
_chemical_formula_sum "Si O2"
_cell_formula_units_Z 36
_cell_length_a 20.225605
_cell_length_b 10.177461
_cell_length_c 9.272309
_cell_angle_alpha 90.000000
_cell_angle_beta 89.573630
_cell_angle_gamma 90.000000
_cell_volume 1908.608437
_symmetry_space_group_name_H-M "C 2/M"
_symmetry_group_IT_number 12
_symmetry_cell_setting 'monoclinic'
loop_
_space_group_symop_operation_xyz
x,y,z
-x,y,-z
-x,-y,-z
x,-y,z
1/2+x,1/2+y,z
1/2-x,1/2+y,-z
1/2-x,1/2-y,-z
1/2+x,1/2-y,z
loop_
_atom_site_type_symbol
_atom_site_label
_atom_site_fract_x
_atom_site_fract_y
_atom_site_fract_z
Si Si1 0.108848 0.728512 0.704884
Si Si2 0.147394 0.500000 0.493341
Si Si3 0.246209 0.248571 0.173522
Si Si4 0.707426 0.500000 0.368357
Si Si5 0.427118 0.500000 0.432693
Si Si6 0.157981 0.500000 0.189737
Si Si7 0.067340 0.500000 0.914375
O O1 0.122400 0.632060 0.570531
O O2 0.179858 0.762050 0.770681
O O3 0.077268 0.865503 0.659232
O O4 0.073314 0.631445 0.818676
O O5 0.227914 0.500000 0.524625
O O6 0.115483 0.500000 0.335169
O O7 0.202375 0.372882 0.209762
O O8 0.215979 0.124113 0.259893
O O9 0.250000 0.250000 0.000000
O O10 0.637907 0.500000 0.457982
O O11 0.500000 0.500000 0.500000
O O12 0.124644 0.500000 0.034697
O O13 0.000000 0.500000 0.000000
#
# Coordination Sequence:
#
# PCOD9214050 Si02
#       7
#     8   4   8   4   4   4   4
#     4  10  22  44  63  91 128 162 207 271 314 372
#     4   9  20  38  70  95 117 155 211 268 325 360
#     4  11  20  36  66  96 127 156 203 267 330 371
#     4  10  22  39  61  97 132 161 208 268 322 375
#     4  12  26  43  63  90 134 177 215 252 310 388
#     4  12  21  35  61  96 120 159 205 249 317 383
#     4  11  25  43  61  86 125 166 215 259 302 376
#
# _framework density 18.861910000000002
#
# number of rings (size 3 to 8) (size 9 to 14) (size 15 to 20)
#    0.000    1.333    2.222    4.667    0.000    7.111 
#    0.000    2.778    0.000    0.000    0.000    0.000 
#    0.000    0.000    0.000    0.000    0.000    0.000 
#
# Total GULP energy -100382.051378 kJ/mol
# GULP energy per Si atom -5576.780632 kJ/mol
# Density = 1.881898 g / cm^3
# Si number density = 18.861910 Si / 1000 Ang^3
#
#
#
# Elastic Constant Matrix: (Units=GPa)
#
#
# Indices 1 2 3 4 5 6 
#
# 1 87.2927 73.6104 29.7752 0.0000 -12.9285 0.0000
# 2 73.6104 186.9881 69.0917 0.0000 16.2713 0.0000
# 3 29.7752 69.0917 118.1265 0.0000 -1.4516 0.0000
# 4 0.0000 0.0000 0.0000 19.1360 0.0000 6.0010
# 5 -12.9285 16.2713 -1.4516 0.0000 17.3332 0.0000
# 6 0.0000 0.0000 0.0000 6.0010 0.0000 11.9404
#
#
#
# Elastic Compliance Matrix: (Units=1/GPa)
#
#
# Indices 1 2 3 4 5 6 
#
# 1 0.029105 -0.015404 0.002120 0.000000 0.036346 0.000000
# 2 -0.015404 0.015865 -0.005727 0.000000 -0.026862 0.000000
# 3 0.002120 -0.005727 0.011378 0.000000 0.007910 0.000000
# 4 0.000000 0.000000 0.000000 0.062035 0.000000 -0.031177
# 5 0.036346 -0.026862 0.007910 0.000000 0.110682 0.000000
# 6 0.000000 0.000000 0.000000 -0.031177 0.000000 0.099418
#
#
# Mechanical properties :
#
#
# Convention : Reuss Voigt Hill
#
# Bulk Modulus (GPa) = 54.56451 81.92912 68.24682
# Shear Modulus (GPa) = 13.41870 24.34392 18.88131
#
# Velocity S-wave (km/s) = 2.67014 3.59644 3.16734
# Velocity P-wave (km/s) = 6.20463 7.79593 7.04535
#
# Compressibility (1/GPa) = 0.01832693
#
# Stress axis : x y z
#
# Youngs Moduli (GPa) = 34.35834 63.03002 87.88823
#
# Poissons Ratio (x) = 0.97089 -0.18632
# Poissons Ratio (y) = 0.52925 0.50334
# Poissons Ratio (z) = -0.07284 0.36098
#
# Static dielectric constant tensor:
#      x y z
#    x 1.649980 0.000000 -0.038840 
#    y 0.000000 1.648270 0.000000 
#    z -0.038840 0.000000 1.776500 
# 
# From -- ./inp_files/82110.got.cif
#   From: 2010.05.17/outbox.cif.g08.bks.cpg/sg12_42_cif.got.tgz:82110.got - 2010.06.03 13:09:07.
