data_PCOD9214063
_publ_section_title
;
Structure prediction by ZEFSAII (Michael W. Deem and Ramdas Pophale) SiO2 
 PCOD9214063
Probable space group: C 2/M
;
_chemical_formula_sum "Si O2"
_cell_formula_units_Z 56
_cell_length_a 24.311389
_cell_length_b 7.938204
_cell_length_c 16.045096
_cell_angle_alpha 90.000000
_cell_angle_beta 60.313877
_cell_angle_gamma 90.000000
_cell_volume 2690.109199
_symmetry_space_group_name_H-M "C 2/M"
_symmetry_group_IT_number 12
_symmetry_cell_setting 'monoclinic'
loop_
_space_group_symop_operation_xyz
x,y,z
-x,y,-z
-x,-y,-z
x,-y,z
1/2+x,1/2+y,z
1/2-x,1/2+y,-z
1/2-x,1/2-y,-z
1/2+x,1/2-y,z
loop_
_atom_site_type_symbol
_atom_site_label
_atom_site_fract_x
_atom_site_fract_y
_atom_site_fract_z
Si Si1 0.020924 0.793533 0.076122
Si Si2 0.207786 0.201462 0.154747
Si Si3 0.286271 0.702111 0.388392
Si Si4 0.569172 0.298730 0.707069
Si Si5 0.662296 0.703821 0.009086
Si Si6 0.826359 0.800216 0.641100
Si Si7 0.954424 0.303794 0.461158
O O1 0.975549 0.735121 0.185048
O O2 0.020111 0.000000 0.078070
O O3 0.092795 0.739758 0.037173
O O4 0.000000 0.740503 0.000000
O O5 0.282300 0.239415 0.094144
O O6 0.175826 0.265964 0.262744
O O7 0.199706 0.000000 0.161467
O O8 0.179425 0.266315 0.089174
O O9 0.287743 0.500000 0.380490
O O10 0.250000 0.750000 0.500000
O O11 0.358591 0.765656 0.338522
O O12 0.242304 0.770919 0.347738
O O13 0.572943 0.500000 0.713948
O O14 0.542080 0.268202 0.634781
O O15 0.663291 0.500000 0.009670
O O16 0.882238 0.717482 0.546254
O O17 0.839105 0.000000 0.631049
O O18 0.970145 0.500000 0.441859
O O19 0.000000 0.231048 0.500000
#
# Coordination Sequence:
#
# PCOD9214063 Si02
#       7
#     8   8   8   8   8   8   8
#     4   9  19  35  58  87 115 147 194 241 282 342
#     4   9  20  36  55  84 115 147 190 238 290 346
#     4  11  22  37  59  87 118 150 193 241 289 347
#     4  10  22  39  62  88 115 156 199 240 294 350
#     4   9  18  35  59  82 110 149 192 240 291 339
#     4  11  23  38  60  87 116 155 197 241 294 350
#     4  11  25  42  60  87 121 156 196 243 296 354
#
# _framework density 20.816997000000001
#
# number of rings (size 3 to 8) (size 9 to 14) (size 15 to 20)
#    0.000    2.000    1.429    1.286    4.000    2.857 
#    0.000    0.714    0.000    0.857    0.000    0.000 
#    0.000    0.000    0.000    0.000    0.000    0.000 
#
# Total GULP energy -156368.419894 kJ/mol
# GULP energy per Si atom -5584.586425 kJ/mol
# Density = 2.076962 g / cm^3
# Si number density = 20.816997 Si / 1000 Ang^3
#
#
#
# Elastic Constant Matrix: (Units=GPa)
#
#
# Indices 1 2 3 4 5 6 
#
# 1 125.3923 -8.3049 49.5255 0.0000 -2.8948 0.0000
# 2 -8.3049 15.7095 -5.0272 0.0000 -0.3215 -0.0001
# 3 49.5255 -5.0272 142.9244 0.0000 9.7111 0.0000
# 4 0.0000 0.0000 0.0000 15.7003 0.0000 0.5649
# 5 -2.8948 -0.3215 9.7111 0.0000 21.4722 0.0000
# 6 0.0000 -0.0001 0.0000 0.5649 0.0000 21.1548
#
#
#
# Elastic Compliance Matrix: (Units=1/GPa)
#
#
# Indices 1 2 3 4 5 6 
#
# 1 0.009654 0.004075 -0.003399 0.000000 0.002900 0.000000
# 2 0.004075 0.066101 0.000834 0.000000 0.001162 0.000000
# 3 -0.003399 0.000834 0.008495 0.000000 -0.004288 0.000000
# 4 0.000000 0.000000 0.000000 0.063754 0.000000 -0.001702
# 5 0.002900 0.001162 -0.004288 0.000000 0.048919 0.000000
# 6 0.000000 0.000000 0.000000 -0.001702 0.000000 0.047316
#
#
# Mechanical properties :
#
#
# Convention : Reuss Voigt Hill
#
# Bulk Modulus (GPa) = 11.45860 39.60144 25.53002
# Shear Modulus (GPa) = 18.49729 28.18766 23.34247
#
# Velocity S-wave (km/s) = 2.98412 3.68376 3.35224
# Velocity P-wave (km/s) = 4.17009 6.09577 5.22245
#
# Compressibility (1/GPa) = 0.08727072
#
# Stress axis : x y z
#
# Youngs Moduli (GPa) = 103.58038 15.12843 117.71352
#
# Poissons Ratio (x) = -0.06165 0.40011
# Poissons Ratio (y) = -0.42213 -0.09816
# Poissons Ratio (z) = 0.35208 -0.01262
#
# Static dielectric constant tensor:
#      x y z
#    x 1.750800 0.000000 0.015460 
#    y 0.000000 1.765040 0.000000 
#    z 0.015460 0.000000 1.718990 
# 
# From -- ./inp_files/238325.got.cif
#   From: 2010.05.17/outbox.cif.g08.bks.cpg/sg12_120_cif.got.tgz:238325.got - 2010.06.03 13:09:07.
