data_PCOD9214223
_publ_section_title
;
Structure prediction by ZEFSAII (Michael W. Deem and Ramdas Pophale) SiO2 
 PCOD9214223
Probable space group: C 2/M
;
_chemical_formula_sum "Si O2"
_cell_formula_units_Z 50
_cell_length_a 20.537616
_cell_length_b 7.936891
_cell_length_c 15.513958
_cell_angle_alpha 90.000000
_cell_angle_beta 71.313188
_cell_angle_gamma 90.000000
_cell_volume 2395.539197
_symmetry_space_group_name_H-M "C 2/M"
_symmetry_group_IT_number 12
_symmetry_cell_setting 'monoclinic'
loop_
_space_group_symop_operation_xyz
x,y,z
-x,y,-z
-x,-y,-z
x,-y,z
1/2+x,1/2+y,z
1/2-x,1/2+y,-z
1/2-x,1/2-y,-z
1/2+x,1/2-y,z
loop_
_atom_site_type_symbol
_atom_site_label
_atom_site_fract_x
_atom_site_fract_y
_atom_site_fract_z
Si Si1 0.684445 0.296359 0.970533
Si Si2 0.062293 0.301605 0.718700
Si Si3 0.063276 0.301434 0.527167
Si Si4 0.038283 0.307813 0.101934
Si Si5 0.211111 0.804026 0.428320
Si Si6 0.500000 0.500000 0.000000
Si Si7 0.307863 0.302875 0.231484
O O1 0.672746 0.500000 0.973895
O O2 0.693211 0.239741 0.867106
O O3 0.750000 0.250000 0.000000
O O4 0.617521 0.215017 0.042791
O O5 0.081550 0.500000 0.707767
O O6 0.068376 0.227997 0.621071
O O7 0.116659 0.221518 0.760749
O O8 0.985464 0.290930 0.789022
O O9 0.048341 0.500000 0.545573
O O10 0.137607 0.285441 0.452746
O O11 0.000000 0.228954 0.500000
O O12 0.016861 0.500000 0.087189
O O13 0.001794 0.151346 0.071424
O O14 0.250000 0.750000 0.500000
O O15 0.256901 0.774959 0.323972
O O16 0.197022 0.000000 0.443029
O O17 0.291214 0.500000 0.234021
#
# Coordination Sequence:
#
# PCOD9214223 Si02
#       7
#     8   8   8   8   8   2   8
#     4  11  25  45  67  96 135 179 228 275 336 408
#     4  10  22  39  64  97 131 173 218 267 329 393
#     4  10  22  42  67  96 134 174 215 266 327 394
#     4  11  24  41  65  97 137 174 218 280 336 398
#     4  12  24  41  65  96 132 170 221 277 330 394
#     4  12  22  40  64  98 130 168 222 270 338 394
#     4  11  24  40  66  96 128 174 220 272 330 392
#
# _framework density 20.872126999999999
#
# number of rings (size 3 to 8) (size 9 to 14) (size 15 to 20)
#    0.000    1.120    2.400    3.600    3.360    5.440 
#    0.000    3.200    0.000    0.000    0.000    0.000 
#    0.000    0.000    0.000    0.000    0.000    0.000 
#
# Total GULP energy -139309.515329 kJ/mol
# GULP energy per Si atom -5572.380613 kJ/mol
# Density = 2.082462 g / cm^3
# Si number density = 20.872127 Si / 1000 Ang^3
#
#
#
# Elastic Constant Matrix: (Units=GPa)
#
#
# Indices 1 2 3 4 5 6 
#
# 1 94.5884 -13.5685 83.5893 0.0000 1.6106 0.0000
# 2 -13.5685 80.8045 0.9168 0.0000 4.7348 0.0000
# 3 83.5893 0.9168 139.5241 0.0000 -8.9834 0.0000
# 4 0.0000 0.0000 0.0000 26.8297 0.0000 -9.8168
# 5 1.6106 4.7348 -8.9834 0.0000 33.9570 0.0000
# 6 0.0000 0.0000 0.0000 -9.8168 0.0000 38.1967
#
#
#
# Elastic Compliance Matrix: (Units=1/GPa)
#
#
# Indices 1 2 3 4 5 6 
#
# 1 0.024882 0.004697 -0.015317 0.000000 -0.005887 0.000000
# 2 0.004697 0.013369 -0.003089 0.000000 -0.002904 0.000000
# 3 -0.015317 -0.003089 0.016723 0.000000 0.005581 0.000000
# 4 0.000000 0.000000 0.000000 0.041141 0.000000 0.010574
# 5 -0.005887 -0.002904 0.005581 0.000000 0.031610 0.000000
# 6 0.000000 0.000000 0.000000 0.010574 0.000000 0.028898
#
#
# Mechanical properties :
#
#
# Convention : Reuss Voigt Hill
#
# Bulk Modulus (GPa) = 36.28817 50.75471 43.52144
# Shear Modulus (GPa) = 25.87655 36.06198 30.96926
#
# Velocity S-wave (km/s) = 3.52485 4.16114 3.85614
# Velocity P-wave (km/s) = 5.83008 6.88887 6.38147
#
# Compressibility (1/GPa) = 0.02755719
#
# Stress axis : x y z
#
# Youngs Moduli (GPa) = 40.19031 74.79750 59.79761
#
# Poissons Ratio (x) = -0.35131 0.91589
# Poissons Ratio (y) = -0.18877 0.18470
# Poissons Ratio (z) = 0.61558 0.23103
#
# Static dielectric constant tensor:
#      x y z
#    x 1.495420 0.000000 0.123090 
#    y 0.000000 1.754940 0.000000 
#    z 0.123090 0.000000 1.726460 
# 
# From -- ./inp_files/230134.got.cif
#   From: 2010.05.17/outbox.cif.g08.bks.cpg/sg12_116_cif.got.tgz:230134.got - 2010.06.03 13:09:07.
