data_PCOD9214683
_publ_section_title
;
Structure prediction by ZEFSAII (Michael W. Deem and Ramdas Pophale) SiO2 
 PCOD9214683
Probable space group: C 2/M
;
_chemical_formula_sum "Si O2"
_cell_formula_units_Z 56
_cell_length_a 32.010193
_cell_length_b 8.215471
_cell_length_c 12.134436
_cell_angle_alpha 90.000000
_cell_angle_beta 58.340913
_cell_angle_gamma 90.000000
_cell_volume 2716.219641
_symmetry_space_group_name_H-M "C 2/M"
_symmetry_group_IT_number 12
_symmetry_cell_setting 'monoclinic'
loop_
_space_group_symop_operation_xyz
x,y,z
-x,y,-z
-x,-y,-z
x,-y,z
1/2+x,1/2+y,z
1/2-x,1/2+y,-z
1/2-x,1/2-y,-z
1/2+x,1/2-y,z
loop_
_atom_site_type_symbol
_atom_site_label
_atom_site_fract_x
_atom_site_fract_y
_atom_site_fract_z
Si Si1 0.394085 0.805440 0.883996
Si Si2 0.832568 0.189842 0.396819
Si Si3 0.254269 0.306891 0.333370
Si Si4 0.515331 0.199279 0.101481
Si Si5 0.573018 0.809966 0.620196
Si Si6 0.782220 0.304159 0.058155
Si Si7 0.055842 0.808051 0.408957
O O1 0.431894 0.745424 0.925661
O O2 0.416763 0.769314 0.732574
O O3 0.391985 0.000000 0.898889
O O4 0.338519 0.744227 0.970261
O O5 0.790756 0.215702 0.547080
O O6 0.804901 0.243225 0.323861
O O7 0.880408 0.286869 0.365542
O O8 0.845469 0.000000 0.370743
O O9 0.247844 0.500000 0.361964
O O10 0.258477 0.268098 0.200544
O O11 0.474713 0.250752 0.247660
O O12 0.515056 0.000000 0.100384
O O13 0.500000 0.252661 0.000000
O O14 0.580667 0.722655 0.492919
O O15 0.565964 0.000000 0.605790
O O16 0.782429 0.500000 0.064708
O O17 0.750000 0.250000 0.000000
O O18 0.000000 0.744528 0.500000
O O19 0.053323 0.000000 0.391058
#
# Coordination Sequence:
#
# PCOD9214683 Si02
#       7
#     8   8   8   8   8   8   8
#     4  10  22  41  64  89 118 159 208 252 301 362
#     4  10  22  40  63  91 124 158 199 254 307 362
#     4  10  22  42  65  89 121 160 205 251 307 371
#     4   9  19  36  60  91 123 156 199 248 297 360
#     4  11  22  36  63  92 121 159 201 249 301 365
#     4  11  25  42  64  90 123 163 208 260 309 367
#     4  11  23  39  60  86 122 159 199 250 303 358
#
# _framework density 20.616887999999999
#
# number of rings (size 3 to 8) (size 9 to 14) (size 15 to 20)
#    0.000    1.714    1.429    2.143    4.000    3.429 
#    0.000    0.000    0.000    2.143    0.000    0.000 
#    0.000    0.000    0.000    0.000    0.000    0.000 
#
# Total GULP energy -156482.573339 kJ/mol
# GULP energy per Si atom -5588.663334 kJ/mol
# Density = 2.056996 g / cm^3
# Si number density = 20.616888 Si / 1000 Ang^3
#
#
#
# Elastic Constant Matrix: (Units=GPa)
#
#
# Indices 1 2 3 4 5 6 
#
# 1 119.1877 0.5200 26.9574 0.0000 11.8625 0.0000
# 2 0.5200 14.4101 -10.8260 0.0000 -2.4406 0.0000
# 3 26.9574 -10.8260 56.1565 0.0000 29.5792 0.0000
# 4 0.0000 0.0000 0.0000 10.3879 0.0000 3.2651
# 5 11.8625 -2.4406 29.5792 0.0000 31.0470 0.0000
# 6 0.0000 0.0000 0.0000 3.2651 0.0000 23.9227
#
#
#
# Elastic Compliance Matrix: (Units=1/GPa)
#
#
# Indices 1 2 3 4 5 6 
#
# 1 0.009748 -0.005203 -0.007036 0.000000 0.002570 0.000000
# 2 -0.005203 0.088723 0.029871 0.000000 -0.019497 0.000000
# 3 -0.007036 0.029871 0.048760 0.000000 -0.041418 0.000000
# 4 0.000000 0.000000 0.000000 0.100580 0.000000 -0.013728
# 5 0.002570 -0.019497 -0.041418 0.000000 0.069155 0.000000
# 6 0.000000 0.000000 0.000000 -0.013728 0.000000 0.043675
#
#
# Mechanical properties :
#
#
# Convention : Reuss Voigt Hill
#
# Bulk Modulus (GPa) = 5.47958 24.78411 15.13185
# Shear Modulus (GPa) = 12.94636 24.61171 18.77903
#
# Velocity S-wave (km/s) = 2.50861 3.45884 3.02131
# Velocity P-wave (km/s) = 3.32482 5.29139 4.41889
#
# Compressibility (1/GPa) = 0.18249573
#
# Stress axis : x y z
#
# Youngs Moduli (GPa) = 102.57989 11.27101 20.50868
#
# Poissons Ratio (x) = 0.05864 0.14431
# Poissons Ratio (y) = 0.53370 -0.61262
# Poissons Ratio (z) = 0.72179 -0.33668
#
# Static dielectric constant tensor:
#      x y z
#    x 1.741300 0.000000 -0.010050 
#    y 0.000000 1.726430 0.000000 
#    z -0.010050 0.000000 1.686290 
# 
# From -- ./inp_files/187183.got.cif
#   From: 2010.05.17/outbox.cif.g08.bks.cpg/sg12_94_cif.got.tgz:187183.got - 2010.06.03 13:09:07.
