data_PCOD9214010
_publ_section_title
;
Structure prediction by ZEFSAII (Michael W. Deem and Ramdas Pophale) SiO2 
 PCOD9214010
Probable space group: C 2/M
;
_chemical_formula_sum "Si O2"
_cell_formula_units_Z 56
_cell_length_a 29.735762
_cell_length_b 7.568689
_cell_length_c 12.793420
_cell_angle_alpha 90.000000
_cell_angle_beta 125.136796
_cell_angle_gamma 90.000000
_cell_volume 2354.631885
_symmetry_space_group_name_H-M "C 2/M"
_symmetry_group_IT_number 12
_symmetry_cell_setting 'monoclinic'
loop_
_space_group_symop_operation_xyz
x,y,z
-x,y,-z
-x,-y,-z
x,-y,z
1/2+x,1/2+y,z
1/2-x,1/2+y,-z
1/2-x,1/2-y,-z
1/2+x,1/2-y,z
loop_
_atom_site_type_symbol
_atom_site_label
_atom_site_fract_x
_atom_site_fract_y
_atom_site_fract_z
Si Si1 0.742068 0.702652 0.656511
Si Si2 0.437778 0.212625 0.426732
Si Si3 0.219471 0.789192 0.066888
Si Si4 0.862984 0.716153 0.759037
Si Si5 0.539367 0.296697 0.964908
Si Si6 0.901508 0.212078 0.147232
Si Si7 0.379363 0.202098 0.554714
O O1 0.735483 0.500000 0.614195
O O2 0.750719 0.709986 0.792797
O O3 0.799414 0.771087 0.685721
O O4 0.686202 0.798294 0.551677
O O5 0.500000 0.278432 0.500000
O O6 0.408138 0.251383 0.278037
O O7 0.408105 0.282603 0.491275
O O8 0.438995 0.000000 0.436835
O O9 0.218265 0.000000 0.081102
O O10 0.250000 0.750000 0.000000
O O11 0.157320 0.720953 0.971142
O O12 0.863812 0.500000 0.765020
O O13 0.900621 0.789567 0.901310
O O14 0.887428 0.778338 0.680917
O O15 0.520892 0.500000 0.927378
O O16 0.500000 0.212210 0.000000
O O17 0.549428 0.220165 0.862564
O O18 0.901301 0.000000 0.134683
O O19 0.398671 0.000000 0.587948
#
# Coordination Sequence:
#
# PCOD9214010 Si02
#       7
#     8   8   8   8   8   8   8
#     4  11  22  37  58  89 121 153 198 243 294 358
#     4  10  23  41  61  86 116 154 198 243 291 346
#     4  11  22  37  59  86 120 158 196 242 293 349
#     4  10  22  39  61  90 121 155 198 246 296 355
#     4  10  22  40  62  89 120 154 196 244 299 357
#     4  10  22  40  60  86 118 152 192 240 292 348
#     4  10  22  40  60  85 120 159 199 245 297 349
#
# _framework density 23.782910999999999
#
# number of rings (size 3 to 8) (size 9 to 14) (size 15 to 20)
#    0.000    1.714    1.429    2.143    2.000    6.286 
#    0.000    0.000    0.000    0.000    0.000    0.000 
#    0.000    0.000    0.000    0.000    0.000    0.000 
#
# Total GULP energy -156566.131203 kJ/mol
# GULP energy per Si atom -5591.647543 kJ/mol
# Density = 2.372878 g / cm^3
# Si number density = 23.782911 Si / 1000 Ang^3
#
#
#
# Elastic Constant Matrix: (Units=GPa)
#
#
# Indices 1 2 3 4 5 6 
#
# 1 127.5468 -0.2343 6.1678 0.0000 -39.5922 0.0000
# 2 -0.2343 67.4578 -13.2422 0.0000 -1.0602 0.0000
# 3 6.1678 -13.2422 73.9176 0.0000 -29.8932 0.0000
# 4 0.0000 0.0000 0.0000 45.2848 0.0000 -8.3095
# 5 -39.5922 -1.0602 -29.8932 0.0000 50.2621 0.0000
# 6 0.0000 0.0000 0.0000 -8.3095 0.0000 14.0209
#
#
#
# Elastic Compliance Matrix: (Units=1/GPa)
#
#
# Indices 1 2 3 4 5 6 
#
# 1 0.011046 0.000926 0.003648 0.000000 0.010891 0.000000
# 2 0.000926 0.015701 0.004167 0.000000 0.003538 0.000000
# 3 0.003648 0.004167 0.019972 0.000000 0.014840 0.000000
# 4 0.000000 0.000000 0.000000 0.024777 0.000000 0.014684
# 5 0.010891 0.003538 0.014840 0.000000 0.037375 0.000000
# 6 0.000000 0.000000 0.000000 0.014684 0.000000 0.080025
#
#
# Mechanical properties :
#
#
# Convention : Reuss Voigt Hill
#
# Bulk Modulus (GPa) = 15.57623 28.25610 21.91617
# Shear Modulus (GPa) = 25.93165 40.32894 33.13029
#
# Velocity S-wave (km/s) = 3.30562 4.12237 3.73638
# Velocity P-wave (km/s) = 4.59707 5.87922 5.27723
#
# Compressibility (1/GPa) = 0.06420037
#
# Stress axis : x y z
#
# Youngs Moduli (GPa) = 90.52946 63.69103 50.06981
#
# Poissons Ratio (x) = -0.05896 -0.18268
# Poissons Ratio (y) = -0.08381 -0.20862
# Poissons Ratio (z) = -0.33029 -0.26537
#
# Static dielectric constant tensor:
#      x y z
#    x 1.935190 0.000000 -0.017220 
#    y 0.000000 1.970170 0.000000 
#    z -0.017220 0.000000 1.868520 
# 
# From -- ./inp_files/180717.got.cif
#   From: 2010.05.17/outbox.cif.g08.bks.cpg/sg12_91_cif.got.tgz:180717.got - 2010.06.03 13:09:07.
