data_PCOD9214516
_publ_section_title
;
Structure prediction by ZEFSAII (Michael W. Deem and Ramdas Pophale) SiO2 
 PCOD9214516
Probable space group: C 2/M
;
_chemical_formula_sum "Si O2"
_cell_formula_units_Z 56
_cell_length_a 29.661845
_cell_length_b 7.931400
_cell_length_c 11.265016
_cell_angle_alpha 90.000000
_cell_angle_beta 68.411113
_cell_angle_gamma 90.000000
_cell_volume 2464.289504
_symmetry_space_group_name_H-M "C 2/M"
_symmetry_group_IT_number 12
_symmetry_cell_setting 'monoclinic'
loop_
_space_group_symop_operation_xyz
x,y,z
-x,y,-z
-x,-y,-z
x,-y,z
1/2+x,1/2+y,z
1/2-x,1/2+y,-z
1/2-x,1/2-y,-z
1/2+x,1/2-y,z
loop_
_atom_site_type_symbol
_atom_site_label
_atom_site_fract_x
_atom_site_fract_y
_atom_site_fract_z
Si Si1 0.477708 0.293881 0.395738
Si Si2 0.866992 0.198331 0.462652
Si Si3 0.710591 0.807300 0.633999
Si Si4 0.520867 0.303937 0.103020
Si Si5 0.780953 0.808006 0.116578
Si Si6 0.379894 0.193982 0.918600
Si Si7 0.326046 0.204895 0.750854
O O1 0.500000 0.235311 0.500000
O O2 0.480516 0.500000 0.395326
O O3 0.421393 0.245772 0.438833
O O4 0.503350 0.235359 0.248408
O O5 0.841318 0.290612 0.378866
O O6 0.835290 0.228456 0.611161
O O7 0.867721 0.000000 0.434565
O O8 0.750000 0.750000 0.500000
O O9 0.714838 0.694136 0.745169
O O10 0.719703 0.000000 0.659869
O O11 0.505625 0.500000 0.118292
O O12 0.500000 0.229489 0.000000
O O13 0.579004 0.291510 0.050765
O O14 0.826805 0.704549 0.027511
O O15 0.726443 0.741916 0.147805
O O16 0.785080 0.000000 0.069588
O O17 0.395280 0.000000 0.898552
O O18 0.369500 0.259419 0.795599
O O19 0.325303 0.000000 0.748842
#
# Coordination Sequence:
#
# PCOD9214516 Si02
#       7
#     8   8   8   8   8   8   8
#     4   9  19  37  61  91 123 157 206 260 309 370
#     4  11  22  36  63  94 123 163 207 254 311 368
#     4  12  24  40  60  89 126 165 207 254 308 368
#     4  10  22  41  64  89 119 162 212 263 317 378
#     4  11  23  40  63  89 122 166 210 251 303 369
#     4  11  24  41  62  91 125 161 204 257 316 372
#     4  10  22  40  61  89 127 164 202 252 305 371
#
# _framework density 22.724602000000001
#
# number of rings (size 3 to 8) (size 9 to 14) (size 15 to 20)
#    0.000    1.429    1.429    3.857    2.000    3.143 
#    0.000    1.429    0.000    3.857    0.000    0.000 
#    0.000    0.000    0.000    0.000    0.000    0.000 
#
# Total GULP energy -156539.989924 kJ/mol
# GULP energy per Si atom -5590.713926 kJ/mol
# Density = 2.267288 g / cm^3
# Si number density = 22.724602 Si / 1000 Ang^3
#
#
#
# Elastic Constant Matrix: (Units=GPa)
#
#
# Indices 1 2 3 4 5 6 
#
# 1 146.9290 6.2811 38.3789 0.0000 16.6143 0.0000
# 2 6.2811 53.7106 2.2937 0.0000 3.8242 0.0000
# 3 38.3789 2.2937 87.5079 0.0000 13.2664 0.0000
# 4 0.0000 0.0000 0.0000 19.3037 0.0000 0.3315
# 5 16.6143 3.8242 13.2664 0.0000 42.5052 0.0000
# 6 0.0000 0.0000 0.0000 0.3315 0.0000 22.5789
#
#
#
# Elastic Compliance Matrix: (Units=1/GPa)
#
#
# Indices 1 2 3 4 5 6 
#
# 1 0.007882 -0.000642 -0.003130 0.000000 -0.002046 0.000000
# 2 -0.000642 0.018796 0.000008 0.000000 -0.001442 0.000000
# 3 -0.003130 0.000008 0.013241 0.000000 -0.002910 0.000000
# 4 0.000000 0.000000 0.000000 0.051816 0.000000 -0.000761
# 5 -0.002046 -0.001442 -0.002910 0.000000 0.025364 0.000000
# 6 0.000000 0.000000 0.000000 -0.000761 0.000000 0.044300
#
#
# Mechanical properties :
#
#
# Convention : Reuss Voigt Hill
#
# Bulk Modulus (GPa) = 30.87359 42.45054 36.66206
# Shear Modulus (GPa) = 27.82002 32.95716 30.38859
#
# Velocity S-wave (km/s) = 3.50269 3.81239 3.66082
# Velocity P-wave (km/s) = 5.47484 6.17253 5.83412
#
# Compressibility (1/GPa) = 0.03239015
#
# Stress axis : x y z
#
# Youngs Moduli (GPa) = 126.86425 53.20340 75.52168
#
# Poissons Ratio (x) = 0.03418 0.23638
# Poissons Ratio (y) = 0.08150 -0.00059
# Poissons Ratio (z) = 0.39708 -0.00041
#
# Static dielectric constant tensor:
#      x y z
#    x 1.846960 0.000000 0.006490 
#    y 0.000000 1.804590 0.000000 
#    z 0.006490 0.000000 1.855710 
# 
# From -- ./inp_files/180630.got.cif
#   From: 2010.05.17/outbox.cif.g08.bks.cpg/sg12_91_cif.got.tgz:180630.got - 2010.06.03 13:09:07.
