data_PCOD9214894
_publ_section_title
;
Structure prediction by ZEFSAII (Michael W. Deem and Ramdas Pophale) SiO2 
 PCOD9214894
Probable space group: C 2/M
;
_chemical_formula_sum "Si O2"
_cell_formula_units_Z 48
_cell_length_a 5.861565
_cell_length_b 28.136547
_cell_length_c 12.920846
_cell_angle_alpha 90.000000
_cell_angle_beta 107.468678
_cell_angle_gamma 90.000000
_cell_volume 2032.682843
_symmetry_space_group_name_H-M "C 2/M"
_symmetry_group_IT_number 12
_symmetry_cell_setting 'monoclinic'
loop_
_space_group_symop_operation_xyz
x,y,z
-x,y,-z
-x,-y,-z
x,-y,z
1/2+x,1/2+y,z
1/2-x,1/2+y,-z
1/2-x,1/2-y,-z
1/2+x,1/2-y,z
loop_
_atom_site_type_symbol
_atom_site_label
_atom_site_fract_x
_atom_site_fract_y
_atom_site_fract_z
Si Si1 0.077032 0.446923 0.798888
Si Si2 0.761439 0.728948 0.681509
Si Si3 0.123216 0.863819 0.120800
Si Si4 0.249991 0.946543 0.412418
Si Si5 0.360289 0.623296 0.301295
Si Si6 0.921208 0.713889 0.089792
O O1 0.028951 0.500000 0.831069
O O2 0.195080 0.450125 0.701836
O O3 0.843897 0.415123 0.750611
O O4 0.263602 0.415107 0.887026
O O5 0.488583 0.751173 0.644653
O O6 0.722009 0.672593 0.659319
O O7 0.861115 0.736218 0.814024
O O8 0.972046 0.863757 0.204319
O O9 0.326132 0.824449 0.158479
O O10 0.000000 0.846773 0.000000
O O11 0.500000 0.934340 0.500000
O O12 0.055325 0.905597 0.393965
O O13 0.179327 0.000000 0.437398
O O14 0.750000 0.750000 0.000000
O O15 0.000000 0.682992 0.000000
#
# Coordination Sequence:
#
# PCOD9214894 Si02
#       6
#     8   8   8   8   8   8
#     4  10  22  40  65  94 129 173 219 269 337 414
#     4  12  25  39  60  91 129 177 226 279 338 397
#     4  11  24  39  57  86 132 180 225 276 331 396
#     4   9  20  41  72 107 133 159 208 277 350 416
#     4  11  23  41  63  91 137 173 220 278 340 405
#     4  12  22  35  59  88 123 167 224 289 339 380
#
# _framework density 23.614111999999999
#
# number of rings (size 3 to 8) (size 9 to 14) (size 15 to 20)
#    0.000    1.167    3.333    3.000    2.333    1.667 
#    0.000    3.333    0.000    1.000    0.000    0.000 
#    0.000    0.000    0.000    0.000    0.000    0.000 
#
# Total GULP energy -133903.820117 kJ/mol
# GULP energy per Si atom -5579.325838 kJ/mol
# Density = 2.356037 g / cm^3
# Si number density = 23.614112 Si / 1000 Ang^3
#
#
#
# Elastic Constant Matrix: (Units=GPa)
#
#
# Indices 1 2 3 4 5 6 
#
# 1 123.4601 64.0687 9.8162 0.0000 13.2538 0.0000
# 2 64.0687 163.3376 7.5020 0.0000 32.6916 0.0000
# 3 9.8162 7.5020 38.3764 0.0000 18.3164 0.0000
# 4 0.0000 0.0000 0.0000 22.2659 0.0000 37.0067
# 5 13.2538 32.6916 18.3164 0.0000 33.4608 0.0000
# 6 0.0000 0.0000 0.0000 37.0067 0.0000 110.6989
#
#
#
# Elastic Compliance Matrix: (Units=1/GPa)
#
#
# Indices 1 2 3 4 5 6 
#
# 1 0.010337 -0.004218 -0.002480 0.000000 0.001384 0.000000
# 2 -0.004218 0.009559 0.003885 0.000000 -0.009795 0.000000
# 3 -0.002480 0.003885 0.036922 0.000000 -0.023025 0.000000
# 4 0.000000 0.000000 0.000000 0.101066 0.000000 -0.033786
# 5 0.001384 -0.009795 -0.023025 0.000000 0.051511 0.000000
# 6 0.000000 0.000000 0.000000 -0.033786 0.000000 0.020328
#
#
# Mechanical properties :
#
#
# Convention : Reuss Voigt Hill
#
# Bulk Modulus (GPa) = 19.53410 54.21644 36.87527
# Shear Modulus (GPa) = 19.80882 49.53758 34.67320
#
# Velocity S-wave (km/s) = 2.89944 4.58514 3.83603
# Velocity P-wave (km/s) = 4.41579 7.14426 5.93884
#
# Compressibility (1/GPa) = 0.05119253
#
# Stress axis : x y z
#
# Youngs Moduli (GPa) = 96.73794 104.61627 27.08427
#
# Poissons Ratio (x) = 0.44125 0.06717
# Poissons Ratio (y) = 0.40802 -0.10523
# Poissons Ratio (z) = 0.23992 -0.40647
#
# Static dielectric constant tensor:
#      x y z
#    x 2.223740 0.000000 0.065960 
#    y 0.000000 1.909090 0.000000 
#    z 0.065960 0.000000 1.900660 
# 
# From -- ./inp_files/253515.got.cif
#   From: 2010.05.17/outbox.cif.g08.bks.cpg/sg12_127_cif.got.tgz:253515.got - 2010.06.03 13:09:07.
