data_PCOD9214780
_publ_section_title
;
Structure prediction by ZEFSAII (Michael W. Deem and Ramdas Pophale) SiO2 
 PCOD9214780
Probable space group: C 2/M
;
_chemical_formula_sum "Si O2"
_cell_formula_units_Z 48
_cell_length_a 7.948886
_cell_length_b 34.258316
_cell_length_c 8.557504
_cell_angle_alpha 90.000000
_cell_angle_beta 97.472795
_cell_angle_gamma 90.000000
_cell_volume 2310.548318
_symmetry_space_group_name_H-M "C 2/M"
_symmetry_group_IT_number 12
_symmetry_cell_setting 'monoclinic'
loop_
_space_group_symop_operation_xyz
x,y,z
-x,y,-z
-x,-y,-z
x,-y,z
1/2+x,1/2+y,z
1/2-x,1/2+y,-z
1/2-x,1/2-y,-z
1/2+x,1/2-y,z
loop_
_atom_site_type_symbol
_atom_site_label
_atom_site_fract_x
_atom_site_fract_y
_atom_site_fract_z
Si Si1 0.470657 0.806683 0.681454
Si Si2 0.178625 0.906293 0.613306
Si Si3 0.989786 0.849859 0.816152
Si Si4 0.955545 0.545355 0.810804
Si Si5 0.633801 0.884681 0.673979
Si Si6 0.094159 0.226374 0.680758
O O1 0.500000 0.810950 0.500000
O O2 0.519223 0.850050 0.738997
O O3 0.282887 0.790408 0.685962
O O4 0.589876 0.770428 0.744555
O O5 0.270604 0.939389 0.729007
O O6 0.323276 0.892170 0.506133
O O7 0.000000 0.916407 0.500000
O O8 0.128383 0.871523 0.724868
O O9 0.816366 0.869054 0.744434
O O10 0.996560 0.804331 0.775715
O O11 0.000000 0.856004 0.000000
O O12 0.973909 0.500000 0.770864
O O13 0.085605 0.573909 0.739339
O O14 0.000000 0.549161 0.000000
O O15 0.000000 0.226383 0.500000
#
# Coordination Sequence:
#
# PCOD9214780 Si02
#       6
#     8   8   8   8   8   8
#     4  11  20  34  58  86 116 153 200 253 303 353
#     4  10  22  40  64  92 121 161 211 256 300 361
#     4  11  22  39  60  86 122 160 201 252 312 365
#     4  11  24  42  64  94 130 163 197 245 309 371
#     4  11  22  39  64  90 119 158 207 253 301 360
#     4  11  21  35  56  84 117 156 204 250 299 360
#
# _framework density 20.774287999999999
#
# number of rings (size 3 to 8) (size 9 to 14) (size 15 to 20)
#    0.000    1.167    0.000   10.000    0.000    1.667 
#    0.000    6.667    0.000    9.000    0.000    0.000 
#    0.000    0.000    0.000    0.000    0.000    0.000 
#
# Total GULP energy -133830.794082 kJ/mol
# GULP energy per Si atom -5576.283087 kJ/mol
# Density = 2.072701 g / cm^3
# Si number density = 20.774288 Si / 1000 Ang^3
#
#
#
# Elastic Constant Matrix: (Units=GPa)
#
#
# Indices 1 2 3 4 5 6 
#
# 1 112.8813 56.8476 6.9380 0.0000 -12.3985 0.0000
# 2 56.8476 167.1860 32.9527 0.0000 -5.9641 0.0000
# 3 6.9380 32.9527 53.9234 0.0000 -8.5663 0.0000
# 4 0.0000 0.0000 0.0000 49.2998 0.0000 1.7910
# 5 -12.3985 -5.9641 -8.5663 0.0000 14.3909 0.0000
# 6 0.0000 0.0000 0.0000 1.7910 0.0000 34.2902
#
#
#
# Elastic Compliance Matrix: (Units=1/GPa)
#
#
# Indices 1 2 3 4 5 6 
#
# 1 0.011930 -0.004218 0.002648 0.000000 0.010107 0.000000
# 2 -0.004218 0.008294 -0.005033 0.000000 -0.003193 0.000000
# 3 0.002648 -0.005033 0.023536 0.000000 0.014206 0.000000
# 4 0.000000 0.000000 0.000000 0.020323 0.000000 -0.001061
# 5 0.010107 -0.003193 0.014206 0.000000 0.085329 0.000000
# 6 0.000000 0.000000 0.000000 -0.001061 0.000000 0.029218
#
#
# Mechanical properties :
#
#
# Convention : Reuss Voigt Hill
#
# Bulk Modulus (GPa) = 32.72743 58.60747 45.66745
# Shear Modulus (GPa) = 24.74985 35.41298 30.08142
#
# Velocity S-wave (km/s) = 3.45537 4.13323 3.80940
# Velocity P-wave (km/s) = 5.63093 7.14499 6.43266
#
# Compressibility (1/GPa) = 0.03055541
#
# Stress axis : x y z
#
# Youngs Moduli (GPa) = 83.81901 120.57334 42.48728
#
# Poissons Ratio (x) = 0.50859 -0.11252
# Poissons Ratio (y) = 0.35356 0.21383
# Poissons Ratio (z) = -0.22198 0.60682
#
# Static dielectric constant tensor:
#      x y z
#    x 1.796940 0.000000 0.025600 
#    y 0.000000 1.749080 0.000000 
#    z 0.025600 0.000000 1.793990 
# 
# From -- ./inp_files/42250.got.cif
#   From: 2010.05.17/outbox.cif.g08.bks.cpg/sg12_22_cif.got.tgz:42250.got - 2010.06.03 13:09:07.
