data_PCOD9214913
_publ_section_title
;
Structure prediction by ZEFSAII (Michael W. Deem and Ramdas Pophale) SiO2 
 PCOD9214913
Probable space group: C 2/M
;
_chemical_formula_sum "Si O2"
_cell_formula_units_Z 48
_cell_length_a 17.977187
_cell_length_b 14.270015
_cell_length_c 12.220472
_cell_angle_alpha 90.000000
_cell_angle_beta 128.890662
_cell_angle_gamma 90.000000
_cell_volume 2440.093990
_symmetry_space_group_name_H-M "C 2/M"
_symmetry_group_IT_number 12
_symmetry_cell_setting 'monoclinic'
loop_
_space_group_symop_operation_xyz
x,y,z
-x,y,-z
-x,-y,-z
x,-y,z
1/2+x,1/2+y,z
1/2-x,1/2+y,-z
1/2-x,1/2-y,-z
1/2+x,1/2-y,z
loop_
_atom_site_type_symbol
_atom_site_label
_atom_site_fract_x
_atom_site_fract_y
_atom_site_fract_z
Si Si1 0.603635 0.391133 0.651061
Si Si2 0.092852 0.719549 0.803640
Si Si3 0.105751 0.761119 0.070178
Si Si4 0.397640 0.888206 0.570781
Si Si5 0.715250 0.889440 0.753255
Si Si6 0.294261 0.889839 0.694805
O O1 0.500000 0.382978 0.500000
O O2 0.616015 0.500000 0.697177
O O3 0.606943 0.317284 0.752338
O O4 0.688040 0.369380 0.641960
O O5 0.168365 0.648414 0.820576
O O6 0.988800 0.674886 0.683742
O O7 0.109260 0.734267 0.946353
O O8 0.185130 0.837685 0.171078
O O9 0.132254 0.671073 0.167265
O O10 0.000000 0.794540 0.000000
O O11 0.356645 0.866669 0.413140
O O12 0.316052 0.872062 0.587305
O O13 0.422641 0.000000 0.596568
O O14 0.727592 0.000000 0.766749
O O15 0.311040 0.000000 0.728301
#
# Coordination Sequence:
#
# PCOD9214913 Si02
#       6
#     8   8   8   8   8   8
#     4  10  22  40  65  97 127 162 210 263 319 376
#     4  12  23  41  67  96 129 165 211 263 319 381
#     4  12  26  44  62  94 128 172 217 254 319 383
#     4  10  22  42  70  99 124 163 215 269 319 368
#     4  11  25  43  65  95 132 169 210 261 321 382
#     4  10  22  42  67  93 125 163 214 268 314 368
#
# _framework density 19.671374
#
# number of rings (size 3 to 8) (size 9 to 14) (size 15 to 20)
#    0.000    1.167    3.333    2.500    0.000    6.000 
#    0.000    1.667    0.000    0.000    0.000    0.000 
#    0.000    0.000    0.000    0.000    0.000    0.000 
#
# Total GULP energy -134213.488331 kJ/mol
# GULP energy per Si atom -5592.228680 kJ/mol
# Density = 1.962660 g / cm^3
# Si number density = 19.671374 Si / 1000 Ang^3
#
#
#
# Elastic Constant Matrix: (Units=GPa)
#
#
# Indices 1 2 3 4 5 6 
#
# 1 60.3541 6.2260 -12.8562 0.0000 5.1558 0.0000
# 2 6.2260 61.9128 7.0709 0.0000 0.1113 0.0000
# 3 -12.8562 7.0709 21.9923 0.0000 1.7174 0.0000
# 4 0.0000 0.0000 0.0000 -16.3412 0.0000 -19.7417
# 5 5.1558 0.1113 1.7174 0.0000 40.0951 0.0000
# 6 0.0000 0.0000 0.0000 -19.7417 0.0000 15.9373
#
#
#
# Elastic Compliance Matrix: (Units=1/GPa)
#
#
# Indices 1 2 3 4 5 6 
#
# 1 0.019974 -0.003493 0.013043 0.000000 -0.003117 0.000000
# 2 -0.003493 0.017380 -0.007686 0.000000 0.000730 0.000000
# 3 0.013043 -0.007686 0.055882 0.000000 -0.004049 0.000000
# 4 0.000000 0.000000 0.000000 -0.024513 0.000000 -0.030364
# 5 -0.003117 0.000730 -0.004049 0.000000 0.025513 0.000000
# 6 0.000000 0.000000 0.000000 -0.030364 0.000000 0.025134
#
#
# Mechanical properties :
#
#
# Convention : Reuss Voigt Hill
#
# Bulk Modulus (GPa) = 10.31326 16.12673 13.22000
# Shear Modulus (GPa) = 33.79214 17.52615 25.65915
#
# Velocity S-wave (km/s) = 4.14917 2.98811 3.61555
# Velocity P-wave (km/s) = 5.31115 4.48564 4.91575
#
# Compressibility (1/GPa) = 0.09696255
#
# Stress axis : x y z
#
# Youngs Moduli (GPa) = 50.06582 57.53903 17.89476
#
# Poissons Ratio (x) = 0.20096 -0.23339
# Poissons Ratio (y) = 0.17486 0.13755
# Poissons Ratio (z) = -0.65298 0.44227
#
# Static dielectric constant tensor:
#      x y z
#    x 1.692450 0.000000 0.007670 
#    y 0.000000 1.682720 0.000000 
#    z 0.007670 0.000000 1.651330 
# 
# From -- ./inp_files/143874.got.cif
#   From: 2010.05.17/outbox.cif.g08.bks.cpg/sg12_72_cif.got.tgz:143874.got - 2010.06.03 13:09:07.
