data_PCOD9214187
_publ_section_title
;
Structure prediction by ZEFSAII (Michael W. Deem and Ramdas Pophale) SiO2 
 PCOD9214187
Probable space group: C 2/M
;
_chemical_formula_sum "Si O2"
_cell_formula_units_Z 48
_cell_length_a 10.064455
_cell_length_b 29.188655
_cell_length_c 8.382569
_cell_angle_alpha 90.000000
_cell_angle_beta 98.056010
_cell_angle_gamma 90.000000
_cell_volume 2438.228369
_symmetry_space_group_name_H-M "C 2/M"
_symmetry_group_IT_number 12
_symmetry_cell_setting 'monoclinic'
loop_
_space_group_symop_operation_xyz
x,y,z
-x,y,-z
-x,-y,-z
x,-y,z
1/2+x,1/2+y,z
1/2-x,1/2+y,-z
1/2-x,1/2-y,-z
1/2+x,1/2-y,z
loop_
_atom_site_type_symbol
_atom_site_label
_atom_site_fract_x
_atom_site_fract_y
_atom_site_fract_z
Si Si1 0.608523 0.946526 0.288421
Si Si2 0.146977 0.362822 0.095357
Si Si3 0.872476 0.127246 0.881585
Si Si4 0.402552 0.701437 0.625948
Si Si5 0.118494 0.693513 0.410068
Si Si6 0.199077 0.554363 0.660035
O O1 0.657030 0.915498 0.152730
O O2 0.449896 0.938137 0.291902
O O3 0.683153 0.936043 0.468128
O O4 0.625804 0.000000 0.258547
O O5 0.155307 0.334687 0.260217
O O6 0.260794 0.353995 0.985403
O O7 0.000000 0.354342 0.000000
O O8 0.920935 0.169188 0.779808
O O9 0.802477 0.088265 0.761895
O O10 0.000000 0.109023 0.000000
O O11 0.500000 0.686198 0.500000
O O12 0.249351 0.697299 0.541800
O O13 0.427212 0.755657 0.652875
O O14 0.000000 0.673183 0.500000
O O15 0.229888 0.500000 0.683383
#
# Coordination Sequence:
#
# PCOD9214187 Si02
#       6
#     8   8   8   8   8   8
#     4   9  19  37  63  89 116 153 200 250 295 343
#     4  12  23  35  59  94 122 151 192 250 304 347
#     4  12  25  38  57  89 129 161 189 238 307 366
#     4  10  22  43  62  81 113 163 205 240 293 353
#     4  10  22  39  64  87 112 152 208 254 283 343
#     4   9  19  38  62  87 116 157 204 245 287 346
#
# _framework density 19.686425
#
# number of rings (size 3 to 8) (size 9 to 14) (size 15 to 20)
#    0.000    1.667    1.667    4.000    2.333    2.667 
#    0.000    0.000    0.000    2.500    0.000    0.000 
#    0.000    0.000    0.000    0.000    0.000    0.000 
#
# Total GULP energy -134149.954150 kJ/mol
# GULP energy per Si atom -5589.581423 kJ/mol
# Density = 1.964162 g / cm^3
# Si number density = 19.686425 Si / 1000 Ang^3
#
#
#
# Elastic Constant Matrix: (Units=GPa)
#
#
# Indices 1 2 3 4 5 6 
#
# 1 71.3071 4.5127 9.2429 0.0000 -4.9625 0.0000
# 2 4.5127 50.8293 18.9288 0.0000 5.3689 0.0000
# 3 9.2429 18.9288 33.2823 0.0000 -4.1038 0.0000
# 4 0.0000 0.0000 0.0000 -5.2852 0.0000 -11.9526
# 5 -4.9625 5.3689 -4.1038 0.0000 44.7872 0.0000
# 6 0.0000 0.0000 0.0000 -11.9526 0.0000 10.4353
#
#
#
# Elastic Compliance Matrix: (Units=1/GPa)
#
#
# Indices 1 2 3 4 5 6 
#
# 1 0.014618 0.000030 -0.003922 0.000000 0.001257 0.000000
# 2 0.000030 0.025824 -0.015249 0.000000 -0.004490 0.000000
# 3 -0.003922 -0.015249 0.040436 0.000000 0.005099 0.000000
# 4 0.000000 0.000000 0.000000 -0.052699 0.000000 -0.060361
# 5 0.001257 -0.004490 0.005099 0.000000 0.023472 0.000000
# 6 0.000000 0.000000 0.000000 -0.060361 0.000000 0.026690
#
#
# Mechanical properties :
#
#
# Convention : Reuss Voigt Hill
#
# Bulk Modulus (GPa) = 23.47588 24.53194 24.00391
# Shear Modulus (GPa) = 38.21985 18.16975 28.19480
#
# Velocity S-wave (km/s) = 4.41095 3.04132 3.78854
# Velocity P-wave (km/s) = 6.15571 4.98209 5.59973
#
# Compressibility (1/GPa) = 0.04259690
#
# Stress axis : x y z
#
# Youngs Moduli (GPa) = 68.41010 38.72384 24.73027
#
# Poissons Ratio (x) = -0.00116 0.09698
# Poissons Ratio (y) = -0.00204 0.37711
# Poissons Ratio (z) = 0.26827 0.59049
#
# Static dielectric constant tensor:
#      x y z
#    x 1.671150 0.000000 0.012510 
#    y 0.000000 1.712530 0.000000 
#    z 0.012510 0.000000 1.682320 
# 
# From -- ./inp_files/42214.got.cif
#   From: 2010.05.17/outbox.cif.g08.bks.cpg/sg12_22_cif.got.tgz:42214.got - 2010.06.03 13:09:07.
