data_PCOD9214677
_publ_section_title
;
Structure prediction by ZEFSAII (Michael W. Deem and Ramdas Pophale) SiO2 
 PCOD9214677
Probable space group: C 2/M
;
_chemical_formula_sum "Si O2"
_cell_formula_units_Z 40
_cell_length_a 7.053841
_cell_length_b 13.354145
_cell_length_c 15.092098
_cell_angle_alpha 90.000000
_cell_angle_beta 101.509609
_cell_angle_gamma 90.000000
_cell_volume 1393.058171
_symmetry_space_group_name_H-M "C 2/M"
_symmetry_group_IT_number 12
_symmetry_cell_setting 'monoclinic'
loop_
_space_group_symop_operation_xyz
x,y,z
-x,y,-z
-x,-y,-z
x,-y,z
1/2+x,1/2+y,z
1/2-x,1/2+y,-z
1/2-x,1/2-y,-z
1/2+x,1/2-y,z
loop_
_atom_site_type_symbol
_atom_site_label
_atom_site_fract_x
_atom_site_fract_y
_atom_site_fract_z
Si Si1 0.243425 0.116161 0.665036
Si Si2 0.505809 0.664222 0.892219
Si Si3 0.693653 0.168775 0.720416
Si Si4 0.067309 0.606941 0.106516
Si Si5 0.777593 0.380655 0.470799
O O1 0.479168 0.121684 0.694951
O O2 0.201972 0.113842 0.879522
O O3 0.189632 0.143877 0.558499
O O4 0.185275 0.000000 0.676083
O O5 0.677356 0.710167 0.717549
O O6 0.327386 0.630748 0.813698
O O7 0.513226 0.784206 0.874379
O O8 0.500000 0.651592 0.000000
O O9 0.791952 0.147682 0.633361
O O10 0.014312 0.500000 0.143079
O O11 0.000000 0.601386 0.000000
O O12 0.778510 0.500000 0.471003
O O13 0.000000 0.345999 0.500000
#
# Coordination Sequence:
#
# PCOD9214677 Si02
#       5
#     8   8   8   8   8
#     4  10  22  40  63  91 120 154 198 245 297 358
#     4  11  23  41  61  88 123 157 202 249 289 349
#     4  11  21  38  63  88 121 161 196 243 300 349
#     4  10  22  41  63  84 113 156 200 248 301 345
#     4   8  16  34  60  88 118 153 194 241 295 354
#
# _framework density 28.713804
#
# number of rings (size 3 to 8) (size 9 to 14) (size 15 to 20)
#    0.000    2.000    0.000    6.000    0.000    2.800 
#    0.000    7.000    0.000    8.400    0.000    0.000 
#    0.000    0.000    0.000    0.000    0.000    0.000 
#
# Total GULP energy -112029.144103 kJ/mol
# GULP energy per Si atom -5601.457205 kJ/mol
# Density = 2.864845 g / cm^3
# Si number density = 28.713804 Si / 1000 Ang^3
#
#
#
# Elastic Constant Matrix: (Units=GPa)
#
#
# Indices 1 2 3 4 5 6 
#
# 1 82.1152 47.5111 46.9227 0.0000 36.2013 0.0000
# 2 47.5111 189.0676 33.9099 0.0000 -11.8279 0.0000
# 3 46.9227 33.9099 263.1237 0.0000 29.4816 0.0000
# 4 0.0000 0.0000 0.0000 -566.6149 0.0000 -484.0640
# 5 36.2013 -11.8279 29.4816 0.0000 56.9777 0.0000
# 6 0.0000 0.0000 0.0000 -484.0640 0.0000 -325.1367
#
#
#
# Elastic Compliance Matrix: (Units=1/GPa)
#
#
# Indices 1 2 3 4 5 6 
#
# 1 0.023943 -0.006708 -0.001640 0.000000 -0.015756 0.000000
# 2 -0.006708 0.007430 -0.000437 0.000000 0.006031 0.000000
# 3 -0.001640 -0.000437 0.004291 0.000000 -0.001269 0.000000
# 4 0.000000 0.000000 0.000000 0.006491 0.000000 -0.009664
# 5 -0.015756 0.006031 -0.001269 0.000000 0.029470 0.000000
# 6 0.000000 0.000000 0.000000 -0.009664 0.000000 0.011312
#
#
# Mechanical properties :
#
#
# Convention : Reuss Voigt Hill
#
# Bulk Modulus (GPa) = 55.26513 87.88822 71.57667
# Shear Modulus (GPa) = 46.93115 -139.89058 -46.47972
#
# Velocity S-wave (km/s) = 4.04721 -6.98747 -4.02770
# Velocity P-wave (km/s) = 6.41316 5.86726 1.83082
#
# Compressibility (1/GPa) = 0.01809459
#
# Stress axis : x y z
#
# Youngs Moduli (GPa) = 41.76658 134.58080 233.02083
#
# Poissons Ratio (x) = 0.90279 0.38210
# Poissons Ratio (y) = 0.28018 0.10184
# Poissons Ratio (z) = 0.06849 0.05882
#
# Static dielectric constant tensor:
#      x y z
#    x 2.238340 0.000000 -0.036590 
#    y 0.000000 2.142230 0.000000 
#    z -0.036590 0.000000 2.298000 
# 
# From -- ./inp_files/205372.got.cif
#   From: 2010.05.17/outbox.cif.g08.bks.cpg/sg12_103_cif.got.tgz:205372.got - 2010.06.03 13:09:07.
