data_PCOD9214717
_publ_section_title
;
Structure prediction by ZEFSAII (Michael W. Deem and Ramdas Pophale) SiO2 
 PCOD9214717
Probable space group: C 2/M
;
_chemical_formula_sum "Si O2"
_cell_formula_units_Z 44
_cell_length_a 19.068600
_cell_length_b 15.998255
_cell_length_c 7.211224
_cell_angle_alpha 90.000000
_cell_angle_beta 97.017984
_cell_angle_gamma 90.000000
_cell_volume 2183.405300
_symmetry_space_group_name_H-M "C 2/M"
_symmetry_group_IT_number 12
_symmetry_cell_setting 'monoclinic'
loop_
_space_group_symop_operation_xyz
x,y,z
-x,y,-z
-x,-y,-z
x,-y,z
1/2+x,1/2+y,z
1/2-x,1/2+y,-z
1/2-x,1/2-y,-z
1/2+x,1/2-y,z
loop_
_atom_site_type_symbol
_atom_site_label
_atom_site_fract_x
_atom_site_fract_y
_atom_site_fract_z
Si Si1 0.369402 0.714875 0.642998
Si Si2 0.295262 0.821642 0.907751
Si Si3 0.500000 0.190837 0.500000
Si Si4 0.170475 0.095435 0.693371
Si Si5 0.583714 0.404721 0.013646
Si Si6 0.436262 0.100234 0.125681
O O1 0.322512 0.786558 0.719904
O O2 0.440713 0.753123 0.580960
O O3 0.331583 0.659902 0.474937
O O4 0.386112 0.655641 0.822455
O O5 0.240567 0.894418 0.839250
O O6 0.250000 0.750000 0.000000
O O7 0.364054 0.853508 0.040471
O O8 0.461962 0.134643 0.331761
O O9 0.107702 0.118509 0.815017
O O10 0.161473 0.000000 0.627211
O O11 0.608131 0.500000 0.052649
O O12 0.500000 0.402564 0.000000
O O13 0.425495 0.000000 0.125686
O O14 0.500000 0.117911 0.000000
#
# Coordination Sequence:
#
# PCOD9214717 Si02
#       6
#     8   8   4   8   8   8
#     4  12  24  40  68  96 136 168 224 277 334 390
#     4  12  24  45  69  99 136 176 225 275 341 399
#     4  12  25  42  73 106 130 168 230 280 335 394
#     4  11  24  43  64  97 136 179 223 270 334 404
#     4  10  22  40  63  93 133 178 221 265 324 396
#     4  11  25  48  71  99 137 181 227 280 337 403
#
# _framework density 20.152007000000001
#
# number of rings (size 3 to 8) (size 9 to 14) (size 15 to 20)
#    0.000    0.727    3.636    4.091    2.545    0.000 
#    0.000    5.455    0.000    0.000    0.000    0.000 
#    0.000    0.000    0.000    0.000    0.000    0.000 
#
# Total GULP energy -123015.928249 kJ/mol
# GULP energy per Si atom -5591.633102 kJ/mol
# Density = 2.010614 g / cm^3
# Si number density = 20.152007 Si / 1000 Ang^3
#
#
#
# Elastic Constant Matrix: (Units=GPa)
#
#
# Indices 1 2 3 4 5 6 
#
# 1 98.9356 30.8231 34.1240 0.0000 5.6487 0.0000
# 2 30.8231 66.9012 45.9974 0.0000 9.9594 0.0000
# 3 34.1240 45.9974 92.3484 0.0000 7.4457 0.0000
# 4 0.0000 0.0000 0.0000 39.6356 0.0000 2.8779
# 5 5.6487 9.9594 7.4457 0.0000 35.6605 0.0000
# 6 0.0000 0.0000 0.0000 2.8779 0.0000 34.7674
#
#
#
# Elastic Compliance Matrix: (Units=1/GPa)
#
#
# Indices 1 2 3 4 5 6 
#
# 1 0.012202 -0.003788 -0.002595 0.000000 -0.000333 0.000000
# 2 -0.003788 0.024499 -0.010476 0.000000 -0.004055 0.000000
# 3 -0.002595 -0.010476 0.017023 0.000000 -0.000217 0.000000
# 4 0.000000 0.000000 0.000000 0.025382 0.000000 -0.002101
# 5 -0.000333 -0.004055 -0.000217 0.000000 0.029273 0.000000
# 6 0.000000 0.000000 0.000000 -0.002101 0.000000 0.028936
#
#
# Mechanical properties :
#
#
# Convention : Reuss Voigt Hill
#
# Bulk Modulus (GPa) = 49.98579 53.34157 51.66368
# Shear Modulus (GPa) = 28.13705 31.82878 29.98291
#
# Velocity S-wave (km/s) = 3.74068 3.97852 3.86143
# Velocity P-wave (km/s) = 6.59660 6.90159 6.75082
#
# Compressibility (1/GPa) = 0.02000569
#
# Stress axis : x y z
#
# Youngs Moduli (GPa) = 81.95517 40.81832 58.74416
#
# Poissons Ratio (x) = 0.15461 0.15246
# Poissons Ratio (y) = 0.31043 0.61540
# Poissons Ratio (z) = 0.21269 0.42761
#
# Static dielectric constant tensor:
#      x y z
#    x 1.710520 0.000000 -0.000840 
#    y 0.000000 1.804330 0.000000 
#    z -0.000840 0.000000 1.689280 
# 
# From -- ./inp_files/20482.got.cif
#   From: 2010.05.17/outbox.cif.g08.bks.cpg/sg12_11_cif.got.tgz:20482.got - 2010.06.03 13:09:07.
