data_PCOD9214091
_publ_section_title
;
Structure prediction by ZEFSAII (Michael W. Deem and Ramdas Pophale) SiO2 
 PCOD9214091
Probable space group: C 2/M
;
_chemical_formula_sum "Si O2"
_cell_formula_units_Z 48
_cell_length_a 20.639587
_cell_length_b 8.727434
_cell_length_c 14.399580
_cell_angle_alpha 90.000000
_cell_angle_beta 89.999828
_cell_angle_gamma 90.000000
_cell_volume 2593.805465
_symmetry_space_group_name_H-M "C 2/M"
_symmetry_group_IT_number 12
_symmetry_cell_setting 'monoclinic'
loop_
_space_group_symop_operation_xyz
x,y,z
-x,y,-z
-x,-y,-z
x,-y,z
1/2+x,1/2+y,z
1/2-x,1/2+y,-z
1/2-x,1/2-y,-z
1/2+x,1/2-y,z
loop_
_atom_site_type_symbol
_atom_site_label
_atom_site_fract_x
_atom_site_fract_y
_atom_site_fract_z
Si Si1 0.390714 0.182928 0.750000
Si Si2 0.688183 0.816715 0.552581
Si Si3 0.811817 0.683285 0.052580
Si Si4 0.565805 0.316323 0.446294
Si Si5 0.254746 0.817259 0.250000
Si Si6 0.065806 0.816323 0.053706
O O1 0.424241 0.245836 0.656223
O O2 0.315095 0.235426 0.750001
O O3 0.424241 0.245832 0.843777
O O4 0.393111 0.000000 0.749998
O O5 0.750000 0.750000 0.500000
O O6 0.625135 0.740081 0.509513
O O7 0.702821 0.782097 0.659764
O O8 0.684340 0.000000 0.540502
O O9 0.815661 0.500000 0.040498
O O10 0.797179 0.717899 0.159763
O O11 0.750000 0.750000 0.000000
O O12 0.874865 0.759921 0.009514
O O13 0.500000 0.272504 0.500000
O O14 0.567540 0.500000 0.437294
O O15 0.240769 0.000000 0.250002
O O16 0.067540 0.000000 0.062708
O O17 0.000000 0.772506 0.000000
#
# Coordination Sequence:
#
# PCOD9214091 Si02
#       6
#     8   8   8   8   8   8
#     4  12  24  39  66  95 123 165 211 261 318 381
#     4  11  22  38  63  94 126 165 211 263 313 369
#     4  11  22  38  63  94 126 165 211 263 313 369
#     4  11  25  44  65  91 129 172 211 260 318 379
#     4  10  22  39  62  91 129 167 207 261 318 375
#     4  11  25  44  65  91 129 172 211 260 318 379
#
# _framework density 18.50563
#
# number of rings (size 3 to 8) (size 9 to 14) (size 15 to 20)
#    0.000    1.000    3.333    3.500    0.000    5.333 
#    0.000    3.333    0.000    0.000    0.000    0.000 
#    0.000    0.000    0.000    0.000    0.000    0.000 
#
# Total GULP energy -134165.032035 kJ/mol
# GULP energy per Si atom -5590.209668 kJ/mol
# Density = 1.846351 g / cm^3
# Si number density = 18.505630 Si / 1000 Ang^3
#
#
#
# Elastic Constant Matrix: (Units=GPa)
#
#
# Indices 1 2 3 4 5 6 
#
# 1 180.2609 61.7847 105.1971 0.0000 0.0009 0.0000
# 2 61.7847 74.0233 78.1644 0.0000 0.0008 0.0000
# 3 105.1971 78.1644 207.1375 0.0000 0.0050 0.0000
# 4 0.0000 0.0000 0.0000 28.4293 0.0000 -0.0002
# 5 0.0009 0.0008 0.0050 0.0000 23.0817 0.0000
# 6 0.0000 0.0000 0.0000 -0.0002 0.0000 33.1658
#
#
#
# Elastic Compliance Matrix: (Units=1/GPa)
#
#
# Indices 1 2 3 4 5 6 
#
# 1 0.008630 -0.004281 -0.002767 0.000000 0.000000 0.000000
# 2 -0.004281 0.024581 -0.007102 0.000000 0.000001 0.000000
# 3 -0.002767 -0.007102 0.008913 0.000000 -0.000002 0.000000
# 4 0.000000 0.000000 0.000000 0.035175 0.000000 0.000000
# 5 0.000000 0.000001 -0.000002 0.000000 0.043324 0.000000
# 6 0.000000 0.000000 0.000000 0.000000 0.000000 0.030152
#
#
# Mechanical properties :
#
#
# Convention : Reuss Voigt Hill
#
# Bulk Modulus (GPa) = 72.33673 105.74602 89.04138
# Shear Modulus (GPa) = 27.22076 31.35372 29.28724
#
# Velocity S-wave (km/s) = 3.83945 4.12063 3.98252
# Velocity P-wave (km/s) = 7.67001 8.93902 8.32872
#
# Compressibility (1/GPa) = 0.01382423
#
# Stress axis : x y z
#
# Youngs Moduli (GPa) = 115.87857 40.68103 112.19490
#
# Poissons Ratio (x) = 0.17415 0.31048
# Poissons Ratio (y) = 0.49605 0.79680
# Poissons Ratio (z) = 0.32067 0.28891
#
# Static dielectric constant tensor:
#      x y z
#    x 3.622010 0.000000 -0.000760 
#    y 0.000000 1.627350 0.000000 
#    z -0.000760 0.000000 1.619320 
# 
# From -- ./inp_files/221539.got.cif
#   From: 2010.05.17/outbox.cif.g08.bks.cpg/sg12_111_cif.got.tgz:221539.got - 2010.06.03 13:09:07.
