data_PCOD9214171
_publ_section_title
;
Structure prediction by ZEFSAII (Michael W. Deem and Ramdas Pophale) SiO2 
 PCOD9214171
Probable space group: C 2/M
;
_chemical_formula_sum "Si O2"
_cell_formula_units_Z 46
_cell_length_a 15.727442
_cell_length_b 27.432153
_cell_length_c 6.245837
_cell_angle_alpha 90.000000
_cell_angle_beta 122.820424
_cell_angle_gamma 90.000000
_cell_volume 2264.545003
_symmetry_space_group_name_H-M "C 2/M"
_symmetry_group_IT_number 12
_symmetry_cell_setting 'monoclinic'
loop_
_space_group_symop_operation_xyz
x,y,z
-x,y,-z
-x,-y,-z
x,-y,z
1/2+x,1/2+y,z
1/2-x,1/2+y,-z
1/2-x,1/2-y,-z
1/2+x,1/2-y,z
loop_
_atom_site_type_symbol
_atom_site_label
_atom_site_fract_x
_atom_site_fract_y
_atom_site_fract_z
Si Si1 0.595464 0.944397 0.792736
Si Si2 0.068174 0.917800 0.289163
Si Si3 0.500000 0.500000 0.500000
Si Si4 0.219656 0.804344 0.899925
Si Si5 0.391346 0.144578 0.858391
Si Si6 0.500000 0.334568 0.500000
Si Si7 0.764018 0.612633 0.302915
O O1 0.500000 0.940560 0.500000
O O2 0.695369 0.930385 0.793272
O O3 0.598899 0.000000 0.877471
O O4 0.592258 0.903967 0.974515
O O5 0.067877 0.957422 0.474409
O O6 0.016229 0.869807 0.317476
O O7 0.176798 0.905175 0.342340
O O8 0.000000 0.936744 0.000000
O O9 0.227726 0.842519 0.107457
O O10 0.250000 0.750000 0.000000
O O11 0.300594 0.824808 0.839160
O O12 0.104054 0.805598 0.663853
O O13 0.356647 0.130282 0.574893
O O14 0.500000 0.170633 0.000000
#
# Coordination Sequence:
#
# PCOD9214171 Si02
#       7
#     8   8   2   8   8   4   8
#     4  10  22  39  63  95 132 177 226 265 316 391
#     4  11  22  44  65  92 135 175 217 268 333 388
#     4  10  26  36  68 102 132 170 226 268 312 410
#     4  11  26  45  70  99 128 169 223 278 333 401
#     4  11  23  43  64  96 136 173 216 275 331 387
#     4  11  22  45  68  98 132 170 219 278 327 400
#     4  11  23  42  66  91 130 177 215 275 337 382
#
# _framework density 20.313134000000002
#
# number of rings (size 3 to 8) (size 9 to 14) (size 15 to 20)
#    0.000    1.217    5.217    0.261    1.217    3.130 
#    6.261    0.000    0.000    0.000    0.000    0.000 
#    0.000    0.000    0.000    0.000    0.000    0.000 
#
# Total GULP energy -128243.226137 kJ/mol
# GULP energy per Si atom -5575.792441 kJ/mol
# Density = 2.026690 g / cm^3
# Si number density = 20.313134 Si / 1000 Ang^3
#
#
#
# Elastic Constant Matrix: (Units=GPa)
#
#
# Indices 1 2 3 4 5 6 
#
# 1 151.6624 36.9324 13.4809 0.0000 9.9319 0.0000
# 2 36.9324 109.1434 8.3147 0.0000 12.5228 0.0000
# 3 13.4809 8.3147 51.0253 0.0000 18.6008 0.0000
# 4 0.0000 0.0000 0.0000 -10.0309 0.0000 -12.8104
# 5 9.9319 12.5228 18.6008 0.0000 38.9064 0.0000
# 6 0.0000 0.0000 0.0000 -12.8104 0.0000 -5.7455
#
#
#
# Elastic Compliance Matrix: (Units=1/GPa)
#
#
# Indices 1 2 3 4 5 6 
#
# 1 0.007311 -0.002316 -0.001387 0.000000 -0.000458 0.000000
# 2 -0.002316 0.010259 -0.000087 0.000000 -0.002669 0.000000
# 3 -0.001387 -0.000087 0.024027 0.000000 -0.011105 0.000000
# 4 0.000000 0.000000 0.000000 0.053962 0.000000 -0.120316
# 5 -0.000458 -0.002669 -0.011105 0.000000 0.031988 0.000000
# 6 0.000000 0.000000 0.000000 -0.120316 0.000000 0.094211
#
#
# Mechanical properties :
#
#
# Convention : Reuss Voigt Hill
#
# Bulk Modulus (GPa) = 29.39710 47.69856 38.54783
# Shear Modulus (GPa) = 20.77486 21.49955 21.13720
#
# Velocity S-wave (km/s) = 3.20148 3.25685 3.22928
# Velocity P-wave (km/s) = 5.30748 6.13802 5.73780
#
# Compressibility (1/GPa) = 0.03401696
#
# Stress axis : x y z
#
# Youngs Moduli (GPa) = 136.78427 97.47800 41.61978
#
# Poissons Ratio (x) = 0.22573 0.05774
# Poissons Ratio (y) = 0.31675 0.00361
# Poissons Ratio (z) = 0.18977 0.00846
#
# Static dielectric constant tensor:
#      x y z
#    x 1.760090 0.000000 0.008680 
#    y 0.000000 1.699060 0.000000 
#    z 0.008680 0.000000 1.752110 
# 
# From -- ./inp_files/12978.got.cif
#   From: 2010.05.17/outbox.cif.g08.bks.cpg/sg12_7_cif.got.tgz:12978.got - 2010.06.03 13:09:07.
