data_PCOD9214474
_publ_section_title
;
Structure prediction by ZEFSAII (Michael W. Deem and Ramdas Pophale) SiO2 
 PCOD9214474
Probable space group: C 2/M
;
_chemical_formula_sum "Si O2"
_cell_formula_units_Z 64
_cell_length_a 9.865026
_cell_length_b 31.549449
_cell_length_c 15.163297
_cell_angle_alpha 90.000000
_cell_angle_beta 137.799857
_cell_angle_gamma 90.000000
_cell_volume 3170.104001
_symmetry_space_group_name_H-M "C 2/M"
_symmetry_group_IT_number 12
_symmetry_cell_setting 'monoclinic'
loop_
_space_group_symop_operation_xyz
x,y,z
-x,y,-z
-x,-y,-z
x,-y,z
1/2+x,1/2+y,z
1/2-x,1/2+y,-z
1/2-x,1/2-y,-z
1/2+x,1/2-y,z
loop_
_atom_site_type_symbol
_atom_site_label
_atom_site_fract_x
_atom_site_fract_y
_atom_site_fract_z
Si Si1 0.155591 0.686836 0.001325
Si Si2 0.087598 0.949078 0.670480
Si Si3 0.597493 0.212295 0.641565
Si Si4 0.055725 0.113386 0.925745
Si Si5 0.835057 0.448631 0.625225
Si Si6 0.788210 0.550353 0.942924
Si Si7 0.891390 0.388258 0.353465
Si Si8 0.015032 0.253130 0.788497
O O1 0.317836 0.652090 0.052651
O O2 0.280127 0.726183 0.101848
O O3 0.000000 0.671209 0.000000
O O4 0.042761 0.704680 0.860582
O O5 0.267828 0.936192 0.691678
O O6 0.130858 0.937101 0.790444
O O7 0.868451 0.938059 0.528443
O O8 0.094022 0.000000 0.669935
O O9 0.500000 0.222322 0.500000
O O10 0.575949 0.161922 0.647421
O O11 0.829811 0.226739 0.740489
O O12 0.498462 0.235756 0.677366
O O13 0.848507 0.106313 0.772380
O O14 0.209053 0.073940 0.990339
O O15 0.000000 0.121585 0.000000
O O16 0.870762 0.500000 0.637855
O O17 0.008581 0.420027 0.668595
O O18 0.791372 0.500000 0.958539
O O19 0.000000 0.561833 0.000000
O O20 0.000000 0.397517 0.500000
#
# Coordination Sequence:
#
# PCOD9214474 Si02
#       8
#     8   8   8   8   8   8   8   8
#     4  11  23  41  69  93 121 159 215 269 311 377
#     4   8  16  35  63  90 118 162 220 265 299 362
#     4  11  23  42  66  92 135 166 206 260 327 392
#     4  12  26  42  63  94 130 165 213 266 317 374
#     4   9  18  35  63  93 123 168 217 258 306 373
#     4  10  22  40  61  86 126 174 211 253 314 378
#     4  11  24  40  61  92 133 167 200 266 327 372
#     4  11  22  42  68  96 116 167 210 259 321 389
#
# _framework density 20.188613
#
# number of rings (size 3 to 8) (size 9 to 14) (size 15 to 20)
#    0.000    1.625    2.500    3.000    1.750    1.000 
#    2.250    0.000    8.250    0.000    0.000    0.000 
#    0.000    0.000    0.000    0.000    0.000    0.000 
#
# Total GULP energy -178604.927125 kJ/mol
# GULP energy per Si atom -5581.403973 kJ/mol
# Density = 2.014266 g / cm^3
# Si number density = 20.188613 Si / 1000 Ang^3
#
#
#
# Elastic Constant Matrix: (Units=GPa)
#
#
# Indices 1 2 3 4 5 6 
#
# 1 154.4609 64.4834 38.3585 0.0000 -1.1895 0.0000
# 2 64.4834 66.3326 20.9739 0.0000 1.5968 0.0000
# 3 38.3585 20.9739 65.9792 0.0000 2.1672 0.0000
# 4 0.0000 0.0000 0.0000 16.4874 0.0000 5.1170
# 5 -1.1895 1.5968 2.1672 0.0000 24.1674 0.0000
# 6 0.0000 0.0000 0.0000 5.1170 0.0000 24.0997
#
#
#
# Elastic Compliance Matrix: (Units=1/GPa)
#
#
# Indices 1 2 3 4 5 6 
#
# 1 0.011642 -0.010227 -0.003569 0.000000 0.001569 0.000000
# 2 -0.010227 0.025753 -0.002175 0.000000 -0.002010 0.000000
# 3 -0.003569 -0.002175 0.017977 0.000000 -0.001644 0.000000
# 4 0.000000 0.000000 0.000000 0.064931 0.000000 -0.013787
# 5 0.001569 -0.002010 -0.001644 0.000000 0.041736 0.000000
# 6 0.000000 0.000000 0.000000 -0.013787 0.000000 0.044422
#
#
# Mechanical properties :
#
#
# Convention : Reuss Voigt Hill
#
# Bulk Modulus (GPa) = 42.67953 59.37825 51.02889
# Shear Modulus (GPa) = 20.30779 23.81470 22.06124
#
# Velocity S-wave (km/s) = 3.17504 3.43827 3.30927
# Velocity P-wave (km/s) = 5.88451 6.72591 6.31923
#
# Compressibility (1/GPa) = 0.02343043
#
# Stress axis : x y z
#
# Youngs Moduli (GPa) = 85.89712 38.83020 55.62790
#
# Poissons Ratio (x) = 0.39710 0.19853
# Poissons Ratio (y) = 0.87843 0.12100
# Poissons Ratio (z) = 0.30656 0.08446
#
# Static dielectric constant tensor:
#      x y z
#    x 1.707100 0.000000 -0.021480 
#    y 0.000000 1.699290 0.000000 
#    z -0.021480 0.000000 1.809450 
# 
# From -- ./inp_files/201331.got.cif
#   From: 2010.05.17/outbox.cif.g08.bks.cpg/sg12_101_cif.got.tgz:201331.got - 2010.06.03 13:09:07.
