data_PCOD9214234
_publ_section_title
;
Structure prediction by ZEFSAII (Michael W. Deem and Ramdas Pophale) SiO2 
 PCOD9214234
Probable space group: C 2/M
;
_chemical_formula_sum "Si O2"
_cell_formula_units_Z 54
_cell_length_a 9.884359
_cell_length_b 17.862193
_cell_length_c 17.878435
_cell_angle_alpha 90.000000
_cell_angle_beta 120.495236
_cell_angle_gamma 90.000000
_cell_volume 2719.909446
_symmetry_space_group_name_H-M "C 2/M"
_symmetry_group_IT_number 12
_symmetry_cell_setting 'monoclinic'
loop_
_space_group_symop_operation_xyz
x,y,z
-x,y,-z
-x,-y,-z
x,-y,z
1/2+x,1/2+y,z
1/2-x,1/2+y,-z
1/2-x,1/2-y,-z
1/2+x,1/2-y,z
loop_
_atom_site_type_symbol
_atom_site_label
_atom_site_fract_x
_atom_site_fract_y
_atom_site_fract_z
Si Si1 0.432890 0.131086 0.370253
Si Si2 0.778005 0.347743 0.637686
Si Si3 0.000000 0.235785 0.500000
Si Si4 0.826155 0.411431 0.937480
Si Si5 0.375230 0.412623 0.261877
Si Si6 0.000000 0.500000 0.500000
Si Si7 0.102939 0.806455 0.954204
Si Si8 0.612403 0.302955 0.249917
O O1 0.579239 0.108708 0.359866
O O2 0.484391 0.208503 0.425519
O O3 0.412477 0.066497 0.425574
O O4 0.275457 0.153042 0.282252
O O5 0.653552 0.315902 0.542852
O O6 0.684351 0.395625 0.672110
O O7 0.849106 0.275284 0.699640
O O8 0.836223 0.500000 0.948422
O O9 0.764337 0.395637 0.836563
O O10 0.693833 0.382097 0.956672
O O11 0.000000 0.378829 0.000000
O O12 0.418732 0.500000 0.265390
O O13 0.512283 0.355975 0.276960
O O14 0.986697 0.789243 0.852652
O O15 0.250000 0.750000 0.000000
O O16 0.000000 0.809897 0.000000
#
# Coordination Sequence:
#
# PCOD9214234 Si02
#       8
#     8   8   4   8   8   2   8   8
#     4  10  22  39  65  88 124 163 210 256 318 390
#     4  11  22  38  68  90 122 157 218 255 317 392
#     4   9  20  41  59  92 117 162 192 260 317 392
#     4   9  20  41  63  85 124 170 204 252 328 389
#     4  10  23  40  60  92 127 162 206 261 320 380
#     4  10  24  40  60  94 128 156 206 266 328 372
#     4  11  25  37  63  95 130 165 220 277 318 376
#     4  10  23  41  63  91 129 174 207 262 328 386
#
# _framework density 19.853603
#
# number of rings (size 3 to 8) (size 9 to 14) (size 15 to 20)
#    0.000    1.926    0.000    2.667   10.370    2.667 
#    0.000    0.370    0.000    0.000    0.000    0.000 
#    0.000    0.000    0.000    0.000    0.000    0.000 
#
# Total GULP energy -150476.991608 kJ/mol
# GULP energy per Si atom -5573.221911 kJ/mol
# Density = 1.980841 g / cm^3
# Si number density = 19.853603 Si / 1000 Ang^3
#
#
#
# Elastic Constant Matrix: (Units=GPa)
#
#
# Indices 1 2 3 4 5 6 
#
# 1 76.5936 -6.4005 35.0124 0.0000 10.4135 0.0000
# 2 -6.4005 38.5274 15.7728 0.0000 12.2562 0.0000
# 3 35.0124 15.7728 88.8126 0.0000 24.7025 0.0000
# 4 0.0000 0.0000 0.0000 -7.4949 0.0000 1.5461
# 5 10.4135 12.2562 24.7025 0.0000 30.0665 0.0000
# 6 0.0000 0.0000 0.0000 1.5461 0.0000 19.6564
#
#
#
# Elastic Compliance Matrix: (Units=1/GPa)
#
#
# Indices 1 2 3 4 5 6 
#
# 1 0.017308 0.006727 -0.007243 0.000000 -0.002786 0.000000
# 2 0.006727 0.032866 -0.005333 0.000000 -0.011345 0.000000
# 3 -0.007243 -0.005333 0.017836 0.000000 -0.009971 0.000000
# 4 0.000000 0.000000 0.000000 -0.131295 0.000000 0.010327
# 5 -0.002786 -0.011345 -0.009971 0.000000 0.047042 0.000000
# 6 0.000000 0.000000 0.000000 0.010327 0.000000 0.050062
#
#
# Mechanical properties :
#
#
# Convention : Reuss Voigt Hill
#
# Bulk Modulus (GPa) = 17.75877 32.52255 25.14066
# Shear Modulus (GPa) = 77.77741 19.08221 48.42981
#
# Velocity S-wave (km/s) = 6.26582 3.10360 4.94433
# Velocity P-wave (km/s) = 7.83017 5.40924 6.72947
#
# Compressibility (1/GPa) = 0.05631022
#
# Stress axis : x y z
#
# Youngs Moduli (GPa) = 57.77783 30.42703 56.06785
#
# Poissons Ratio (x) = -0.20467 0.40610
# Poissons Ratio (y) = -0.38866 0.29901
# Poissons Ratio (z) = 0.41848 0.16227
#
# Static dielectric constant tensor:
#      x y z
#    x 1.719590 0.000000 0.000090 
#    y 0.000000 1.656040 0.000000 
#    z 0.000090 0.000000 1.710900 
# 
# From -- ./inp_files/258259.got.cif
#   From: 2010.05.17/outbox.cif.g08.bks.cpg/sg12_130_cif.got.tgz:258259.got - 2010.06.03 13:09:07.
