data_PCOD9214034
_publ_section_title
;
Structure prediction by ZEFSAII (Michael W. Deem and Ramdas Pophale) SiO2 
 PCOD9214034
Probable space group: C 2/M
;
_chemical_formula_sum "Si O2"
_cell_formula_units_Z 58
_cell_length_a 18.231948
_cell_length_b 18.275924
_cell_length_c 8.810403
_cell_angle_alpha 90.000000
_cell_angle_beta 90.298717
_cell_angle_gamma 90.000000
_cell_volume 2935.636566
_symmetry_space_group_name_H-M "C 2/M"
_symmetry_group_IT_number 12
_symmetry_cell_setting 'monoclinic'
loop_
_space_group_symop_operation_xyz
x,y,z
-x,y,-z
-x,-y,-z
x,-y,z
1/2+x,1/2+y,z
1/2-x,1/2+y,-z
1/2-x,1/2-y,-z
1/2+x,1/2-y,z
loop_
_atom_site_type_symbol
_atom_site_label
_atom_site_fract_x
_atom_site_fract_y
_atom_site_fract_z
Si Si1 0.408261 0.724116 0.810570
Si Si2 0.303008 0.584365 0.267670
Si Si3 0.881153 0.418855 0.178750
Si Si4 0.795765 0.322917 0.962471
Si Si5 0.954079 0.712691 0.343254
Si Si6 0.674967 0.704921 0.507729
Si Si7 0.912601 0.920198 0.004275
Si Si8 0.000000 0.500000 0.000000
O O1 0.371062 0.791928 0.894846
O O2 0.492170 0.745709 0.773589
O O3 0.365831 0.710224 0.652613
O O4 0.394921 0.651411 0.908067
O O5 0.281173 0.500000 0.281420
O O6 0.246038 0.629331 0.163440
O O7 0.310013 0.624336 0.428301
O O8 0.378570 0.587118 0.171680
O O9 0.860751 0.500000 0.240481
O O10 0.926067 0.366771 0.292022
O O11 0.938683 0.438071 0.046301
O O12 0.814093 0.373401 0.107184
O O13 0.750000 0.250000 0.000000
O O14 0.880845 0.758864 0.372674
O O15 0.000000 0.707074 0.500000
O O16 0.750000 0.750000 0.500000
O O17 0.884752 0.000000 0.946465
O O18 0.000000 0.923423 0.000000
#
# Coordination Sequence:
#
# PCOD9214034 Si02
#       8
#     8   8   8   8   8   8   8   2
#     4  11  23  38  66  90 121 165 207 255 310 374
#     4  11  23  41  62  92 126 166 204 260 321 379
#     4  10  22  39  61  92 127 160 206 263 317 378
#     4  12  22  37  64  96 124 164 210 264 315 374
#     4  10  23  41  63  92 124 167 214 257 316 382
#     4  11  23  43  62  90 125 162 216 256 309 379
#     4  10  22  39  61  94 125 154 200 258 314 369
#     4   8  20  40  58  92 120 160 204 260 322 380
#
# _framework density 19.757213
#
# number of rings (size 3 to 8) (size 9 to 14) (size 15 to 20)
#    0.414    0.966    2.759    2.897    1.931    0.828 
#    0.000    0.690    0.000    4.966    0.000    0.000 
#    0.000    0.000    0.000    0.000    0.000    0.000 
#
# Total GULP energy -161560.719727 kJ/mol
# GULP energy per Si atom -5571.059301 kJ/mol
# Density = 1.971225 g / cm^3
# Si number density = 19.757213 Si / 1000 Ang^3
#
#
#
# Elastic Constant Matrix: (Units=GPa)
#
#
# Indices 1 2 3 4 5 6 
#
# 1 71.3128 25.7206 -0.6125 0.0000 -8.8689 0.0000
# 2 25.7206 161.9531 34.6733 0.0000 5.9643 0.0000
# 3 -0.6125 34.6733 25.3587 0.0000 -0.6585 0.0000
# 4 0.0000 0.0000 0.0000 22.1148 0.0000 -1.8647
# 5 -8.8689 5.9643 -0.6585 0.0000 24.9569 0.0000
# 6 0.0000 0.0000 0.0000 -1.8647 0.0000 31.8777
#
#
#
# Elastic Compliance Matrix: (Units=1/GPa)
#
#
# Indices 1 2 3 4 5 6 
#
# 1 0.016484 -0.004244 0.006384 0.000000 0.007040 0.000000
# 2 -0.004244 0.009969 -0.013844 0.000000 -0.004256 0.000000
# 3 0.006384 -0.013844 0.058703 0.000000 0.007126 0.000000
# 4 0.000000 0.000000 0.000000 0.045443 0.000000 0.002658
# 5 0.007040 -0.004256 0.007126 0.000000 0.043776 0.000000
# 6 0.000000 0.000000 0.000000 0.002658 0.000000 0.031525
#
#
# Mechanical properties :
#
#
# Convention : Reuss Voigt Hill
#
# Bulk Modulus (GPa) = 16.19514 42.02082 29.10798
# Shear Modulus (GPa) = 20.00872 29.04609 24.52741
#
# Velocity S-wave (km/s) = 3.18579 3.83841 3.52723
# Velocity P-wave (km/s) = 4.66340 6.39995 5.59940
#
# Compressibility (1/GPa) = 0.06174691
#
# Stress axis : x y z
#
# Youngs Moduli (GPa) = 60.66562 100.30796 17.03502
#
# Poissons Ratio (x) = 0.42569 -0.10874
# Poissons Ratio (y) = 0.25746 0.23584
# Poissons Ratio (z) = -0.38726 1.38868
#
# Static dielectric constant tensor:
#      x y z
#    x 1.704320 0.000000 -0.009870 
#    y 0.000000 1.708530 0.000000 
#    z -0.009870 0.000000 1.697780 
# 
# From -- ./inp_files/75948.got.cif
#   From: 2010.05.17/outbox.cif.g08.bks.cpg/sg12_38_cif.got.tgz:75948.got - 2010.06.03 13:09:07.
