data_PCOD9214961
_publ_section_title
;
Structure prediction by ZEFSAII (Michael W. Deem and Ramdas Pophale) SiO2 
 PCOD9214961
Probable space group: C 2/M
;
_chemical_formula_sum "Si O2"
_cell_formula_units_Z 56
_cell_length_a 29.780196
_cell_length_b 8.188772
_cell_length_c 12.842405
_cell_angle_alpha 90.000000
_cell_angle_beta 122.134661
_cell_angle_gamma 90.000000
_cell_volume 2652.001069
_symmetry_space_group_name_H-M "C 2/M"
_symmetry_group_IT_number 12
_symmetry_cell_setting 'monoclinic'
loop_
_space_group_symop_operation_xyz
x,y,z
-x,y,-z
-x,-y,-z
x,-y,z
1/2+x,1/2+y,z
1/2-x,1/2+y,-z
1/2-x,1/2-y,-z
1/2+x,1/2-y,z
loop_
_atom_site_type_symbol
_atom_site_label
_atom_site_fract_x
_atom_site_fract_y
_atom_site_fract_z
Si Si1 0.283386 0.804012 0.941724
Si Si2 0.052689 0.300155 0.006631
Si Si3 0.256471 0.187437 0.329643
Si Si4 0.631110 0.686481 0.470663
Si Si5 0.902469 0.301403 0.149478
Si Si6 0.561775 0.197677 0.579667
Si Si7 0.647699 0.810283 0.271875
O O1 0.260938 0.723362 0.809977
O O2 0.281399 0.000000 0.926844
O O3 0.250000 0.750000 0.000000
O O4 0.343994 0.756012 0.038872
O O5 0.052486 0.500000 0.008438
O O6 0.105076 0.249373 0.134998
O O7 0.057375 0.249508 0.892132
O O8 0.000000 0.243998 0.000000
O O9 0.307423 0.293425 0.421050
O O10 0.204131 0.221862 0.332964
O O11 0.272800 0.000000 0.362114
O O12 0.620042 0.500000 0.429911
O O13 0.594750 0.738957 0.522271
O O14 0.623792 0.791171 0.357180
O O15 0.904105 0.500000 0.155366
O O16 0.914670 0.243959 0.280769
O O17 0.500000 0.243781 0.500000
O O18 0.564717 0.000000 0.580825
O O19 0.658153 0.000000 0.261590
#
# Coordination Sequence:
#
# PCOD9214961 Si02
#       7
#     8   8   8   8   8   8   8
#     4  11  21  36  59  89 125 167 210 258 311 368
#     4   9  18  33  61  95 124 157 200 252 307 365
#     4  12  24  41  63  91 126 163 208 259 319 385
#     4  12  26  43  63  89 127 168 211 259 315 379
#     4   9  18  35  58  89 125 157 200 254 303 358
#     4  10  22  40  66  96 126 164 214 263 308 366
#     4  11  22  40  66  95 126 161 208 260 317 379
#
# _framework density 21.116129999999998
#
# number of rings (size 3 to 8) (size 9 to 14) (size 15 to 20)
#    0.000    1.429    1.429    4.714    2.000    1.429 
#    0.000    0.714    0.000    1.714    0.000    0.000 
#    0.000    0.000    0.000    0.000    0.000    0.000 
#
# Total GULP energy -156590.046297 kJ/mol
# GULP energy per Si atom -5592.501653 kJ/mol
# Density = 2.106807 g / cm^3
# Si number density = 21.116130 Si / 1000 Ang^3
#
#
#
# Elastic Constant Matrix: (Units=GPa)
#
#
# Indices 1 2 3 4 5 6 
#
# 1 122.9205 1.0878 16.6792 0.0000 -24.4244 0.0000
# 2 1.0878 28.3483 -7.1429 0.0000 3.2774 0.0000
# 3 16.6792 -7.1429 72.7017 0.0000 -21.6691 0.0000
# 4 0.0000 0.0000 0.0000 18.0669 0.0000 -3.9789
# 5 -24.4244 3.2774 -21.6691 0.0000 37.5296 0.0000
# 6 0.0000 0.0000 0.0000 -3.9789 0.0000 17.6917
#
#
#
# Elastic Compliance Matrix: (Units=1/GPa)
#
#
# Indices 1 2 3 4 5 6 
#
# 1 0.009391 -0.001172 -0.000504 0.000000 0.005923 0.000000
# 2 -0.001172 0.036373 0.003223 0.000000 -0.002078 0.000000
# 3 -0.000504 0.003223 0.016917 0.000000 0.009158 0.000000
# 4 0.000000 0.000000 0.000000 0.058234 0.000000 0.013097
# 5 0.005923 -0.002078 0.009158 0.000000 0.035969 0.000000
# 6 0.000000 0.000000 0.000000 0.013097 0.000000 0.059469
#
#
# Mechanical properties :
#
#
# Convention : Reuss Voigt Hill
#
# Bulk Modulus (GPa) = 15.20360 27.24651 21.22505
# Shear Modulus (GPa) = 21.25988 28.88073 25.07031
#
# Velocity S-wave (km/s) = 3.17647 3.70227 3.44940
# Velocity P-wave (km/s) = 4.54630 5.58631 5.09292
#
# Compressibility (1/GPa) = 0.06577391
#
# Stress axis : x y z
#
# Youngs Moduli (GPa) = 106.48460 27.49306 59.11300
#
# Poissons Ratio (x) = 0.03223 0.02981
# Poissons Ratio (y) = 0.12482 -0.19053
# Poissons Ratio (z) = 0.05370 -0.08861
#
# Static dielectric constant tensor:
#      x y z
#    x 1.740810 0.000000 -0.007620 
#    y 0.000000 1.744380 0.000000 
#    z -0.007620 0.000000 1.738300 
# 
# From -- ./inp_files/187716.got.cif
#   From: 2010.05.17/outbox.cif.g08.bks.cpg/sg12_94_cif.got.tgz:187716.got - 2010.06.03 13:09:07.
