data_PCOD9214703
_publ_section_title
;
Structure prediction by ZEFSAII (Michael W. Deem and Ramdas Pophale) SiO2 
 PCOD9214703
Probable space group: C 2/M
;
_chemical_formula_sum "Si O2"
_cell_formula_units_Z 48
_cell_length_a 12.669788
_cell_length_b 12.885456
_cell_length_c 12.197495
_cell_angle_alpha 90.000000
_cell_angle_beta 85.120243
_cell_angle_gamma 90.000000
_cell_volume 1984.096500
_symmetry_space_group_name_H-M "C 2/M"
_symmetry_group_IT_number 12
_symmetry_cell_setting 'monoclinic'
loop_
_space_group_symop_operation_xyz
x,y,z
-x,y,-z
-x,-y,-z
x,-y,z
1/2+x,1/2+y,z
1/2-x,1/2+y,-z
1/2-x,1/2-y,-z
1/2+x,1/2-y,z
loop_
_atom_site_type_symbol
_atom_site_label
_atom_site_fract_x
_atom_site_fract_y
_atom_site_fract_z
Si Si1 0.122609 0.664913 0.497015
Si Si2 0.745639 0.696233 0.881787
Si Si3 0.181094 0.613631 0.739534
Si Si4 0.536411 0.613888 0.813751
Si Si5 0.531469 0.836380 0.123426
Si Si6 0.844561 0.114302 0.428507
O O1 0.166508 0.631979 0.612203
O O2 0.125816 0.790159 0.496144
O O3 0.218371 0.625372 0.411695
O O4 0.000000 0.631137 0.500000
O O5 0.736109 0.789573 0.794073
O O6 0.640253 0.628998 0.879493
O O7 0.850897 0.628871 0.861035
O O8 0.750000 0.750000 0.000000
O O9 0.228612 0.500000 0.756096
O O10 0.061895 0.616250 0.797585
O O11 0.489365 0.500000 0.832227
O O12 0.467044 0.713160 0.849040
O O13 0.583587 0.623458 0.686347
O O14 0.500000 0.851300 0.000000
O O15 0.861583 0.000000 0.474749
#
# Coordination Sequence:
#
# PCOD9214703 Si02
#       6
#     8   8   8   8   8   8
#     4  11  24  43  67  93 130 167 207 266 315 370
#     4  11  22  43  63  88 128 166 207 264 314 366
#     4  11  25  43  63  95 128 166 214 255 315 378
#     4  10  22  40  63  93 124 162 209 253 313 377
#     4  11  22  42  62  90 128 164 208 260 311 371
#     4  10  22  42  66  94 126 162 209 259 314 378
#
# _framework density 24.192371999999999
#
# number of rings (size 3 to 8) (size 9 to 14) (size 15 to 20)
#    0.000    1.333    6.667    0.500    2.333    4.333 
#    0.000    0.000    0.000    0.000    0.000    0.000 
#    0.000    0.000    0.000    0.000    0.000    0.000 
#
# Total GULP energy -134238.929940 kJ/mol
# GULP energy per Si atom -5593.288748 kJ/mol
# Density = 2.413731 g / cm^3
# Si number density = 24.192372 Si / 1000 Ang^3
#
#
#
# Elastic Constant Matrix: (Units=GPa)
#
#
# Indices 1 2 3 4 5 6 
#
# 1 106.3700 -19.7621 -2.0530 0.0000 5.1550 0.0000
# 2 -19.7621 128.0735 5.3700 0.0000 8.0914 0.0000
# 3 -2.0530 5.3700 77.7461 0.0000 -4.5340 0.0000
# 4 0.0000 0.0000 0.0000 5.1225 0.0000 -0.3777
# 5 5.1550 8.0914 -4.5340 0.0000 25.2147 0.0000
# 6 0.0000 0.0000 0.0000 -0.3777 0.0000 -10.5533
#
#
#
# Elastic Compliance Matrix: (Units=1/GPa)
#
#
# Indices 1 2 3 4 5 6 
#
# 1 0.009837 0.001679 -0.000005 0.000000 -0.002551 0.000000
# 2 0.001679 0.008295 -0.000711 0.000000 -0.003133 0.000000
# 3 -0.000005 -0.000711 0.013062 0.000000 0.002578 0.000000
# 4 0.000000 0.000000 0.000000 0.194704 0.000000 -0.006968
# 5 -0.002551 -0.003133 0.002578 0.000000 0.041650 0.000000
# 6 0.000000 0.000000 0.000000 -0.006968 0.000000 -0.094508
#
#
# Mechanical properties :
#
#
# Convention : Reuss Voigt Hill
#
# Bulk Modulus (GPa) = 30.19412 31.03326 30.61369
# Shear Modulus (GPa) = 27.44942 25.86576 26.65759
#
# Velocity S-wave (km/s) = 3.37208 3.27336 3.32309
# Velocity P-wave (km/s) = 5.26015 5.20981 5.23504
#
# Compressibility (1/GPa) = 0.03311903
#
# Stress axis : x y z
#
# Youngs Moduli (GPa) = 101.66076 120.55622 76.55952
#
# Poissons Ratio (x) = -0.20244 0.00038
# Poissons Ratio (y) = -0.17071 0.05446
# Poissons Ratio (z) = 0.00051 0.08575
#
# Static dielectric constant tensor:
#      x y z
#    x 1.915710 0.000000 -0.008280 
#    y 0.000000 1.953940 0.000000 
#    z -0.008280 0.000000 1.909140 
# 
# From -- ./inp_files/142985.got.cif
#   From: 2010.05.17/outbox.cif.g08.bks.cpg/sg12_72_cif.got.tgz:142985.got - 2010.06.03 13:09:07.
