data_PCOD9214450
_publ_section_title
;
Structure prediction by ZEFSAII (Michael W. Deem and Ramdas Pophale) SiO2 
 PCOD9214450
Probable space group: C 2/M
;
_chemical_formula_sum "Si O2"
_cell_formula_units_Z 24
_cell_length_a 5.030288
_cell_length_b 26.852426
_cell_length_c 9.382951
_cell_angle_alpha 90.000000
_cell_angle_beta 65.394698
_cell_angle_gamma 90.000000
_cell_volume 1152.322654
_symmetry_space_group_name_H-M "C 2/M"
_symmetry_group_IT_number 12
_symmetry_cell_setting 'monoclinic'
loop_
_space_group_symop_operation_xyz
x,y,z
-x,y,-z
-x,-y,-z
x,-y,z
1/2+x,1/2+y,z
1/2-x,1/2+y,-z
1/2-x,1/2-y,-z
1/2+x,1/2-y,z
loop_
_atom_site_type_symbol
_atom_site_label
_atom_site_fract_x
_atom_site_fract_y
_atom_site_fract_z
Si Si1 0.189110 0.716749 0.823852
Si Si2 0.325766 0.871895 0.394831
Si Si3 0.821564 0.442035 0.893204
O O1 0.499961 0.736309 0.809622
O O2 0.213094 0.676480 0.695568
O O3 0.000000 0.696622 0.000000
O O4 0.500000 0.859889 0.500000
O O5 0.514199 0.911262 0.263591
O O6 0.000000 0.891307 0.500000
O O7 0.791473 0.500000 0.856213
O O8 0.500000 0.421648 0.000000
O O9 0.000000 0.440274 0.000000
#
# Coordination Sequence:
#
# PCOD9214450 Si02
#       3
#     8   8   8
#     4  10  22  40  61  84 115 159 205 244 286 347
#     4  12  25  38  60  93 126 157 191 246 308 355
#     4  10  22  42  66  88 116 159 205 245 289 352
#
# _framework density 20.827500000000001
#
# number of rings (size 3 to 8) (size 9 to 14) (size 15 to 20)
#    0.000    1.333    0.000    5.000    0.000    9.333 
#    0.000    0.000    0.000    0.000    0.000    0.000 
#    0.000    0.000    0.000    0.000    0.000    0.000 
#
# Total GULP energy -67177.222832 kJ/mol
# GULP energy per Si atom -5598.101903 kJ/mol
# Density = 2.078010 g / cm^3
# Si number density = 20.827500 Si / 1000 Ang^3
#
#
#
# Elastic Constant Matrix: (Units=GPa)
#
#
# Indices 1 2 3 4 5 6 
#
# 1 110.7438 -2.3171 41.4002 0.0000 -17.0254 0.0000
# 2 -2.3171 37.9480 46.3239 0.0000 -11.5867 0.0000
# 3 41.4002 46.3239 139.1858 0.0000 -10.5836 0.0000
# 4 0.0000 0.0000 0.0000 -328.7711 0.0000 -119.0319
# 5 -17.0254 -11.5867 -10.5836 0.0000 46.5018 0.0000
# 6 0.0000 0.0000 0.0000 -119.0319 0.0000 -15.3474
#
#
#
# Elastic Compliance Matrix: (Units=1/GPa)
#
#
# Indices 1 2 3 4 5 6 
#
# 1 0.012833 0.011275 -0.007122 0.000000 0.005887 0.000000
# 2 0.011275 0.057284 -0.021390 0.000000 0.013533 0.000000
# 3 -0.007122 -0.021390 0.016097 0.000000 -0.004274 0.000000
# 4 0.000000 0.000000 0.000000 0.001682 0.000000 -0.013048
# 5 0.005887 0.013533 -0.004274 0.000000 0.026059 0.000000
# 6 0.000000 0.000000 0.000000 -0.013048 0.000000 0.036038
#
#
# Mechanical properties :
#
#
# Convention : Reuss Voigt Hill
#
# Bulk Modulus (GPa) = 19.32720 50.96574 35.14647
# Shear Modulus (GPa) = 24.78752 -46.02531 -10.61890
#
# Velocity S-wave (km/s) = 3.45357 -4.70599 -2.26044
# Velocity P-wave (km/s) = 5.02023 2.23716 3.17788
#
# Compressibility (1/GPa) = 0.05174055
#
# Stress axis : x y z
#
# Youngs Moduli (GPa) = 77.92163 17.45703 62.12267
#
# Poissons Ratio (x) = -0.19684 0.44246
# Poissons Ratio (y) = -0.87860 1.32880
# Poissons Ratio (z) = 0.55498 0.37340
#
# Static dielectric constant tensor:
#      x y z
#    x 1.717150 0.000000 -0.016670 
#    y 0.000000 1.730910 0.000000 
#    z -0.016670 0.000000 1.716440 
# 
# From -- ./inp_files/33524.got.cif
#   From: 2010.05.17/outbox.cif.g08.bks.cpg/sg12_17_cif.got.tgz:33524.got - 2010.06.03 13:09:07.
