data_PCOD9214711
_publ_section_title
;
Structure prediction by ZEFSAII (Michael W. Deem and Ramdas Pophale) SiO2 
 PCOD9214711
Probable space group: C 2/M
;
_chemical_formula_sum "Si O2"
_cell_formula_units_Z 50
_cell_length_a 29.385885
_cell_length_b 7.862967
_cell_length_c 12.020767
_cell_angle_alpha 90.000000
_cell_angle_beta 53.344260
_cell_angle_gamma 90.000000
_cell_volume 2228.230567
_symmetry_space_group_name_H-M "C 2/M"
_symmetry_group_IT_number 12
_symmetry_cell_setting 'monoclinic'
loop_
_space_group_symop_operation_xyz
x,y,z
-x,y,-z
-x,-y,-z
x,-y,z
1/2+x,1/2+y,z
1/2-x,1/2+y,-z
1/2-x,1/2-y,-z
1/2+x,1/2-y,z
loop_
_atom_site_type_symbol
_atom_site_label
_atom_site_fract_x
_atom_site_fract_y
_atom_site_fract_z
Si Si1 0.596749 0.805651 0.159441
Si Si2 0.873332 0.296150 0.352365
Si Si3 0.226619 0.697855 0.352069
Si Si4 0.646543 0.301272 0.858209
Si Si5 0.000000 0.000000 0.500000
Si Si6 0.301180 0.307394 0.844672
Si Si7 0.533103 0.797633 0.596265
O O1 0.641469 0.704541 0.168424
O O2 0.531106 0.759900 0.269077
O O3 0.603139 0.000000 0.186247
O O4 0.614595 0.787698 0.005384
O O5 0.868528 0.500000 0.344524
O O6 0.815609 0.228617 0.494204
O O7 0.882664 0.217248 0.218381
O O8 0.923491 0.269358 0.366839
O O9 0.234149 0.500000 0.370662
O O10 0.289704 0.770881 0.249464
O O11 0.198301 0.705873 0.271397
O O12 0.650791 0.500000 0.883274
O O13 0.041106 0.846313 0.491806
O O14 0.289903 0.500000 0.828083
O O15 0.250000 0.250000 0.000000
O O16 0.537135 0.000000 0.557811
#
# Coordination Sequence:
#
# PCOD9214711 Si02
#       7
#     8   8   8   8   2   8   8
#     4  11  24  43  66  94 133 175 218 271 332 391
#     4  10  23  44  66  91 131 174 220 271 332 394
#     4  10  22  40  63  93 128 171 215 271 331 390
#     4  11  23  39  65  96 130 169 223 273 322 397
#     4  12  26  44  76  92 144 172 222 272 342 390
#     4  12  24  38  62  94 130 168 216 267 328 396
#     4  10  26  46  69 103 134 176 226 274 332 402
#
# _framework density 22.439330999999999
#
# number of rings (size 3 to 8) (size 9 to 14) (size 15 to 20)
#    0.000    1.280    1.600    3.120    5.600    1.920 
#    0.000    3.200    0.000    0.000    0.000    0.000 
#    0.000    0.000    0.000    0.000    0.000    0.000 
#
# Total GULP energy -139571.592341 kJ/mol
# GULP energy per Si atom -5582.863694 kJ/mol
# Density = 2.238826 g / cm^3
# Si number density = 22.439331 Si / 1000 Ang^3
#
#
#
# Elastic Constant Matrix: (Units=GPa)
#
#
# Indices 1 2 3 4 5 6 
#
# 1 79.0892 23.8114 34.0859 0.0000 4.7980 0.0000
# 2 23.8114 42.0361 6.8629 0.0000 -16.2415 0.0000
# 3 34.0859 6.8629 87.5505 0.0000 -3.4650 0.0000
# 4 0.0000 0.0000 0.0000 9.9758 0.0000 6.5692
# 5 4.7980 -16.2415 -3.4650 0.0000 38.0476 0.0000
# 6 0.0000 0.0000 0.0000 6.5692 0.0000 28.0409
#
#
#
# Elastic Compliance Matrix: (Units=1/GPa)
#
#
# Indices 1 2 3 4 5 6 
#
# 1 0.020564 -0.014034 -0.007272 0.000000 -0.009246 0.000000
# 2 -0.014034 0.038337 0.003188 0.000000 0.018425 0.000000
# 3 -0.007272 0.003188 0.014144 0.000000 0.003566 0.000000
# 4 0.000000 0.000000 0.000000 0.118528 0.000000 -0.027768
# 5 -0.009246 0.018425 0.003566 0.000000 0.035639 0.000000
# 6 0.000000 0.000000 0.000000 -0.027768 0.000000 0.042168
#
#
# Mechanical properties :
#
#
# Convention : Reuss Voigt Hill
#
# Bulk Modulus (GPa) = 27.16689 37.57734 32.37212
# Shear Modulus (GPa) = 15.72890 24.80722 20.26806
#
# Velocity S-wave (km/s) = 2.65042 3.32855 3.00865
# Velocity P-wave (km/s) = 4.63675 5.61737 5.15045
#
# Compressibility (1/GPa) = 0.03680951
#
# Stress axis : x y z
#
# Youngs Moduli (GPa) = 48.62834 26.08449 70.69912
#
# Poissons Ratio (x) = 0.36606 0.51413
# Poissons Ratio (y) = 0.68244 -0.22538
# Poissons Ratio (z) = 0.35363 -0.08315
#
# Static dielectric constant tensor:
#      x y z
#    x 1.894320 0.000000 0.073900 
#    y 0.000000 1.841900 0.000000 
#    z 0.073900 0.000000 1.984490 
# 
# From -- ./inp_files/180555.got.cif
#   From: 2010.05.17/outbox.cif.g08.bks.cpg/sg12_91_cif.got.tgz:180555.got - 2010.06.03 13:09:07.
