data_PCOD9214090
_publ_section_title
;
Structure prediction by ZEFSAII (Michael W. Deem and Ramdas Pophale) SiO2 
 PCOD9214090
Probable space group: C 2/M
;
_chemical_formula_sum "Si O2"
_cell_formula_units_Z 56
_cell_length_a 8.461546
_cell_length_b 27.662198
_cell_length_c 12.888567
_cell_angle_alpha 90.000000
_cell_angle_beta 63.657442
_cell_angle_gamma 90.000000
_cell_volume 2703.492562
_symmetry_space_group_name_H-M "C 2/M"
_symmetry_group_IT_number 12
_symmetry_cell_setting 'monoclinic'
loop_
_space_group_symop_operation_xyz
x,y,z
-x,y,-z
-x,-y,-z
x,-y,z
1/2+x,1/2+y,z
1/2-x,1/2+y,-z
1/2-x,1/2-y,-z
1/2+x,1/2-y,z
loop_
_atom_site_type_symbol
_atom_site_label
_atom_site_fract_x
_atom_site_fract_y
_atom_site_fract_z
Si Si1 0.258029 0.082283 0.300486
Si Si2 0.981719 0.000000 0.127967
Si Si3 0.077827 0.905283 0.743181
Si Si4 0.969544 0.266274 0.724380
Si Si5 0.701116 0.053153 0.473783
Si Si6 0.906979 0.806872 0.139371
Si Si7 0.637236 0.000000 0.869115
Si Si8 0.319259 0.685945 0.613787
O O1 0.262156 0.063301 0.416772
O O2 0.382584 0.047513 0.197114
O O3 0.272627 0.139780 0.305491
O O4 0.076278 0.078722 0.290380
O O5 0.172992 0.000000 0.128296
O O6 0.889395 0.049728 0.190006
O O7 0.000000 0.000000 0.000000
O O8 0.235422 0.902661 0.615796
O O9 0.044913 0.856317 0.814137
O O10 0.806636 0.301929 0.797824
O O11 0.895061 0.224688 0.671884
O O12 0.025578 0.238877 0.813586
O O13 0.143932 0.288552 0.618170
O O14 0.500000 0.048731 0.500000
O O15 0.783833 0.000000 0.425966
O O16 0.000000 0.806956 0.000000
O O17 0.500000 0.000000 0.000000
O O18 0.500000 0.670688 0.500000
#
# Coordination Sequence:
#
# PCOD9214090 Si02
#       8
#     8   4   8   8   8   8   4   8
#     4  11  23  43  67  95 131 174 220 262 340 408
#     4  10  22  39  62  91 127 170 214 266 330 389
#     4  11  22  41  64  95 128 171 221 264 333 407
#     4  10  24  43  67  96 131 174 233 283 343 402
#     4  11  24  40  64  95 133 169 212 276 327 398
#     4  11  23  44  67  95 134 178 232 285 337 400
#     4  10  24  45  66  97 135 176 224 275 320 400
#     4  11  22  43  67 100 134 175 219 282 345 412
#
# _framework density 20.713947000000001
#
# number of rings (size 3 to 8) (size 9 to 14) (size 15 to 20)
#    0.000    1.286    2.857    2.571    2.000    1.714 
#    5.143    0.714    0.000    0.000    0.000    0.000 
#    0.000    0.000    0.000    0.000    0.000    0.000 
#
# Total GULP energy -155989.150672 kJ/mol
# GULP energy per Si atom -5571.041095 kJ/mol
# Density = 2.066680 g / cm^3
# Si number density = 20.713947 Si / 1000 Ang^3
#
#
#
# Elastic Constant Matrix: (Units=GPa)
#
#
# Indices 1 2 3 4 5 6 
#
# 1 74.7061 28.8646 28.5456 0.0000 -0.1045 0.0000
# 2 28.8646 85.8156 27.2420 0.0000 -4.3918 0.0000
# 3 28.5456 27.2420 100.9335 0.0000 -2.2870 0.0000
# 4 0.0000 0.0000 0.0000 39.6396 0.0000 14.3284
# 5 -0.1045 -4.3918 -2.2870 0.0000 31.1920 0.0000
# 6 0.0000 0.0000 0.0000 14.3284 0.0000 30.9954
#
#
#
# Elastic Compliance Matrix: (Units=1/GPa)
#
#
# Indices 1 2 3 4 5 6 
#
# 1 0.016434 -0.004472 -0.003460 0.000000 -0.000828 0.000000
# 2 -0.004472 0.014036 -0.002483 0.000000 0.001779 0.000000
# 3 -0.003460 -0.002483 0.011567 0.000000 0.000487 0.000000
# 4 0.000000 0.000000 0.000000 0.030288 0.000000 -0.014002
# 5 -0.000828 0.001779 0.000487 0.000000 0.032343 0.000000
# 6 0.000000 0.000000 0.000000 -0.014002 0.000000 0.038735
#
#
# Mechanical properties :
#
#
# Convention : Reuss Voigt Hill
#
# Bulk Modulus (GPa) = 47.15183 47.86220 47.50702
# Shear Modulus (GPa) = 29.18780 32.15228 30.67004
#
# Velocity S-wave (km/s) = 3.75786 3.94408 3.85209
# Velocity P-wave (km/s) = 6.45301 6.62551 6.53983
#
# Compressibility (1/GPa) = 0.02120808
#
# Stress axis : x y z
#
# Youngs Moduli (GPa) = 60.84779 71.24305 86.45074
#
# Poissons Ratio (x) = 0.31859 0.29910
# Poissons Ratio (y) = 0.27211 0.21469
# Poissons Ratio (z) = 0.21052 0.17692
#
# Static dielectric constant tensor:
#      x y z
#    x 8.302870 0.000000 0.322730 
#    y 0.000000 1.778630 0.000000 
#    z 0.322730 0.000000 1.776550 
# 
# From -- ./inp_files/125646.got.cif
#   From: 2010.05.17/outbox.cif.g08.bks.cpg/sg12_63_cif.got.tgz:125646.got - 2010.06.03 13:09:07.
