data_PCOD9214167
_publ_section_title
;
Structure prediction by ZEFSAII (Michael W. Deem and Ramdas Pophale) SiO2 
 PCOD9214167
Probable space group: C 2/M
;
_chemical_formula_sum "Si O2"
_cell_formula_units_Z 44
_cell_length_a 17.778395
_cell_length_b 15.463228
_cell_length_c 14.460825
_cell_angle_alpha 90.000000
_cell_angle_beta 149.098838
_cell_angle_gamma 90.000000
_cell_volume 2041.624332
_symmetry_space_group_name_H-M "C 2/M"
_symmetry_group_IT_number 12
_symmetry_cell_setting 'monoclinic'
loop_
_space_group_symop_operation_xyz
x,y,z
-x,y,-z
-x,-y,-z
x,-y,z
1/2+x,1/2+y,z
1/2-x,1/2+y,-z
1/2-x,1/2-y,-z
1/2+x,1/2-y,z
loop_
_atom_site_type_symbol
_atom_site_label
_atom_site_fract_x
_atom_site_fract_y
_atom_site_fract_z
Si Si1 0.838842 0.678024 0.374304
Si Si2 0.298369 0.000000 0.865757
Si Si3 0.337264 0.135520 0.568469
Si Si4 0.911728 0.500000 0.191216
Si Si5 0.077405 0.000000 0.265051
Si Si6 0.206573 0.000000 0.154805
Si Si7 0.767562 0.647385 0.704373
Si Si8 0.028194 0.000000 0.415608
O O1 0.844119 0.700860 0.490254
O O2 0.754939 0.588147 0.260472
O O3 0.758827 0.766571 0.262686
O O4 0.000000 0.672073 0.500000
O O5 0.346086 0.082291 0.857496
O O6 0.120883 0.000000 0.685275
O O7 0.345788 0.000000 0.020396
O O8 0.342928 0.157499 0.682813
O O9 0.478129 0.079775 0.690705
O O10 0.189202 0.080759 0.391775
O O11 0.805028 0.500000 0.165566
O O12 0.985862 0.000000 0.262615
O O13 0.962377 0.000000 0.059359
O O14 0.622939 0.588428 0.527929
#
# Coordination Sequence:
#
# PCOD9214167 Si02
#       8
#     8   4   8   4   4   4   8   4
#     4  12  23  40  65  93 127 170 211 254 313 378
#     4  11  20  37  64  93 123 162 208 267 317 363
#     4  10  22  41  64  90 126 168 206 260 315 377
#     4  11  21  40  66  95 130 164 210 259 321 362
#     4   9  20  39  63  90 122 168 211 250 316 366
#     4  12  23  40  65  96 129 169 208 262 301 377
#     4  10  22  39  63  95 125 163 210 259 317 376
#     4   9  17  37  64  87 124 161 205 258 318 365
#
# _framework density 21.551466000000001
#
# number of rings (size 3 to 8) (size 9 to 14) (size 15 to 20)
#    0.000    1.455    2.727    5.727    0.000    2.909 
#    0.000    8.182    0.000    0.000    0.000    0.000 
#    0.000    0.000    0.000    0.000    0.000    0.000 
#
# Total GULP energy -122473.705134 kJ/mol
# GULP energy per Si atom -5566.986597 kJ/mol
# Density = 2.150241 g / cm^3
# Si number density = 21.551466 Si / 1000 Ang^3
#
#
#
# Elastic Constant Matrix: (Units=GPa)
#
#
# Indices 1 2 3 4 5 6 
#
# 1 141.9843 7.4909 24.0959 0.0000 -17.8822 0.0000
# 2 7.4909 110.5374 9.2795 0.0000 -4.9230 0.0000
# 3 24.0959 9.2795 51.0318 -0.0001 2.9765 0.0000
# 4 0.0000 0.0000 -0.0001 -20.9543 -0.0001 14.7954
# 5 -17.8822 -4.9230 2.9765 -0.0001 36.4739 0.0000
# 6 0.0000 0.0000 0.0000 14.7954 0.0000 51.1039
#
#
#
# Elastic Compliance Matrix: (Units=1/GPa)
#
#
# Indices 1 2 3 4 5 6 
#
# 1 0.008309 -0.000016 -0.004178 0.000000 0.004412 0.000000
# 2 -0.000016 0.009257 -0.001757 0.000000 0.001385 0.000000
# 3 -0.004178 -0.001757 0.022126 0.000000 -0.004091 0.000000
# 4 0.000000 0.000000 0.000000 -0.039623 0.000000 0.011472
# 5 0.004412 0.001385 -0.004091 0.000000 0.030101 0.000000
# 6 0.000000 0.000000 0.000000 0.011472 0.000000 0.016247
#
#
# Mechanical properties :
#
#
# Convention : Reuss Voigt Hill
#
# Bulk Modulus (GPa) = 35.98192 42.80956 39.39574
# Shear Modulus (GPa) = 73.98646 30.83719 52.41183
#
# Velocity S-wave (km/s) = 5.86555 3.78678 4.93682
# Velocity P-wave (km/s) = 7.91233 6.24713 7.12852
#
# Compressibility (1/GPa) = 0.02779174
#
# Stress axis : x y z
#
# Youngs Moduli (GPa) = 120.35821 108.02717 45.19538
#
# Poissons Ratio (x) = 0.00171 0.18881
# Poissons Ratio (y) = 0.00191 0.07939
# Poissons Ratio (z) = 0.50280 0.18976
#
# Static dielectric constant tensor:
#      x y z
#    x 1.822240 0.000000 -0.064330 
#    y 0.000000 1.679680 0.000000 
#    z -0.064330 0.000000 1.849590 
# 
# From -- ./inp_files/226672.got.cif
#   From: 2010.05.17/outbox.cif.g08.bks.cpg/sg12_114_cif.got.tgz:226672.got - 2010.06.03 13:09:07.
