data_PCOD9214649
_publ_section_title
;
Structure prediction by ZEFSAII (Michael W. Deem and Ramdas Pophale) SiO2 
 PCOD9214649
Probable space group: C 2/M
;
_chemical_formula_sum "Si O2"
_cell_formula_units_Z 56
_cell_length_a 10.218707
_cell_length_b 26.022663
_cell_length_c 19.796194
_cell_angle_alpha 90.000000
_cell_angle_beta 140.740939
_cell_angle_gamma 90.000000
_cell_volume 3331.309058
_symmetry_space_group_name_H-M "C 2/M"
_symmetry_group_IT_number 12
_symmetry_cell_setting 'monoclinic'
loop_
_space_group_symop_operation_xyz
x,y,z
-x,y,-z
-x,-y,-z
x,-y,z
1/2+x,1/2+y,z
1/2-x,1/2+y,-z
1/2-x,1/2-y,-z
1/2+x,1/2-y,z
loop_
_atom_site_type_symbol
_atom_site_label
_atom_site_fract_x
_atom_site_fract_y
_atom_site_fract_z
Si Si1 0.930431 0.629015 0.301469
Si Si2 0.443928 0.440261 0.898864
Si Si3 0.157485 0.441420 0.500000
Si Si4 0.808736 0.702264 0.372491
Si Si5 0.747334 0.059739 0.101136
Si Si6 0.692827 0.675090 0.628551
Si Si7 0.973976 0.870985 0.301469
O O1 0.736216 0.599351 0.192352
O O2 0.858602 0.675084 0.321735
O O3 0.048317 0.588365 0.395990
O O4 0.097785 0.651204 0.316874
O O5 0.376304 0.500000 0.861898
O O6 0.636921 0.432401 0.924614
O O7 0.500000 0.434403 0.000000
O O8 0.203013 0.500000 0.500000
O O9 0.360346 0.411635 0.604009
O O10 0.000000 0.441048 0.500000
O O11 0.788581 0.763309 0.359054
O O12 0.606604 0.675085 0.321736
O O13 0.000000 0.691525 0.500000
O O14 0.840842 0.099351 0.192353
O O15 0.790607 0.000000 0.138101
O O16 0.500000 0.065597 0.000000
O O17 0.500000 0.664633 0.500000
O O18 0.647164 0.651204 0.683126
#
# Coordination Sequence:
#
# PCOD9214649 Si02
#       7
#     8   8   8   8   8   8   8
#     4  12  20  38  58  87 118 153 191 239 294 343
#     4  10  22  40  63  88 114 152 198 239 286 350
#     4  11  20  33  56  86 115 150 187 231 288 354
#     4  11  20  38  61  86 115 157 200 238 284 352
#     4  10  22  40  63  88 114 152 198 239 286 350
#     4  11  24  36  57  88 125 153 196 242 288 344
#     4  12  20  38  58  87 118 153 191 239 294 343
#
# _framework density 16.810207999999999
#
# number of rings (size 3 to 8) (size 9 to 14) (size 15 to 20)
#    0.000    1.000    5.714    1.714    2.000    4.571 
#    0.000    2.857    0.000    5.143    0.000    0.000 
#    0.000    0.000    0.000    0.000    0.000    0.000 
#
# Total GULP energy -156392.227836 kJ/mol
# GULP energy per Si atom -5585.436708 kJ/mol
# Density = 1.677195 g / cm^3
# Si number density = 16.810208 Si / 1000 Ang^3
#
#
#
# Elastic Constant Matrix: (Units=GPa)
#
#
# Indices 1 2 3 4 5 6 
#
# 1 178.7441 75.8516 63.2193 0.0002 0.8560 -0.0002
# 2 75.8516 111.4730 60.4515 0.0004 0.1969 -0.0006
# 3 63.2193 60.4515 95.7937 0.0007 0.2036 0.0014
# 4 0.0002 0.0004 0.0007 37.5730 0.0003 -0.5057
# 5 0.8560 0.1969 0.2036 0.0003 24.2721 0.0001
# 6 -0.0002 -0.0006 0.0014 -0.5057 0.0001 -1.9831
#
#
#
# Elastic Compliance Matrix: (Units=1/GPa)
#
#
# Indices 1 2 3 4 5 6 
#
# 1 0.008377 -0.004108 -0.002936 0.000000 -0.000237 -0.000002
# 2 -0.004108 0.015652 -0.007167 0.000000 0.000078 -0.000010
# 3 -0.002936 -0.007167 0.016899 0.000000 0.000020 0.000015
# 4 0.000000 0.000000 0.000000 0.026524 0.000000 -0.006764
# 5 -0.000237 0.000078 0.000020 0.000000 0.041207 0.000003
# 6 -0.000002 -0.000010 0.000015 -0.006764 0.000003 -0.502543
#
#
# Mechanical properties :
#
#
# Convention : Reuss Voigt Hill
#
# Bulk Modulus (GPa) = 79.94865 87.22842 83.58854
# Shear Modulus (GPa) = -13.83919 24.40495 5.28288
#
# Velocity S-wave (km/s) = -2.87236 3.81437 1.77468
# Velocity P-wave (km/s) = 6.05493 8.44997 7.35066
#
# Compressibility (1/GPa) = 0.01250803
#
# Stress axis : x y z
#
# Youngs Moduli (GPa) = 119.37067 63.88838 59.17436
#
# Poissons Ratio (x) = 0.26244 0.17373
# Poissons Ratio (y) = 0.49035 0.42409
# Poissons Ratio (z) = 0.35045 0.45787
#
# Static dielectric constant tensor:
#      x y z
#    x 1.653730 0.000000 0.001470 
#    y 0.000000 1.555940 0.000000 
#    z 0.001470 0.000000 1.538950 
# 
# From -- ./inp_files/124230.got.cif
#   From: 2010.05.17/outbox.cif.g08.bks.cpg/sg12_63_cif.got.tgz:124230.got - 2010.06.03 13:09:07.
