data_PCOD9214149
_publ_section_title
;
Structure prediction by ZEFSAII (Michael W. Deem and Ramdas Pophale) SiO2 
 PCOD9214149
Probable space group: C 2/M
;
_chemical_formula_sum "Si O2"
_cell_formula_units_Z 52
_cell_length_a 21.262195
_cell_length_b 19.330269
_cell_length_c 8.386781
_cell_angle_alpha 90.000000
_cell_angle_beta 52.945018
_cell_angle_gamma 90.000000
_cell_volume 2750.904740
_symmetry_space_group_name_H-M "C 2/M"
_symmetry_group_IT_number 12
_symmetry_cell_setting 'monoclinic'
loop_
_space_group_symop_operation_xyz
x,y,z
-x,y,-z
-x,-y,-z
x,-y,z
1/2+x,1/2+y,z
1/2-x,1/2+y,-z
1/2-x,1/2-y,-z
1/2+x,1/2-y,z
loop_
_atom_site_type_symbol
_atom_site_label
_atom_site_fract_x
_atom_site_fract_y
_atom_site_fract_z
Si Si1 0.402588 0.000000 0.141400
Si Si2 0.185114 0.362292 0.267421
Si Si3 0.796882 0.230926 0.269863
Si Si4 0.083343 0.000000 0.767360
Si Si5 0.035899 0.712213 0.620027
Si Si6 0.929245 0.151746 0.233450
Si Si7 0.116652 0.641240 0.018014
Si Si8 0.265137 0.000000 0.628969
O O1 0.338286 0.000000 0.386926
O O2 0.500000 0.000000 0.000000
O O3 0.383893 0.930494 0.072876
O O4 0.245563 0.299913 0.205438
O O5 0.109499 0.338393 0.485401
O O6 0.157633 0.368275 0.127556
O O7 0.220365 0.432201 0.285407
O O8 0.750000 0.250000 0.500000
O O9 0.854687 0.170862 0.239873
O O10 0.840088 0.299355 0.146585
O O11 0.078698 0.074213 0.686214
O O12 0.172924 0.000000 0.708245
O O13 0.000000 0.000000 0.000000
O O14 0.059132 0.785230 0.662162
O O15 0.000000 0.725354 0.500000
O O16 0.970602 0.671572 0.820164
O O17 0.000000 0.152900 0.000000
#
# Coordination Sequence:
#
# PCOD9214149 Si02
#       8
#     4   8   8   4   8   8   8   4
#     4  12  27  40  63  98 133 171 217 253 310 396
#     4  11  23  41  63  93 126 164 210 258 323 384
#     4  12  22  36  65  93 119 160 212 261 306 377
#     4  10  24  41  61  95 117 157 212 262 311 368
#     4  10  22  39  63  91 124 164 205 255 318 379
#     4  11  21  39  65  86 122 158 211 260 315 367
#     4  11  25  42  60  92 132 166 202 262 319 379
#     4  12  23  41  68  91 127 172 208 262 320 372
#
# _framework density 18.902871000000001
#
# number of rings (size 3 to 8) (size 9 to 14) (size 15 to 20)
#    0.000    0.923    4.615    2.769    2.154    0.000 
#    0.000    3.462    0.000    0.000    0.000    0.000 
#    0.000    0.000    0.000    0.000    0.000    0.000 
#
# Total GULP energy -145025.485258 kJ/mol
# GULP energy per Si atom -5577.903279 kJ/mol
# Density = 1.885985 g / cm^3
# Si number density = 18.902871 Si / 1000 Ang^3
#
#
#
# Elastic Constant Matrix: (Units=GPa)
#
#
# Indices 1 2 3 4 5 6 
#
# 1 36.3939 9.7579 -10.4685 0.0000 -13.3271 0.0000
# 2 9.7579 130.2644 15.9130 0.0000 5.8391 0.0000
# 3 -10.4685 15.9130 55.8883 0.0000 -8.6241 0.0000
# 4 0.0000 0.0000 0.0000 23.1202 0.0000 7.1227
# 5 -13.3271 5.8391 -8.6241 0.0000 25.0852 0.0000
# 6 0.0000 0.0000 0.0000 7.1227 0.0000 27.6150
#
#
#
# Elastic Compliance Matrix: (Units=1/GPa)
#
#
# Indices 1 2 3 4 5 6 
#
# 1 0.044625 -0.006523 0.014899 0.000000 0.030349 0.000000
# 2 -0.006523 0.009094 -0.004935 0.000000 -0.007279 0.000000
# 3 0.014899 -0.004935 0.024803 0.000000 0.017591 0.000000
# 4 0.000000 0.000000 0.000000 0.046986 0.000000 -0.012119
# 5 0.030349 -0.007279 0.017591 0.000000 0.063730 0.000000
# 6 0.000000 0.000000 0.000000 -0.012119 0.000000 0.039338
#
#
# Mechanical properties :
#
#
# Convention : Reuss Voigt Hill
#
# Bulk Modulus (GPa) = 11.70878 28.10568 19.90723
# Shear Modulus (GPa) = 19.98701 28.98701 24.48701
#
# Velocity S-wave (km/s) = 3.25522 3.92020 3.60309
# Velocity P-wave (km/s) = 4.50958 5.94907 5.27862
#
# Compressibility (1/GPa) = 0.08540602
#
# Stress axis : x y z
#
# Youngs Moduli (GPa) = 22.40876 109.95745 40.31741
#
# Poissons Ratio (x) = 0.71728 -0.60070
# Poissons Ratio (y) = 0.14618 0.19895
# Poissons Ratio (z) = -0.33388 0.54259
#
# Static dielectric constant tensor:
#      x y z
#    x 1.666600 0.000000 -0.018750 
#    y 0.000000 1.666940 0.000000 
#    z -0.018750 0.000000 1.637930 
# 
# From -- ./inp_files/75343.got.cif
#   From: 2010.05.17/outbox.cif.g08.bks.cpg/sg12_38_cif.got.tgz:75343.got - 2010.06.03 13:09:07.
