data_PCOD9214003
_publ_section_title
;
Structure prediction by ZEFSAII (Michael W. Deem and Ramdas Pophale) SiO2 
 PCOD9214003
Probable space group: C 2/M
;
_chemical_formula_sum "Si O2"
_cell_formula_units_Z 42
_cell_length_a 28.707449
_cell_length_b 9.926671
_cell_length_c 7.063960
_cell_angle_alpha 90.000000
_cell_angle_beta 120.589262
_cell_angle_gamma 90.000000
_cell_volume 1732.876433
_symmetry_space_group_name_H-M "C 2/M"
_symmetry_group_IT_number 12
_symmetry_cell_setting 'monoclinic'
loop_
_space_group_symop_operation_xyz
x,y,z
-x,y,-z
-x,-y,-z
x,-y,z
1/2+x,1/2+y,z
1/2-x,1/2+y,-z
1/2-x,1/2-y,-z
1/2+x,1/2-y,z
loop_
_atom_site_type_symbol
_atom_site_label
_atom_site_fract_x
_atom_site_fract_y
_atom_site_fract_z
Si Si1 0.985255 0.253124 0.746064
Si Si2 0.598462 0.144414 0.888896
Si Si3 0.775112 0.152047 0.315165
Si Si4 0.000000 0.000000 0.500000
Si Si5 0.629914 0.147917 0.395440
Si Si6 0.813080 0.849430 0.967550
O O1 0.927103 0.324578 0.619398
O O2 0.985291 0.116983 0.627577
O O3 0.034426 0.339034 0.761090
O O4 0.000000 0.230798 0.000000
O O5 0.615255 0.144053 0.144204
O O6 0.630766 0.272325 0.877309
O O7 0.615771 0.000000 0.843428
O O8 0.828693 0.231019 0.487221
O O9 0.724322 0.251803 0.236142
O O10 0.767778 0.000000 0.376354
O O11 0.782812 0.137236 0.104755
O O12 0.652661 0.000000 0.494224
O O13 0.822240 0.000000 0.910355
#
# Coordination Sequence:
#
# PCOD9214003 Si02
#       6
#     8   8   8   2   8   8
#     4  10  24  43  65  95 134 171 214 268 320 378
#     4  10  22  41  64  89 124 167 209 260 321 382
#     4  10  22  39  61  89 123 161 207 263 320 380
#     4  12  26  40  66  98 132 176 216 264 316 396
#     4  10  22  41  64  89 124 167 209 260 321 382
#     4  10  22  39  61  89 123 161 207 263 320 380
#
# _framework density 24.237158999999998
#
# number of rings (size 3 to 8) (size 9 to 14) (size 15 to 20)
#    0.000    1.905    0.000    2.000    5.333    6.095 
#    0.000    0.952    0.000    0.000    0.000    0.000 
#    0.000    0.000    0.000    0.000    0.000    0.000 
#
# Total GULP energy -117242.942086 kJ/mol
# GULP energy per Si atom -5582.997242 kJ/mol
# Density = 2.418199 g / cm^3
# Si number density = 24.237159 Si / 1000 Ang^3
#
#
#
# Elastic Constant Matrix: (Units=GPa)
#
#
# Indices 1 2 3 4 5 6 
#
# 1 106.5335 51.7683 12.8940 0.0000 18.8891 0.0000
# 2 51.7683 240.9235 41.2534 0.0000 24.0109 0.0000
# 3 12.8940 41.2534 80.8577 0.0000 13.0188 0.0000
# 4 0.0000 0.0000 0.0000 -3.4755 0.0000 -24.8741
# 5 18.8891 24.0109 13.0188 0.0000 44.4366 0.0000
# 6 0.0000 0.0000 0.0000 -24.8741 0.0000 10.9356
#
#
#
# Elastic Compliance Matrix: (Units=1/GPa)
#
#
# Indices 1 2 3 4 5 6 
#
# 1 0.011000 -0.001980 -0.000171 0.000000 -0.003556 0.000000
# 2 -0.001980 0.005057 -0.002057 0.000000 -0.001288 0.000000
# 3 -0.000171 -0.002057 0.013910 0.000000 -0.002891 0.000000
# 4 0.000000 0.000000 0.000000 -0.016652 0.000000 -0.037876
# 5 -0.003556 -0.001288 -0.002891 0.000000 0.025558 0.000000
# 6 0.000000 0.000000 0.000000 -0.037876 0.000000 0.005292
#
#
# Mechanical properties :
#
#
# Convention : Reuss Voigt Hill
#
# Bulk Modulus (GPa) = 46.40369 71.12735 58.76552
# Shear Modulus (GPa) = 83.66123 31.87260 57.76692
#
# Velocity S-wave (km/s) = 5.88156 3.63027 4.88731
# Velocity P-wave (km/s) = 8.08151 6.85434 7.49309
#
# Compressibility (1/GPa) = 0.02155001
#
# Stress axis : x y z
#
# Youngs Moduli (GPa) = 90.90876 197.75796 71.89293
#
# Poissons Ratio (x) = 0.39154 0.01233
# Poissons Ratio (y) = 0.17999 0.14787
# Poissons Ratio (z) = 0.01559 0.40675
#
# Static dielectric constant tensor:
#      x y z
#    x 1.928530 0.000000 -0.032750 
#    y 0.000000 1.905780 0.000000 
#    z -0.032750 0.000000 1.982630 
# 
# From -- ./inp_files/108516.got.cif
#   From: 2010.05.17/outbox.cif.g08.bks.cpg/sg12_55_cif.got.tgz:108516.got - 2010.06.03 13:09:07.
