data_PCOD9214607
_publ_section_title
;
Structure prediction by ZEFSAII (Michael W. Deem and Ramdas Pophale) SiO2 
 PCOD9214607
Probable space group: C 2/M
;
_chemical_formula_sum "Si O2"
_cell_formula_units_Z 56
_cell_length_a 8.749464
_cell_length_b 18.057359
_cell_length_c 30.734289
_cell_angle_alpha 90.000000
_cell_angle_beta 147.109856
_cell_angle_gamma 90.000000
_cell_volume 2636.833353
_symmetry_space_group_name_H-M "C 2/M"
_symmetry_group_IT_number 12
_symmetry_cell_setting 'monoclinic'
loop_
_space_group_symop_operation_xyz
x,y,z
-x,y,-z
-x,-y,-z
x,-y,z
1/2+x,1/2+y,z
1/2-x,1/2+y,-z
1/2-x,1/2-y,-z
1/2+x,1/2-y,z
loop_
_atom_site_type_symbol
_atom_site_label
_atom_site_fract_x
_atom_site_fract_y
_atom_site_fract_z
Si Si1 0.175551 0.667701 0.084058
Si Si2 0.778150 0.416955 0.646146
Si Si3 0.737476 0.210493 0.415356
Si Si4 0.284136 0.086734 0.745909
Si Si5 0.677912 0.168648 0.911074
Si Si6 0.682612 0.674258 0.331548
Si Si7 0.080678 0.917721 0.229667
O O1 0.298135 0.748826 0.103009
O O2 0.409823 0.605342 0.146877
O O3 0.982564 0.669727 0.081065
O O4 0.000000 0.647416 0.000000
O O5 0.655951 0.500000 0.618309
O O6 0.631395 0.360027 0.578567
O O7 0.815271 0.386252 0.703669
O O8 0.090828 0.422195 0.701280
O O9 0.600421 0.259073 0.343887
O O10 0.505591 0.187772 0.395505
O O11 0.000000 0.252010 0.500000
O O12 0.496471 0.122985 0.831836
O O13 0.954072 0.103606 0.677059
O O14 0.340153 0.000000 0.759049
O O15 0.000000 0.144243 0.000000
O O16 0.546139 0.654515 0.252278
O O17 0.989511 0.000000 0.223776
#
# Coordination Sequence:
#
# PCOD9214607 Si02
#       7
#     8   8   8   8   8   8   8
#     4  11  24  39  61  90 128 170 214 273 321 378
#     4   9  22  40  63  92 127 168 213 261 317 380
#     4  11  24  42  67 101 130 165 211 260 324 396
#     4  11  24  42  65  93 129 174 224 270 319 381
#     4  11  25  40  61  91 130 173 218 274 326 371
#     4  11  23  39  66  94 130 164 209 270 312 384
#     4  10  22  40  62  91 125 171 218 263 317 380
#
# _framework density 21.237594999999999
#
# number of rings (size 3 to 8) (size 9 to 14) (size 15 to 20)
#    0.000    1.429    1.429    3.429   10.000    1.429 
#    0.000    0.000    0.000    3.429    0.000    0.000 
#    0.000    0.000    0.000    0.000    0.000    0.000 
#
# Total GULP energy -155884.778128 kJ/mol
# GULP energy per Si atom -5567.313505 kJ/mol
# Density = 2.118926 g / cm^3
# Si number density = 21.237595 Si / 1000 Ang^3
#
#
#
# Elastic Constant Matrix: (Units=GPa)
#
#
# Indices 1 2 3 4 5 6 
#
# 1 64.4999 -0.7147 21.5790 0.0001 -13.3029 -0.0004
# 2 -0.7147 48.7737 36.2249 0.0003 -8.6304 0.0000
# 3 21.5790 36.2249 64.1968 0.0031 -3.0741 0.0006
# 4 0.0001 0.0003 0.0031 14.3584 0.0006 -2.3441
# 5 -13.3029 -8.6304 -3.0741 0.0006 33.9710 0.0000
# 6 -0.0004 0.0000 0.0006 -2.3441 0.0000 26.0861
#
#
#
# Elastic Compliance Matrix: (Units=1/GPa)
#
#
# Indices 1 2 3 4 5 6 
#
# 1 0.022729 0.012993 -0.014450 0.000002 0.010894 0.000001
# 2 0.012993 0.044565 -0.028854 0.000005 0.013799 0.000001
# 3 -0.014450 -0.028854 0.036251 -0.000007 -0.009708 -0.000002
# 4 0.000002 0.000005 -0.000007 0.070683 0.000000 0.006352
# 5 0.010894 0.013799 -0.009708 0.000000 0.036330 0.000000
# 6 0.000001 0.000001 -0.000002 0.006352 0.000000 0.038905
#
#
# Mechanical properties :
#
#
# Convention : Reuss Voigt Hill
#
# Bulk Modulus (GPa) = 23.29736 32.40542 27.85139
# Shear Modulus (GPa) = 15.41344 22.90850 19.16097
#
# Velocity S-wave (km/s) = 2.69692 3.28788 3.00696
# Velocity P-wave (km/s) = 4.54879 5.45025 5.01980
#
# Compressibility (1/GPa) = 0.04292332
#
# Stress axis : x y z
#
# Youngs Moduli (GPa) = 43.99641 22.43919 27.58549
#
# Poissons Ratio (x) = -0.29155 0.39861
# Poissons Ratio (y) = -0.57164 0.79594
# Poissons Ratio (z) = 0.63575 0.64745
#
# Static dielectric constant tensor:
#      x y z
#    x 1.828910 0.000000 -0.002560 
#    y 0.000000 1.798720 0.000000 
#    z -0.002560 0.000000 1.769010 
# 
# From -- ./inp_files/372799.got.cif
#   From: 2010.05.17/outbox.cif.g08.bks.cpg/sg12_187_cif.got.tgz:372799.got - 2010.06.03 13:09:07.
