data_PCOD9214126
_publ_section_title
;
Structure prediction by ZEFSAII (Michael W. Deem and Ramdas Pophale) SiO2 
 PCOD9214126
Probable space group: C 2/M
;
_chemical_formula_sum "Si O2"
_cell_formula_units_Z 50
_cell_length_a 12.280360
_cell_length_b 13.117468
_cell_length_c 13.426775
_cell_angle_alpha 90.000000
_cell_angle_beta 106.231855
_cell_angle_gamma 90.000000
_cell_volume 2076.666102
_symmetry_space_group_name_H-M "C 2/M"
_symmetry_group_IT_number 12
_symmetry_cell_setting 'monoclinic'
loop_
_space_group_symop_operation_xyz
x,y,z
-x,y,-z
-x,-y,-z
x,-y,z
1/2+x,1/2+y,z
1/2-x,1/2+y,-z
1/2-x,1/2-y,-z
1/2+x,1/2-y,z
loop_
_atom_site_type_symbol
_atom_site_label
_atom_site_fract_x
_atom_site_fract_y
_atom_site_fract_z
Si Si1 0.695951 0.117211 0.820522
Si Si2 0.561663 0.703690 0.701427
Si Si3 0.867462 0.304469 0.560392
Si Si4 0.000000 0.500000 0.500000
Si Si5 0.135074 0.382848 0.023501
Si Si6 0.208704 0.384597 0.251569
Si Si7 0.534281 0.617291 0.118718
O O1 0.629111 0.189036 0.728210
O O2 0.829997 0.114487 0.838140
O O3 0.652951 0.000000 0.801255
O O4 0.671264 0.157352 0.925848
O O5 0.465039 0.719508 0.596093
O O6 0.657761 0.623348 0.697235
O O7 0.515818 0.673790 0.798827
O O8 0.750000 0.250000 0.500000
O O9 0.909928 0.406672 0.514255
O O10 0.853520 0.335067 0.672774
O O11 0.178270 0.500000 0.031322
O O12 0.183977 0.336219 0.137083
O O13 0.000000 0.385243 0.000000
O O14 0.167660 0.500000 0.235087
O O15 0.491537 0.500000 0.110663
O O16 0.500000 0.657813 0.000000
#
# Coordination Sequence:
#
# PCOD9214126 Si02
#       7
#     8   8   8   2   8   8   8
#     4  10  22  39  62  99 144 195 244 285 350 434
#     4  12  25  42  70 105 144 185 243 309 368 450
#     4  12  28  53  77 111 140 186 252 319 398 482
#     4  12  28  56  88 108 154 200 232 340 418 460
#     4   9  18  34  61  96 138 186 232 283 338 419
#     4  11  23  44  70 101 140 180 236 295 367 445
#     4  10  22  42  65 100 153 203 246 295 365 446
#
# _framework density 24.077052999999999
#
# number of rings (size 3 to 8) (size 9 to 14) (size 15 to 20)
#    0.000    1.280    0.800    4.320    1.120    8.320 
#    5.760    0.800    0.000    0.000    0.000    0.000 
#    0.000    0.000    0.000    0.000    0.000    0.000 
#
# Total GULP energy -139678.053185 kJ/mol
# GULP energy per Si atom -5587.122127 kJ/mol
# Density = 2.402225 g / cm^3
# Si number density = 24.077053 Si / 1000 Ang^3
#
#
#
# Elastic Constant Matrix: (Units=GPa)
#
#
# Indices 1 2 3 4 5 6 
#
# 1 113.7034 8.8878 28.3629 0.0000 -2.3206 0.0000
# 2 8.8878 109.8217 29.6211 0.0000 -3.5965 0.0000
# 3 28.3629 29.6211 71.4326 0.0000 5.3033 0.0000
# 4 0.0000 0.0000 0.0000 8.0256 0.0000 -3.6842
# 5 -2.3206 -3.5965 5.3033 0.0000 52.2319 0.0000
# 6 0.0000 0.0000 0.0000 -3.6842 0.0000 42.1601
#
#
#
# Elastic Compliance Matrix: (Units=1/GPa)
#
#
# Indices 1 2 3 4 5 6 
#
# 1 0.009809 0.000341 -0.004101 0.000000 0.000876 0.000000
# 2 0.000341 0.010333 -0.004508 0.000000 0.001184 0.000000
# 3 -0.004101 -0.004508 0.017667 0.000000 -0.002286 0.000000
# 4 0.000000 0.000000 0.000000 0.129809 0.000000 0.011344
# 5 0.000876 0.001184 -0.002286 0.000000 0.019498 0.000000
# 6 0.000000 0.000000 0.000000 0.011344 0.000000 0.024710
#
#
# Mechanical properties :
#
#
# Convention : Reuss Voigt Hill
#
# Bulk Modulus (GPa) = 47.00989 47.63346 47.32168
# Shear Modulus (GPa) = 21.23562 35.68922 28.46242
#
# Velocity S-wave (km/s) = 2.97305 3.85423 3.44195
# Velocity P-wave (km/s) = 5.59933 6.29551 5.95760
#
# Compressibility (1/GPa) = 0.02127212
#
# Stress axis : x y z
#
# Youngs Moduli (GPa) = 101.94669 96.77948 56.60360
#
# Poissons Ratio (x) = -0.03300 0.23214
# Poissons Ratio (y) = -0.03476 0.25517
# Poissons Ratio (z) = 0.41810 0.43629
#
# Static dielectric constant tensor:
#      x y z
#    x 1.934410 0.000000 0.009320 
#    y 0.000000 1.892470 0.000000 
#    z 0.009320 0.000000 1.939550 
# 
# From -- ./inp_files/205093.got.cif
#   From: 2010.05.17/outbox.cif.g08.bks.cpg/sg12_103_cif.got.tgz:205093.got - 2010.06.03 13:09:07.
