data_PCOD9214977
_publ_section_title
;
Structure prediction by ZEFSAII (Michael W. Deem and Ramdas Pophale) SiO2 
 PCOD9214977
Probable space group: C 2/M
;
_chemical_formula_sum "Si O2"
_cell_formula_units_Z 48
_cell_length_a 27.450842
_cell_length_b 18.690688
_cell_length_c 12.480831
_cell_angle_alpha 90.000000
_cell_angle_beta 20.049140
_cell_angle_gamma 90.000000
_cell_volume 2195.321587
_symmetry_space_group_name_H-M "C 2/M"
_symmetry_group_IT_number 12
_symmetry_cell_setting 'monoclinic'
loop_
_space_group_symop_operation_xyz
x,y,z
-x,y,-z
-x,-y,-z
x,-y,z
1/2+x,1/2+y,z
1/2-x,1/2+y,-z
1/2-x,1/2-y,-z
1/2+x,1/2-y,z
loop_
_atom_site_type_symbol
_atom_site_label
_atom_site_fract_x
_atom_site_fract_y
_atom_site_fract_z
Si Si1 0.635052 0.201064 0.295476
Si Si2 0.157085 0.915885 0.655819
Si Si3 0.281054 0.800860 0.535754
Si Si4 0.964032 0.276712 0.843031
Si Si5 0.336716 0.415975 0.825823
Si Si6 0.708240 0.083026 0.853284
O O1 0.500000 0.185099 0.500000
O O2 0.571681 0.243913 0.526485
O O3 0.750000 0.250000 0.000000
O O4 0.724930 0.128679 0.127985
O O5 0.259382 0.878386 0.529462
O O6 0.196560 0.905634 0.449897
O O7 0.156233 0.000000 0.678000
O O8 0.000000 0.885744 0.000000
O O9 0.250000 0.750000 0.500000
O O10 0.436588 0.788533 0.260169
O O11 0.162603 0.777570 0.868282
O O12 0.904852 0.353563 0.925930
O O13 0.500000 0.391059 0.500000
O O14 0.332587 0.500000 0.862600
O O15 0.287425 0.409375 0.803398
O O16 0.655984 0.000000 0.956764
#
# Coordination Sequence:
#
# PCOD9214977 Si02
#       6
#     8   8   8   8   8   8
#     4  12  25  43  66  98 137 176 227 280 337 399
#     4  10  22  40  66  98 135 177 222 278 334 397
#     4  12  25  43  68  97 135 176 227 277 337 402
#     4  12  26  43  66  99 131 180 223 276 334 396
#     4  10  23  45  73 102 137 178 223 278 340 410
#     4  10  22  42  69  99 134 174 224 275 335 406
#
# _framework density 21.864678999999999
#
# number of rings (size 3 to 8) (size 9 to 14) (size 15 to 20)
#    0.000    1.000    3.333    3.000    0.000    3.000 
#    0.000    3.333    0.000    0.000    0.000    0.000 
#    0.000    0.000    0.000    0.000    0.000    0.000 
#
# Total GULP energy -134194.732978 kJ/mol
# GULP energy per Si atom -5591.447207 kJ/mol
# Density = 2.181491 g / cm^3
# Si number density = 21.864679 Si / 1000 Ang^3
#
#
#
# Elastic Constant Matrix: (Units=GPa)
#
#
# Indices 1 2 3 4 5 6 
#
# 1 75.8839 12.1768 12.7507 0.0007 -12.5280 -0.0008
# 2 12.1768 58.5198 22.8896 0.0004 5.8687 -0.0005
# 3 12.7507 22.8896 89.8112 0.0001 5.0185 -0.0004
# 4 0.0007 0.0004 0.0001 33.9002 -0.0005 0.2575
# 5 -12.5280 5.8687 5.0185 -0.0005 49.0797 0.0007
# 6 -0.0008 -0.0005 -0.0004 0.2575 0.0007 31.0614
#
#
#
# Elastic Compliance Matrix: (Units=1/GPa)
#
#
# Indices 1 2 3 4 5 6 
#
# 1 0.014598 -0.002842 -0.001585 0.000000 0.004228 0.000000
# 2 -0.002842 0.019690 -0.004468 0.000000 -0.002623 0.000000
# 3 -0.001585 -0.004468 0.012563 0.000000 -0.001155 0.000000
# 4 0.000000 0.000000 0.000000 0.029500 0.000000 -0.000245
# 5 0.004228 -0.002623 -0.001155 0.000000 0.021886 0.000000
# 6 0.000000 0.000000 0.000000 -0.000245 0.000000 0.032196
#
#
# Mechanical properties :
#
#
# Convention : Reuss Voigt Hill
#
# Bulk Modulus (GPa) = 34.40916 35.53879 34.97397
# Shear Modulus (GPa) = 31.66347 34.56814 33.11580
#
# Velocity S-wave (km/s) = 3.80959 3.98050 3.89598
# Velocity P-wave (km/s) = 5.92640 6.11679 6.02234
#
# Compressibility (1/GPa) = 0.02906203
#
# Stress axis : x y z
#
# Youngs Moduli (GPa) = 68.50091 50.78631 79.60033
#
# Poissons Ratio (x) = 0.14433 0.12613
# Poissons Ratio (y) = 0.19467 0.35568
# Poissons Ratio (z) = 0.10854 0.22693
#
# Static dielectric constant tensor:
#      x y z
#    x 1.837530 0.000000 0.032160 
#    y 0.000000 1.963270 0.000000 
#    z 0.032160 0.000000 1.852030 
# 
# From -- ./inp_files/184769.got.cif
#   From: 2010.05.17/outbox.cif.g08.bks.cpg/sg12_93_cif.got.tgz:184769.got - 2010.06.03 13:09:07.
