data_PCOD9214593
_publ_section_title
;
Structure prediction by ZEFSAII (Michael W. Deem and Ramdas Pophale) SiO2 
 PCOD9214593
Probable space group: C 2/M
;
_chemical_formula_sum "Si O2"
_cell_formula_units_Z 56
_cell_length_a 14.247296
_cell_length_b 19.677173
_cell_length_c 10.758344
_cell_angle_alpha 90.000000
_cell_angle_beta 118.762415
_cell_angle_gamma 90.000000
_cell_volume 2643.949756
_symmetry_space_group_name_H-M "C 2/M"
_symmetry_group_IT_number 12
_symmetry_cell_setting 'monoclinic'
loop_
_space_group_symop_operation_xyz
x,y,z
-x,y,-z
-x,-y,-z
x,-y,z
1/2+x,1/2+y,z
1/2-x,1/2+y,-z
1/2-x,1/2-y,-z
1/2+x,1/2-y,z
loop_
_atom_site_type_symbol
_atom_site_label
_atom_site_fract_x
_atom_site_fract_y
_atom_site_fract_z
Si Si1 0.324899 0.713867 0.836916
Si Si2 0.050126 0.788630 0.837602
Si Si3 0.298101 0.921548 0.171182
Si Si4 0.999662 0.340637 0.648991
Si Si5 0.731483 0.812921 0.399911
Si Si6 0.375888 0.426809 0.456035
Si Si7 0.659941 0.574511 0.842072
O O1 0.434691 0.707567 0.829172
O O2 0.263426 0.641298 0.799253
O O3 0.266912 0.778093 0.735659
O O4 0.362792 0.729761 0.001010
O O5 0.046040 0.730355 0.731943
O O6 0.080934 0.862993 0.810634
O O7 0.421744 0.900909 0.259448
O O8 0.279661 0.000000 0.202310
O O9 0.254685 0.918583 0.001816
O O10 0.000000 0.338392 0.500000
O O11 0.882019 0.345934 0.635118
O O12 0.750000 0.750000 0.500000
O O13 0.827117 0.863615 0.492644
O O14 0.500000 0.419903 0.500000
O O15 0.361707 0.500000 0.508503
O O16 0.310848 0.426390 0.283996
O O17 0.609107 0.500000 0.834178
#
# Coordination Sequence:
#
# PCOD9214593 Si02
#       7
#     8   8   8   8   8   8   8
#     4   9  20  38  58  95 122 162 210 255 320 368
#     4   9  20  36  62  89 128 161 204 263 312 375
#     4  10  22  40  62  90 127 169 213 255 314 382
#     4  11  25  41  61  94 124 170 214 255 319 371
#     4  11  25  40  64  94 127 162 213 264 314 378
#     4  10  24  43  65  92 126 166 210 264 322 375
#     4   9  20  37  62  94 123 165 210 258 318 375
#
# _framework density 21.180433000000001
#
# number of rings (size 3 to 8) (size 9 to 14) (size 15 to 20)
#    0.000    2.143    0.000    0.857   10.000    2.571 
#    0.000    5.000    0.000    2.571    0.000    0.000 
#    0.000    0.000    0.000    0.000    0.000    0.000 
#
# Total GULP energy -156322.549261 kJ/mol
# GULP energy per Si atom -5582.948188 kJ/mol
# Density = 2.113223 g / cm^3
# Si number density = 21.180433 Si / 1000 Ang^3
#
#
#
# Elastic Constant Matrix: (Units=GPa)
#
#
# Indices 1 2 3 4 5 6 
#
# 1 51.5465 33.8218 -1.8720 0.0000 14.9165 0.0000
# 2 33.8218 133.5298 24.0092 0.0000 17.0595 0.0000
# 3 -1.8720 24.0092 62.3746 0.0000 2.8356 0.0000
# 4 0.0000 0.0000 0.0000 18.4060 0.0000 -0.0649
# 5 14.9165 17.0595 2.8356 0.0000 22.7762 0.0000
# 6 0.0000 0.0000 0.0000 -0.0649 0.0000 27.1515
#
#
#
# Elastic Compliance Matrix: (Units=1/GPa)
#
#
# Indices 1 2 3 4 5 6 
#
# 1 0.027418 -0.005813 0.003700 0.000000 -0.014063 0.000000
# 2 -0.005813 0.010080 -0.003906 0.000000 -0.003256 0.000000
# 3 0.003700 -0.003906 0.017724 0.000000 -0.001704 0.000000
# 4 0.000000 0.000000 0.000000 0.054331 0.000000 0.000130
# 5 -0.014063 -0.003256 -0.001704 0.000000 0.055767 0.000000
# 6 0.000000 0.000000 0.000000 0.000130 0.000000 0.036831
#
#
# Mechanical properties :
#
#
# Convention : Reuss Voigt Hill
#
# Bulk Modulus (GPa) = 23.15741 39.92988 31.54365
# Shear Modulus (GPa) = 21.87375 26.43286 24.15331
#
# Velocity S-wave (km/s) = 3.21710 3.53652 3.38058
# Velocity P-wave (km/s) = 4.97562 5.96398 5.49208
#
# Compressibility (1/GPa) = 0.04318272
#
# Stress axis : x y z
#
# Youngs Moduli (GPa) = 36.47195 99.20804 56.41976
#
# Poissons Ratio (x) = 0.57673 -0.20875
# Poissons Ratio (y) = 0.21203 0.22040
# Poissons Ratio (z) = -0.13494 0.38754
#
# Static dielectric constant tensor:
#      x y z
#    x 1.792410 0.000000 -0.005000 
#    y 0.000000 1.783580 0.000000 
#    z -0.005000 0.000000 1.844630 
# 
# From -- ./inp_files/146218.got.cif
#   From: 2010.05.17/outbox.cif.g08.bks.cpg/sg12_74_cif.got.tgz:146218.got - 2010.06.03 13:09:07.
