data_PCOD9214597
_publ_section_title
;
Structure prediction by ZEFSAII (Michael W. Deem and Ramdas Pophale) SiO2 
 PCOD9214597
Probable space group: C 2/M
;
_chemical_formula_sum "Si O2"
_cell_formula_units_Z 56
_cell_length_a 8.723370
_cell_length_b 18.297115
_cell_length_c 17.723626
_cell_angle_alpha 90.000000
_cell_angle_beta 65.064085
_cell_angle_gamma 90.000000
_cell_volume 2565.200883
_symmetry_space_group_name_H-M "C 2/M"
_symmetry_group_IT_number 12
_symmetry_cell_setting 'monoclinic'
loop_
_space_group_symop_operation_xyz
x,y,z
-x,y,-z
-x,-y,-z
x,-y,z
1/2+x,1/2+y,z
1/2-x,1/2+y,-z
1/2-x,1/2-y,-z
1/2+x,1/2-y,z
loop_
_atom_site_type_symbol
_atom_site_label
_atom_site_fract_x
_atom_site_fract_y
_atom_site_fract_z
Si Si1 0.209152 0.084760 0.123453
Si Si2 0.275838 0.185964 0.659702
Si Si3 0.356843 0.187794 0.213293
Si Si4 0.920446 0.204825 0.444208
Si Si5 0.147524 0.078104 0.880612
Si Si6 0.688270 0.826855 0.040282
Si Si7 0.477823 0.081116 0.708950
O O1 0.228644 0.139747 0.189732
O O2 0.014405 0.084253 0.138143
O O3 0.259690 0.000000 0.129463
O O4 0.312783 0.117732 0.030587
O O5 0.196537 0.231392 0.747523
O O6 0.137468 0.170821 0.623677
O O7 0.425904 0.240298 0.603687
O O8 0.379824 0.113481 0.658048
O O9 0.520187 0.185884 0.124599
O O10 0.398118 0.141250 0.280541
O O11 0.750000 0.250000 0.500000
O O12 0.000000 0.161591 0.500000
O O13 0.170307 0.142303 0.933520
O O14 0.322555 0.076345 0.799471
O O15 0.140564 0.000000 0.923016
O O16 0.750000 0.750000 0.000000
O O17 0.550562 0.000000 0.684064
#
# Coordination Sequence:
#
# PCOD9214597 Si02
#       7
#     8   8   8   8   8   8   8
#     4  11  24  40  60  85 120 167 219 274 331 376
#     4  11  21  39  67 100 126 165 205 265 305 370
#     4  11  25  39  60  92 124 163 217 270 315 371
#     4   9  20  39  67 102 129 160 204 247 305 385
#     4   9  21  40  60  79 110 159 212 263 315 381
#     4  11  25  39  56  82 120 165 214 268 320 373
#     4  10  22  40  62  90 129 170 208 254 319 382
#
# _framework density 21.830648
#
# number of rings (size 3 to 8) (size 9 to 14) (size 15 to 20)
#    0.000    1.714    1.429    1.714    8.000    4.571 
#    0.000    0.000    0.000    4.286    0.000    0.000 
#    0.000    0.000    0.000    0.000    0.000    0.000 
#
# Total GULP energy -156196.912401 kJ/mol
# GULP energy per Si atom -5578.461157 kJ/mol
# Density = 2.178096 g / cm^3
# Si number density = 21.830648 Si / 1000 Ang^3
#
#
#
# Elastic Constant Matrix: (Units=GPa)
#
#
# Indices 1 2 3 4 5 6 
#
# 1 90.4884 19.9745 15.0703 0.0000 22.4425 0.0000
# 2 19.9745 85.9859 1.4482 0.0000 17.5824 0.0000
# 3 15.0703 1.4482 47.2647 0.0000 10.5418 0.0000
# 4 0.0000 0.0000 0.0000 30.0830 0.0000 -53.4461
# 5 22.4425 17.5824 10.5418 0.0000 49.7825 0.0000
# 6 0.0000 0.0000 0.0000 -53.4461 0.0000 113.4134
#
#
#
# Elastic Compliance Matrix: (Units=1/GPa)
#
#
# Indices 1 2 3 4 5 6 
#
# 1 0.013154 -0.002075 -0.003119 0.000000 -0.004536 0.000000
# 2 -0.002075 0.012881 0.001126 0.000000 -0.003852 0.000000
# 3 -0.003119 0.001126 0.022978 0.000000 -0.003858 0.000000
# 4 0.000000 0.000000 0.000000 0.204228 0.000000 0.096243
# 5 -0.004536 -0.003852 -0.003858 0.000000 0.024310 0.000000
# 6 0.000000 0.000000 0.000000 0.096243 0.000000 0.054172
#
#
# Mechanical properties :
#
#
# Convention : Reuss Voigt Hill
#
# Bulk Modulus (GPa) = 24.46403 32.96942 28.71672
# Shear Modulus (GPa) = 14.14494 51.13886 32.64190
#
# Velocity S-wave (km/s) = 2.54823 4.84522 3.87102
# Velocity P-wave (km/s) = 4.45966 6.81444 5.75870
#
# Compressibility (1/GPa) = 0.04087634
#
# Stress axis : x y z
#
# Youngs Moduli (GPa) = 76.02373 77.63576 43.52050
#
# Poissons Ratio (x) = 0.16113 0.13573
# Poissons Ratio (y) = 0.15779 -0.04902
# Poissons Ratio (z) = 0.23709 -0.08744
#
# Static dielectric constant tensor:
#      x y z
#    x 1.828000 0.000000 0.038600 
#    y 0.000000 1.815730 0.000000 
#    z 0.038600 0.000000 1.914800 
# 
# From -- ./inp_files/257021.got.cif
#   From: 2010.05.17/outbox.cif.g08.bks.cpg/sg12_129_cif.got.tgz:257021.got - 2010.06.03 13:09:07.
