data_PCOD9214490
_publ_section_title
;
Structure prediction by ZEFSAII (Michael W. Deem and Ramdas Pophale) SiO2 
 PCOD9214490
Probable space group: C 2/M
;
_chemical_formula_sum "Si O2"
_cell_formula_units_Z 48
_cell_length_a 16.819746
_cell_length_b 27.954185
_cell_length_c 16.938933
_cell_angle_alpha 90.000000
_cell_angle_beta 162.803149
_cell_angle_gamma 90.000000
_cell_volume 2354.714998
_symmetry_space_group_name_H-M "C 2/M"
_symmetry_group_IT_number 12
_symmetry_cell_setting 'monoclinic'
loop_
_space_group_symop_operation_xyz
x,y,z
-x,y,-z
-x,-y,-z
x,-y,z
1/2+x,1/2+y,z
1/2-x,1/2+y,-z
1/2-x,1/2-y,-z
1/2+x,1/2-y,z
loop_
_atom_site_type_symbol
_atom_site_label
_atom_site_fract_x
_atom_site_fract_y
_atom_site_fract_z
Si Si1 0.713935 0.373831 0.017993
Si Si2 0.290011 0.945190 0.234480
Si Si3 0.667283 0.267739 0.009144
Si Si4 0.792195 0.555167 0.737584
Si Si5 0.214521 0.875189 0.518492
Si Si6 0.115837 0.217898 0.524207
O O1 0.503141 0.391942 0.752363
O O2 0.768521 0.411669 0.138420
O O3 0.598086 0.323615 0.939769
O O4 0.002427 0.362534 0.253065
O O5 0.500000 0.928001 0.500000
O O6 0.366206 0.000000 0.285188
O O7 0.000000 0.946259 0.000000
O O8 0.925211 0.258707 0.307865
O O9 0.750000 0.250000 0.000000
O O10 0.420100 0.237005 0.808839
O O11 0.500000 0.555449 0.500000
O O12 0.869343 0.500000 0.793812
O O13 0.777800 0.585672 0.644962
O O14 0.000000 0.574661 0.000000
O O15 0.098886 0.828328 0.452057
O O16 0.000000 0.205501 0.500000
#
# Coordination Sequence:
#
# PCOD9214490 Si02
#       6
#     8   8   8   8   8   8
#     4  12  25  39  69  94 124 169 211 255 331 382
#     4  10  23  45  68  93 129 165 208 271 329 383
#     4  12  23  44  63  88 133 172 207 268 323 372
#     4  10  22  40  61  87 125 168 206 254 309 364
#     4  12  23  40  63  95 127 166 206 266 311 379
#     4  12  25  41  65  94 125 171 217 257 315 382
#
# _framework density 20.384632
#
# number of rings (size 3 to 8) (size 9 to 14) (size 15 to 20)
#    0.000    0.667    3.333    4.500    0.000    4.667 
#    0.000    0.000    0.000    0.000    0.000    0.000 
#    0.000    0.000    0.000    0.000    0.000    0.000 
#
# Total GULP energy -134269.785715 kJ/mol
# GULP energy per Si atom -5594.574405 kJ/mol
# Density = 2.033824 g / cm^3
# Si number density = 20.384632 Si / 1000 Ang^3
#
#
#
# Elastic Constant Matrix: (Units=GPa)
#
#
# Indices 1 2 3 4 5 6 
#
# 1 101.6107 45.2354 37.2188 -0.9781 -9.3819 -2.8359
# 2 45.2354 85.7729 15.4471 -1.1566 -28.9720 -3.3755
# 3 37.2188 15.4471 127.7212 -4.1828 -19.9576 -12.1980
# 4 -0.9781 -1.1566 -4.1828-2970.6207 -0.6403-8801.0538
# 5 -9.3819 -28.9720 -19.9576 -0.6403 44.5964 -1.8824
# 6 -2.8359 -3.3755 -12.1980-8801.0538 -1.8824**********
#
#
#
# Elastic Compliance Matrix: (Units=1/GPa)
#
#
# Indices 1 2 3 4 5 6 
#
# 1 0.014629 -0.008408 -0.003891 0.000002 -0.004126 0.000001
# 2 -0.008408 0.019780 0.001924 -0.000002 0.011942 -0.000003
# 3 -0.003891 0.001924 0.009459 0.000000 0.004664 -0.000005
# 4 0.000002 -0.000002 0.000000 0.023004 -0.000003 -0.007878
# 5 -0.004126 0.011942 0.004664 -0.000003 0.031400 -0.000005
# 6 0.000001 -0.000003 -0.000005 -0.007878 -0.000005 0.002659
#
#
# Mechanical properties :
#
#
# Convention : Reuss Voigt Hill
#
# Bulk Modulus (GPa) = 43.25623 56.76751 50.01187
# Shear Modulus (GPa) = 38.64380 -5710.48616 -2835.92118
#
# Velocity S-wave (km/s) = 4.35872 -52.98537 -37.33933
# Velocity P-wave (km/s) = 6.82623 60.95373 42.82966
#
# Compressibility (1/GPa) = 0.02311806
#
# Stress axis : x y z
#
# Youngs Moduli (GPa) = 68.35902 50.55623 105.71957
#
# Poissons Ratio (x) = 0.42506 0.41130
# Poissons Ratio (y) = 0.57475 -0.20335
# Poissons Ratio (z) = 0.26595 -0.09725
#
# Static dielectric constant tensor:
#      x y z
#    x 1.708650 0.000000 -0.004720 
#    y 0.000000 1.717100 0.000000 
#    z -0.004720 0.000000 1.705360 
# 
# From -- ./inp_files/219532.got.cif
#   From: 2010.05.17/outbox.cif.g08.bks.cpg/sg12_110_cif.got.tgz:219532.got - 2010.06.03 13:09:07.
