data_PCOD9214124
_publ_section_title
;
Structure prediction by ZEFSAII (Michael W. Deem and Ramdas Pophale) SiO2 
 PCOD9214124
Probable space group: C 2/M
;
_chemical_formula_sum "Si O2"
_cell_formula_units_Z 24
_cell_length_a 9.243215
_cell_length_b 11.025330
_cell_length_c 9.275396
_cell_angle_alpha 90.000000
_cell_angle_beta 87.024585
_cell_angle_gamma 90.000000
_cell_volume 943.976635
_symmetry_space_group_name_H-M "C 2/M"
_symmetry_group_IT_number 12
_symmetry_cell_setting 'monoclinic'
loop_
_space_group_symop_operation_xyz
x,y,z
-x,y,-z
-x,-y,-z
x,-y,z
1/2+x,1/2+y,z
1/2-x,1/2+y,-z
1/2-x,1/2-y,-z
1/2+x,1/2-y,z
loop_
_atom_site_type_symbol
_atom_site_label
_atom_site_fract_x
_atom_site_fract_y
_atom_site_fract_z
Si Si1 0.663700 0.868866 0.550660
Si Si2 0.794806 0.862768 0.102999
Si Si3 0.494311 0.176686 0.166169
O O1 0.500000 0.860220 0.500000
O O2 0.750000 0.750000 0.500000
O O3 0.631643 0.870498 0.724776
O O4 0.728830 0.000000 0.507354
O O5 0.653805 0.856484 0.213999
O O6 0.948107 0.818277 0.158582
O O7 0.805068 0.000000 0.048413
O O8 0.750000 0.750000 0.000000
O O9 0.500000 0.130328 0.000000
#
# Coordination Sequence:
#
# PCOD9214124 Si02
#       3
#     8   8   8
#     4  11  25  45  67  94 132 175 219 270 329 395
#     4  10  22  39  62  96 134 169 212 268 327 386
#     4  10  22  41  68  96 128 169 217 270 325 383
#
# _framework density 25.424358000000002
#
# number of rings (size 3 to 8) (size 9 to 14) (size 15 to 20)
#    0.000    1.667    0.000    3.000    0.000   22.667 
#    0.000    3.333    0.000    0.000    0.000    0.000 
#    0.000    0.000    0.000    0.000    0.000    0.000 
#
# Total GULP energy -66852.236436 kJ/mol
# GULP energy per Si atom -5571.019703 kJ/mol
# Density = 2.536649 g / cm^3
# Si number density = 25.424358 Si / 1000 Ang^3
#
#
#
# Elastic Constant Matrix: (Units=GPa)
#
#
# Indices 1 2 3 4 5 6 
#
# 1 73.8761 66.8093 13.2483 0.0000 -13.4398 0.0000
# 2 66.8093 286.7709 56.8611 0.0000 -22.2579 0.0000
# 3 13.2483 56.8611 119.9482 0.0000 -18.7332 0.0000
# 4 0.0000 0.0000 0.0000 23.3827 0.0000 3.1844
# 5 -13.4398 -22.2579 -18.7332 0.0000 37.5467 0.0000
# 6 0.0000 0.0000 0.0000 3.1844 0.0000 25.8064
#
#
#
# Elastic Compliance Matrix: (Units=1/GPa)
#
#
# Indices 1 2 3 4 5 6 
#
# 1 0.017761 -0.003915 0.000569 0.000000 0.004320 0.000000
# 2 -0.003915 0.004790 -0.001750 0.000000 0.000565 0.000000
# 3 0.000569 -0.001750 0.009732 0.000000 0.004022 0.000000
# 4 0.000000 0.000000 0.000000 0.043498 0.000000 -0.005367
# 5 0.004320 0.000565 0.004022 0.000000 0.030522 0.000000
# 6 0.000000 0.000000 0.000000 -0.005367 0.000000 0.039412
#
#
# Mechanical properties :
#
#
# Convention : Reuss Voigt Hill
#
# Bulk Modulus (GPa) = 45.26884 83.82584 64.54734
# Shear Modulus (GPa) = 30.62407 40.25892 35.44150
#
# Velocity S-wave (km/s) = 3.47438 3.98361 3.73768
# Velocity P-wave (km/s) = 5.82572 7.36214 6.63853
#
# Compressibility (1/GPa) = 0.02209025
#
# Stress axis : x y z
#
# Youngs Moduli (GPa) = 56.30367 208.76396 102.75601
#
# Poissons Ratio (x) = 0.81737 -0.05848
# Poissons Ratio (y) = 0.22044 0.17983
# Poissons Ratio (z) = -0.03204 0.36535
#
# Static dielectric constant tensor:
#      x y z
#    x 2.205470 0.000000 0.089020 
#    y 0.000000 2.032290 0.000000 
#    z 0.089020 0.000000 2.269110 
# 
# From -- ./inp_files/126352.got.cif
#   From: 2010.05.17/outbox.cif.g08.bks.cpg/sg12_64_cif.got.tgz:126352.got - 2010.06.03 13:09:07.
