data_PCOD9214912
_publ_section_title
;
Structure prediction by ZEFSAII (Michael W. Deem and Ramdas Pophale) SiO2 
 PCOD9214912
Probable space group: C 2/M
;
_chemical_formula_sum "Si O2"
_cell_formula_units_Z 48
_cell_length_a 8.098818
_cell_length_b 13.679942
_cell_length_c 19.837531
_cell_angle_alpha 90.000000
_cell_angle_beta 73.329818
_cell_angle_gamma 90.000000
_cell_volume 2105.456584
_symmetry_space_group_name_H-M "C 2/M"
_symmetry_group_IT_number 12
_symmetry_cell_setting 'monoclinic'
loop_
_space_group_symop_operation_xyz
x,y,z
-x,y,-z
-x,-y,-z
x,-y,z
1/2+x,1/2+y,z
1/2-x,1/2+y,-z
1/2-x,1/2-y,-z
1/2+x,1/2-y,z
loop_
_atom_site_type_symbol
_atom_site_label
_atom_site_fract_x
_atom_site_fract_y
_atom_site_fract_z
Si Si1 0.642687 0.696980 0.929251
Si Si2 0.913242 0.199862 0.446999
Si Si3 0.221564 0.696674 0.345669
Si Si4 0.918193 0.885990 0.209888
Si Si5 0.754039 0.387212 0.260680
Si Si6 0.023035 0.612486 0.896309
O O1 0.587650 0.667857 0.860183
O O2 0.828355 0.651520 0.921324
O O3 0.640873 0.815059 0.926526
O O4 0.500000 0.665406 0.000000
O O5 0.750000 0.250000 0.500000
O O6 0.844972 0.148718 0.387763
O O7 0.000000 0.145180 0.500000
O O8 0.040863 0.283368 0.402889
O O9 0.248694 0.637272 0.274178
O O10 0.275395 0.807117 0.316374
O O11 0.082985 0.859642 0.237008
O O12 0.930587 0.000000 0.194379
O O13 0.736673 0.500000 0.285661
O O14 0.908242 0.382493 0.188671
O O15 0.036013 0.500000 0.915624
#
# Coordination Sequence:
#
# PCOD9214912 Si02
#       6
#     8   8   8   8   8   8
#     4  12  26  46  69  97 140 185 227 291 356 408
#     4   9  20  36  62  96 128 168 211 253 330 407
#     4  11  19  38  67  90 126 171 212 272 323 393
#     4  11  24  41  66  97 129 173 233 285 340 406
#     4  10  22  40  65  97 126 166 221 277 337 395
#     4  11  25  44  68  99 135 177 231 286 347 415
#
# _framework density 22.797906000000001
#
# number of rings (size 3 to 8) (size 9 to 14) (size 15 to 20)
#    0.000    1.333    3.333    2.000    2.333    1.667 
#    0.000    2.500    0.000   20.000    0.000    0.000 
#    0.000    0.000    0.000    0.000    0.000    0.000 
#
# Total GULP energy -134088.735682 kJ/mol
# GULP energy per Si atom -5587.030653 kJ/mol
# Density = 2.274602 g / cm^3
# Si number density = 22.797906 Si / 1000 Ang^3
#
#
#
# Elastic Constant Matrix: (Units=GPa)
#
#
# Indices 1 2 3 4 5 6 
#
# 1 59.1615 20.0310 49.6980 0.0000 -17.0653 0.0000
# 2 20.0310 90.2660 26.6290 0.0000 3.9851 0.0000
# 3 49.6980 26.6290 159.5773 0.0000 -7.3906 0.0000
# 4 0.0000 0.0000 0.0000 -11.5087 0.0000 0.3587
# 5 -17.0653 3.9851 -7.3906 0.0000 47.9529 0.0000
# 6 0.0000 0.0000 0.0000 0.3587 0.0000 25.1050
#
#
#
# Elastic Compliance Matrix: (Units=1/GPa)
#
#
# Indices 1 2 3 4 5 6 
#
# 1 0.027017 -0.004233 -0.007298 0.000000 0.008842 0.000000
# 2 -0.004233 0.012393 -0.000874 0.000000 -0.002671 0.000000
# 3 -0.007298 -0.000874 0.008630 0.000000 -0.001195 0.000000
# 4 0.000000 0.000000 0.000000 -0.086852 0.000000 0.001241
# 5 0.008842 -0.002671 -0.001195 0.000000 0.024038 0.000000
# 6 0.000000 0.000000 0.000000 0.001241 0.000000 0.039815
#
#
# Mechanical properties :
#
#
# Convention : Reuss Voigt Hill
#
# Bulk Modulus (GPa) = 43.04541 55.74677 49.39609
# Shear Modulus (GPa) = 86.81368 26.48630 56.64999
#
# Velocity S-wave (km/s) = 6.17757 3.41220 4.99026
# Velocity P-wave (km/s) = 8.35496 6.32691 7.41064
#
# Compressibility (1/GPa) = 0.02323128
#
# Stress axis : x y z
#
# Youngs Moduli (GPa) = 37.01331 80.68888 115.87540
#
# Poissons Ratio (x) = 0.34154 0.84570
# Poissons Ratio (y) = 0.15667 0.10122
# Poissons Ratio (z) = 0.27014 0.07049
#
# Static dielectric constant tensor:
#      x y z
#    x 1.931220 0.000000 0.025200 
#    y 0.000000 1.813730 0.000000 
#    z 0.025200 0.000000 1.872460 
# 
# From -- ./inp_files/299788.got.cif
#   From: 2010.05.17/outbox.cif.g08.bks.cpg/sg12_150_cif.got.tgz:299788.got - 2010.06.03 13:09:07.
