data_PCOD9214408
_publ_section_title
;
Structure prediction by ZEFSAII (Michael W. Deem and Ramdas Pophale) SiO2 
 PCOD9214408
Probable space group: C 2/M
;
_chemical_formula_sum "Si O2"
_cell_formula_units_Z 32
_cell_length_a 8.823137
_cell_length_b 14.596940
_cell_length_c 11.164775
_cell_angle_alpha 90.000000
_cell_angle_beta 67.747375
_cell_angle_gamma 90.000000
_cell_volume 1330.828551
_symmetry_space_group_name_H-M "C 2/M"
_symmetry_group_IT_number 12
_symmetry_cell_setting 'monoclinic'
loop_
_space_group_symop_operation_xyz
x,y,z
-x,y,-z
-x,-y,-z
x,-y,z
1/2+x,1/2+y,z
1/2-x,1/2+y,-z
1/2-x,1/2-y,-z
1/2+x,1/2-y,z
loop_
_atom_site_type_symbol
_atom_site_label
_atom_site_fract_x
_atom_site_fract_y
_atom_site_fract_z
Si Si1 0.453642 0.289134 0.876330
Si Si2 0.569770 0.102356 0.230102
Si Si3 0.209982 0.721533 0.376782
Si Si4 0.188904 0.901228 0.268147
O O1 0.376870 0.189477 0.866893
O O2 0.622233 0.292687 0.748703
O O3 0.339884 0.370418 0.859776
O O4 0.500000 0.295475 0.000000
O O5 0.602609 0.137277 0.356457
O O6 0.377780 0.094786 0.252847
O O7 0.640277 0.000000 0.191172
O O8 0.250000 0.750000 0.500000
O O9 0.121951 0.813580 0.356624
O O10 0.112840 0.000000 0.314082
#
# Coordination Sequence:
#
# PCOD9214408 Si02
#       4
#     8   8   8   8
#     4  10  22  40  60  85 120 158 197 243 295 351
#     4   9  20  38  61  88 118 154 198 246 295 349
#     4  10  22  40  60  86 118 154 195 243 297 353
#     4   9  20  38  60  87 119 156 198 244 295 351
#
# _framework density 24.045169999999999
#
# number of rings (size 3 to 8) (size 9 to 14) (size 15 to 20)
#    0.000    2.500    0.000    0.000    0.000   21.000 
#    0.000   12.500    0.000    0.000    0.000    0.000 
#    0.000    0.000    0.000    0.000    0.000    0.000 
#
# Total GULP energy -89161.110995 kJ/mol
# GULP energy per Si atom -5572.569437 kJ/mol
# Density = 2.399044 g / cm^3
# Si number density = 24.045170 Si / 1000 Ang^3
#
#
#
# Elastic Constant Matrix: (Units=GPa)
#
#
# Indices 1 2 3 4 5 6 
#
# 1 114.1575 37.0416 76.5417 0.0000 26.8533 0.0000
# 2 37.0416 157.7744 11.3795 0.0000 35.2174 0.0000
# 3 76.5417 11.3795 169.3450 0.0000 47.5461 0.0000
# 4 0.0000 0.0000 0.0000 -5.2078 0.0000 0.7445
# 5 26.8533 35.2174 47.5461 0.0000 54.6649 0.0000
# 6 0.0000 0.0000 0.0000 0.7445 0.0000 11.3804
#
#
#
# Elastic Compliance Matrix: (Units=1/GPa)
#
#
# Indices 1 2 3 4 5 6 
#
# 1 0.013690 -0.002873 -0.006121 0.000000 0.000450 0.000000
# 2 -0.002873 0.008168 0.002422 0.000000 -0.005958 0.000000
# 3 -0.006121 0.002422 0.010721 0.000000 -0.007879 0.000000
# 4 0.000000 0.000000 0.000000 -0.190240 0.000000 0.012446
# 5 0.000450 -0.005958 -0.007879 0.000000 0.028763 0.000000
# 6 0.000000 0.000000 0.000000 0.012446 0.000000 0.087056
#
#
# Mechanical properties :
#
#
# Convention : Reuss Voigt Hill
#
# Bulk Modulus (GPa) = 51.45147 76.80028 64.12587
# Shear Modulus (GPa) = -225.03180 33.25510 -95.88835
#
# Velocity S-wave (km/s) = -9.68454 3.72294 -6.32179
# Velocity P-wave (km/s) = 10.17887 7.10561 5.15362
#
# Compressibility (1/GPa) = 0.01943579
#
# Stress axis : x y z
#
# Youngs Moduli (GPa) = 73.04367 122.43192 93.27478
#
# Poissons Ratio (x) = 0.35176 0.57094
# Poissons Ratio (y) = 0.20986 -0.22595
# Poissons Ratio (z) = 0.44711 -0.29658
#
# Static dielectric constant tensor:
#      x y z
#    x 2.053060 0.000000 -0.019450 
#    y 0.000000 1.943970 0.000000 
#    z -0.019450 0.000000 2.045100 
# 
# From -- ./inp_files/117740.got.cif
#   From: 2010.05.17/outbox.cif.g08.bks.cpg/sg12_59_cif.got.tgz:117740.got - 2010.06.03 13:09:07.
