data_PCOD9214796
_publ_section_title
;
Structure prediction by ZEFSAII (Michael W. Deem and Ramdas Pophale) SiO2 
 PCOD9214796
Probable space group: C 2/M
;
_chemical_formula_sum "Si O2"
_cell_formula_units_Z 48
_cell_length_a 14.289253
_cell_length_b 26.246295
_cell_length_c 9.423516
_cell_angle_alpha 90.000000
_cell_angle_beta 45.989855
_cell_angle_gamma 90.000000
_cell_volume 2541.852359
_symmetry_space_group_name_H-M "C 2/M"
_symmetry_group_IT_number 12
_symmetry_cell_setting 'monoclinic'
loop_
_space_group_symop_operation_xyz
x,y,z
-x,y,-z
-x,-y,-z
x,-y,z
1/2+x,1/2+y,z
1/2-x,1/2+y,-z
1/2-x,1/2-y,-z
1/2+x,1/2-y,z
loop_
_atom_site_type_symbol
_atom_site_label
_atom_site_fract_x
_atom_site_fract_y
_atom_site_fract_z
Si Si1 0.481393 0.864914 0.686211
Si Si2 0.256286 0.439942 0.101185
Si Si3 0.486211 0.560965 0.348359
Si Si4 0.773500 0.888673 0.381179
Si Si5 0.647637 0.274003 0.714743
Si Si6 0.120284 0.735260 0.053093
O O1 0.500000 0.849078 0.500000
O O2 0.371638 0.908195 0.804142
O O3 0.622467 0.885016 0.584339
O O4 0.431951 0.818328 0.833256
O O5 0.232872 0.500000 0.112905
O O6 0.286608 0.425202 0.231634
O O7 0.380292 0.426241 0.874376
O O8 0.500000 0.571804 0.500000
O O9 0.464646 0.500000 0.353918
O O10 0.367793 0.591375 0.403624
O O11 0.814118 0.831752 0.291481
O O12 0.750000 0.250000 0.500000
O O13 0.503492 0.272742 0.799665
O O14 0.648225 0.239847 0.856120
O O15 0.250000 0.750000 0.000000
#
# Coordination Sequence:
#
# PCOD9214796 Si02
#       6
#     8   8   8   8   8   8
#     4  10  22  40  64  93 125 160 209 256 309 370
#     4  10  22  40  67  96 123 158 207 257 309 371
#     4  10  23  42  62  91 126 160 205 254 309 373
#     4  11  22  40  65  91 124 164 202 259 308 365
#     4  11  25  43  60  92 129 160 212 255 303 373
#     4  11  24  40  64  87 121 170 202 259 303 364
#
# _framework density 18.883868
#
# number of rings (size 3 to 8) (size 9 to 14) (size 15 to 20)
#    0.000    1.500    1.667    3.000    7.000    6.333 
#    0.000    0.000    0.000    3.000    0.000    0.000 
#    0.000    0.000    0.000    0.000    0.000    0.000 
#
# Total GULP energy -134082.617630 kJ/mol
# GULP energy per Si atom -5586.775735 kJ/mol
# Density = 1.884089 g / cm^3
# Si number density = 18.883868 Si / 1000 Ang^3
#
#
#
# Elastic Constant Matrix: (Units=GPa)
#
#
# Indices 1 2 3 4 5 6 
#
# 1 147.5478 57.4157 87.4903 0.0000 -21.3634 0.0000
# 2 57.4157 61.2128 44.8641 0.0000 2.0668 0.0000
# 3 87.4903 44.8641 137.4925 0.0000 -8.9260 0.0000
# 4 0.0000 0.0000 0.0000 29.3617 0.0000 1.0960
# 5 -21.3634 2.0668 -8.9260 0.0000 22.2497 0.0000
# 6 0.0000 0.0000 0.0000 1.0960 0.0000 34.9551
#
#
#
# Elastic Compliance Matrix: (Units=1/GPa)
#
#
# Indices 1 2 3 4 5 6 
#
# 1 0.017447 -0.012471 -0.006027 0.000000 0.015493 0.000000
# 2 -0.012471 0.030926 -0.003203 0.000000 -0.016132 0.000000
# 3 -0.006027 -0.003203 0.012113 0.000000 -0.000630 0.000000
# 4 0.000000 0.000000 0.000000 0.034098 0.000000 -0.001069
# 5 0.015493 -0.016132 -0.000630 0.000000 0.061066 0.000000
# 6 0.000000 0.000000 0.000000 -0.001069 0.000000 0.028642
#
#
# Mechanical properties :
#
#
# Convention : Reuss Voigt Hill
#
# Bulk Modulus (GPa) = 58.53442 80.64371 69.58906
# Shear Modulus (GPa) = 21.42362 27.74549 24.58455
#
# Velocity S-wave (km/s) = 3.37188 3.83726 3.61207
# Velocity P-wave (km/s) = 6.79881 7.90130 7.37070
#
# Compressibility (1/GPa) = 0.01708397
#
# Stress axis : x y z
#
# Youngs Moduli (GPa) = 57.31542 32.33553 82.55853
#
# Poissons Ratio (x) = 0.40325 0.49760
# Poissons Ratio (y) = 0.71476 0.26443
# Poissons Ratio (z) = 0.34545 0.10357
#
# Static dielectric constant tensor:
#      x y z
#    x 1.509600 0.000000 -0.056710 
#    y 0.000000 1.645340 0.000000 
#    z -0.056710 0.000000 1.630980 
# 
# From -- ./inp_files/67307.got.cif
#   From: 2010.05.17/outbox.cif.g08.bks.cpg/sg12_34_cif.got.tgz:67307.got - 2010.06.03 13:09:07.
