data_PCOD9214550
_publ_section_title
;
Structure prediction by ZEFSAII (Michael W. Deem and Ramdas Pophale) SiO2 
 PCOD9214550
Probable space group: C 2/M
;
_chemical_formula_sum "Si O2"
_cell_formula_units_Z 58
_cell_length_a 8.960007
_cell_length_b 24.249172
_cell_length_c 20.336815
_cell_angle_alpha 90.000000
_cell_angle_beta 137.060320
_cell_angle_gamma 90.000000
_cell_volume 3010.098501
_symmetry_space_group_name_H-M "C 2/M"
_symmetry_group_IT_number 12
_symmetry_cell_setting 'monoclinic'
loop_
_space_group_symop_operation_xyz
x,y,z
-x,y,-z
-x,-y,-z
x,-y,z
1/2+x,1/2+y,z
1/2-x,1/2+y,-z
1/2-x,1/2-y,-z
1/2+x,1/2-y,z
loop_
_atom_site_type_symbol
_atom_site_label
_atom_site_fract_x
_atom_site_fract_y
_atom_site_fract_z
Si Si1 0.283724 0.199770 0.386878
Si Si2 0.205974 0.934244 0.613062
Si Si3 0.651034 0.874967 0.721684
Si Si4 0.252750 0.208660 0.940681
Si Si5 0.518555 0.788788 0.233884
Si Si6 0.876717 0.093100 0.133960
Si Si7 0.000000 0.500000 0.000000
Si Si8 0.148698 0.136274 0.725235
O O1 0.500000 0.202430 0.500000
O O2 0.331833 0.163499 0.337247
O O3 0.196914 0.260364 0.339083
O O4 0.079845 0.168906 0.355454
O O5 0.426169 0.908789 0.653232
O O6 0.171413 0.907553 0.673725
O O7 0.000000 0.921208 0.500000
O O8 0.224658 0.000000 0.624676
O O9 0.633789 0.831597 0.776491
O O10 0.861766 0.915323 0.790520
O O11 0.160198 0.147999 0.921262
O O12 0.116147 0.238432 0.839379
O O13 0.500000 0.200997 0.000000
O O14 0.250000 0.250000 0.000000
O O15 0.651941 0.821220 0.221133
O O16 0.696032 0.047781 0.059549
O O17 0.843432 0.109404 0.200165
#
# Coordination Sequence:
#
# PCOD9214550 Si02
#       8
#     8   8   8   8   8   8   2   8
#     4  11  22  35  60  95 133 171 206 250 316 396
#     4  10  22  40  63  89 118 167 224 267 313 380
#     4  10  22  40  63  87 131 164 207 260 328 380
#     4  12  23  38  65  92 123 162 211 262 322 384
#     4  11  22  38  60  93 130 163 207 258 320 400
#     4  11  24  44  65  94 123 168 212 272 322 395
#     4  12  28  44  68  94 126 160 232 272 340 384
#     4  10  22  40  62  86 133 165 208 261 328 384
#
# _framework density 19.268471999999999
#
# number of rings (size 3 to 8) (size 9 to 14) (size 15 to 20)
#    0.000    1.241    3.448    3.310    1.931    4.414 
#    0.000    0.000    0.000    7.448    0.000    0.000 
#    0.000    0.000    0.000    0.000    0.000    0.000 
#
# Total GULP energy -161738.222908 kJ/mol
# GULP energy per Si atom -5577.180100 kJ/mol
# Density = 1.922462 g / cm^3
# Si number density = 19.268472 Si / 1000 Ang^3
#
#
#
# Elastic Constant Matrix: (Units=GPa)
#
#
# Indices 1 2 3 4 5 6 
#
# 1 113.3910 34.6353 33.8243 0.0000 26.4261 0.0000
# 2 34.6353 98.2782 40.5488 0.0000 17.3182 0.0000
# 3 33.8243 40.5488 83.4089 0.0001 25.3729 -0.0001
# 4 0.0000 0.0000 0.0001 -2.0458 0.0000 35.7409
# 5 26.4261 17.3182 25.3729 0.0000 31.8650 0.0000
# 6 0.0000 0.0000 -0.0001 35.7409 0.0000 4.1901
#
#
#
# Elastic Compliance Matrix: (Units=1/GPa)
#
#
# Indices 1 2 3 4 5 6 
#
# 1 0.011622 -0.002228 -0.001407 0.000000 -0.007307 0.000000
# 2 -0.002228 0.013324 -0.005190 0.000000 -0.001261 0.000000
# 3 -0.001407 -0.005190 0.018303 0.000000 -0.010586 0.000000
# 4 0.000000 0.000000 0.000000 -0.003258 0.000000 0.027793
# 5 -0.007307 -0.001261 -0.010586 0.000000 0.046557 0.000000
# 6 0.000000 0.000000 0.000000 0.027793 0.000000 0.001591
#
#
# Mechanical properties :
#
#
# Convention : Reuss Voigt Hill
#
# Bulk Modulus (GPa) = 39.06400 57.01055 48.03728
# Shear Modulus (GPa) = 43.73563 19.20651 31.47107
#
# Velocity S-wave (km/s) = 4.76941 3.16061 4.04579
# Velocity P-wave (km/s) = 7.11669 6.55523 6.84172
#
# Compressibility (1/GPa) = 0.02559902
#
# Stress axis : x y z
#
# Youngs Moduli (GPa) = 86.04208 75.05245 54.63439
#
# Poissons Ratio (x) = 0.16719 0.07689
# Poissons Ratio (y) = 0.19167 0.28358
# Poissons Ratio (z) = 0.12109 0.38955
#
# Static dielectric constant tensor:
#      x y z
#    x 1.675900 0.000000 -0.004320 
#    y 0.000000 1.687640 0.000000 
#    z -0.004320 0.000000 1.693360 
# 
# From -- ./inp_files/198427.got.cif
#   From: 2010.05.17/outbox.cif.g08.bks.cpg/sg12_100_cif.got.tgz:198427.got - 2010.06.03 13:09:07.
