data_PCOD9214976
_publ_section_title
;
Structure prediction by ZEFSAII (Michael W. Deem and Ramdas Pophale) SiO2 
 PCOD9214976
Probable space group: C 2/M
;
_chemical_formula_sum "Si O2"
_cell_formula_units_Z 36
_cell_length_a 9.511206
_cell_length_b 16.821701
_cell_length_c 9.978258
_cell_angle_alpha 90.000000
_cell_angle_beta 62.506500
_cell_angle_gamma 90.000000
_cell_volume 1416.168058
_symmetry_space_group_name_H-M "C 2/M"
_symmetry_group_IT_number 12
_symmetry_cell_setting 'monoclinic'
loop_
_space_group_symop_operation_xyz
x,y,z
-x,y,-z
-x,-y,-z
x,-y,z
1/2+x,1/2+y,z
1/2-x,1/2+y,-z
1/2-x,1/2-y,-z
1/2+x,1/2-y,z
loop_
_atom_site_type_symbol
_atom_site_label
_atom_site_fract_x
_atom_site_fract_y
_atom_site_fract_z
Si Si1 0.769309 0.586620 0.671848
Si Si2 0.769815 0.754065 0.653419
Si Si3 0.000000 0.286497 0.000000
Si Si4 0.723211 0.914660 0.031169
Si Si5 0.561387 0.588646 0.313610
O O1 0.844036 0.500000 0.615462
O O2 0.858988 0.670330 0.638529
O O3 0.710157 0.583849 0.850169
O O4 0.625559 0.593523 0.630562
O O5 0.750000 0.750000 0.500000
O O6 0.619423 0.750897 0.828741
O O7 0.861720 0.835099 0.649336
O O8 0.888514 0.341929 0.957421
O O9 0.637377 0.000000 0.050970
O O10 0.863906 0.910156 0.865587
O O11 0.603782 0.500000 0.349153
#
# Coordination Sequence:
#
# PCOD9214976 Si02
#       5
#     8   8   4   8   8
#     4  10  22  40  66  98 133 177 225 276 331 393
#     4  11  26  43  66  98 135 174 226 275 332 400
#     4  10  23  40  67  96 134 178 220 272 344 394
#     4   9  18  36  64  99 133 171 222 275 333 402
#     4   9  20  40  68  97 132 176 223 277 335 395
#
# _framework density 25.420711000000001
#
# number of rings (size 3 to 8) (size 9 to 14) (size 15 to 20)
#    0.000    2.222    0.000    1.000    6.222    7.111 
#    0.000    2.222    0.000    2.667    0.000    0.000 
#    0.000    0.000    0.000    0.000    0.000    0.000 
#
# Total GULP energy -100230.095950 kJ/mol
# GULP energy per Si atom -5568.338664 kJ/mol
# Density = 2.536285 g / cm^3
# Si number density = 25.420711 Si / 1000 Ang^3
#
#
#
# Elastic Constant Matrix: (Units=GPa)
#
#
# Indices 1 2 3 4 5 6 
#
# 1 67.5866 58.1542 61.1669 0.0000 -8.2998 0.0000
# 2 58.1542 238.7982 80.2156 0.0000 9.1186 0.0000
# 3 61.1669 80.2156 194.2742 0.0000 -4.1801 0.0000
# 4 0.0000 0.0000 0.0000 17.3729 0.0000 34.5970
# 5 -8.2998 9.1186 -4.1801 0.0000 49.4073 0.0000
# 6 0.0000 0.0000 0.0000 34.5970 0.0000 -4.7385
#
#
#
# Elastic Compliance Matrix: (Units=1/GPa)
#
#
# Indices 1 2 3 4 5 6 
#
# 1 0.024092 -0.004081 -0.005808 0.000000 0.004309 0.000000
# 2 -0.004081 0.005610 -0.001071 0.000000 -0.001812 0.000000
# 3 -0.005808 -0.001071 0.007415 0.000000 -0.000151 0.000000
# 4 0.000000 0.000000 0.000000 0.003704 0.000000 0.027044
# 5 0.004309 -0.001812 -0.000151 0.000000 0.021285 0.000000
# 6 0.000000 0.000000 0.000000 0.027044 0.000000 -0.013580
#
#
# Mechanical properties :
#
#
# Convention : Reuss Voigt Hill
#
# Bulk Modulus (GPa) = 65.79382 99.97026 82.88204
# Shear Modulus (GPa) = 66.21538 32.48317 49.34928
#
# Velocity S-wave (km/s) = 5.10924 3.57854 4.41080
# Velocity P-wave (km/s) = 7.79384 7.51574 7.65605
#
# Compressibility (1/GPa) = 0.01519900
#
# Stress axis : x y z
#
# Youngs Moduli (GPa) = 41.50688 178.24568 134.86658
#
# Poissons Ratio (x) = 0.72739 0.78327
# Poissons Ratio (y) = 0.16938 0.14439
# Poissons Ratio (z) = 0.24106 0.19083
#
# Static dielectric constant tensor:
#      x y z
#    x 1.992560 0.000000 -0.035510 
#    y 0.000000 2.097760 0.000000 
#    z -0.035510 0.000000 2.008710 
# 
# From -- ./inp_files/46531.got.cif
#   From: 2010.05.17/outbox.cif.g08.bks.cpg/sg12_24_cif.got.tgz:46531.got - 2010.06.03 13:09:07.
