data_PCOD9214675
_publ_section_title
;
Structure prediction by ZEFSAII (Michael W. Deem and Ramdas Pophale) SiO2 
 PCOD9214675
Probable space group: C 2/M
;
_chemical_formula_sum "Si O2"
_cell_formula_units_Z 64
_cell_length_a 15.360715
_cell_length_b 27.191167
_cell_length_c 13.729722
_cell_angle_alpha 90.000000
_cell_angle_beta 37.229355
_cell_angle_gamma 90.000000
_cell_volume 3469.457051
_symmetry_space_group_name_H-M "C 2/M"
_symmetry_group_IT_number 12
_symmetry_cell_setting 'monoclinic'
loop_
_space_group_symop_operation_xyz
x,y,z
-x,y,-z
-x,-y,-z
x,-y,z
1/2+x,1/2+y,z
1/2-x,1/2+y,-z
1/2-x,1/2-y,-z
1/2+x,1/2-y,z
loop_
_atom_site_type_symbol
_atom_site_label
_atom_site_fract_x
_atom_site_fract_y
_atom_site_fract_z
Si Si1 0.719949 0.272439 0.695337
Si Si2 0.984872 0.692222 0.901779
Si Si3 0.171493 0.052233 0.852815
Si Si4 0.816060 0.351571 0.443643
Si Si5 0.678969 0.700378 0.102976
Si Si6 0.075162 0.819676 0.529099
Si Si7 0.652170 0.657081 0.920790
Si Si8 0.104059 0.555427 0.501846
O O1 0.559425 0.247538 0.833452
O O2 0.765794 0.310452 0.568849
O O3 0.822973 0.225288 0.595961
O O4 0.735230 0.301892 0.783312
O O5 0.067578 0.668102 0.737399
O O6 0.000000 0.676111 0.000000
O O7 0.817833 0.680863 0.034583
O O8 0.221134 0.103016 0.855513
O O9 0.237283 0.053632 0.686891
O O10 0.218572 0.000000 0.855896
O O11 0.000000 0.051943 0.000000
O O12 0.672501 0.357063 0.505168
O O13 0.884049 0.399020 0.435563
O O14 0.545097 0.703538 0.293557
O O15 0.750000 0.750000 0.000000
O O16 0.636077 0.669810 0.046831
O O17 0.000000 0.840939 0.500000
O O18 0.500000 0.654024 0.000000
O O19 0.928294 0.500000 0.431520
O O20 0.000000 0.563444 0.500000
#
# Coordination Sequence:
#
# PCOD9214675 Si02
#       8
#     8   8   8   8   8   8   8   8
#     4  11  21  36  55  80 116 156 190 233 284 343
#     4  11  23  38  54  76 113 153 195 239 276 321
#     4   9  19  36  58  84 118 148 176 220 288 352
#     4  11  22  38  59  83 113 152 196 231 289 352
#     4  12  22  34  53  79 108 149 195 233 278 333
#     4  11  23  37  54  78 113 154 200 242 275 322
#     4  11  21  33  55  83 118 148 181 230 284 344
#     4  10  22  40  63  91 120 145 180 235 295 357
#
# _framework density 18.446691000000001
#
# number of rings (size 3 to 8) (size 9 to 14) (size 15 to 20)
#    0.000    1.250    1.250    7.875    3.500    0.500 
#    0.000    0.000    0.000    0.750    0.000    1.750 
#    0.000    0.000    0.000    0.000    0.000    0.000 
#
# Total GULP energy -178288.037536 kJ/mol
# GULP energy per Si atom -5571.501173 kJ/mol
# Density = 1.840471 g / cm^3
# Si number density = 18.446691 Si / 1000 Ang^3
#
#
#
# Elastic Constant Matrix: (Units=GPa)
#
#
# Indices 1 2 3 4 5 6 
#
# 1 103.4171 35.6301 6.1639 0.0000 10.3588 0.0000
# 2 35.6301 110.7328 17.3693 0.0000 12.3634 0.0000
# 3 6.1639 17.3693 71.3609 0.0000 0.4142 0.0000
# 4 0.0000 0.0000 0.0000 17.7699 0.0000 4.4575
# 5 10.3588 12.3634 0.4142 0.0000 32.8749 0.0001
# 6 0.0000 0.0000 0.0000 4.4575 0.0001 7.1229
#
#
#
# Elastic Compliance Matrix: (Units=1/GPa)
#
#
# Indices 1 2 3 4 5 6 
#
# 1 0.011032 -0.003277 -0.000142 0.000000 -0.002242 0.000000
# 2 -0.003277 0.010784 -0.002324 0.000000 -0.002994 0.000000
# 3 -0.000142 -0.002324 0.014587 0.000000 0.000735 0.000000
# 4 0.000000 0.000000 0.000000 0.066754 0.000000 -0.041775
# 5 -0.002242 -0.002994 0.000735 0.000000 0.032241 0.000000
# 6 0.000000 0.000000 0.000000 -0.041775 0.000000 0.166535
#
#
# Mechanical properties :
#
#
# Convention : Reuss Voigt Hill
#
# Bulk Modulus (GPa) = 40.13576 44.87082 42.50329
# Shear Modulus (GPa) = 15.54119 26.64338 21.09229
#
# Velocity S-wave (km/s) = 2.90572 3.80458 3.38512
# Velocity P-wave (km/s) = 5.75000 6.60887 6.19434
#
# Compressibility (1/GPa) = 0.02491543
#
# Stress axis : x y z
#
# Youngs Moduli (GPa) = 90.64847 92.72968 68.55396
#
# Poissons Ratio (x) = 0.30387 0.00975
# Poissons Ratio (y) = 0.29705 0.15935
# Poissons Ratio (z) = 0.01289 0.21554
#
# Static dielectric constant tensor:
#      x y z
#    x 1.567950 0.000000 -0.003870 
#    y 0.000000 1.799300 0.000000 
#    z -0.003870 0.000000 1.659170 
# 
# From -- ./inp_files/150271.got.cif
#   From: 2010.05.17/outbox.cif.g08.bks.cpg/sg12_76_cif.got.tgz:150271.got - 2010.06.03 13:09:07.
