data_PCOD9214533
_publ_section_title
;
Structure prediction by ZEFSAII (Michael W. Deem and Ramdas Pophale) SiO2 
 PCOD9214533
Probable space group: C 2/M
;
_chemical_formula_sum "Si O2"
_cell_formula_units_Z 58
_cell_length_a 18.451786
_cell_length_b 19.363625
_cell_length_c 19.046041
_cell_angle_alpha 90.000000
_cell_angle_beta 153.833528
_cell_angle_gamma 90.000000
_cell_volume 3000.885289
_symmetry_space_group_name_H-M "C 2/M"
_symmetry_group_IT_number 12
_symmetry_cell_setting 'monoclinic'
loop_
_space_group_symop_operation_xyz
x,y,z
-x,y,-z
-x,-y,-z
x,-y,z
1/2+x,1/2+y,z
1/2-x,1/2+y,-z
1/2-x,1/2-y,-z
1/2+x,1/2-y,z
loop_
_atom_site_type_symbol
_atom_site_label
_atom_site_fract_x
_atom_site_fract_y
_atom_site_fract_z
Si Si1 0.000000 0.000000 0.000000
Si Si2 0.636004 0.423846 0.253130
Si Si3 0.067847 0.081367 0.684147
Si Si4 0.406787 0.191657 0.490883
Si Si5 0.550416 0.197185 0.762803
Si Si6 0.654802 0.919527 0.185913
Si Si7 0.134666 0.146942 0.883435
Si Si8 0.235519 0.668257 0.384227
O O1 0.058792 0.059175 0.109547
O O2 0.675975 0.500000 0.318186
O O3 0.796602 0.376633 0.388243
O O4 0.504373 0.386648 0.188670
O O5 0.182432 0.098790 0.717338
O O6 0.159708 0.100695 0.836079
O O7 0.900053 0.124071 0.538431
O O8 0.034799 0.000000 0.652684
O O9 0.500000 0.205788 0.500000
O O10 0.535020 0.187045 0.666522
O O11 0.288778 0.255554 0.407344
O O12 0.578626 0.277399 0.807563
O O13 0.378563 0.173426 0.647149
O O14 0.700197 0.156469 0.928271
O O15 0.639085 0.869751 0.238084
O O16 0.668785 0.000000 0.219732
O O17 0.500000 0.913733 0.000000
#
# Coordination Sequence:
#
# PCOD9214533 Si02
#       8
#     2   8   8   8   8   8   8   8
#     4   8  24  44  70  92 128 172 228 284 324 400
#     4  10  23  45  68  92 129 174 219 275 334 389
#     4  11  22  38  65  95 131 174 213 259 323 395
#     4  12  25  42  67  98 130 171 219 274 336 392
#     4  11  25  41  66  95 134 163 217 279 325 387
#     4  10  22  40  61  92 133 168 211 261 315 385
#     4  11  22  43  66  94 128 172 216 268 332 392
#     4  12  22  42  63  95 131 172 211 268 322 392
#
# _framework density 19.327629999999999
#
# number of rings (size 3 to 8) (size 9 to 14) (size 15 to 20)
#    0.414    0.690    2.759    4.138    1.931    1.379 
#    1.241    4.138    0.000    0.000    0.000    0.000 
#    0.000    0.000    0.000    0.000    0.000    0.000 
#
# Total GULP energy -161818.648911 kJ/mol
# GULP energy per Si atom -5579.953411 kJ/mol
# Density = 1.928364 g / cm^3
# Si number density = 19.327630 Si / 1000 Ang^3
#
#
#
# Elastic Constant Matrix: (Units=GPa)
#
#
# Indices 1 2 3 4 5 6 
#
# 1 70.8795 0.2658 21.6433 0.0589 -15.3007 0.0091
# 2 0.2658 54.1396 29.5026 0.0438 -10.3340 0.0077
# 3 21.6433 29.5026 67.4170 -0.0259 -15.4526 -0.0026
# 4 0.0589 0.0438 -0.0259 -63.4669 0.0410 -11.7780
# 5 -15.3007 -10.3340 -15.4526 0.0410 33.8570 0.0068
# 6 0.0091 0.0077 -0.0026 -11.7780 0.0068 24.7252
#
#
#
# Elastic Compliance Matrix: (Units=1/GPa)
#
#
# Indices 1 2 3 4 5 6 
#
# 1 0.017318 0.004424 -0.006022 0.000025 0.006428 0.000002
# 2 0.004424 0.025635 -0.011600 0.000029 0.004529 0.000002
# 3 -0.006022 -0.011600 0.022792 -0.000020 0.004140 -0.000002
# 4 0.000025 0.000029 -0.000020 -0.014476 0.000030 -0.006896
# 5 0.006428 0.004529 0.004140 0.000030 0.035713 0.000001
# 6 0.000002 0.000002 -0.000002 -0.006896 0.000001 0.037160
#
#
# Mechanical properties :
#
#
# Convention : Reuss Voigt Hill
#
# Bulk Modulus (GPa) = 25.41461 32.80660 29.11061
# Shear Modulus (GPa) = 30.55210 8.42469 19.48840
#
# Velocity S-wave (km/s) = 3.98017 2.09006 3.17885
# Velocity P-wave (km/s) = 5.85665 4.77862 5.34488
#
# Compressibility (1/GPa) = 0.03934744
#
# Stress axis : x y z
#
# Youngs Moduli (GPa) = 57.74199 39.00923 43.87533
#
# Poissons Ratio (x) = -0.17257 0.26423
# Poissons Ratio (y) = -0.25544 0.50897
# Poissons Ratio (z) = 0.34774 0.45252
#
# Static dielectric constant tensor:
#      x y z
#    x 1.647970 0.000000 -0.002040 
#    y 0.000000 1.658120 0.000000 
#    z -0.002040 0.000000 1.696430 
# 
# From -- ./inp_files/278820.got.cif
#   From: 2010.05.17/outbox.cif.g08.bks.cpg/sg12_140_cif.got.tgz:278820.got - 2010.06.03 13:09:07.
