data_PCOD9214052
_publ_section_title
;
Structure prediction by ZEFSAII (Michael W. Deem and Ramdas Pophale) SiO2 
 PCOD9214052
Probable space group: C 2/M
;
_chemical_formula_sum "Si O2"
_cell_formula_units_Z 34
_cell_length_a 16.936067
_cell_length_b 9.768398
_cell_length_c 19.719924
_cell_angle_alpha 90.000000
_cell_angle_beta 149.801951
_cell_angle_gamma 90.000000
_cell_volume 1640.971139
_symmetry_space_group_name_H-M "C 2/M"
_symmetry_group_IT_number 12
_symmetry_cell_setting 'monoclinic'
loop_
_space_group_symop_operation_xyz
x,y,z
-x,y,-z
-x,-y,-z
x,-y,z
1/2+x,1/2+y,z
1/2-x,1/2+y,-z
1/2-x,1/2-y,-z
1/2+x,1/2-y,z
loop_
_atom_site_type_symbol
_atom_site_label
_atom_site_fract_x
_atom_site_fract_y
_atom_site_fract_z
Si Si1 0.631105 0.337517 0.808419
Si Si2 0.500000 0.500000 0.000000
Si Si3 0.623784 0.842224 0.304465
Si Si4 0.975128 0.834209 0.557425
Si Si5 0.513319 0.781248 0.935525
O O1 0.603933 0.500000 0.794168
O O2 0.506793 0.254328 0.760216
O O3 0.600807 0.293916 0.707452
O O4 0.810035 0.305816 0.959131
O O5 0.489058 0.621806 0.933909
O O6 0.800514 0.797443 0.452695
O O7 0.601026 0.000000 0.309016
O O8 0.604118 0.835098 0.208369
O O9 0.000000 0.780490 0.500000
O O10 0.978221 0.000000 0.555958
O O11 0.500000 0.848811 0.000000
#
# Coordination Sequence:
#
# PCOD9214052 Si02
#       5
#     8   2   8   8   8
#     4  11  23  37  61  88 121 158 196 243 292 350
#     4   8  24  40  62  86 124 152 184 262 288 348
#     4  11  23  37  61  88 121 158 196 243 292 350
#     4   9  19  38  59  85 118 155 196 243 294 346
#     4  10  22  39  62  84 117 153 196 240 298 342
#
# _framework density 20.719436999999999
#
# number of rings (size 3 to 8) (size 9 to 14) (size 15 to 20)
#    0.706    1.176    0.000    3.529    3.294    3.765 
#    0.000    0.000    0.000    2.824    0.000    0.000 
#    0.000    0.000    0.000    0.000    0.000    0.000 
#
# Total GULP energy -94635.549139 kJ/mol
# GULP energy per Si atom -5566.797008 kJ/mol
# Density = 2.067228 g / cm^3
# Si number density = 20.719437 Si / 1000 Ang^3
#
#
#
# Elastic Constant Matrix: (Units=GPa)
#
#
# Indices 1 2 3 4 5 6 
#
# 1 48.8881 5.8218 -16.5648 0.0003 -5.7655 0.0001
# 2 5.8218 90.6428 -8.7395 0.0004 6.8615 0.0001
# 3 -16.5648 -8.7395 69.6160 0.0005 -3.9241 0.0001
# 4 0.0003 0.0004 0.0005 2.2356 0.0004 -12.2283
# 5 -5.7655 6.8615 -3.9241 0.0004 29.7507 0.0001
# 6 0.0001 0.0001 0.0001 -12.2283 0.0001 24.6529
#
#
#
# Elastic Compliance Matrix: (Units=1/GPa)
#
#
# Indices 1 2 3 4 5 6 
#
# 1 0.023190 -0.001364 0.005660 0.000003 0.005555 0.000002
# 2 -0.001364 0.011422 0.000953 0.000001 -0.002773 0.000001
# 3 0.005660 0.000953 0.015999 0.000003 0.002987 0.000002
# 4 0.000003 0.000001 0.000003 -0.261103 0.000005 -0.129512
# 5 0.005555 -0.002773 0.002987 0.000005 0.035723 0.000002
# 6 0.000002 0.000001 0.000002 -0.129512 0.000002 -0.023677
#
#
# Mechanical properties :
#
#
# Convention : Reuss Voigt Hill
#
# Bulk Modulus (GPa) = 16.36439 18.90911 17.63675
# Shear Modulus (GPa) = -26.51484 26.56979 0.02748
#
# Velocity S-wave (km/s) = -3.58118 3.58489 0.11529
# Velocity P-wave (km/s) = 3.03061 5.12653 2.92376
#
# Compressibility (1/GPa) = 0.06110829
#
# Stress axis : x y z
#
# Youngs Moduli (GPa) = 43.12164 87.55245 62.50282
#
# Poissons Ratio (x) = 0.11945 -0.35376
# Poissons Ratio (y) = 0.05883 -0.05956
# Poissons Ratio (z) = -0.24406 -0.08343
#
# Static dielectric constant tensor:
#      x y z
#    x 1.797420 0.000000 -0.014760 
#    y 0.000000 1.674320 0.000000 
#    z -0.014760 0.000000 1.728380 
# 
# From -- ./inp_files/46535.got.cif
#   From: 2010.05.17/outbox.cif.g08.bks.cpg/sg12_24_cif.got.tgz:46535.got - 2010.06.03 13:09:07.
