data_PCOD9214505
_publ_section_title
;
Structure prediction by ZEFSAII (Michael W. Deem and Ramdas Pophale) SiO2 
 PCOD9214505
Probable space group: C 2/M
;
_chemical_formula_sum "Si O2"
_cell_formula_units_Z 44
_cell_length_a 9.507620
_cell_length_b 21.962575
_cell_length_c 10.461402
_cell_angle_alpha 90.000000
_cell_angle_beta 66.158448
_cell_angle_gamma 90.000000
_cell_volume 1998.056960
_symmetry_space_group_name_H-M "C 2/M"
_symmetry_group_IT_number 12
_symmetry_cell_setting 'monoclinic'
loop_
_space_group_symop_operation_xyz
x,y,z
-x,y,-z
-x,-y,-z
x,-y,z
1/2+x,1/2+y,z
1/2-x,1/2+y,-z
1/2-x,1/2-y,-z
1/2+x,1/2-y,z
loop_
_atom_site_type_symbol
_atom_site_label
_atom_site_fract_x
_atom_site_fract_y
_atom_site_fract_z
Si Si1 0.631529 0.929605 0.757574
Si Si2 0.422605 0.748311 0.890580
Si Si3 0.842822 0.632445 0.798683
Si Si4 0.500000 0.601620 0.000000
Si Si5 0.936537 0.884046 0.763608
Si Si6 0.247706 0.071993 0.571161
O O1 0.453850 0.911676 0.839678
O O2 0.664150 0.920961 0.594298
O O3 0.763719 0.891325 0.779189
O O4 0.656376 0.000000 0.780480
O O5 0.428863 0.803297 0.786516
O O6 0.500000 0.759036 0.000000
O O7 0.250000 0.750000 0.000000
O O8 0.462620 0.684675 0.806942
O O9 0.667798 0.633187 0.915808
O O10 0.822290 0.608600 0.661796
O O11 0.531197 0.572581 0.125342
O O12 0.073084 0.903433 0.619338
O O13 0.247828 0.000000 0.601904
#
# Coordination Sequence:
#
# PCOD9214505 Si02
#       6
#     8   8   8   4   8   8
#     4  11  24  42  66  94 129 173 217 266 318 378
#     4  12  22  40  67  90 132 171 208 257 324 397
#     4  11  23  40  67  97 124 171 219 264 319 390
#     4  10  22  40  61  88 130 164 215 256 322 376
#     4  11  21  41  66  98 124 170 220 258 316 389
#     4  10  22  44  67  89 129 178 215 257 321 388
#
# _framework density 22.021394000000001
#
# number of rings (size 3 to 8) (size 9 to 14) (size 15 to 20)
#    0.000    1.091    2.727    4.364    0.000    2.909 
#    0.000   22.727    0.000    0.000    0.000    0.000 
#    0.000    0.000    0.000    0.000    0.000    0.000 
#
# Total GULP energy -122622.331339 kJ/mol
# GULP energy per Si atom -5573.742334 kJ/mol
# Density = 2.197127 g / cm^3
# Si number density = 22.021394 Si / 1000 Ang^3
#
#
#
# Elastic Constant Matrix: (Units=GPa)
#
#
# Indices 1 2 3 4 5 6 
#
# 1 184.0201 35.5028 28.1779 0.0000 14.5974 0.0000
# 2 35.5028 114.4813 39.8072 0.0000 14.8736 0.0000
# 3 28.1779 39.8072 42.6125 0.0000 8.9950 0.0000
# 4 0.0000 0.0000 0.0000 22.0441 0.0000 6.7968
# 5 14.5974 14.8736 8.9950 0.0000 40.1180 0.0000
# 6 0.0000 0.0000 0.0000 6.7968 0.0000 22.0000
#
#
#
# Elastic Compliance Matrix: (Units=1/GPa)
#
#
# Indices 1 2 3 4 5 6 
#
# 1 0.006148 -0.000623 -0.003213 0.000000 -0.001286 0.000000
# 2 -0.000623 0.013187 -0.011465 0.000000 -0.002092 0.000000
# 3 -0.003213 -0.011465 0.036905 0.000000 -0.002855 0.000000
# 4 0.000000 0.000000 0.000000 0.050140 0.000000 -0.015490
# 5 -0.001286 -0.002092 -0.002855 0.000000 0.026810 0.000000
# 6 0.000000 0.000000 0.000000 -0.015490 0.000000 0.050240
#
#
# Mechanical properties :
#
#
# Convention : Reuss Voigt Hill
#
# Bulk Modulus (GPa) = 39.00339 60.89886 49.95113
# Shear Modulus (GPa) = 22.46420 32.67414 27.56917
#
# Velocity S-wave (km/s) = 3.19738 3.85612 3.54210
# Velocity P-wave (km/s) = 5.60188 6.89497 6.28179
#
# Compressibility (1/GPa) = 0.02563880
#
# Stress axis : x y z
#
# Youngs Moduli (GPa) = 162.64855 75.83486 27.09683
#
# Poissons Ratio (x) = 0.04721 0.08705
# Poissons Ratio (y) = 0.10126 0.31067
# Poissons Ratio (z) = 0.52251 0.86947
#
# Static dielectric constant tensor:
#      x y z
#    x 1.792270 0.000000 -0.002070 
#    y 0.000000 1.929630 0.000000 
#    z -0.002070 0.000000 1.834290 
# 
# From -- ./inp_files/120706.got.cif
#   From: 2010.05.17/outbox.cif.g08.bks.cpg/sg12_61_cif.got.tgz:120706.got - 2010.06.03 13:09:07.
