data_PCOD9214275
_publ_section_title
;
Structure prediction by ZEFSAII (Michael W. Deem and Ramdas Pophale) SiO2 
 PCOD9214275
Probable space group: C 2/M
;
_chemical_formula_sum "Si O2"
_cell_formula_units_Z 56
_cell_length_a 11.528439
_cell_length_b 15.864696
_cell_length_c 14.773489
_cell_angle_alpha 90.000000
_cell_angle_beta 94.376827
_cell_angle_gamma 90.000000
_cell_volume 2694.120087
_symmetry_space_group_name_H-M "C 2/M"
_symmetry_group_IT_number 12
_symmetry_cell_setting 'monoclinic'
loop_
_space_group_symop_operation_xyz
x,y,z
-x,y,-z
-x,-y,-z
x,-y,z
1/2+x,1/2+y,z
1/2-x,1/2+y,-z
1/2-x,1/2-y,-z
1/2+x,1/2-y,z
loop_
_atom_site_type_symbol
_atom_site_label
_atom_site_fract_x
_atom_site_fract_y
_atom_site_fract_z
Si Si1 0.894668 0.336825 0.276251
Si Si2 0.044101 0.804303 0.863342
Si Si3 0.124464 0.405685 0.350617
Si Si4 0.124037 0.284088 0.518938
Si Si5 0.196297 0.098502 0.132904
Si Si6 0.874614 0.340751 0.997144
Si Si7 0.758275 0.599870 0.819549
O O1 0.946044 0.259061 0.221228
O O2 0.866429 0.310707 0.376529
O O3 0.782812 0.373207 0.218662
O O4 0.001518 0.401671 0.290893
O O5 0.098271 0.746664 0.947882
O O6 0.128325 0.881410 0.843434
O O7 0.918190 0.843444 0.874408
O O8 0.158395 0.500000 0.374768
O O9 0.109196 0.356608 0.442584
O O10 0.216903 0.372850 0.282173
O O11 0.250000 0.250000 0.500000
O O12 0.000000 0.234301 0.500000
O O13 0.275629 0.113126 0.048641
O O14 0.166022 0.000000 0.138315
O O15 0.833320 0.341748 0.891405
O O16 0.000000 0.385347 0.000000
O O17 0.786519 0.500000 0.829474
#
# Coordination Sequence:
#
# PCOD9214275 Si02
#       7
#     8   8   8   8   8   8   8
#     4  10  23  38  67  94 128 167 213 269 320 384
#     4  11  25  39  65  93 130 168 219 263 330 390
#     4  10  22  41  66  96 127 168 217 270 326 385
#     4  10  22  39  66  96 130 167 214 266 330 393
#     4  11  25  43  64  94 132 170 218 270 323 388
#     4  11  26  41  65  91 124 167 216 268 323 384
#     4  11  23  41  64  89 129 171 215 268 328 388
#
# _framework density 20.786007999999999
#
# number of rings (size 3 to 8) (size 9 to 14) (size 15 to 20)
#    0.000    1.429    0.000    4.286   14.000    5.429 
#    0.000    1.429    0.000    0.429    0.000    0.000 
#    0.000    0.000    0.000    0.000    0.000    0.000 
#
# Total GULP energy -156289.764036 kJ/mol
# GULP energy per Si atom -5581.777287 kJ/mol
# Density = 2.073870 g / cm^3
# Si number density = 20.786008 Si / 1000 Ang^3
#
#
#
# Elastic Constant Matrix: (Units=GPa)
#
#
# Indices 1 2 3 4 5 6 
#
# 1 119.1743 42.6141 33.3346 0.0000 -20.3424 0.0000
# 2 42.6141 99.1085 49.0279 0.0000 -4.1536 0.0000
# 3 33.3346 49.0279 134.4409 0.0000 -18.1213 0.0000
# 4 0.0000 0.0000 0.0000 17.9862 0.0000 -3.8243
# 5 -20.3424 -4.1536 -18.1213 0.0000 33.4190 0.0000
# 6 0.0000 0.0000 0.0000 -3.8243 0.0000 27.5355
#
#
#
# Elastic Compliance Matrix: (Units=1/GPa)
#
#
# Indices 1 2 3 4 5 6 
#
# 1 0.011063 -0.004330 -0.000355 0.000000 0.006004 0.000000
# 2 -0.004330 0.014035 -0.004493 0.000000 -0.003328 0.000000
# 3 -0.000355 -0.004493 0.009775 0.000000 0.004526 0.000000
# 4 0.000000 0.000000 0.000000 0.057290 0.000000 0.007957
# 5 0.006004 -0.003328 0.004526 0.000000 0.035618 0.000000
# 6 0.000000 0.000000 0.000000 0.007957 0.000000 0.037422
#
#
# Mechanical properties :
#
#
# Convention : Reuss Voigt Hill
#
# Bulk Modulus (GPa) = 60.54257 66.96410 63.75334
# Shear Modulus (GPa) = 26.44601 30.97130 28.70865
#
# Velocity S-wave (km/s) = 3.57080 3.86425 3.72042
# Velocity P-wave (km/s) = 6.79637 7.22466 7.01379
#
# Compressibility (1/GPa) = 0.01651730
#
# Stress axis : x y z
#
# Youngs Moduli (GPa) = 90.38828 71.25087 102.30344
#
# Poissons Ratio (x) = 0.30850 0.03631
# Poissons Ratio (y) = 0.39136 0.45967
# Poissons Ratio (z) = 0.03208 0.32014
#
# Static dielectric constant tensor:
#      x y z
#    x 1.823100 0.000000 -0.017450 
#    y 0.000000 1.747660 0.000000 
#    z -0.017450 0.000000 1.764300 
# 
# From -- ./inp_files/205009.got.cif
#   From: 2010.05.17/outbox.cif.g08.bks.cpg/sg12_103_cif.got.tgz:205009.got - 2010.06.03 13:09:07.
