data_PCOD9214296
_publ_section_title
;
Structure prediction by ZEFSAII (Michael W. Deem and Ramdas Pophale) SiO2 
 PCOD9214296
Probable space group: C 2/M
;
_chemical_formula_sum "Si O2"
_cell_formula_units_Z 48
_cell_length_a 8.331689
_cell_length_b 28.314309
_cell_length_c 9.599250
_cell_angle_alpha 90.000000
_cell_angle_beta 88.295375
_cell_angle_gamma 90.000000
_cell_volume 2263.518696
_symmetry_space_group_name_H-M "C 2/M"
_symmetry_group_IT_number 12
_symmetry_cell_setting 'monoclinic'
loop_
_space_group_symop_operation_xyz
x,y,z
-x,y,-z
-x,-y,-z
x,-y,z
1/2+x,1/2+y,z
1/2-x,1/2+y,-z
1/2-x,1/2-y,-z
1/2+x,1/2-y,z
loop_
_atom_site_type_symbol
_atom_site_label
_atom_site_fract_x
_atom_site_fract_y
_atom_site_fract_z
Si Si1 0.081496 0.899405 0.647973
Si Si2 0.422566 0.054827 0.654393
Si Si3 0.602939 0.877866 0.871088
Si Si4 0.868637 0.946962 0.883622
Si Si5 0.353618 0.202124 0.322978
Si Si6 0.764871 0.694492 0.644307
O O1 0.234075 0.934432 0.643710
O O2 0.159570 0.849800 0.694033
O O3 0.000000 0.893894 0.500000
O O4 0.948485 0.920950 0.751736
O O5 0.500000 0.062646 0.500000
O O6 0.502795 0.091485 0.760251
O O7 0.447423 0.000000 0.694044
O O8 0.720857 0.915837 0.936567
O O9 0.696946 0.836184 0.789362
O O10 0.500000 0.857208 0.000000
O O11 0.819118 0.000000 0.847321
O O12 0.000000 0.949148 0.000000
O O13 0.312190 0.256778 0.301279
O O14 0.272596 0.191946 0.474893
O O15 0.546611 0.195092 0.322994
#
# Coordination Sequence:
#
# PCOD9214296 Si02
#       6
#     8   8   8   8   8   8
#     4  12  24  39  66  97 132 169 212 273 326 380
#     4  11  23  41  66  97 131 171 220 273 325 385
#     4  12  25  44  68  97 130 173 220 272 329 394
#     4  11  26  45  65  93 130 174 221 264 322 393
#     4  10  22  41  65  99 127 166 219 264 324 392
#     4  10  22  39  68  96 129 167 213 270 325 387
#
# _framework density 21.205922999999999
#
# number of rings (size 3 to 8) (size 9 to 14) (size 15 to 20)
#    0.000    1.000    1.667    5.000    7.000    5.333 
#    0.000    1.667    0.000    0.000    0.000    0.000 
#    0.000    0.000    0.000    0.000    0.000    0.000 
#
# Total GULP energy -134207.701708 kJ/mol
# GULP energy per Si atom -5591.987571 kJ/mol
# Density = 2.115766 g / cm^3
# Si number density = 21.205923 Si / 1000 Ang^3
#
#
#
# Elastic Constant Matrix: (Units=GPa)
#
#
# Indices 1 2 3 4 5 6 
#
# 1 24.4590 5.6526 4.7612 0.0000 4.4568 0.0000
# 2 5.6526 135.8296 41.2154 0.0000 -6.4715 0.0000
# 3 4.7612 41.2154 37.0843 0.0000 -1.0861 0.0000
# 4 0.0000 0.0000 0.0000 12.4022 0.0000 1.3835
# 5 4.4568 -6.4715 -1.0861 0.0000 26.8057 0.0000
# 6 0.0000 0.0000 0.0000 1.3835 0.0000 35.4286
#
#
#
# Elastic Compliance Matrix: (Units=1/GPa)
#
#
# Indices 1 2 3 4 5 6 
#
# 1 0.043401 -0.000617 -0.005108 0.000000 -0.007572 0.000000
# 2 -0.000617 0.011246 -0.012352 0.000000 0.002317 0.000000
# 3 -0.005108 -0.012352 0.041336 0.000000 -0.000458 0.000000
# 4 0.000000 0.000000 0.000000 0.080983 0.000000 -0.003162
# 5 -0.007572 0.002317 -0.000458 0.000000 0.039105 0.000000
# 6 0.000000 0.000000 0.000000 -0.003162 0.000000 0.028349
#
#
# Mechanical properties :
#
#
# Convention : Reuss Voigt Hill
#
# Bulk Modulus (GPa) = 16.71427 33.40349 25.05888
# Shear Modulus (GPa) = 16.63788 24.64356 20.64072
#
# Velocity S-wave (km/s) = 2.80409 3.41267 3.12324
# Velocity P-wave (km/s) = 4.28752 5.59594 4.98485
#
# Compressibility (1/GPa) = 0.05982913
#
# Stress axis : x y z
#
# Youngs Moduli (GPa) = 23.04073 88.91848 24.19201
#
# Poissons Ratio (x) = 0.05485 0.12358
# Poissons Ratio (y) = 0.01421 0.29882
# Poissons Ratio (z) = 0.11770 1.09832
#
# Static dielectric constant tensor:
#      x y z
#    x 1.774150 0.000000 0.023020 
#    y 0.000000 1.768000 0.000000 
#    z 0.023020 0.000000 1.731870 
# 
# From -- ./inp_files/42239.got.cif
#   From: 2010.05.17/outbox.cif.g08.bks.cpg/sg12_22_cif.got.tgz:42239.got - 2010.06.03 13:09:07.
