data_PCOD9214935
_publ_section_title
;
Structure prediction by ZEFSAII (Michael W. Deem and Ramdas Pophale) SiO2 
 PCOD9214935
Probable space group: C 2/M
;
_chemical_formula_sum "Si O2"
_cell_formula_units_Z 28
_cell_length_a 11.772165
_cell_length_b 19.946131
_cell_length_c 5.180986
_cell_angle_alpha 90.000000
_cell_angle_beta 107.388119
_cell_angle_gamma 90.000000
_cell_volume 1160.949704
_symmetry_space_group_name_H-M "C 2/M"
_symmetry_group_IT_number 12
_symmetry_cell_setting 'monoclinic'
loop_
_space_group_symop_operation_xyz
x,y,z
-x,y,-z
-x,-y,-z
x,-y,z
1/2+x,1/2+y,z
1/2-x,1/2+y,-z
1/2-x,1/2-y,-z
1/2+x,1/2-y,z
loop_
_atom_site_type_symbol
_atom_site_label
_atom_site_fract_x
_atom_site_fract_y
_atom_site_fract_z
Si Si1 0.414097 0.000000 0.687336
Si Si2 0.722873 0.860591 0.340557
Si Si3 0.077714 0.230481 0.291214
Si Si4 0.083825 0.075055 0.810149
O O1 0.500000 0.000000 0.500000
O O2 0.334435 0.068142 0.622192
O O3 0.500000 0.000000 0.000000
O O4 0.815185 0.821790 0.591029
O O5 0.624386 0.803828 0.243916
O O6 0.804789 0.876009 0.147615
O O7 0.000000 0.235425 0.500000
O O8 0.000000 0.207372 0.000000
O O9 0.000000 0.083302 0.500000
O O10 0.135249 0.000000 0.833461
O O11 0.000000 0.075709 0.000000
#
# Coordination Sequence:
#
# PCOD9214935 Si02
#       4
#     4   8   8   8
#     4  12  28  48  75 112 147 186 244 306 380 450
#     4  11  25  48  76 106 151 196 242 309 376 430
#     4  11  27  48  73 107 147 199 256 301 358 444
#     4  10  22  40  66 104 143 181 233 292 360 434
#
# _framework density 24.118182999999998
#
# number of rings (size 3 to 8) (size 9 to 14) (size 15 to 20)
#    0.000    1.143    1.429    2.571    0.000   16.000 
#    0.000    0.714    0.000    1.714    0.000    0.000 
#    0.000    0.000    0.000    0.000    0.000    0.000 
#
# Total GULP energy -78338.864108 kJ/mol
# GULP energy per Si atom -5595.633151 kJ/mol
# Density = 2.406329 g / cm^3
# Si number density = 24.118183 Si / 1000 Ang^3
#
#
#
# Elastic Constant Matrix: (Units=GPa)
#
#
# Indices 1 2 3 4 5 6 
#
# 1 143.2461 87.2797 64.6730 0.0000 -23.9981 0.0000
# 2 87.2797 229.9940 20.1259 0.0000 -5.4506 0.0000
# 3 64.6730 20.1259 139.5482 0.0000 -24.8914 0.0000
# 4 0.0000 0.0000 0.0000 16.1197 0.0000 1.4476
# 5 -23.9981 -5.4506 -24.8914 0.0000 50.4507 0.0000
# 6 0.0000 0.0000 0.0000 1.4476 0.0000 56.7081
#
#
#
# Elastic Compliance Matrix: (Units=1/GPa)
#
#
# Indices 1 2 3 4 5 6 
#
# 1 0.011979 -0.004087 -0.004413 0.000000 0.003079 0.000000
# 2 -0.004087 0.005799 0.000902 0.000000 -0.000872 0.000000
# 3 -0.004413 0.000902 0.009566 0.000000 0.002718 0.000000
# 4 0.000000 0.000000 0.000000 0.062178 0.000000 -0.001587
# 5 0.003079 -0.000872 0.002718 0.000000 0.022533 0.000000
# 6 0.000000 0.000000 0.000000 -0.001587 0.000000 0.017675
#
#
# Mechanical properties :
#
#
# Convention : Reuss Voigt Hill
#
# Bulk Modulus (GPa) = 82.31324 95.21618 88.76471
# Shear Modulus (GPa) = 33.56243 47.36968 40.46605
#
# Velocity S-wave (km/s) = 3.73444 4.43659 4.10057
# Velocity P-wave (km/s) = 7.26622 8.11228 7.70088
#
# Compressibility (1/GPa) = 0.01214871
#
# Stress axis : x y z
#
# Youngs Moduli (GPa) = 83.47606 172.43611 104.53766
#
# Poissons Ratio (x) = 0.70473 0.46134
# Poissons Ratio (y) = 0.34116 -0.09430
# Poissons Ratio (z) = 0.36839 -0.15555
#
# Static dielectric constant tensor:
#      x y z
#    x 1.909440 0.000000 0.040990 
#    y 0.000000 1.984470 0.000000 
#    z 0.040990 0.000000 1.917070 
# 
# From -- ./inp_files/5737.got.cif
#   From: 2010.05.17/outbox.cif.g08.bks.cpg/sg12_3_cif.got.tgz:5737.got - 2010.06.03 13:09:07.
