data_PCOD9214968
_publ_section_title
;
Structure prediction by ZEFSAII (Michael W. Deem and Ramdas Pophale) SiO2 
 PCOD9214968
Probable space group: C 2/M
;
_chemical_formula_sum "Si O2"
_cell_formula_units_Z 44
_cell_length_a 19.457976
_cell_length_b 14.066563
_cell_length_c 25.389884
_cell_angle_alpha 90.000000
_cell_angle_beta 161.328684
_cell_angle_gamma 90.000000
_cell_volume 2224.767432
_symmetry_space_group_name_H-M "C 2/M"
_symmetry_group_IT_number 12
_symmetry_cell_setting 'monoclinic'
loop_
_space_group_symop_operation_xyz
x,y,z
-x,y,-z
-x,-y,-z
x,-y,z
1/2+x,1/2+y,z
1/2-x,1/2+y,-z
1/2-x,1/2-y,-z
1/2+x,1/2-y,z
loop_
_atom_site_type_symbol
_atom_site_label
_atom_site_fract_x
_atom_site_fract_y
_atom_site_fract_z
Si Si1 0.540777 0.810871 0.354104
Si Si2 0.632582 0.837671 0.887895
Si Si3 0.680739 0.280114 0.173609
Si Si4 0.026411 0.000000 0.843034
Si Si5 0.257995 0.112593 0.696327
Si Si6 0.824082 0.500000 0.493421
Si Si7 0.239762 0.000000 0.249858
O O1 0.750000 0.750000 0.500000
O O2 0.412775 0.818869 0.206488
O O3 0.400095 0.772619 0.300149
O O4 0.626730 0.911826 0.434459
O O5 0.411333 0.867212 0.756961
O O6 0.750000 0.750000 0.000000
O O7 0.815346 0.914923 0.029619
O O8 0.682478 0.199916 0.220531
O O9 0.657749 0.394268 0.170870
O O10 0.500000 0.257099 0.000000
O O11 0.911072 0.000000 0.702872
O O12 0.830095 0.000000 0.740939
O O13 0.000000 0.119911 0.500000
O O14 0.297511 0.000000 0.740784
O O15 0.011603 0.500000 0.585358
#
# Coordination Sequence:
#
# PCOD9214968 Si02
#       7
#     8   8   8   4   8   4   4
#     4  11  23  42  63  96 130 171 219 275 343 396
#     4  12  24  42  68  98 133 172 227 283 335 401
#     4  11  23  42  67 100 133 173 227 285 343 405
#     4  12  22  39  63  96 124 169 221 274 340 386
#     4  11  25  46  68  95 138 190 234 269 339 423
#     4  10  24  39  62  91 132 168 217 277 334 415
#     4  10  22  40  66  97 135 175 222 281 353 417
#
# _framework density 19.777348
#
# number of rings (size 3 to 8) (size 9 to 14) (size 15 to 20)
#    0.000    0.909    0.909    6.545    0.000    6.182 
#    1.636    0.000    0.000    0.000    0.000    0.000 
#    0.000    0.000    0.000    0.000    0.000    0.000 
#
# Total GULP energy -122626.902499 kJ/mol
# GULP energy per Si atom -5573.950114 kJ/mol
# Density = 1.973233 g / cm^3
# Si number density = 19.777348 Si / 1000 Ang^3
#
#
#
# Elastic Constant Matrix: (Units=GPa)
#
#
# Indices 1 2 3 4 5 6 
#
# 1 89.1097 38.5735 6.3794 -0.0089 -5.8083 0.0293
# 2 38.5735 130.1110 27.3172 0.0303 -0.2319 -0.0830
# 3 6.3794 27.3172 60.9900 0.0226 -20.9135 -0.0187
# 4 -0.0089 0.0303 0.0226 41.8507 -0.0013 0.8224
# 5 -5.8083 -0.2319 -20.9135 -0.0013 35.5479 0.0169
# 6 0.0293 -0.0830 -0.0187 0.8224 0.0169 29.2647
#
#
#
# Elastic Compliance Matrix: (Units=1/GPa)
#
#
# Indices 1 2 3 4 5 6 
#
# 1 0.013133 -0.004214 0.001554 0.000006 0.003032 -0.000026
# 2 -0.004214 0.010053 -0.005356 -0.000006 -0.003774 0.000032
# 3 0.001554 -0.005356 0.023435 -0.000008 0.014006 -0.000010
# 4 0.000006 -0.000006 -0.000008 0.023908 -0.000003 -0.000672
# 5 0.003032 -0.003774 0.014006 -0.000003 0.036842 -0.000026
# 6 -0.000026 0.000032 -0.000010 -0.000672 -0.000026 0.034190
#
#
# Mechanical properties :
#
#
# Convention : Reuss Voigt Hill
#
# Bulk Modulus (GPa) = 32.69253 47.19452 39.94353
# Shear Modulus (GPa) = 29.79920 35.19539 32.49729
#
# Velocity S-wave (km/s) = 3.88588 4.22308 4.05799
# Velocity P-wave (km/s) = 6.05802 6.90608 6.49590
#
# Compressibility (1/GPa) = 0.03058803
#
# Stress axis : x y z
#
# Youngs Moduli (GPa) = 76.14518 99.47354 42.67063
#
# Poissons Ratio (x) = 0.41921 -0.06630
# Poissons Ratio (y) = 0.32089 0.22854
# Poissons Ratio (z) = -0.11831 0.53278
#
# Static dielectric constant tensor:
#      x y z
#    x 1.834130 0.000030 0.067530 
#    y 0.000030 1.646080 0.000000 
#    z 0.067530 0.000000 1.681830 
# 
# From -- ./inp_files/73566.got.cif
#   From: 2010.05.17/outbox.cif.g08.bks.cpg/sg12_37_cif.got.tgz:73566.got - 2010.06.03 13:09:07.
