data_PCOD9214686
_publ_section_title
;
Structure prediction by ZEFSAII (Michael W. Deem and Ramdas Pophale) SiO2 
 PCOD9214686
Probable space group: C 2/M
;
_chemical_formula_sum "Si O2"
_cell_formula_units_Z 36
_cell_length_a 7.967479
_cell_length_b 20.760938
_cell_length_c 12.298359
_cell_angle_alpha 90.000000
_cell_angle_beta 51.261999
_cell_angle_gamma 90.000000
_cell_volume 1586.785871
_symmetry_space_group_name_H-M "C 2/M"
_symmetry_group_IT_number 12
_symmetry_cell_setting 'monoclinic'
loop_
_space_group_symop_operation_xyz
x,y,z
-x,y,-z
-x,-y,-z
x,-y,z
1/2+x,1/2+y,z
1/2-x,1/2+y,-z
1/2-x,1/2-y,-z
1/2+x,1/2-y,z
loop_
_atom_site_type_symbol
_atom_site_label
_atom_site_fract_x
_atom_site_fract_y
_atom_site_fract_z
Si Si1 0.548250 0.298156 0.238010
Si Si2 0.113268 0.572085 0.665095
Si Si3 0.223278 0.168743 0.842833
Si Si4 0.740548 0.067355 0.860988
Si Si5 0.000000 0.161040 0.500000
O O1 0.650973 0.230600 0.160167
O O2 0.332232 0.310125 0.258050
O O3 0.673581 0.362349 0.149278
O O4 0.544974 0.300435 0.370571
O O5 0.092089 0.500000 0.626284
O O6 0.219517 0.564908 0.740527
O O7 0.295174 0.618390 0.541804
O O8 0.885836 0.608366 0.772054
O O9 0.000000 0.158465 0.000000
O O10 0.850956 0.000000 0.853898
O O11 0.500000 0.065315 0.000000
#
# Coordination Sequence:
#
# PCOD9214686 Si02
#       5
#     8   8   8   8   4
#     4  11  23  39  62  89 124 163 204 251 303 364
#     4  10  22  40  63  91 125 164 205 253 305 365
#     4  12  25  41  64  93 125 162 206 259 313 362
#     4   9  17  33  58  86 118 158 202 249 304 361
#     4  10  23  44  66  90 123 164 208 248 301 372
#
# _framework density 22.687370999999999
#
# number of rings (size 3 to 8) (size 9 to 14) (size 15 to 20)
#    0.000    1.556    0.000    5.667    0.000    6.667 
#    0.000    1.111    0.000    0.000    0.000    0.000 
#    0.000    0.000    0.000    0.000    0.000    0.000 
#
# Total GULP energy -100281.376024 kJ/mol
# GULP energy per Si atom -5571.187557 kJ/mol
# Density = 2.263573 g / cm^3
# Si number density = 22.687371 Si / 1000 Ang^3
#
#
#
# Elastic Constant Matrix: (Units=GPa)
#
#
# Indices 1 2 3 4 5 6 
#
# 1 56.5033 27.9766 2.7201 0.0000 -2.2611 0.0000
# 2 27.9766 119.8060 40.7522 0.0000 -28.7797 0.0000
# 3 2.7201 40.7522 88.0385 0.0000 -14.5603 0.0000
# 4 0.0000 0.0000 0.0000 24.2837 0.0000 -16.2161
# 5 -2.2611 -28.7797 -14.5603 0.0000 35.9479 0.0000
# 6 0.0000 0.0000 0.0000 -16.2161 0.0000 5.9925
#
#
#
# Elastic Compliance Matrix: (Units=1/GPa)
#
#
# Indices 1 2 3 4 5 6 
#
# 1 0.020498 -0.006052 0.001693 0.000000 -0.002870 0.000000
# 2 -0.006052 0.013353 -0.004597 0.000000 0.008448 0.000000
# 3 0.001693 -0.004597 0.013765 0.000000 0.002002 0.000000
# 4 0.000000 0.000000 0.000000 -0.051025 0.000000 -0.138077
# 5 -0.002870 0.008448 0.002002 0.000000 0.035212 0.000000
# 6 0.000000 0.000000 0.000000 -0.138077 0.000000 -0.206771
#
#
# Mechanical properties :
#
#
# Convention : Reuss Voigt Hill
#
# Bulk Modulus (GPa) = 33.66378 45.24952 39.45665
# Shear Modulus (GPa) = -33.97777 26.10475 -3.93651
#
# Velocity S-wave (km/s) = -3.87415 3.39577 -1.31867
# Velocity P-wave (km/s) = 2.26753 5.94669 3.88725
#
# Compressibility (1/GPa) = 0.02970552
#
# Stress axis : x y z
#
# Youngs Moduli (GPa) = 48.78451 74.88925 72.64671
#
# Poissons Ratio (x) = 0.45324 -0.12303
# Poissons Ratio (y) = 0.29525 0.33395
# Poissons Ratio (z) = -0.08262 0.34426
#
# Static dielectric constant tensor:
#      x y z
#    x 1.804040 0.000000 -0.129980 
#    y 0.000000 1.979990 0.000000 
#    z -0.129980 0.000000 1.602160 
# 
# From -- ./inp_files/197445.got.cif
#   From: 2010.05.17/outbox.cif.g08.bks.cpg/sg12_99_cif.got.tgz:197445.got - 2010.06.03 13:09:07.
