data_PCOD9214840
_publ_section_title
;
Structure prediction by ZEFSAII (Michael W. Deem and Ramdas Pophale) SiO2 
 PCOD9214840
Probable space group: C 2/M
;
_chemical_formula_sum "Si O2"
_cell_formula_units_Z 40
_cell_length_a 15.012027
_cell_length_b 27.426422
_cell_length_c 10.507695
_cell_angle_alpha 90.000000
_cell_angle_beta 26.112096
_cell_angle_gamma 90.000000
_cell_volume 1904.126007
_symmetry_space_group_name_H-M "C 2/M"
_symmetry_group_IT_number 12
_symmetry_cell_setting 'monoclinic'
loop_
_space_group_symop_operation_xyz
x,y,z
-x,y,-z
-x,-y,-z
x,-y,z
1/2+x,1/2+y,z
1/2-x,1/2+y,-z
1/2-x,1/2-y,-z
1/2+x,1/2-y,z
loop_
_atom_site_type_symbol
_atom_site_label
_atom_site_fract_x
_atom_site_fract_y
_atom_site_fract_z
Si Si1 0.554621 0.782759 0.134388
Si Si2 0.951636 0.618898 0.709933
Si Si3 0.007541 0.911394 0.345809
Si Si4 0.333185 0.698097 0.549419
Si Si5 0.819279 0.944306 0.330731
O O1 0.572036 0.826040 0.212191
O O2 0.503223 0.732128 0.268332
O O3 0.359135 0.797460 0.298836
O O4 0.746112 0.782048 0.794701
O O5 0.134251 0.592148 0.547637
O O6 0.000000 0.617357 0.500000
O O7 0.741178 0.592705 0.008316
O O8 0.000000 0.930169 0.500000
O O9 0.908394 0.857015 0.470815
O O10 0.896778 0.940364 0.375852
O O11 0.759325 0.000000 0.378848
O O12 0.000000 0.931247 0.000000
#
# Coordination Sequence:
#
# PCOD9214840 Si02
#       5
#     8   8   8   8   8
#     4  10  22  40  64  97 139 182 230 273 332 398
#     4  12  25  42  71 105 133 183 230 276 339 416
#     4  12  25  44  72 103 142 178 227 282 342 404
#     4  10  22  40  65  96 139 184 224 279 329 398
#     4  11  26  49  74 101 137 176 225 289 349 409
#
# _framework density 21.007013000000001
#
# number of rings (size 3 to 8) (size 9 to 14) (size 15 to 20)
#    0.000    1.000    6.000    0.000    2.800    4.000 
#    0.000    1.000    0.000    0.000    0.000    0.000 
#    0.000    0.000    0.000    0.000    0.000    0.000 
#
# Total GULP energy -111937.192061 kJ/mol
# GULP energy per Si atom -5596.859603 kJ/mol
# Density = 2.095920 g / cm^3
# Si number density = 21.007013 Si / 1000 Ang^3
#
#
#
# Elastic Constant Matrix: (Units=GPa)
#
#
# Indices 1 2 3 4 5 6 
#
# 1 128.7637 3.3734 33.4143 0.0209 16.7025 0.0024
# 2 3.3734 48.2931 19.3692 0.0001 -2.6538 0.0019
# 3 33.4143 19.3692 118.7281 0.0349 23.8390 0.0114
# 4 0.0209 0.0001 0.0349 101.1243 0.0193 40.5652
# 5 16.7025 -2.6538 23.8390 0.0193 37.6203 -0.0017
# 6 0.0024 0.0019 0.0114 40.5652 -0.0017 26.5313
#
#
#
# Elastic Compliance Matrix: (Units=1/GPa)
#
#
# Indices 1 2 3 4 5 6 
#
# 1 0.008597 0.000017 -0.001898 -0.000001 -0.002613 0.000002
# 2 0.000017 0.022816 -0.004639 0.000001 0.004541 -0.000001
# 3 -0.001898 -0.004639 0.011011 -0.000001 -0.006462 -0.000003
# 4 -0.000001 0.000001 -0.000001 0.025574 -0.000014 -0.039102
# 5 -0.002613 0.004541 -0.006462 -0.000014 0.032157 0.000026
# 6 0.000002 -0.000001 -0.000003 -0.039102 0.000026 0.097477
#
#
# Mechanical properties :
#
#
# Convention : Reuss Voigt Hill
#
# Bulk Modulus (GPa) = 34.03099 45.34430 39.68765
# Shear Modulus (GPa) = 22.67927 49.03038 35.85483
#
# Velocity S-wave (km/s) = 3.28930 4.83639 4.13583
# Velocity P-wave (km/s) = 5.53724 7.26772 6.46068
#
# Compressibility (1/GPa) = 0.02938498
#
# Stress axis : x y z
#
# Youngs Moduli (GPa) = 116.31802 43.82941 90.81902
#
# Poissons Ratio (x) = -0.00074 0.17234
# Poissons Ratio (y) = -0.00197 0.42129
# Poissons Ratio (z) = 0.22072 0.20331
#
# Static dielectric constant tensor:
#      x y z
#    x 1.804560 0.000000 -0.010600 
#    y 0.000000 1.694730 0.000000 
#    z -0.010600 0.000000 1.727980 
# 
# From -- ./inp_files/161058.got.cif
#   From: 2010.05.17/outbox.cif.g08.bks.cpg/sg12_81_cif.got.tgz:161058.got - 2010.06.03 13:09:07.
