data_PCOD9214546
_publ_section_title
;
Structure prediction by ZEFSAII (Michael W. Deem and Ramdas Pophale) SiO2 
 PCOD9214546
Probable space group: C 2/M
;
_chemical_formula_sum "Si O2"
_cell_formula_units_Z 56
_cell_length_a 14.009573
_cell_length_b 9.783568
_cell_length_c 22.261826
_cell_angle_alpha 90.000000
_cell_angle_beta 111.687287
_cell_angle_gamma 90.000000
_cell_volume 2835.299690
_symmetry_space_group_name_H-M "C 2/M"
_symmetry_group_IT_number 12
_symmetry_cell_setting 'monoclinic'
loop_
_space_group_symop_operation_xyz
x,y,z
-x,y,-z
-x,-y,-z
x,-y,z
1/2+x,1/2+y,z
1/2-x,1/2+y,-z
1/2-x,1/2-y,-z
1/2+x,1/2-y,z
loop_
_atom_site_type_symbol
_atom_site_label
_atom_site_fract_x
_atom_site_fract_y
_atom_site_fract_z
Si Si1 0.329670 0.000000 0.993864
Si Si2 0.841952 0.838729 0.263361
Si Si3 0.433953 0.161005 0.390922
Si Si4 0.068141 0.147698 0.844017
Si Si5 0.059040 0.500000 0.100894
Si Si6 0.753557 0.681066 0.056081
Si Si7 0.344883 0.840546 0.503095
Si Si8 0.358280 0.723362 0.843795
O O1 0.352220 0.000000 0.928157
O O2 0.290892 0.167298 0.988114
O O3 0.446408 0.000000 0.047256
O O4 0.891184 0.763294 0.331321
O O5 0.918519 0.837317 0.223994
O O6 0.743415 0.751123 0.218413
O O7 0.816724 0.000000 0.268171
O O8 0.553360 0.187418 0.433917
O O9 0.375285 0.179705 0.440536
O O10 0.423480 0.000000 0.371212
O O11 0.138591 0.263515 0.890843
O O12 0.950794 0.138840 0.837042
O O13 0.116565 0.000000 0.873443
O O14 0.082475 0.366649 0.142451
O O15 0.758822 0.500000 0.046078
O O16 0.675399 0.680336 0.096309
O O17 0.250000 0.750000 0.500000
O O18 0.319982 0.000000 0.505011
#
# Coordination Sequence:
#
# PCOD9214546 Si02
#       8
#     4   8   8   8   4   8   8   8
#     4  11  22  36  58  84 105 140 187 238 292 353
#     4  10  22  40  62  83 114 158 197 237 283 338
#     4   9  20  40  60  88 125 158 194 236 285 338
#     4  10  24  42  55  78 112 145 186 236 288 344
#     4  11  20  38  60  77 110 142 188 236 290 351
#     4  11  23  36  58  80 106 140 182 231 294 349
#     4   9  19  37  63  91 125 161 192 236 287 331
#     4  11  22  40  58  79 109 150 184 235 290 346
#
# _framework density 19.750997999999999
#
# number of rings (size 3 to 8) (size 9 to 14) (size 15 to 20)
#    0.000    1.857    3.571    0.857    3.000    3.429 
#    5.143    6.429    0.000    0.000    0.000    0.000 
#    0.000    0.000    0.000    0.000    0.000    0.000 
#
# Total GULP energy -155958.593100 kJ/mol
# GULP energy per Si atom -5569.949754 kJ/mol
# Density = 1.970604 g / cm^3
# Si number density = 19.750998 Si / 1000 Ang^3
#
#
#
# Elastic Constant Matrix: (Units=GPa)
#
#
# Indices 1 2 3 4 5 6 
#
# 1 147.2971 51.1609 43.4952 0.0000 18.0127 0.0000
# 2 51.1609 109.2536 62.2449 0.0000 7.6169 0.0000
# 3 43.4952 62.2449 108.5994 0.0000 6.9590 0.0000
# 4 0.0000 0.0000 0.0000 32.6048 0.0000 9.8498
# 5 18.0127 7.6169 6.9590 0.0000 6.5280 0.0000
# 6 0.0000 0.0000 0.0000 9.8498 0.0000 23.8663
#
#
#
# Elastic Compliance Matrix: (Units=1/GPa)
#
#
# Indices 1 2 3 4 5 6 
#
# 1 0.011410 -0.002740 -0.001274 0.000000 -0.026928 0.000000
# 2 -0.002740 0.014661 -0.007185 0.000000 -0.001887 0.000000
# 3 -0.001274 -0.007185 0.014033 0.000000 -0.003061 0.000000
# 4 0.000000 0.000000 0.000000 0.035039 0.000000 -0.014461
# 5 -0.026928 -0.001887 -0.003061 0.000000 0.232953 0.000000
# 6 0.000000 0.000000 0.000000 -0.014461 0.000000 0.047868
#
#
# Mechanical properties :
#
#
# Convention : Reuss Voigt Hill
#
# Bulk Modulus (GPa) = 56.47704 75.43914 65.95809
# Shear Modulus (GPa) = 13.01193 26.48311 19.74752
#
# Velocity S-wave (km/s) = 2.56949 3.66573 3.16543
# Velocity P-wave (km/s) = 6.12043 7.49632 6.84304
#
# Compressibility (1/GPa) = 0.01770631
#
# Stress axis : x y z
#
# Youngs Moduli (GPa) = 87.64411 68.20816 71.26293
#
# Poissons Ratio (x) = 0.18688 0.09078
# Poissons Ratio (y) = 0.24013 0.51201
# Poissons Ratio (z) = 0.11164 0.49007
#
# Static dielectric constant tensor:
#      x y z
#    x 1.684190 0.000000 -0.016320 
#    y 0.000000 1.836480 0.000000 
#    z -0.016320 0.000000 1.656030 
# 
# From -- ./inp_files/339126.got.cif
#   From: 2010.05.17/outbox.cif.g08.bks.cpg/sg12_170_cif.got.tgz:339126.got - 2010.06.03 13:09:07.
