data_PCOD9214388
_publ_section_title
;
Structure prediction by ZEFSAII (Michael W. Deem and Ramdas Pophale) SiO2 
 PCOD9214388
Probable space group: C 2/M
;
_chemical_formula_sum "Si O2"
_cell_formula_units_Z 56
_cell_length_a 18.477974
_cell_length_b 8.566957
_cell_length_c 29.741756
_cell_angle_alpha 90.000000
_cell_angle_beta 39.212781
_cell_angle_gamma 90.000000
_cell_volume 2976.483754
_symmetry_space_group_name_H-M "C 2/M"
_symmetry_group_IT_number 12
_symmetry_cell_setting 'monoclinic'
loop_
_space_group_symop_operation_xyz
x,y,z
-x,y,-z
-x,-y,-z
x,-y,z
1/2+x,1/2+y,z
1/2-x,1/2+y,-z
1/2-x,1/2-y,-z
1/2+x,1/2-y,z
loop_
_atom_site_type_symbol
_atom_site_label
_atom_site_fract_x
_atom_site_fract_y
_atom_site_fract_z
Si Si1 0.050609 0.312595 0.793586
Si Si2 0.645077 0.811859 0.651450
Si Si3 0.704198 0.687149 0.069353
Si Si4 0.214876 0.812570 0.792016
Si Si5 0.131319 0.688664 0.927772
Si Si6 0.974487 0.310238 0.653187
Si Si7 0.170716 0.687066 0.497618
O O1 0.046034 0.500000 0.796006
O O2 0.106104 0.261176 0.719506
O O3 0.127756 0.255015 0.797516
O O4 0.922714 0.248546 0.860042
O O5 0.550611 0.760788 0.659703
O O6 0.768805 0.751093 0.575983
O O7 0.647973 0.000000 0.648872
O O8 0.702694 0.500000 0.068486
O O9 0.789108 0.735546 0.068719
O O10 0.750000 0.750000 0.000000
O O11 0.177616 0.760066 0.859465
O O12 0.344383 0.756732 0.719505
O O13 0.213106 0.000000 0.790419
O O14 0.134561 0.500000 0.922454
O O15 0.000000 0.734522 0.000000
O O16 0.972895 0.500000 0.654964
O O17 0.043538 0.264923 0.574742
O O18 0.175325 0.500000 0.494587
O O19 0.250000 0.750000 0.500000
#
# Coordination Sequence:
#
# PCOD9214388 Si02
#       7
#     8   8   8   8   8   8   8
#     4  11  23  39  57  79 114 153 188 233 283 328
#     4   9  18  34  55  78 106 143 186 230 279 332
#     4  11  23  39  62  90 118 149 186 226 272 331
#     4  11  22  37  58  82 110 146 190 233 276 334
#     4  10  22  40  60  84 115 146 177 221 276 328
#     4   8  16  32  53  78 106 138 178 225 277 331
#     4   9  16  29  51  78 108 140 178 226 279 335
#
# _framework density 18.814146000000001
#
# number of rings (size 3 to 8) (size 9 to 14) (size 15 to 20)
#    0.000    2.143    0.000    4.286    0.000    4.857 
#    0.000    9.286    0.000    4.286    0.000    0.000 
#    0.000    0.000    0.000    0.000    0.000    0.000 
#
# Total GULP energy -156300.099030 kJ/mol
# GULP energy per Si atom -5582.146394 kJ/mol
# Density = 1.877132 g / cm^3
# Si number density = 18.814146 Si / 1000 Ang^3
#
#
#
# Elastic Constant Matrix: (Units=GPa)
#
#
# Indices 1 2 3 4 5 6 
#
# 1 141.5846 34.5442 106.5081 0.0000 -1.0077 0.0000
# 2 34.5442 30.9883 45.2288 0.0000 2.3827 -0.0016
# 3 106.5081 45.2288 224.9407 0.0000 -0.4756 0.0000
# 4 0.0000 0.0000 0.0000 33.8852 0.0001 3.4271
# 5 -1.0077 2.3827 -0.4756 0.0001 33.6865 0.0001
# 6 0.0000 -0.0016 0.0000 3.4271 0.0001 17.0166
#
#
#
# Elastic Compliance Matrix: (Units=1/GPa)
#
#
# Indices 1 2 3 4 5 6 
#
# 1 0.012030 -0.007306 -0.004225 0.000000 0.000817 -0.000001
# 2 -0.007306 0.050495 -0.006702 0.000000 -0.003885 0.000005
# 3 -0.004225 -0.006702 0.007795 0.000000 0.000458 -0.000001
# 4 0.000000 0.000000 0.000000 0.030125 0.000000 -0.006067
# 5 0.000817 -0.003885 0.000458 0.000000 0.029991 0.000000
# 6 -0.000001 0.000005 -0.000001 -0.006067 0.000000 0.059988
#
#
# Mechanical properties :
#
#
# Convention : Reuss Voigt Hill
#
# Bulk Modulus (GPa) = 29.53924 85.56396 57.55160
# Shear Modulus (GPa) = 20.99299 30.99982 25.99640
#
# Velocity S-wave (km/s) = 3.34400 4.06357 3.72122
# Velocity P-wave (km/s) = 5.53574 8.22156 7.00851
#
# Compressibility (1/GPa) = 0.03385327
#
# Stress axis : x y z
#
# Youngs Moduli (GPa) = 83.12714 19.80390 128.29103
#
# Poissons Ratio (x) = 0.14469 0.54207
# Poissons Ratio (y) = 0.60733 0.85979
# Poissons Ratio (z) = 0.35124 0.13272
#
# Static dielectric constant tensor:
#      x y z
#    x 1.488650 0.000000 -0.056370 
#    y 0.000000 1.642570 0.000000 
#    z -0.056370 0.000000 1.639230 
# 
# From -- ./inp_files/275144.got.cif
#   From: 2010.05.17/outbox.cif.g08.bks.cpg/sg12_138_cif.got.tgz:275144.got - 2010.06.03 13:09:07.
