data_PCOD9214142
_publ_section_title
;
Structure prediction by ZEFSAII (Michael W. Deem and Ramdas Pophale) SiO2 
 PCOD9214142
Probable space group: C 2/M
;
_chemical_formula_sum "Si O2"
_cell_formula_units_Z 42
_cell_length_a 18.806705
_cell_length_b 7.900166
_cell_length_c 15.159097
_cell_angle_alpha 90.000000
_cell_angle_beta 124.738911
_cell_angle_gamma 90.000000
_cell_volume 1850.826887
_symmetry_space_group_name_H-M "C 2/M"
_symmetry_group_IT_number 12
_symmetry_cell_setting 'monoclinic'
loop_
_space_group_symop_operation_xyz
x,y,z
-x,y,-z
-x,-y,-z
x,-y,z
1/2+x,1/2+y,z
1/2-x,1/2+y,-z
1/2-x,1/2-y,-z
1/2+x,1/2-y,z
loop_
_atom_site_type_symbol
_atom_site_label
_atom_site_fract_x
_atom_site_fract_y
_atom_site_fract_z
Si Si1 0.299459 0.802443 0.414951
Si Si2 0.120754 0.309387 0.074071
Si Si3 0.618184 0.802675 0.346452
Si Si4 0.324266 0.299907 0.243336
Si Si5 0.000000 0.000000 0.000000
Si Si6 0.935149 0.198667 0.153296
O O1 0.355131 0.737629 0.537161
O O2 0.205455 0.715457 0.350873
O O3 0.343095 0.780703 0.351252
O O4 0.283648 0.000000 0.420811
O O5 0.103000 0.500000 0.096911
O O6 0.093145 0.302687 0.951816
O O7 0.222886 0.275915 0.151967
O O8 0.068727 0.152009 0.077213
O O9 0.535121 0.712732 0.248890
O O10 0.595696 0.000000 0.337384
O O11 0.339749 0.500000 0.263346
O O12 0.380732 0.245105 0.200008
O O13 0.917412 0.000000 0.117194
#
# Coordination Sequence:
#
# PCOD9214142 Si02
#       6
#     8   8   8   8   2   8
#     4  10  22  39  63  90 123 164 210 265 324 380
#     4  11  25  44  66  98 135 169 210 267 322 378
#     4  10  22  40  61  91 125 163 210 266 325 380
#     4  10  24  42  64  91 126 169 213 261 320 384
#     4  12  26  44  68 102 128 168 224 260 320 392
#     4  11  23  42  65  92 126 171 216 260 318 387
#
# _framework density 22.69256
#
# number of rings (size 3 to 8) (size 9 to 14) (size 15 to 20)
#    0.000    1.524    0.952    2.571    4.000    4.571 
#    0.000    3.810    0.000    0.000    0.000    0.000 
#    0.000    0.000    0.000    0.000    0.000    0.000 
#
# Total GULP energy -117257.629214 kJ/mol
# GULP energy per Si atom -5583.696629 kJ/mol
# Density = 2.264091 g / cm^3
# Si number density = 22.692560 Si / 1000 Ang^3
#
#
#
# Elastic Constant Matrix: (Units=GPa)
#
#
# Indices 1 2 3 4 5 6 
#
# 1 62.2989 27.4048 44.4666 0.0000 -5.1775 0.0000
# 2 27.4048 96.2588 12.5649 0.0000 -10.0348 0.0000
# 3 44.4666 12.5649 107.2329 0.0000 -11.3711 0.0000
# 4 0.0000 0.0000 0.0000 17.5167 0.0000 -3.1700
# 5 -5.1775 -10.0348 -11.3711 0.0000 12.2695 0.0000
# 6 0.0000 0.0000 0.0000 -3.1700 0.0000 32.1248
#
#
#
# Elastic Compliance Matrix: (Units=1/GPa)
#
#
# Indices 1 2 3 4 5 6 
#
# 1 0.026027 -0.006461 -0.010459 0.000000 -0.003995 0.000000
# 2 -0.006461 0.012975 0.002213 0.000000 0.009936 0.000000
# 3 -0.010459 0.002213 0.014558 0.000000 0.010888 0.000000
# 4 0.000000 0.000000 0.000000 0.058126 0.000000 0.005736
# 5 -0.003995 0.009936 0.010888 0.000000 0.098035 0.000000
# 6 0.000000 0.000000 0.000000 0.005736 0.000000 0.031695
#
#
# Mechanical properties :
#
#
# Convention : Reuss Voigt Hill
#
# Bulk Modulus (GPa) = 41.41712 48.29592 44.85652
# Shear Modulus (GPa) = 17.92885 24.47249 21.20067
#
# Velocity S-wave (km/s) = 2.81388 3.28752 3.05988
# Velocity P-wave (km/s) = 5.37106 5.97823 5.68276
#
# Compressibility (1/GPa) = 0.02414460
#
# Stress axis : x y z
#
# Youngs Moduli (GPa) = 38.42111 77.07038 68.69057
#
# Poissons Ratio (x) = 0.49796 0.71846
# Poissons Ratio (y) = 0.24824 -0.15198
# Poissons Ratio (z) = 0.40186 -0.17052
#
# Static dielectric constant tensor:
#      x y z
#    x 1.888800 0.000000 -0.076940 
#    y 0.000000 1.826270 0.000000 
#    z -0.076940 0.000000 1.874300 
# 
# From -- ./inp_files/221412.got.cif
#   From: 2010.05.17/outbox.cif.g08.bks.cpg/sg12_111_cif.got.tgz:221412.got - 2010.06.03 13:09:07.
