data_PCOD9214419
_publ_section_title
;
Structure prediction by ZEFSAII (Michael W. Deem and Ramdas Pophale) SiO2 
 PCOD9214419
Probable space group: C 2/M
;
_chemical_formula_sum "Si O2"
_cell_formula_units_Z 56
_cell_length_a 20.110108
_cell_length_b 8.767865
_cell_length_c 22.060554
_cell_angle_alpha 90.000000
_cell_angle_beta 132.323190
_cell_angle_gamma 90.000000
_cell_volume 2875.940012
_symmetry_space_group_name_H-M "C 2/M"
_symmetry_group_IT_number 12
_symmetry_cell_setting 'monoclinic'
loop_
_space_group_symop_operation_xyz
x,y,z
-x,y,-z
-x,-y,-z
x,-y,z
1/2+x,1/2+y,z
1/2-x,1/2+y,-z
1/2-x,1/2-y,-z
1/2+x,1/2-y,z
loop_
_atom_site_type_symbol
_atom_site_label
_atom_site_fract_x
_atom_site_fract_y
_atom_site_fract_z
Si Si1 0.715179 0.682571 0.854602
Si Si2 0.565586 0.318757 0.438447
Si Si3 0.085426 0.682333 0.869646
Si Si4 0.418620 0.317286 0.694804
Si Si5 0.418826 0.814265 0.993076
Si Si6 0.873950 0.681597 0.318609
Si Si7 0.278898 0.183308 0.382976
O O1 0.711705 0.500000 0.854487
O O2 0.671789 0.746415 0.889494
O O3 0.818916 0.731337 0.910554
O O4 0.656275 0.740689 0.762193
O O5 0.556280 0.500000 0.440510
O O6 0.580687 0.286342 0.376499
O O7 0.472371 0.238258 0.398460
O O8 0.648715 0.258928 0.528353
O O9 0.094217 0.500000 0.874175
O O10 0.999314 0.733294 0.777947
O O11 0.072776 0.732240 0.931502
O O12 0.430313 0.500000 0.709876
O O13 0.322207 0.271582 0.662504
O O14 0.421321 0.000000 0.993513
O O15 0.500000 0.759959 0.000000
O O16 0.875544 0.500000 0.311204
O O17 0.805240 0.720674 0.330291
O O18 0.285584 0.000000 0.394206
#
# Coordination Sequence:
#
# PCOD9214419 Si02
#       7
#     8   8   8   8   8   8   8
#     4  11  22  39  64  88 120 160 198 247 296 350
#     4  11  22  38  61  88 118 157 205 251 296 354
#     4  11  22  38  64  91 119 159 202 243 291 355
#     4  10  22  40  60  86 122 160 199 246 299 351
#     4   9  21  40  62  92 125 155 193 243 297 351
#     4  11  23  39  60  87 121 159 202 248 298 356
#     4  10  23  40  59  84 121 162 199 250 304 350
#
# _framework density 19.471893999999999
#
# number of rings (size 3 to 8) (size 9 to 14) (size 15 to 20)
#    0.000    1.571    1.429    3.000    2.000    4.000 
#    0.000    2.143    0.000    3.429    0.000    0.000 
#    0.000    0.000    0.000    0.000    0.000    0.000 
#
# Total GULP energy -156530.827071 kJ/mol
# GULP energy per Si atom -5590.386681 kJ/mol
# Density = 1.942758 g / cm^3
# Si number density = 19.471894 Si / 1000 Ang^3
#
#
#
# Elastic Constant Matrix: (Units=GPa)
#
#
# Indices 1 2 3 4 5 6 
#
# 1 131.3884 34.0787 31.4044 0.0000 21.7137 0.0000
# 2 34.0787 22.9074 9.6745 0.0000 11.3109 0.0000
# 3 31.4044 9.6745 65.7692 0.0000 25.2355 0.0000
# 4 0.0000 0.0000 0.0000 4.5238 0.0000 5.5202
# 5 21.7137 11.3109 25.2355 0.0000 4.8070 0.0000
# 6 0.0000 0.0000 0.0000 5.5202 0.0000 22.7141
#
#
#
# Elastic Compliance Matrix: (Units=1/GPa)
#
#
# Indices 1 2 3 4 5 6 
#
# 1 0.013145 -0.017560 -0.003190 0.000000 -0.001313 0.000000
# 2 -0.017560 0.053463 -0.018096 0.000000 0.048518 0.000000
# 3 -0.003190 -0.018096 0.002441 0.000000 0.044171 0.000000
# 4 0.000000 0.000000 0.000000 0.314249 0.000000 -0.076371
# 5 -0.001313 0.048518 0.044171 0.000000 -0.132085 0.000000
# 6 0.000000 0.000000 0.000000 -0.076371 0.000000 0.062586
#
#
# Mechanical properties :
#
#
# Convention : Reuss Voigt Hill
#
# Bulk Modulus (GPa) = -115.72290 41.15337 -37.28476
# Shear Modulus (GPa) = 12.86636 16.06946 14.46791
#
# Velocity S-wave (km/s) = 2.57332 2.87586 2.72879
# Velocity P-wave (km/s) = 7.12253 5.67521 3.04322
#
# Compressibility (1/GPa) = -0.00864133
#
# Stress axis : x y z
#
# Youngs Moduli (GPa) = 76.07400 18.70442 409.59381
#
# Poissons Ratio (x) = 0.32845 1.30651
# Poissons Ratio (y) = 1.33586 7.41193
# Poissons Ratio (z) = 0.24266 0.33847
#
# Static dielectric constant tensor:
#      x y z
#    x 1.684260 0.000000 -0.003220 
#    y 0.000000 1.656640 0.000000 
#    z -0.003220 0.000000 1.641760 
# 
# From -- ./inp_files/342551.got.cif
#   From: 2010.05.17/outbox.cif.g08.bks.cpg/sg12_172_cif.got.tgz:342551.got - 2010.06.03 13:09:07.
