data_PCOD9214945
_publ_section_title
;
Structure prediction by ZEFSAII (Michael W. Deem and Ramdas Pophale) SiO2 
 PCOD9214945
Probable space group: C 2/M
;
_chemical_formula_sum "Si O2"
_cell_formula_units_Z 40
_cell_length_a 8.878984
_cell_length_b 16.959279
_cell_length_c 25.348389
_cell_angle_alpha 90.000000
_cell_angle_beta 151.111740
_cell_angle_gamma 90.000000
_cell_volume 1843.999275
_symmetry_space_group_name_H-M "C 2/M"
_symmetry_group_IT_number 12
_symmetry_cell_setting 'monoclinic'
loop_
_space_group_symop_operation_xyz
x,y,z
-x,y,-z
-x,-y,-z
x,-y,z
1/2+x,1/2+y,z
1/2-x,1/2+y,-z
1/2-x,1/2-y,-z
1/2+x,1/2-y,z
loop_
_atom_site_type_symbol
_atom_site_label
_atom_site_fract_x
_atom_site_fract_y
_atom_site_fract_z
Si Si1 0.842395 0.087356 0.579449
Si Si2 0.322461 0.835579 0.000615
Si Si3 0.244710 0.411904 0.768094
Si Si4 0.314218 0.290461 0.389405
Si Si5 0.053990 0.869842 0.753954
O O1 0.500000 0.095244 0.500000
O O2 0.950597 0.160220 0.576379
O O3 0.044286 0.090210 0.694283
O O4 0.860027 0.000000 0.559098
O O5 0.583560 0.868080 0.119654
O O6 0.500000 0.826652 0.000000
O O7 0.250000 0.750000 0.000000
O O8 0.013731 0.884371 0.891510
O O9 0.142755 0.500000 0.749556
O O10 0.384408 0.409673 0.751699
O O11 0.961505 0.351753 0.683156
O O12 0.500000 0.272036 0.500000
O O13 0.133558 0.214029 0.310380
#
# Coordination Sequence:
#
# PCOD9214945 Si02
#       5
#     8   8   8   8   8
#     4  11  25  43  63  92 130 170 213 267 326 379
#     4  10  22  40  66  93 128 169 209 259 318 380
#     4  11  24  42  66  99 132 169 215 266 322 381
#     4  12  25  42  66  95 130 173 218 266 321 385
#     4  11  23  41  68  92 128 169 218 264 313 386
#
# _framework density 21.691983
#
# number of rings (size 3 to 8) (size 9 to 14) (size 15 to 20)
#    0.000    1.000    2.000    4.200    2.800   10.000 
#    0.000    0.000    0.000    3.000    0.000    0.000 
#    0.000    0.000    0.000    0.000    0.000    0.000 
#
# Total GULP energy -111764.091093 kJ/mol
# GULP energy per Si atom -5588.204555 kJ/mol
# Density = 2.164261 g / cm^3
# Si number density = 21.691983 Si / 1000 Ang^3
#
#
#
# Elastic Constant Matrix: (Units=GPa)
#
#
# Indices 1 2 3 4 5 6 
#
# 1 39.0794 12.0541 25.9671 0.0008 1.9946 0.0008
# 2 12.0541 134.5008 26.8655 0.0011 0.1852 0.0001
# 3 25.9671 26.8655 135.4481 -0.0012 -12.7161 -0.0025
# 4 0.0008 0.0011 -0.0012 17.5161 0.0004 -8.9918
# 5 1.9946 0.1852 -12.7161 0.0004 36.6387 0.0012
# 6 0.0008 0.0001 -0.0025 -8.9918 0.0012 7.9886
#
#
#
# Elastic Compliance Matrix: (Units=1/GPa)
#
#
# Indices 1 2 3 4 5 6 
#
# 1 0.030109 -0.001533 -0.005811 -0.000009 -0.003648 -0.000014
# 2 -0.001533 0.007832 -0.001298 -0.000001 -0.000407 -0.000002
# 3 -0.005811 -0.001298 0.009080 0.000006 0.003474 0.000009
# 4 -0.000009 -0.000001 0.000006 0.135226 -0.000004 0.152209
# 5 -0.003648 -0.000407 0.003474 -0.000004 0.028700 -0.000008
# 6 -0.000014 -0.000002 0.000009 0.152209 -0.000008 0.296503
#
#
# Mechanical properties :
#
#
# Convention : Reuss Voigt Hill
#
# Bulk Modulus (GPa) = 33.62586 48.75575 41.19080
# Shear Modulus (GPa) = 9.35197 28.70478 19.02838
#
# Velocity S-wave (km/s) = 2.07861 3.64165 2.96498
# Velocity P-wave (km/s) = 4.61476 6.34093 5.54542
#
# Compressibility (1/GPa) = 0.02973902
#
# Stress axis : x y z
#
# Youngs Moduli (GPa) = 33.21266 127.68063 110.12612
#
# Poissons Ratio (x) = 0.19570 0.63992
# Poissons Ratio (y) = 0.05091 0.14292
# Poissons Ratio (z) = 0.19299 0.16570
#
# Static dielectric constant tensor:
#      x y z
#    x 1.825550 0.000000 0.047000 
#    y 0.000000 1.802560 0.000000 
#    z 0.047000 0.000000 1.976350 
# 
# From -- ./inp_files/118935.got.cif
#   From: 2010.05.17/outbox.cif.g08.bks.cpg/sg12_60_cif.got.tgz:118935.got - 2010.06.03 13:09:07.
