data_PCOD9214228
_publ_section_title
;
Structure prediction by ZEFSAII (Michael W. Deem and Ramdas Pophale) SiO2 
 PCOD9214228
Probable space group: C 2/M
;
_chemical_formula_sum "Si O2"
_cell_formula_units_Z 40
_cell_length_a 12.587692
_cell_length_b 13.036354
_cell_length_c 9.551243
_cell_angle_alpha 90.000000
_cell_angle_beta 87.448304
_cell_angle_gamma 90.000000
_cell_volume 1565.782060
_symmetry_space_group_name_H-M "C 2/M"
_symmetry_group_IT_number 12
_symmetry_cell_setting 'monoclinic'
loop_
_space_group_symop_operation_xyz
x,y,z
-x,y,-z
-x,-y,-z
x,-y,z
1/2+x,1/2+y,z
1/2-x,1/2+y,-z
1/2-x,1/2-y,-z
1/2+x,1/2-y,z
loop_
_atom_site_type_symbol
_atom_site_label
_atom_site_fract_x
_atom_site_fract_y
_atom_site_fract_z
Si Si1 0.899043 0.326955 0.248630
Si Si2 0.880435 0.315402 0.843643
Si Si3 0.832418 0.615353 0.555112
Si Si4 0.208526 0.113278 0.057878
Si Si5 0.411190 0.616279 0.386351
O O1 0.892830 0.366786 0.407564
O O2 0.794326 0.363425 0.175628
O O3 0.911667 0.204476 0.269594
O O4 0.002671 0.362684 0.158964
O O5 0.860380 0.308032 0.678429
O O6 0.873097 0.206364 0.922182
O O7 0.782286 0.377090 0.915852
O O8 0.854964 0.500000 0.604703
O O9 0.706059 0.623159 0.538318
O O10 0.163623 0.000000 0.073875
O O11 0.500000 0.632435 0.500000
O O12 0.424003 0.500000 0.330826
#
# Coordination Sequence:
#
# PCOD9214228 Si02
#       5
#     8   8   8   8   8
#     4  12  24  42  68 102 135 175 225 281 339 402
#     4  11  25  45  69  99 136 179 229 278 334 403
#     4  11  23  41  68 101 136 176 226 282 338 402
#     4  11  26  47  71  98 138 184 226 276 338 406
#     4  10  22  39  64  98 139 180 220 276 344 401
#
# _framework density 25.546341000000002
#
# number of rings (size 3 to 8) (size 9 to 14) (size 15 to 20)
#    0.000    1.000    2.000    4.200    2.800    5.600 
#    0.000    0.000    0.000    3.600    0.000    0.000 
#    0.000    0.000    0.000    0.000    0.000    0.000 
#
# Total GULP energy -112089.045548 kJ/mol
# GULP energy per Si atom -5604.452277 kJ/mol
# Density = 2.548820 g / cm^3
# Si number density = 25.546341 Si / 1000 Ang^3
#
#
#
# Elastic Constant Matrix: (Units=GPa)
#
#
# Indices 1 2 3 4 5 6 
#
# 1 63.8960 -7.6581 15.2230 0.0000 -21.2411 0.0000
# 2 -7.6581 115.3958 8.9241 0.0000 -7.3862 0.0000
# 3 15.2230 8.9241 138.7895 0.0000 -17.4050 0.0000
# 4 0.0000 0.0000 0.0000 17.3762 0.0000 11.1321
# 5 -21.2411 -7.3862 -17.4050 0.0000 41.3016 0.0000
# 6 0.0000 0.0000 0.0000 11.1321 0.0000 15.0645
#
#
#
# Elastic Compliance Matrix: (Units=1/GPa)
#
#
# Indices 1 2 3 4 5 6 
#
# 1 0.019431 0.002003 -0.001016 0.000000 0.009924 0.000000
# 2 0.002003 0.008992 -0.000493 0.000000 0.002431 0.000000
# 3 -0.001016 -0.000493 0.007677 0.000000 0.002625 0.000000
# 4 0.000000 0.000000 0.000000 0.109290 0.000000 -0.080761
# 5 0.009924 0.002431 0.002625 0.000000 0.030857 0.000000
# 6 0.000000 0.000000 0.000000 -0.080761 0.000000 0.126061
#
#
# Mechanical properties :
#
#
# Convention : Reuss Voigt Hill
#
# Bulk Modulus (GPa) = 26.96114 39.00658 32.98386
# Shear Modulus (GPa) = 15.93968 34.85461 25.39715
#
# Velocity S-wave (km/s) = 2.50061 3.69774 3.15645
# Velocity P-wave (km/s) = 4.34904 5.79078 5.12090
#
# Compressibility (1/GPa) = 0.03709042
#
# Stress axis : x y z
#
# Youngs Moduli (GPa) = 51.46291 111.20396 130.25189
#
# Poissons Ratio (x) = -0.22277 0.13229
# Poissons Ratio (y) = -0.10310 0.06423
# Poissons Ratio (z) = 0.05227 0.05484
#
# Static dielectric constant tensor:
#      x y z
#    x 2.030110 0.000000 0.017140 
#    y 0.000000 2.044150 0.000000 
#    z 0.017140 0.000000 1.963110 
# 
# From -- ./inp_files/58968.got.cif
#   From: 2010.05.17/outbox.cif.g08.bks.cpg/sg12_30_cif.got.tgz:58968.got - 2010.06.03 13:09:07.
