data_PCOD9214321
_publ_section_title
;
Structure prediction by ZEFSAII (Michael W. Deem and Ramdas Pophale) SiO2 
 PCOD9214321
Probable space group: C 2/M
;
_chemical_formula_sum "Si O2"
_cell_formula_units_Z 48
_cell_length_a 16.932618
_cell_length_b 15.169563
_cell_length_c 11.040686
_cell_angle_alpha 90.000000
_cell_angle_beta 76.680323
_cell_angle_gamma 90.000000
_cell_volume 2759.628535
_symmetry_space_group_name_H-M "C 2/M"
_symmetry_group_IT_number 12
_symmetry_cell_setting 'monoclinic'
loop_
_space_group_symop_operation_xyz
x,y,z
-x,y,-z
-x,-y,-z
x,-y,z
1/2+x,1/2+y,z
1/2-x,1/2+y,-z
1/2-x,1/2-y,-z
1/2+x,1/2-y,z
loop_
_atom_site_type_symbol
_atom_site_label
_atom_site_fract_x
_atom_site_fract_y
_atom_site_fract_z
Si Si1 0.074876 0.898333 0.848221
Si Si2 0.598476 0.598431 0.178525
Si Si3 0.166371 0.900773 0.569726
Si Si4 0.322362 0.100381 0.688701
Si Si5 0.411060 0.725107 0.590399
Si Si6 0.283456 0.661990 0.050543
O O1 0.097955 0.894526 0.697870
O O2 0.135860 0.831542 0.893010
O O3 0.978437 0.886508 0.883527
O O4 0.094999 0.000000 0.879562
O O5 0.588848 0.500000 0.231547
O O6 0.593960 0.670167 0.284091
O O7 0.681106 0.605406 0.073113
O O8 0.249768 0.894044 0.615477
O O9 0.150645 0.824542 0.479033
O O10 0.162089 0.000000 0.517607
O O11 0.385474 0.175411 0.629771
O O12 0.282528 0.121394 0.834368
O O13 0.352995 0.000000 0.677817
O O14 0.500000 0.720615 0.500000
O O15 0.250000 0.750000 0.000000
#
# Coordination Sequence:
#
# PCOD9214321 Si02
#       6
#     8   8   8   8   8   8
#     4   9  18  33  55  82 112 144 173 215 275 335
#     4  11  21  34  55  84 116 143 170 219 283 333
#     4   9  18  34  56  81 112 145 174 218 278 325
#     4  10  22  40  57  75 107 150 190 224 259 316
#     4  12  22  34  55  85 114 142 181 226 268 318
#     4  11  20  35  55  82 108 137 183 226 269 316
#
# _framework density 17.393644999999999
#
# number of rings (size 3 to 8) (size 9 to 14) (size 15 to 20)
#    0.000    1.667    3.333    4.000    0.000    2.333 
#    0.000    0.000    0.000    0.000    0.000    4.667 
#    0.000    0.000    0.000    0.000    0.000    0.000 
#
# Total GULP energy -133785.015293 kJ/mol
# GULP energy per Si atom -5574.375637 kJ/mol
# Density = 1.735406 g / cm^3
# Si number density = 17.393645 Si / 1000 Ang^3
#
#
#
# Elastic Constant Matrix: (Units=GPa)
#
#
# Indices 1 2 3 4 5 6 
#
# 1 35.8855 38.9891 23.3508 0.0000 7.7094 0.0000
# 2 38.9891 137.1654 53.8168 0.0000 13.6360 0.0000
# 3 23.3508 53.8168 83.8392 0.0000 2.1340 0.0000
# 4 0.0000 0.0000 0.0000 28.3519 0.0000 5.1236
# 5 7.7094 13.6360 2.1340 0.0000 22.5589 0.0000
# 6 0.0000 0.0000 0.0000 5.1236 0.0000 24.0050
#
#
#
# Elastic Compliance Matrix: (Units=1/GPa)
#
#
# Indices 1 2 3 4 5 6 
#
# 1 0.043645 -0.009155 -0.006055 0.000000 -0.008809 0.000000
# 2 -0.009155 0.012344 -0.005276 0.000000 -0.003834 0.000000
# 3 -0.006055 -0.005276 0.016908 0.000000 0.003659 0.000000
# 4 0.000000 0.000000 0.000000 0.036686 0.000000 -0.007830
# 5 -0.008809 -0.003834 0.003659 0.000000 0.049310 0.000000
# 6 0.000000 0.000000 0.000000 -0.007830 0.000000 0.043329
#
#
# Mechanical properties :
#
#
# Convention : Reuss Voigt Hill
#
# Bulk Modulus (GPa) = 31.32386 54.35595 42.83990
# Shear Modulus (GPa) = 19.69766 24.36537 22.03152
#
# Velocity S-wave (km/s) = 3.36886 3.74681 3.56285
# Velocity P-wave (km/s) = 5.76022 7.07365 6.45045
#
# Compressibility (1/GPa) = 0.03192455
#
# Stress axis : x y z
#
# Youngs Moduli (GPa) = 22.91188 81.01131 59.14380
#
# Poissons Ratio (x) = 0.74162 0.35815
# Poissons Ratio (y) = 0.20975 0.31206
# Poissons Ratio (z) = 0.13874 0.42744
#
# Static dielectric constant tensor:
#      x y z
#    x 1.591240 0.000000 -0.007560 
#    y 0.000000 1.575500 0.000000 
#    z -0.007560 0.000000 1.643260 
# 
# From -- ./inp_files/142849.got.cif
#   From: 2010.05.17/outbox.cif.g08.bks.cpg/sg12_72_cif.got.tgz:142849.got - 2010.06.03 13:09:07.
