data_PCOD9214486
_publ_section_title
;
Structure prediction by ZEFSAII (Michael W. Deem and Ramdas Pophale) SiO2 
 PCOD9214486
Probable space group: C 2/M
;
_chemical_formula_sum "Si O2"
_cell_formula_units_Z 48
_cell_length_a 19.024926
_cell_length_b 8.986421
_cell_length_c 30.263622
_cell_angle_alpha 90.000000
_cell_angle_beta 29.454381
_cell_angle_gamma 90.000000
_cell_volume 2544.237922
_symmetry_space_group_name_H-M "C 2/M"
_symmetry_group_IT_number 12
_symmetry_cell_setting 'monoclinic'
loop_
_space_group_symop_operation_xyz
x,y,z
-x,y,-z
-x,-y,-z
x,-y,z
1/2+x,1/2+y,z
1/2-x,1/2+y,-z
1/2-x,1/2-y,-z
1/2+x,1/2-y,z
loop_
_atom_site_type_symbol
_atom_site_label
_atom_site_fract_x
_atom_site_fract_y
_atom_site_fract_z
Si Si1 0.890388 0.322932 0.749177
Si Si2 0.861007 0.330606 0.545789
Si Si3 0.426571 0.821211 0.263449
Si Si4 0.084676 0.675378 0.907766
Si Si5 0.896185 0.176128 0.435823
Si Si6 0.406912 0.820746 0.917643
O O1 0.899412 0.500000 0.738344
O O2 0.728866 0.268025 0.833879
O O3 0.963988 0.287858 0.756194
O O4 0.979501 0.242172 0.662321
O O5 0.828073 0.500000 0.548695
O O6 0.721154 0.263591 0.646059
O O7 0.905399 0.226222 0.481142
O O8 0.000000 0.337209 0.500000
O O9 0.498641 0.781286 0.177195
O O10 0.400871 0.000000 0.277797
O O11 0.119958 0.500000 0.882213
O O12 0.988765 0.721723 0.918109
O O13 0.000000 0.689446 0.000000
O O14 0.750000 0.250000 0.500000
O O15 0.890989 0.000000 0.434581
O O16 0.391403 0.000000 0.926391
O O17 0.250000 0.750000 0.000000
#
# Coordination Sequence:
#
# PCOD9214486 Si02
#       6
#     8   8   8   8   8   8
#     4  11  23  39  62  91 123 161 208 260 309 366
#     4  11  25  42  62  92 127 164 211 259 308 370
#     4  10  22  40  61  87 121 164 209 254 309 368
#     4  10  22  40  62  91 125 161 203 255 312 372
#     4  12  24  41  65  92 125 167 211 257 311 368
#     4  10  22  40  62  90 121 159 205 251 309 374
#
# _framework density 18.866160000000001
#
# number of rings (size 3 to 8) (size 9 to 14) (size 15 to 20)
#    0.000    1.333    1.667    3.500    2.333    3.667 
#    0.000    0.000    0.000    0.000    0.000    0.000 
#    0.000    0.000    0.000    0.000    0.000    0.000 
#
# Total GULP energy -134132.753497 kJ/mol
# GULP energy per Si atom -5588.864729 kJ/mol
# Density = 1.882322 g / cm^3
# Si number density = 18.866160 Si / 1000 Ang^3
#
#
#
# Elastic Constant Matrix: (Units=GPa)
#
#
# Indices 1 2 3 4 5 6 
#
# 1 136.5968 61.6584 81.7104 0.0000 0.1370 -0.0001
# 2 61.6584 96.5249 73.1194 0.0001 -3.2726 -0.0002
# 3 81.7104 73.1194 117.7922 0.0000 4.1203 0.0000
# 4 0.0000 0.0001 0.0000 38.5902 0.0001 -8.0879
# 5 0.1370 -3.2726 4.1203 0.0001 35.5087 0.0000
# 6 -0.0001 -0.0002 0.0000 -8.0879 0.0000 22.0525
#
#
#
# Elastic Compliance Matrix: (Units=1/GPa)
#
#
# Indices 1 2 3 4 5 6 
#
# 1 0.012901 -0.002697 -0.007294 0.000000 0.000548 0.000000
# 2 -0.002697 0.020494 -0.010962 0.000000 0.003171 0.000000
# 3 -0.007294 -0.010962 0.020472 0.000000 -0.003358 0.000000
# 4 0.000000 0.000000 0.000000 0.028071 0.000000 0.010295
# 5 0.000548 0.003171 -0.003358 0.000000 0.028842 0.000000
# 6 0.000000 0.000000 0.000000 0.010295 0.000000 0.049122
#
#
# Mechanical properties :
#
#
# Convention : Reuss Voigt Hill
#
# Bulk Modulus (GPa) = 83.60819 87.09890 85.35355
# Shear Modulus (GPa) = 24.29611 28.19199 26.24405
#
# Velocity S-wave (km/s) = 3.59251 3.86983 3.73374
# Velocity P-wave (km/s) = 7.84989 8.13845 7.99547
#
# Compressibility (1/GPa) = 0.01196055
#
# Stress axis : x y z
#
# Youngs Moduli (GPa) = 77.51406 48.79473 48.84828
#
# Poissons Ratio (x) = 0.13158 0.35632
# Poissons Ratio (y) = 0.20903 0.53547
# Poissons Ratio (z) = 0.56541 0.53489
#
# Static dielectric constant tensor:
#      x y z
#    x 1.649000 0.000000 -0.011100 
#    y 0.000000 1.645810 0.000000 
#    z -0.011100 0.000000 1.621110 
# 
# From -- ./inp_files/244846.got.cif
#   From: 2010.05.17/outbox.cif.g08.bks.cpg/sg12_123_cif.got.tgz:244846.got - 2010.06.03 13:09:07.
