data_PCOD9214812
_publ_section_title
;
Structure prediction by ZEFSAII (Michael W. Deem and Ramdas Pophale) SiO2 
 PCOD9214812
Probable space group: C 2/M
;
_chemical_formula_sum "Si O2"
_cell_formula_units_Z 48
_cell_length_a 26.680660
_cell_length_b 8.326375
_cell_length_c 11.724669
_cell_angle_alpha 90.000000
_cell_angle_beta 57.574677
_cell_angle_gamma 90.000000
_cell_volume 2198.580684
_symmetry_space_group_name_H-M "C 2/M"
_symmetry_group_IT_number 12
_symmetry_cell_setting 'monoclinic'
loop_
_space_group_symop_operation_xyz
x,y,z
-x,y,-z
-x,-y,-z
x,-y,z
1/2+x,1/2+y,z
1/2-x,1/2+y,-z
1/2-x,1/2-y,-z
1/2+x,1/2-y,z
loop_
_atom_site_type_symbol
_atom_site_label
_atom_site_fract_x
_atom_site_fract_y
_atom_site_fract_z
Si Si1 0.189333 0.189927 0.631494
Si Si2 0.575253 0.184934 0.639955
Si Si3 0.368973 0.812235 0.894999
Si Si4 0.730536 0.194788 0.820802
Si Si5 0.631422 0.311395 0.347321
Si Si6 0.027224 0.813029 0.087277
O O1 0.250000 0.250000 0.500000
O O2 0.134338 0.279241 0.640950
O O3 0.196592 0.230155 0.755121
O O4 0.182299 0.000000 0.621734
O O5 0.592214 0.222812 0.489063
O O6 0.523517 0.292896 0.755579
O O7 0.557438 0.000000 0.673769
O O8 0.387594 0.718499 0.759180
O O9 0.416372 0.783697 0.936997
O O10 0.365957 0.000000 0.870074
O O11 0.305329 0.758268 0.022108
O O12 0.799485 0.243147 0.731841
O O13 0.728215 0.000000 0.815369
O O14 0.630031 0.500000 0.376034
O O15 0.043788 0.000000 0.053562
O O16 0.000000 0.756894 0.000000
#
# Coordination Sequence:
#
# PCOD9214812 Si02
#       6
#     8   8   8   8   8   8
#     4  12  23  37  61  93 129 167 210 260 315 375
#     4  12  25  42  66  96 130 169 213 266 322 379
#     4  11  24  42  65  95 130 170 216 263 317 382
#     4  10  22  40  64  94 131 172 214 265 321 377
#     4  11  23  41  65  94 131 172 215 263 318 382
#     4  11  25  46  70  96 126 165 213 265 320 381
#
# _framework density 21.832266000000001
#
# number of rings (size 3 to 8) (size 9 to 14) (size 15 to 20)
#    0.000    0.833    1.667    6.000    0.000    6.667 
#    0.000    3.333    0.000    0.000    0.000    0.000 
#    0.000    0.000    0.000    0.000    0.000    0.000 
#
# Total GULP energy -134371.463386 kJ/mol
# GULP energy per Si atom -5598.810974 kJ/mol
# Density = 2.178258 g / cm^3
# Si number density = 21.832266 Si / 1000 Ang^3
#
#
#
# Elastic Constant Matrix: (Units=GPa)
#
#
# Indices 1 2 3 4 5 6 
#
# 1 43.1050 -4.1268 18.5672 0.0000 8.5931 0.0000
# 2 -4.1268 33.8583 -1.7843 0.0000 7.8711 0.0000
# 3 18.5672 -1.7843 100.2683 0.0000 5.9572 0.0000
# 4 0.0000 0.0000 0.0000 19.0472 0.0000 3.1144
# 5 8.5931 7.8711 5.9572 0.0000 38.0053 0.0000
# 6 0.0000 0.0000 0.0000 3.1144 0.0000 28.0457
#
#
#
# Elastic Compliance Matrix: (Units=1/GPa)
#
#
# Indices 1 2 3 4 5 6 
#
# 1 0.026828 0.004494 -0.004514 0.000000 -0.006289 0.000000
# 2 0.004494 0.031870 0.000189 0.000000 -0.007646 0.000000
# 3 -0.004514 0.000189 0.010855 0.000000 -0.000720 0.000000
# 4 0.000000 0.000000 0.000000 0.053472 0.000000 -0.005938
# 5 -0.006289 -0.007646 -0.000720 0.000000 0.029430 0.000000
# 6 0.000000 0.000000 0.000000 -0.005938 0.000000 0.036315
#
#
# Mechanical properties :
#
#
# Convention : Reuss Voigt Hill
#
# Bulk Modulus (GPa) = 14.30801 22.50488 18.40644
# Shear Modulus (GPa) = 23.61500 27.99135 25.80317
#
# Velocity S-wave (km/s) = 3.29242 3.58454 3.44158
# Velocity P-wave (km/s) = 4.58489 5.24045 4.92360
#
# Compressibility (1/GPa) = 0.06989094
#
# Stress axis : x y z
#
# Youngs Moduli (GPa) = 37.27511 31.37739 92.12084
#
# Poissons Ratio (x) = -0.14101 0.41585
# Poissons Ratio (y) = -0.16751 -0.01743
# Poissons Ratio (z) = 0.16827 -0.00594
#
# Static dielectric constant tensor:
#      x y z
#    x 3.131360 0.000000 1.094160 
#    y 0.000000 1.737510 0.000000 
#    z 1.094160 0.000000 2.679420 
# 
# From -- ./inp_files/179742.got.cif
#   From: 2010.05.17/outbox.cif.g08.bks.cpg/sg12_90_cif.got.tgz:179742.got - 2010.06.03 13:09:07.
