data_PCOD9214006
_publ_section_title
;
Structure prediction by ZEFSAII (Michael W. Deem and Ramdas Pophale) SiO2 
 PCOD9214006
Probable space group: C 2/M
;
_chemical_formula_sum "Si O2"
_cell_formula_units_Z 44
_cell_length_a 26.428938
_cell_length_b 9.709889
_cell_length_c 26.930737
_cell_angle_alpha 90.000000
_cell_angle_beta 18.341074
_cell_angle_gamma 90.000000
_cell_volume 2174.711701
_symmetry_space_group_name_H-M "C 2/M"
_symmetry_group_IT_number 12
_symmetry_cell_setting 'monoclinic'
loop_
_space_group_symop_operation_xyz
x,y,z
-x,y,-z
-x,-y,-z
x,-y,z
1/2+x,1/2+y,z
1/2-x,1/2+y,-z
1/2-x,1/2-y,-z
1/2+x,1/2-y,z
loop_
_atom_site_type_symbol
_atom_site_label
_atom_site_fract_x
_atom_site_fract_y
_atom_site_fract_z
Si Si1 0.683380 0.851421 0.847630
Si Si2 0.763707 0.844420 0.115191
Si Si3 0.720923 0.842327 0.575912
Si Si4 0.500000 0.739046 0.500000
Si Si5 0.153686 0.656276 0.051582
Si Si6 0.402838 0.153912 0.481952
O O1 0.692766 0.715700 0.871991
O O2 0.834415 0.839635 0.669095
O O3 0.709224 0.000000 0.850098
O O4 0.500000 0.855080 0.000000
O O5 0.570042 0.844987 0.295523
O O6 0.820184 0.000000 0.053892
O O7 0.831838 0.735409 0.013473
O O8 0.750000 0.750000 0.500000
O O9 0.530532 0.849253 0.760735
O O10 0.795533 0.768366 0.555014
O O11 0.781892 0.000000 0.513554
O O12 0.551064 0.817899 0.503319
O O13 0.216631 0.500000 0.990754
O O14 0.250000 0.750000 0.000000
O O15 0.332030 0.000000 0.544010
#
# Coordination Sequence:
#
# PCOD9214006 Si02
#       6
#     8   8   8   4   8   8
#     4  10  22  39  61  89 125 166 212 264 314 376
#     4  10  22  40  61  89 121 160 205 253 311 372
#     4  11  25  42  63  93 126 162 209 260 316 379
#     4  10  22  40  64  96 130 174 218 268 322 382
#     4  11  24  41  62  90 124 161 204 257 312 374
#     4  10  22  41  65  92 128 166 210 263 316 377
#
# _framework density 20.232567
#
# number of rings (size 3 to 8) (size 9 to 14) (size 15 to 20)
#    0.000    1.636    0.000    3.273    2.545   12.727 
#    0.000    0.000    0.000    0.000    0.000    0.000 
#    0.000    0.000    0.000    0.000    0.000    0.000 
#
# Total GULP energy -122665.052560 kJ/mol
# GULP energy per Si atom -5575.684207 kJ/mol
# Density = 2.018652 g / cm^3
# Si number density = 20.232567 Si / 1000 Ang^3
#
#
#
# Elastic Constant Matrix: (Units=GPa)
#
#
# Indices 1 2 3 4 5 6 
#
# 1 79.6109 58.4397 28.3546 0.0041 3.3007 -0.0007
# 2 58.4397 191.6029 44.5115 0.0003 2.0482 0.0022
# 3 28.3546 44.5115 86.0399 0.0000 2.7311 0.0041
# 4 0.0041 0.0003 0.0000 31.2762 -0.0024 -6.4652
# 5 3.3007 2.0482 2.7311 -0.0024 34.2907 -0.0011
# 6 -0.0007 0.0022 0.0041 -6.4652 -0.0011 36.2453
#
#
#
# Elastic Compliance Matrix: (Units=1/GPa)
#
#
# Indices 1 2 3 4 5 6 
#
# 1 0.017020 -0.004415 -0.003290 -0.000002 -0.001113 0.000001
# 2 -0.004415 0.007078 -0.002212 0.000001 0.000178 0.000000
# 3 -0.003290 -0.002212 0.013872 0.000000 -0.000656 -0.000002
# 4 -0.000002 0.000001 0.000000 0.033197 0.000003 0.005921
# 5 -0.001113 0.000178 -0.000656 0.000003 0.029311 0.000001
# 6 0.000001 0.000000 -0.000002 0.005921 0.000001 0.028646
#
#
# Mechanical properties :
#
#
# Convention : Reuss Voigt Hill
#
# Bulk Modulus (GPa) = 55.13957 68.87391 62.00674
# Shear Modulus (GPa) = 32.25754 35.42565 33.84159
#
# Velocity S-wave (km/s) = 3.99725 4.18894 4.09422
# Velocity P-wave (km/s) = 6.97252 7.58362 7.28448
#
# Compressibility (1/GPa) = 0.01813580
#
# Stress axis : x y z
#
# Youngs Moduli (GPa) = 58.75529 141.28790 72.08822
#
# Poissons Ratio (x) = 0.62379 0.23714
# Poissons Ratio (y) = 0.25940 0.15948
# Poissons Ratio (z) = 0.19328 0.31257
#
# Static dielectric constant tensor:
#      x y z
#    x 1.717410 0.000000 0.032650 
#    y 0.000000 1.720320 0.000000 
#    z 0.032650 0.000000 1.734100 
# 
# From -- ./inp_files/368984.got.cif
#   From: 2010.05.17/outbox.cif.g08.bks.cpg/sg12_185_cif.got.tgz:368984.got - 2010.06.03 13:09:07.
