data_PCOD9214464
_publ_section_title
;
Structure prediction by ZEFSAII (Michael W. Deem and Ramdas Pophale) SiO2 
 PCOD9214464
Probable space group: C 2/M
;
_chemical_formula_sum "Si O2"
_cell_formula_units_Z 32
_cell_length_a 18.818738
_cell_length_b 8.669416
_cell_length_c 11.418750
_cell_angle_alpha 90.000000
_cell_angle_beta 114.172690
_cell_angle_gamma 90.000000
_cell_volume 1699.588996
_symmetry_space_group_name_H-M "C 2/M"
_symmetry_group_IT_number 12
_symmetry_cell_setting 'monoclinic'
loop_
_space_group_symop_operation_xyz
x,y,z
-x,y,-z
-x,-y,-z
x,-y,z
1/2+x,1/2+y,z
1/2-x,1/2+y,-z
1/2-x,1/2-y,-z
1/2+x,1/2-y,z
loop_
_atom_site_type_symbol
_atom_site_label
_atom_site_fract_x
_atom_site_fract_y
_atom_site_fract_z
Si Si1 0.425488 0.314456 0.871171
Si Si2 0.957034 0.316171 0.638868
Si Si3 0.260563 0.314994 0.876969
Si Si4 0.614662 0.684503 0.640129
O O1 0.427829 0.500000 0.855227
O O2 0.430374 0.233882 0.749086
O O3 0.345871 0.276296 0.884599
O O4 0.500000 0.271563 0.000000
O O5 0.961132 0.500000 0.630991
O O6 0.900747 0.249808 0.500070
O O7 0.041993 0.245275 0.668245
O O8 0.253139 0.500000 0.874307
O O9 0.194113 0.244961 0.749405
O O10 0.250000 0.250000 0.000000
O O11 0.612985 0.500000 0.636869
#
# Coordination Sequence:
#
# PCOD9214464 Si02
#       4
#     8   8   8   8
#     4  10  22  40  61  86 118 156 195 238 293 353
#     4  11  22  38  62  90 119 151 195 246 294 348
#     4  11  23  39  61  89 121 155 196 244 293 348
#     4  11  22  39  62  86 119 159 197 238 291 352
#
# _framework density 18.828081999999998
#
# number of rings (size 3 to 8) (size 9 to 14) (size 15 to 20)
#    0.000    1.250    0.000    8.250    0.000    5.500 
#    0.000    0.000    0.000    0.000    0.000    0.000 
#    0.000    0.000    0.000    0.000    0.000    0.000 
#
# Total GULP energy -89510.293591 kJ/mol
# GULP energy per Si atom -5594.393349 kJ/mol
# Density = 1.878523 g / cm^3
# Si number density = 18.828082 Si / 1000 Ang^3
#
#
#
# Elastic Constant Matrix: (Units=GPa)
#
#
# Indices 1 2 3 4 5 6 
#
# 1 149.4419 93.6318 133.0313 0.0000 3.2679 0.0000
# 2 93.6318 133.0618 86.2705 0.0000 -3.1139 0.0000
# 3 133.0313 86.2705 158.6063 0.0000 5.4761 0.0000
# 4 0.0000 0.0000 0.0000 37.1329 0.0000 -0.9454
# 5 3.2679 -3.1139 5.4761 0.0000 43.4230 0.0000
# 6 0.0000 0.0000 0.0000 -0.9454 0.0000 22.2694
#
#
#
# Elastic Compliance Matrix: (Units=1/GPa)
#
#
# Indices 1 2 3 4 5 6 
#
# 1 0.030668 -0.007583 -0.021594 0.000000 -0.000129 0.000000
# 2 -0.007583 0.013601 -0.001096 0.000000 0.001684 0.000000
# 3 -0.021594 -0.001096 0.025069 0.000000 -0.001615 0.000000
# 4 0.000000 0.000000 0.000000 0.026959 0.000000 0.001145
# 5 -0.000129 0.001684 -0.001615 0.000000 0.023363 0.000000
# 6 0.000000 0.000000 0.000000 0.001145 0.000000 0.044953
#
#
# Mechanical properties :
#
#
# Convention : Reuss Voigt Hill
#
# Bulk Modulus (GPa) = 113.73548 118.55303 116.14425
# Shear Modulus (GPa) = 21.92119 29.11015 25.51567
#
# Velocity S-wave (km/s) = 3.41586 3.93632 3.68529
# Velocity P-wave (km/s) = 8.72330 9.15217 8.94031
#
# Compressibility (1/GPa) = 0.00879233
#
# Stress axis : x y z
#
# Youngs Moduli (GPa) = 32.60752 73.52292 39.89041
#
# Poissons Ratio (x) = 0.55751 0.86138
# Poissons Ratio (y) = 0.24726 0.04373
# Poissons Ratio (z) = 0.70412 0.08059
#
# Static dielectric constant tensor:
#      x y z
#    x 1.625950 0.000000 0.004450 
#    y 0.000000 1.630170 0.000000 
#    z 0.004450 0.000000 1.621020 
# 
# From -- ./inp_files/138648.got.cif
#   From: 2010.05.17/outbox.cif.g08.bks.cpg/sg12_70_cif.got.tgz:138648.got - 2010.06.03 13:09:07.
