data_PCOD9214080
_publ_section_title
;
Structure prediction by ZEFSAII (Michael W. Deem and Ramdas Pophale) SiO2 
 PCOD9214080
Probable space group: C 2/M
;
_chemical_formula_sum "Si O2"
_cell_formula_units_Z 48
_cell_length_a 15.228286
_cell_length_b 8.809222
_cell_length_c 29.718086
_cell_angle_alpha 90.000000
_cell_angle_beta 39.802947
_cell_angle_gamma 90.000000
_cell_volume 2552.058538
_symmetry_space_group_name_H-M "C 2/M"
_symmetry_group_IT_number 12
_symmetry_cell_setting 'monoclinic'
loop_
_space_group_symop_operation_xyz
x,y,z
-x,y,-z
-x,-y,-z
x,-y,z
1/2+x,1/2+y,z
1/2-x,1/2+y,-z
1/2-x,1/2-y,-z
1/2+x,1/2-y,z
loop_
_atom_site_type_symbol
_atom_site_label
_atom_site_fract_x
_atom_site_fract_y
_atom_site_fract_z
Si Si1 0.173428 0.681293 0.837425
Si Si2 0.662569 0.182546 0.574819
Si Si3 0.807742 0.318208 0.335575
Si Si4 0.344988 0.818041 0.687467
Si Si5 0.587044 0.318109 0.188581
Si Si6 0.110005 0.818561 0.073878
O O1 0.161237 0.500000 0.838708
O O2 0.249299 0.744966 0.763283
O O3 0.272410 0.716852 0.840507
O O4 0.023250 0.753255 0.898688
O O5 0.750000 0.250000 0.500000
O O6 0.714622 0.227976 0.603845
O O7 0.502687 0.226071 0.633577
O O8 0.668572 0.000000 0.570102
O O9 0.795397 0.500000 0.336975
O O10 0.706134 0.239046 0.340667
O O11 0.961050 0.268966 0.260975
O O12 0.332659 0.000000 0.695143
O O13 0.562474 0.500000 0.202222
O O14 0.595434 0.280339 0.132633
O O15 0.112534 0.000000 0.068983
O O16 0.250000 0.750000 0.000000
#
# Coordination Sequence:
#
# PCOD9214080 Si02
#       6
#     8   8   8   8   8   8
#     4  11  22  38  63  93 120 158 205 251 302 361
#     4  10  24  42  61  88 125 162 201 252 306 361
#     4  11  22  38  62  92 121 157 206 253 298 359
#     4  11  22  39  61  90 123 159 202 250 304 363
#     4  10  22  39  62  90 122 160 202 248 303 362
#     4  11  24  42  62  89 126 164 202 253 308 360
#
# _framework density 18.808346
#
# number of rings (size 3 to 8) (size 9 to 14) (size 15 to 20)
#    0.000    1.333    3.333    2.000    0.000    5.333 
#    0.000    6.667    0.000    0.000    0.000    0.000 
#    0.000    0.000    0.000    0.000    0.000    0.000 
#
# Total GULP energy -134177.597236 kJ/mol
# GULP energy per Si atom -5590.733218 kJ/mol
# Density = 1.876554 g / cm^3
# Si number density = 18.808346 Si / 1000 Ang^3
#
#
#
# Elastic Constant Matrix: (Units=GPa)
#
#
# Indices 1 2 3 4 5 6 
#
# 1 77.0015 14.7023 -22.9152 0.0000 1.3493 -0.0001
# 2 14.7023 31.0044 6.1380 0.0000 2.2915 -0.0002
# 3 -22.9152 6.1380 34.5254 0.0000 -1.4649 0.0001
# 4 0.0000 0.0000 0.0000 36.6266 0.0000 -4.0460
# 5 1.3493 2.2915 -1.4649 0.0000 25.8359 0.0000
# 6 -0.0001 -0.0002 0.0001 -4.0460 0.0000 31.7174
#
#
#
# Elastic Compliance Matrix: (Units=1/GPa)
#
#
# Indices 1 2 3 4 5 6 
#
# 1 0.020021 -0.012649 0.015578 0.000000 0.000960 0.000000
# 2 -0.012649 0.041706 -0.015977 0.000000 -0.003944 0.000000
# 3 0.015578 -0.015977 0.042271 0.000000 0.003000 0.000000
# 4 0.000000 0.000000 0.000000 0.027693 0.000000 0.003533
# 5 0.000960 -0.003944 0.003000 0.000000 0.039176 0.000000
# 6 0.000000 0.000000 0.000000 0.003533 0.000000 0.031979
#
#
# Mechanical properties :
#
#
# Convention : Reuss Voigt Hill
#
# Bulk Modulus (GPa) = 12.83671 15.37573 14.10622
# Shear Modulus (GPa) = 19.61478 28.47636 24.04557
#
# Velocity S-wave (km/s) = 3.23286 3.89527 3.57942
# Velocity P-wave (km/s) = 4.55796 5.33138 4.95977
#
# Compressibility (1/GPa) = 0.07790159
#
# Stress axis : x y z
#
# Youngs Moduli (GPa) = 49.94784 23.97725 23.65676
#
# Poissons Ratio (x) = 0.30328 -0.36852
# Poissons Ratio (y) = 0.63178 0.37797
# Poissons Ratio (z) = -0.77807 0.38309
#
# Static dielectric constant tensor:
#      x y z
#    x 1.653270 0.000000 0.001770 
#    y 0.000000 1.629740 0.000000 
#    z 0.001770 0.000000 1.611520 
# 
# From -- ./inp_files/308275.got.cif
#   From: 2010.05.17/outbox.cif.g08.bks.cpg/sg12_155_cif.got.tgz:308275.got - 2010.06.03 13:09:07.
