data_PCOD9214364
_publ_section_title
;
Structure prediction by ZEFSAII (Michael W. Deem and Ramdas Pophale) SiO2 
 PCOD9214364
Probable space group: C 2/M
;
_chemical_formula_sum "Si O2"
_cell_formula_units_Z 48
_cell_length_a 19.781517
_cell_length_b 28.076588
_cell_length_c 8.441524
_cell_angle_alpha 90.000000
_cell_angle_beta 149.034092
_cell_angle_gamma 90.000000
_cell_volume 2412.313554
_symmetry_space_group_name_H-M "C 2/M"
_symmetry_group_IT_number 12
_symmetry_cell_setting 'monoclinic'
loop_
_space_group_symop_operation_xyz
x,y,z
-x,y,-z
-x,-y,-z
x,-y,z
1/2+x,1/2+y,z
1/2-x,1/2+y,-z
1/2-x,1/2-y,-z
1/2+x,1/2-y,z
loop_
_atom_site_type_symbol
_atom_site_label
_atom_site_fract_x
_atom_site_fract_y
_atom_site_fract_z
Si Si1 0.474250 0.600273 0.631539
Si Si2 0.505420 0.295837 0.816160
Si Si3 0.971477 0.555917 0.624481
Si Si4 0.277653 0.775856 0.722610
Si Si5 0.294318 0.554502 0.732401
Si Si6 0.799080 0.612554 0.754900
O O1 0.500000 0.591197 0.500000
O O2 0.528110 0.652356 0.790285
O O3 0.319657 0.601277 0.361267
O O4 0.561089 0.564166 0.909568
O O5 0.362345 0.278426 0.474338
O O6 0.500000 0.300337 0.000000
O O7 0.611924 0.257141 0.981028
O O8 0.004097 0.500000 0.712977
O O9 0.000000 0.568336 0.500000
O O10 0.818616 0.561467 0.361665
O O11 0.067023 0.586912 0.926062
O O12 0.250000 0.750000 0.500000
O O13 0.319025 0.830680 0.782893
O O14 0.283648 0.500000 0.653551
O O15 0.256524 0.591153 0.519334
#
# Coordination Sequence:
#
# PCOD9214364 Si02
#       6
#     8   8   8   8   8   8
#     4  11  23  39  57  81 117 153 187 234 288 334
#     4   9  18  35  55  78 107 143 186 229 275 331
#     4  10  22  40  59  84 119 151 182 228 285 338
#     4   9  18  32  54  81 108 141 183 230 278 326
#     4  11  23  38  60  87 112 147 193 235 277 332
#     4  11  22  38  60  87 113 147 194 235 276 334
#
# _framework density 19.89791
#
# number of rings (size 3 to 8) (size 9 to 14) (size 15 to 20)
#    0.000    1.833    0.000    5.500    0.000    9.000 
#    0.000    4.167    0.000    0.000    0.000    0.000 
#    0.000    0.000    0.000    0.000    0.000    0.000 
#
# Total GULP energy -134006.319248 kJ/mol
# GULP energy per Si atom -5583.596635 kJ/mol
# Density = 1.985262 g / cm^3
# Si number density = 19.897910 Si / 1000 Ang^3
#
#
#
# Elastic Constant Matrix: (Units=GPa)
#
#
# Indices 1 2 3 4 5 6 
#
# 1 27.1685 -11.5744 -22.2999 0.0000 -3.2578 0.0000
# 2 -11.5744 37.6354 19.4807 0.0000 10.4539 0.0000
# 3 -22.2999 19.4807 50.0275 0.0000 4.3518 0.0000
# 4 0.0000 0.0000 0.0000 31.4869 0.0000 9.2538
# 5 -3.2578 10.4539 4.3518 0.0000 20.2592 0.0000
# 6 0.0000 0.0000 0.0000 9.2538 0.0000 19.9330
#
#
#
# Elastic Compliance Matrix: (Units=1/GPa)
#
#
# Indices 1 2 3 4 5 6 
#
# 1 0.059042 0.005208 0.024149 0.000000 0.001620 0.000000
# 2 0.005208 0.038642 -0.011275 0.000000 -0.016680 0.000000
# 3 0.024149 -0.011275 0.034953 0.000000 0.002193 0.000000
# 4 0.000000 0.000000 0.000000 0.036777 0.000000 -0.017074
# 5 0.001620 -0.016680 0.002193 0.000000 0.057757 0.000000
# 6 0.000000 0.000000 0.000000 -0.017074 0.000000 0.058094
#
#
# Mechanical properties :
#
#
# Convention : Reuss Voigt Hill
#
# Bulk Modulus (GPa) = 5.92412 9.56046 7.74229
# Shear Modulus (GPa) = 16.37374 22.95082 19.66228
#
# Velocity S-wave (km/s) = 2.87171 3.39990 3.14691
# Velocity P-wave (km/s) = 3.73890 4.49751 4.13564
#
# Compressibility (1/GPa) = 0.16880138
#
# Stress axis : x y z
#
# Youngs Moduli (GPa) = 16.93715 25.87891 28.60969
#
# Poissons Ratio (x) = -0.13477 -0.69090
# Poissons Ratio (y) = -0.08821 0.32256
# Poissons Ratio (z) = -0.40902 0.29178
#
# Static dielectric constant tensor:
#      x y z
#    x 1.849090 0.000000 -0.177620 
#    y 0.000000 1.693680 0.000000 
#    z -0.177620 0.000000 1.972500 
# 
# From -- ./inp_files/91447.got.cif
#   From: 2010.05.17/outbox.cif.g08.bks.cpg/sg12_46_cif.got.tgz:91447.got - 2010.06.03 13:09:07.
