data_PCOD9214185
_publ_section_title
;
Structure prediction by ZEFSAII (Michael W. Deem and Ramdas Pophale) SiO2 
 PCOD9214185
Probable space group: C 2/M
;
_chemical_formula_sum "Si O2"
_cell_formula_units_Z 64
_cell_length_a 14.466935
_cell_length_b 29.751569
_cell_length_c 20.425468
_cell_angle_alpha 90.000000
_cell_angle_beta 159.636109
_cell_angle_gamma 90.000000
_cell_volume 3059.245330
_symmetry_space_group_name_H-M "C 2/M"
_symmetry_group_IT_number 12
_symmetry_cell_setting 'monoclinic'
loop_
_space_group_symop_operation_xyz
x,y,z
-x,y,-z
-x,-y,-z
x,-y,z
1/2+x,1/2+y,z
1/2-x,1/2+y,-z
1/2-x,1/2-y,-z
1/2+x,1/2-y,z
loop_
_atom_site_type_symbol
_atom_site_label
_atom_site_fract_x
_atom_site_fract_y
_atom_site_fract_z
Si Si1 0.305304 0.871855 0.222167
Si Si2 0.890839 0.884355 0.124538
Si Si3 0.839839 0.745210 0.957162
Si Si4 0.761024 0.449362 0.289867
Si Si5 0.269314 0.870090 0.708126
Si Si6 0.727637 0.697091 0.284554
Si Si7 0.371163 0.814307 0.654061
Si Si8 0.104901 0.840887 0.743087
O O1 0.356961 0.918149 0.293756
O O2 0.331998 0.830997 0.291194
O O3 0.475470 0.858305 0.272545
O O4 0.000000 0.873300 0.000000
O O5 0.962544 0.879891 0.249614
O O6 0.026591 0.923744 0.172862
O O7 0.033150 0.839093 0.190419
O O8 0.572289 0.888108 0.905797
O O9 0.571909 0.773219 0.786263
O O10 0.779511 0.693578 0.902339
O O11 0.000000 0.761790 0.000000
O O12 0.042411 0.760414 0.147357
O O13 0.690113 0.500000 0.223017
O O14 0.000000 0.450905 0.500000
O O15 0.281271 0.827273 0.666911
O O16 0.222096 0.860455 0.753639
O O17 0.000000 0.894082 0.500000
O O18 0.000000 0.710205 0.500000
O O19 0.131911 0.810356 0.443687
#
# Coordination Sequence:
#
# PCOD9214185 Si02
#       8
#     8   8   8   8   8   8   8   8
#     4  11  18  36  64  92 127 158 196 240 311 389
#     4  11  20  40  63  86 121 164 204 247 310 379
#     4  12  22  39  55  82 123 154 207 275 308 365
#     4  10  22  39  64 104 138 156 189 244 311 390
#     4  10  22  40  60  84 115 160 214 265 303 355
#     4  11  21  36  60  90 119 161 205 251 317 384
#     4  11  19  40  60  85 114 167 203 257 319 373
#     4  11  25  38  58  82 120 160 222 264 306 345
#
# _framework density 20.920192
#
# number of rings (size 3 to 8) (size 9 to 14) (size 15 to 20)
#    0.000    1.125    3.750    5.250    0.000    0.750 
#    2.250    2.500    0.000    1.875    0.000    1.750 
#    0.000    0.000    0.000    0.000    0.000    0.000 
#
# Total GULP energy -178635.984765 kJ/mol
# GULP energy per Si atom -5582.374524 kJ/mol
# Density = 2.087258 g / cm^3
# Si number density = 20.920192 Si / 1000 Ang^3
#
#
#
# Elastic Constant Matrix: (Units=GPa)
#
#
# Indices 1 2 3 4 5 6 
#
# 1 118.1410 32.6059 -4.4758 -0.0069 7.8393 0.0093
# 2 32.6059 81.3499 17.1941 0.0090 -6.9972 -0.0029
# 3 -4.4758 17.1941 106.6543 -0.0735 7.6561 0.0537
# 4 -0.0069 0.0090 -0.0735 13.1918 -0.0345 -16.4585
# 5 7.8393 -6.9972 7.6561 -0.0345 34.8930 0.0180
# 6 0.0093 -0.0029 0.0537 -16.4585 0.0180 4.7579
#
#
#
# Elastic Compliance Matrix: (Units=1/GPa)
#
#
# Indices 1 2 3 4 5 6 
#
# 1 0.010024 -0.004617 0.001415 0.000007 -0.003488 0.000000
# 2 -0.004617 0.015180 -0.002981 -0.000008 0.004735 0.000007
# 3 0.001415 -0.002981 0.010142 0.000025 -0.003141 -0.000021
# 4 0.000007 -0.000008 0.000025 -0.022862 0.000009 -0.079083
# 5 -0.003488 0.004735 -0.003141 0.000009 0.031082 -0.000039
# 6 0.000000 0.000007 -0.000021 -0.079083 -0.000039 -0.063387
#
#
# Mechanical properties :
#
#
# Convention : Reuss Voigt Hill
#
# Bulk Modulus (GPa) = 43.51449 44.08819 43.80134
# Shear Modulus (GPa) = 24504.30862 27.95661 12266.13261
#
# Velocity S-wave (km/s) = 108.34510 3.65957 76.65525
# Velocity P-wave (km/s) = 125.18943 6.24314 88.63231
#
# Compressibility (1/GPa) = 0.02298085
#
# Stress axis : x y z
#
# Youngs Moduli (GPa) = 99.76293 65.87424 98.60423
#
# Poissons Ratio (x) = 0.30413 -0.13956
# Poissons Ratio (y) = 0.46059 0.29394
# Poissons Ratio (z) = -0.14120 0.19637
#
# Static dielectric constant tensor:
#      x y z
#    x 1.878980 0.000010 -0.038750 
#    y 0.000010 1.723660 -0.000020 
#    z -0.038750 -0.000020 1.871640 
# 
# From -- ./inp_files/312933.got.cif
#   From: 2010.05.17/outbox.cif.g08.bks.cpg/sg12_157_cif.got.tgz:312933.got - 2010.06.03 13:09:07.
