data_PCOD9214623
_publ_section_title
;
Structure prediction by ZEFSAII (Michael W. Deem and Ramdas Pophale) SiO2 
 PCOD9214623
Probable space group: C 2/M
;
_chemical_formula_sum "Si O2"
_cell_formula_units_Z 48
_cell_length_a 29.716277
_cell_length_b 17.849027
_cell_length_c 13.126876
_cell_angle_alpha 90.000000
_cell_angle_beta 19.272628
_cell_angle_gamma 90.000000
_cell_volume 2298.094008
_symmetry_space_group_name_H-M "C 2/M"
_symmetry_group_IT_number 12
_symmetry_cell_setting 'monoclinic'
loop_
_space_group_symop_operation_xyz
x,y,z
-x,y,-z
-x,-y,-z
x,-y,z
1/2+x,1/2+y,z
1/2-x,1/2+y,-z
1/2-x,1/2-y,-z
1/2+x,1/2-y,z
loop_
_atom_site_type_symbol
_atom_site_label
_atom_site_fract_x
_atom_site_fract_y
_atom_site_fract_z
Si Si1 0.904206 0.339500 0.432059
Si Si2 0.640250 0.909606 0.256792
Si Si3 0.423968 0.589526 0.562751
Si Si4 0.452204 0.332559 0.302277
Si Si5 0.227358 0.830697 0.604268
Si Si6 0.692114 0.912358 0.762711
O O1 0.846219 0.371145 0.661964
O O2 0.943511 0.252625 0.357299
O O3 0.805608 0.339036 0.544339
O O4 0.041627 0.385950 0.115052
O O5 0.500000 0.889591 0.500000
O O6 0.641991 0.000000 0.267939
O O7 0.765869 0.889545 0.914870
O O8 0.500000 0.618113 0.500000
O O9 0.431702 0.500000 0.545329
O O10 0.489386 0.619136 0.320788
O O11 0.307812 0.363583 0.571712
O O12 0.567785 0.338363 0.969742
O O13 0.250000 0.750000 0.500000
O O14 0.283618 0.893101 0.407445
O O15 0.710639 0.000000 0.745583
#
# Coordination Sequence:
#
# PCOD9214623 Si02
#       6
#     8   8   8   8   8   8
#     4  12  24  42  71 100 137 185 231 285 344 422
#     4  10  22  41  65  96 139 182 224 285 350 408
#     4  10  22  40  62  92 131 174 226 285 339 403
#     4  12  24  42  70  98 136 183 228 291 347 418
#     4  12  25  45  67  99 139 181 230 287 358 402
#     4  12  27  44  69 103 138 181 236 291 344 414
#
# _framework density 20.886873000000001
#
# number of rings (size 3 to 8) (size 9 to 14) (size 15 to 20)
#    0.000    0.667    3.333    4.000    0.000    6.667 
#    0.000    0.000    0.000    0.000    0.000    0.000 
#    0.000    0.000    0.000    0.000    0.000    0.000 
#
# Total GULP energy -134256.765285 kJ/mol
# GULP energy per Si atom -5594.031887 kJ/mol
# Density = 2.083933 g / cm^3
# Si number density = 20.886873 Si / 1000 Ang^3
#
#
#
# Elastic Constant Matrix: (Units=GPa)
#
#
# Indices 1 2 3 4 5 6 
#
# 1 102.2976 7.6685 18.3855 0.0000 11.1446 0.0000
# 2 7.6685 67.0045 31.0774 0.0000 7.9008 0.0000
# 3 18.3855 31.0774 91.3737 0.0003 10.6139 0.0000
# 4 0.0000 0.0000 0.0003 27.5075 0.0001 4.0289
# 5 11.1446 7.9008 10.6139 0.0001 35.3807 -0.0001
# 6 0.0000 0.0000 0.0000 4.0289 -0.0001 48.8125
#
#
#
# Elastic Compliance Matrix: (Units=1/GPa)
#
#
# Indices 1 2 3 4 5 6 
#
# 1 0.010393 -0.000053 -0.001756 0.000000 -0.002735 0.000000
# 2 -0.000053 0.017891 -0.005815 0.000000 -0.002234 0.000000
# 3 -0.001756 -0.005815 0.013531 0.000000 -0.002208 0.000000
# 4 0.000000 0.000000 0.000000 0.036799 0.000000 -0.003037
# 5 -0.002735 -0.002234 -0.002208 0.000000 0.030287 0.000000
# 6 0.000000 0.000000 0.000000 -0.003037 0.000000 0.020737
#
#
# Mechanical properties :
#
#
# Convention : Reuss Voigt Hill
#
# Bulk Modulus (GPa) = 37.63767 41.65984 39.64875
# Shear Modulus (GPa) = 32.52241 35.90976 34.21609
#
# Velocity S-wave (km/s) = 3.95026 4.15088 4.05181
# Velocity P-wave (km/s) = 6.23418 6.55453 6.39636
#
# Compressibility (1/GPa) = 0.02656913
#
# Stress axis : x y z
#
# Youngs Moduli (GPa) = 96.22007 55.89462 73.90184
#
# Poissons Ratio (x) = 0.00294 0.12974
# Poissons Ratio (y) = 0.00507 0.42972
# Poissons Ratio (z) = 0.16892 0.32502
#
# Static dielectric constant tensor:
#      x y z
#    x 1.786560 0.000000 -0.034330 
#    y 0.000000 1.714580 0.000000 
#    z -0.034330 0.000000 1.753350 
# 
# From -- ./inp_files/184792.got.cif
#   From: 2010.05.17/outbox.cif.g08.bks.cpg/sg12_93_cif.got.tgz:184792.got - 2010.06.03 13:09:07.
