data_PCOD9214554
_publ_section_title
;
Structure prediction by ZEFSAII (Michael W. Deem and Ramdas Pophale) SiO2 
 PCOD9214554
Probable space group: C 2/M
;
_chemical_formula_sum "Si O2"
_cell_formula_units_Z 40
_cell_length_a 21.280387
_cell_length_b 22.616799
_cell_length_c 7.912275
_cell_angle_alpha 90.000000
_cell_angle_beta 25.374058
_cell_angle_gamma 90.000000
_cell_volume 1631.884039
_symmetry_space_group_name_H-M "C 2/M"
_symmetry_group_IT_number 12
_symmetry_cell_setting 'monoclinic'
loop_
_space_group_symop_operation_xyz
x,y,z
-x,y,-z
-x,-y,-z
x,-y,z
1/2+x,1/2+y,z
1/2-x,1/2+y,-z
1/2-x,1/2-y,-z
1/2+x,1/2-y,z
loop_
_atom_site_type_symbol
_atom_site_label
_atom_site_fract_x
_atom_site_fract_y
_atom_site_fract_z
Si Si1 0.890208 0.369655 0.925084
Si Si2 0.842778 0.639499 0.511902
Si Si3 0.693343 0.565617 0.165915
Si Si4 0.829633 0.770907 0.634596
Si Si5 0.051395 0.126781 0.064966
O O1 0.000000 0.355815 0.500000
O O2 0.994738 0.382034 0.830914
O O3 0.793428 0.423517 0.089357
O O4 0.782851 0.313316 0.191625
O O5 0.860070 0.710029 0.466665
O O6 0.747428 0.615313 0.904296
O O7 0.725391 0.623463 0.654378
O O8 0.715249 0.500000 0.046312
O O9 0.528710 0.578708 0.623697
O O10 0.976853 0.810328 0.301516
O O11 0.750000 0.750000 0.000000
O O12 0.000000 0.117550 0.000000
#
# Coordination Sequence:
#
# PCOD9214554 Si02
#       5
#     8   8   8   8   8
#     4   9  18  32  56  93 114 149 192 250 305 344
#     4  11  21  35  64  89 116 157 202 255 292 357
#     4  10  22  40  62  87 118 157 207 255 298 354
#     4  11  19  36  62  89 123 157 197 244 299 363
#     4  11  25  40  58  90 126 162 199 246 306 360
#
# _framework density 24.511544000000001
#
# number of rings (size 3 to 8) (size 9 to 14) (size 15 to 20)
#    0.000    1.600    6.000    1.800    0.000    6.400 
#    0.000    4.000    0.000    1.200    0.000    0.000 
#    0.000    0.000    0.000    0.000    0.000    0.000 
#
# Total GULP energy -111767.707034 kJ/mol
# GULP energy per Si atom -5588.385352 kJ/mol
# Density = 2.445576 g / cm^3
# Si number density = 24.511544 Si / 1000 Ang^3
#
#
#
# Elastic Constant Matrix: (Units=GPa)
#
#
# Indices 1 2 3 4 5 6 
#
# 1 149.2008 -1.2106 36.2316 0.0008 -33.7295 -0.0004
# 2 -1.2106 91.0625 8.8737 0.0013 4.7141 -0.0004
# 3 36.2316 8.8737 155.0324 0.0034 -31.2909 -0.0017
# 4 0.0008 0.0013 0.0034 8.7388 -0.0011 -3.4541
# 5 -33.7295 4.7141 -31.2909 -0.0011 45.3468 0.0002
# 6 -0.0004 -0.0004 -0.0017 -3.4541 0.0002 6.5634
#
#
#
# Elastic Compliance Matrix: (Units=1/GPa)
#
#
# Indices 1 2 3 4 5 6 
#
# 1 0.008141 -0.000102 -0.000781 0.000000 0.005527 0.000000
# 2 -0.000102 0.011178 -0.001006 -0.000002 -0.001932 0.000000
# 3 -0.000781 -0.001006 0.007661 -0.000002 0.004810 0.000001
# 4 0.000000 -0.000002 -0.000002 0.144488 0.000002 0.076040
# 5 0.005527 -0.001932 0.004810 0.000002 0.029683 0.000002
# 6 0.000000 0.000000 0.000001 0.076040 0.000002 0.192377
#
#
# Mechanical properties :
#
#
# Convention : Reuss Voigt Hill
#
# Bulk Modulus (GPa) = 43.09933 53.67613 48.38773
# Shear Modulus (GPa) = 12.34445 35.55653 23.95049
#
# Velocity S-wave (km/s) = 2.24658 3.81281 3.12927
# Velocity P-wave (km/s) = 4.93467 6.42878 5.73063
#
# Compressibility (1/GPa) = 0.02320222
#
# Stress axis : x y z
#
# Youngs Moduli (GPa) = 122.84028 89.46023 130.52708
#
# Poissons Ratio (x) = 0.00910 0.10197
# Poissons Ratio (y) = 0.01250 0.13130
# Poissons Ratio (z) = 0.09596 0.08999
#
# Static dielectric constant tensor:
#      x y z
#    x 2.091480 0.000000 0.035000 
#    y 0.000000 1.844190 0.000000 
#    z 0.035000 0.000000 2.004560 
# 
# From -- ./inp_files/90555.got.cif
#   From: 2010.05.17/outbox.cif.g08.bks.cpg/sg12_46_cif.got.tgz:90555.got - 2010.06.03 13:09:07.
