data_PCOD9214004
_publ_section_title
;
Structure prediction by ZEFSAII (Michael W. Deem and Ramdas Pophale) SiO2 
 PCOD9214004
Probable space group: C 2/M
;
_chemical_formula_sum "Si O2"
_cell_formula_units_Z 56
_cell_length_a 18.057612
_cell_length_b 16.627115
_cell_length_c 9.815301
_cell_angle_alpha 90.000000
_cell_angle_beta 112.878312
_cell_angle_gamma 90.000000
_cell_volume 2715.171674
_symmetry_space_group_name_H-M "C 2/M"
_symmetry_group_IT_number 12
_symmetry_cell_setting 'monoclinic'
loop_
_space_group_symop_operation_xyz
x,y,z
-x,y,-z
-x,-y,-z
x,-y,z
1/2+x,1/2+y,z
1/2-x,1/2+y,-z
1/2-x,1/2-y,-z
1/2+x,1/2-y,z
loop_
_atom_site_type_symbol
_atom_site_label
_atom_site_fract_x
_atom_site_fract_y
_atom_site_fract_z
Si Si1 0.778684 0.680531 0.413622
Si Si2 0.446177 0.908758 0.083251
Si Si3 0.866198 0.093837 0.062575
Si Si4 0.114742 0.904591 0.226799
Si Si5 0.706915 0.175680 0.896985
Si Si6 0.457311 0.140284 0.606738
Si Si7 0.987237 0.174696 0.334161
O O1 0.750000 0.750000 0.500000
O O2 0.702056 0.623205 0.340788
O O3 0.800968 0.697993 0.269426
O O4 0.861405 0.643956 0.529070
O O5 0.373772 0.853489 0.086057
O O6 0.509761 0.912731 0.249805
O O7 0.418926 0.000000 0.028653
O O8 0.500000 0.873621 0.000000
O O9 0.901956 0.148269 0.209145
O O10 0.886046 0.000000 0.100746
O O11 0.900293 0.122073 0.940147
O O12 0.771371 0.104214 0.967929
O O13 0.050074 0.869323 0.282130
O O14 0.110685 0.000000 0.221860
O O15 0.750000 0.250000 0.000000
O O16 0.500000 0.111964 0.500000
O O17 0.490910 0.231144 0.654380
O O18 0.000000 0.149652 0.500000
#
# Coordination Sequence:
#
# PCOD9214004 Si02
#       7
#     8   8   8   8   8   8   8
#     4  11  23  42  65  98 128 164 219 273 321 392
#     4  11  26  46  67  99 137 175 224 278 331 397
#     4  10  22  39  61  89 124 166 208 257 316 385
#     4  10  22  40  62  89 124 164 209 258 315 385
#     4  11  24  42  69  95 128 172 219 268 331 389
#     4  11  23  43  67  93 128 172 216 266 325 391
#     4  11  23  38  62  93 130 161 209 259 317 380
#
# _framework density 20.624848
#
# number of rings (size 3 to 8) (size 9 to 14) (size 15 to 20)
#    0.000    1.286    2.857    2.143    4.000    4.857 
#    0.000    0.000    0.000    0.000    0.000    0.000 
#    0.000    0.000    0.000    0.000    0.000    0.000 
#
# Total GULP energy -156286.043537 kJ/mol
# GULP energy per Si atom -5581.644412 kJ/mol
# Density = 2.057791 g / cm^3
# Si number density = 20.624848 Si / 1000 Ang^3
#
#
#
# Elastic Constant Matrix: (Units=GPa)
#
#
# Indices 1 2 3 4 5 6 
#
# 1 137.6089 13.5465 53.1217 0.0000 -6.8624 0.0000
# 2 13.5465 41.5164 34.6440 0.0000 -6.3560 0.0000
# 3 53.1217 34.6440 127.3871 0.0000 -7.8031 0.0000
# 4 0.0000 0.0000 0.0000 27.3659 0.0000 -4.6524
# 5 -6.8624 -6.3560 -7.8031 0.0000 42.5159 0.0000
# 6 0.0000 0.0000 0.0000 -4.6524 0.0000 27.2357
#
#
#
# Elastic Compliance Matrix: (Units=1/GPa)
#
#
# Indices 1 2 3 4 5 6 
#
# 1 0.008688 0.000347 -0.003670 0.000000 0.000781 0.000000
# 2 0.000347 0.031591 -0.008539 0.000000 0.003211 0.000000
# 3 -0.003670 -0.008539 0.011720 0.000000 0.000282 0.000000
# 4 0.000000 0.000000 0.000000 0.037635 0.000000 0.006429
# 5 0.000781 0.003211 0.000282 0.000000 0.024178 0.000000
# 6 0.000000 0.000000 0.000000 0.006429 0.000000 0.037815
#
#
# Mechanical properties :
#
#
# Convention : Reuss Voigt Hill
#
# Bulk Modulus (GPa) = 35.36682 56.57076 45.96879
# Shear Modulus (GPa) = 27.05964 33.10352 30.08158
#
# Velocity S-wave (km/s) = 3.62607 4.01063 3.82319
# Velocity P-wave (km/s) = 5.89204 6.99535 6.46726
#
# Compressibility (1/GPa) = 0.02827509
#
# Stress axis : x y z
#
# Youngs Moduli (GPa) = 115.09646 31.65435 85.32433
#
# Poissons Ratio (x) = -0.01098 0.31311
# Poissons Ratio (y) = -0.03991 0.72862
# Poissons Ratio (z) = 0.42236 0.27031
#
# Static dielectric constant tensor:
#      x y z
#    x 1.780000 0.000000 -0.000940 
#    y 0.000000 1.752540 0.000000 
#    z -0.000940 0.000000 1.705370 
# 
# From -- ./inp_files/75975.got.cif
#   From: 2010.05.17/outbox.cif.g08.bks.cpg/sg12_38_cif.got.tgz:75975.got - 2010.06.03 13:09:07.
