data_PCOD9214866
_publ_section_title
;
Structure prediction by ZEFSAII (Michael W. Deem and Ramdas Pophale) SiO2 
 PCOD9214866
Probable space group: C 2/M
;
_chemical_formula_sum "Si O2"
_cell_formula_units_Z 32
_cell_length_a 17.852787
_cell_length_b 17.856162
_cell_length_c 5.500384
_cell_angle_alpha 90.000000
_cell_angle_beta 54.047657
_cell_angle_gamma 90.000000
_cell_volume 1419.407246
_symmetry_space_group_name_H-M "C 2/M"
_symmetry_group_IT_number 12
_symmetry_cell_setting 'monoclinic'
loop_
_space_group_symop_operation_xyz
x,y,z
-x,y,-z
-x,-y,-z
x,-y,z
1/2+x,1/2+y,z
1/2-x,1/2+y,-z
1/2-x,1/2-y,-z
1/2+x,1/2-y,z
loop_
_atom_site_type_symbol
_atom_site_label
_atom_site_fract_x
_atom_site_fract_y
_atom_site_fract_z
Si Si1 0.266314 0.411456 0.783237
Si Si2 0.596878 0.686059 0.246139
Si Si3 0.651431 0.714267 0.638630
Si Si4 0.049706 0.591292 0.155216
O O1 0.274062 0.500000 0.783024
O O2 0.327627 0.373814 0.453858
O O3 0.158987 0.390675 0.954634
O O4 0.314954 0.369286 0.916372
O O5 0.500000 0.647725 0.500000
O O6 0.615478 0.739748 0.442639
O O7 0.591477 0.722353 0.993222
O O8 0.750000 0.750000 0.500000
O O9 0.045155 0.500000 0.161238
O O10 0.000000 0.615050 0.500000
O O11 0.000000 0.616313 0.000000
#
# Coordination Sequence:
#
# PCOD9214866 Si02
#       4
#     8   8   8   8
#     4   9  22  37  63  91 126 165 202 254 310 363
#     4  10  22  40  65  91 124 161 202 254 307 368
#     4  10  22  41  64  84 126 163 204 254 296 359
#     4   9  18  32  51  78 116 155 197 243 292 349
#
# _framework density 22.544619999999998
#
# number of rings (size 3 to 8) (size 9 to 14) (size 15 to 20)
#    1.500    1.000    0.000    1.500    3.500    1.500 
#    0.000    5.000    0.000    0.000    0.000    0.000 
#    0.000    0.000    0.000    0.000    0.000    0.000 
#
# Total GULP energy -89136.189433 kJ/mol
# GULP energy per Si atom -5571.011840 kJ/mol
# Density = 2.249331 g / cm^3
# Si number density = 22.544620 Si / 1000 Ang^3
#
#
#
# Elastic Constant Matrix: (Units=GPa)
#
#
# Indices 1 2 3 4 5 6 
#
# 1 146.6099 26.4241 53.8010 0.0000 14.0318 0.0000
# 2 26.4241 68.7150 6.7212 0.0000 4.0838 0.0000
# 3 53.8010 6.7212 131.8799 0.0000 33.3360 0.0000
# 4 0.0000 0.0000 0.0000 8.9288 0.0000 -3.5342
# 5 14.0318 4.0838 33.3360 0.0000 48.8591 0.0000
# 6 0.0000 0.0000 0.0000 -3.5342 0.0000 35.1986
#
#
#
# Elastic Compliance Matrix: (Units=1/GPa)
#
#
# Indices 1 2 3 4 5 6 
#
# 1 0.008587 -0.002977 -0.003373 0.000000 0.000084 0.000000
# 2 -0.002977 0.015688 0.000641 0.000000 -0.000894 0.000000
# 3 -0.003373 0.000641 0.010507 0.000000 -0.006254 0.000000
# 4 0.000000 0.000000 0.000000 0.116632 0.000000 0.011711
# 5 0.000084 -0.000894 -0.006254 0.000000 0.024784 0.000000
# 6 0.000000 0.000000 0.000000 0.011711 0.000000 0.029586
#
#
# Mechanical properties :
#
#
# Convention : Reuss Voigt Hill
#
# Bulk Modulus (GPa) = 42.80091 57.89969 50.35030
# Shear Modulus (GPa) = 22.22323 35.94789 29.08556
#
# Velocity S-wave (km/s) = 3.14306 3.99748 3.59574
# Velocity P-wave (km/s) = 5.67433 6.85890 6.29454
#
# Compressibility (1/GPa) = 0.02336399
#
# Stress axis : x y z
#
# Youngs Moduli (GPa) = 116.45495 63.74237 95.17842
#
# Poissons Ratio (x) = 0.18977 0.32100
# Poissons Ratio (y) = 0.34671 -0.06100
# Poissons Ratio (z) = 0.39275 -0.04085
#
# Static dielectric constant tensor:
#      x y z
#    x 1.891320 0.000000 0.049310 
#    y 0.000000 1.824560 0.000000 
#    z 0.049310 0.000000 1.855330 
# 
# From -- ./inp_files/7114.got.cif
#   From: 2010.05.17/outbox.cif.g08.bks.cpg/sg12_4_cif.got.tgz:7114.got - 2010.06.03 13:09:07.
