data_PCOD9214941
_publ_section_title
;
Structure prediction by ZEFSAII (Michael W. Deem and Ramdas Pophale) SiO2 
 PCOD9214941
Probable space group: C 2/M
;
_chemical_formula_sum "Si O2"
_cell_formula_units_Z 56
_cell_length_a 11.045194
_cell_length_b 15.266981
_cell_length_c 18.503942
_cell_angle_alpha 90.000000
_cell_angle_beta 56.740663
_cell_angle_gamma 90.000000
_cell_volume 2609.151338
_symmetry_space_group_name_H-M "C 2/M"
_symmetry_group_IT_number 12
_symmetry_cell_setting 'monoclinic'
loop_
_space_group_symop_operation_xyz
x,y,z
-x,y,-z
-x,-y,-z
x,-y,z
1/2+x,1/2+y,z
1/2-x,1/2+y,-z
1/2-x,1/2-y,-z
1/2+x,1/2-y,z
loop_
_atom_site_type_symbol
_atom_site_label
_atom_site_fract_x
_atom_site_fract_y
_atom_site_fract_z
Si Si1 0.419231 0.354386 0.211123
Si Si2 0.615390 0.699421 0.012416
Si Si3 0.624863 0.402536 0.272871
Si Si4 0.954462 0.219683 0.432716
Si Si5 0.120564 0.661588 0.739725
Si Si6 0.319010 0.104406 0.438347
Si Si7 0.701898 0.901391 0.163277
O O1 0.526397 0.334120 0.109652
O O2 0.524140 0.399699 0.234923
O O3 0.359235 0.265863 0.267303
O O4 0.281976 0.396175 0.214778
O O5 0.500000 0.750913 0.000000
O O6 0.750000 0.750000 0.000000
O O7 0.684361 0.628691 0.935096
O O8 0.609332 0.500000 0.308792
O O9 0.564032 0.326685 0.343524
O O10 0.796410 0.378790 0.217738
O O11 0.814737 0.153937 0.478094
O O12 0.939867 0.322390 0.417930
O O13 0.000000 0.216345 0.500000
O O14 0.185506 0.614451 0.647362
O O15 0.946961 0.651622 0.794474
O O16 0.332930 0.000000 0.451232
O O17 0.657433 0.000000 0.164682
#
# Coordination Sequence:
#
# PCOD9214941 Si02
#       7
#     8   8   8   8   8   8   8
#     4  11  24  42  68  93 132 175 221 266 332 399
#     4  10  22  40  66  92 126 173 218 266 328 395
#     4  12  25  42  67  99 134 173 221 276 331 394
#     4  11  24  43  68  94 129 176 221 269 331 397
#     4  12  23  42  67  99 133 172 218 276 332 397
#     4  11  24  43  66  96 132 172 220 275 332 394
#     4  11  24  42  67  99 133 172 220 276 332 396
#
# _framework density 21.462917999999998
#
# number of rings (size 3 to 8) (size 9 to 14) (size 15 to 20)
#    0.000    0.857    4.286    3.000    2.000    4.000 
#    0.000    0.000    0.000    2.143    0.000    0.000 
#    0.000    0.000    0.000    0.000    0.000    0.000 
#
# Total GULP energy -156042.966654 kJ/mol
# GULP energy per Si atom -5572.963095 kJ/mol
# Density = 2.141407 g / cm^3
# Si number density = 21.462918 Si / 1000 Ang^3
#
#
#
# Elastic Constant Matrix: (Units=GPa)
#
#
# Indices 1 2 3 4 5 6 
#
# 1 124.1919 28.0507 24.1471 0.0000 12.9459 0.0000
# 2 28.0507 132.1300 14.8945 0.0000 5.8007 0.0000
# 3 24.1471 14.8945 58.4446 0.0000 3.0366 0.0000
# 4 0.0000 0.0000 0.0000 13.6100 0.0000 7.6548
# 5 12.9459 5.8007 3.0366 0.0000 34.1682 0.0000
# 6 0.0000 0.0000 0.0000 7.6548 0.0000 23.3728
#
#
#
# Elastic Compliance Matrix: (Units=1/GPa)
#
#
# Indices 1 2 3 4 5 6 
#
# 1 0.009345 -0.001477 -0.003329 0.000000 -0.002994 0.000000
# 2 -0.001477 0.008071 -0.001411 0.000000 -0.000685 0.000000
# 3 -0.003329 -0.001411 0.018854 0.000000 -0.000175 0.000000
# 4 0.000000 0.000000 0.000000 0.090066 0.000000 -0.029497
# 5 -0.002994 -0.000685 -0.000175 0.000000 0.030533 0.000000
# 6 0.000000 0.000000 0.000000 -0.029497 0.000000 0.052445
#
#
# Mechanical properties :
#
#
# Convention : Reuss Voigt Hill
#
# Bulk Modulus (GPa) = 41.95328 49.88347 45.91837
# Shear Modulus (GPa) = 21.76804 30.74182 26.25493
#
# Velocity S-wave (km/s) = 3.18813 3.78871 3.50132
# Velocity P-wave (km/s) = 5.75687 6.51393 6.14706
#
# Compressibility (1/GPa) = 0.02383604
#
# Stress axis : x y z
#
# Youngs Moduli (GPa) = 107.00806 123.89973 53.03832
#
# Poissons Ratio (x) = 0.18303 0.17657
# Poissons Ratio (y) = 0.15807 0.07484
# Poissons Ratio (z) = 0.35623 0.17482
#
# Static dielectric constant tensor:
#      x y z
#    x 1.881400 0.000000 -0.012840 
#    y 0.000000 1.780950 0.000000 
#    z -0.012840 0.000000 1.775270 
# 
# From -- ./inp_files/263216.got.cif
#   From: 2010.05.17/outbox.cif.g08.bks.cpg/sg12_132_cif.got.tgz:263216.got - 2010.06.03 13:09:07.
