data_PCOD9214462
_publ_section_title
;
Structure prediction by ZEFSAII (Michael W. Deem and Ramdas Pophale) SiO2 
 PCOD9214462
Probable space group: C 2/M
;
_chemical_formula_sum "Si O2"
_cell_formula_units_Z 48
_cell_length_a 24.979315
_cell_length_b 8.855594
_cell_length_c 20.024443
_cell_angle_alpha 90.000000
_cell_angle_beta 146.815544
_cell_angle_gamma 90.000000
_cell_volume 2424.447782
_symmetry_space_group_name_H-M "C 2/M"
_symmetry_group_IT_number 12
_symmetry_cell_setting 'monoclinic'
loop_
_space_group_symop_operation_xyz
x,y,z
-x,y,-z
-x,-y,-z
x,-y,z
1/2+x,1/2+y,z
1/2-x,1/2+y,-z
1/2-x,1/2-y,-z
1/2+x,1/2-y,z
loop_
_atom_site_type_symbol
_atom_site_label
_atom_site_fract_x
_atom_site_fract_y
_atom_site_fract_z
Si Si1 0.910013 0.816065 0.359953
Si Si2 0.809460 0.318721 0.850185
Si Si3 0.300255 0.178196 0.487519
Si Si4 0.444921 0.820395 0.112102
Si Si5 0.615979 0.322708 0.202368
Si Si6 0.986604 0.819028 0.296457
O O1 0.802940 0.767109 0.271977
O O2 0.000000 0.764134 0.500000
O O3 0.929138 0.772919 0.303228
O O4 0.909817 0.000000 0.362080
O O5 0.813344 0.500000 0.844434
O O6 0.875931 0.242482 0.863342
O O7 0.852454 0.286696 0.968310
O O8 0.250000 0.250000 0.500000
O O9 0.222869 0.196849 0.347150
O O10 0.402808 0.258652 0.581901
O O11 0.316347 0.000000 0.515281
O O12 0.538585 0.761586 0.168469
O O13 0.443055 0.744478 0.182376
O O14 0.452576 0.000000 0.128287
O O15 0.592187 0.500000 0.176816
O O16 0.988739 0.000000 0.295364
#
# Coordination Sequence:
#
# PCOD9214462 Si02
#       6
#     8   8   8   8   8   8
#     4   9  19  38  63  88 115 151 195 244 296 353
#     4  10  22  40  61  86 116 157 204 242 290 357
#     4  11  22  36  57  86 119 154 192 238 295 351
#     4  11  23  38  58  85 120 159 198 244 297 354
#     4  11  23  38  59  88 120 154 196 246 299 353
#     4  11  22  37  61  90 119 155 199 246 294 349
#
# _framework density 19.798324000000001
#
# number of rings (size 3 to 8) (size 9 to 14) (size 15 to 20)
#    0.000    1.500    1.667    3.500    0.000    7.333 
#    0.000    1.667    0.000    4.500    0.000    0.000 
#    0.000    0.000    0.000    0.000    0.000    0.000 
#
# Total GULP energy -134174.593744 kJ/mol
# GULP energy per Si atom -5590.608073 kJ/mol
# Density = 1.975326 g / cm^3
# Si number density = 19.798324 Si / 1000 Ang^3
#
#
#
# Elastic Constant Matrix: (Units=GPa)
#
#
# Indices 1 2 3 4 5 6 
#
# 1 109.3465 23.9065 30.5082 0.0000 -15.6420 0.0000
# 2 23.9065 51.3935 36.3907 0.0000 -13.5346 0.0000
# 3 30.5082 36.3907 88.6136 0.0000 -12.0699 0.0000
# 4 0.0000 0.0000 0.0000 27.4664 0.0000 -8.8914
# 5 -15.6420 -13.5346 -12.0699 0.0000 26.4282 0.0000
# 6 0.0000 0.0000 0.0000 -8.8914 0.0000 21.3234
#
#
#
# Elastic Compliance Matrix: (Units=1/GPa)
#
#
# Indices 1 2 3 4 5 6 
#
# 1 0.010883 -0.002406 -0.002185 0.000000 0.004211 0.000000
# 2 -0.002406 0.030400 -0.010375 0.000000 0.009406 0.000000
# 3 -0.002185 -0.010375 0.016419 0.000000 0.000892 0.000000
# 4 0.000000 0.000000 0.000000 0.042090 0.000000 0.017550
# 5 0.004211 0.009406 0.000892 0.000000 0.045556 0.000000
# 6 0.000000 0.000000 0.000000 0.017550 0.000000 0.054215
#
#
# Mechanical properties :
#
#
# Convention : Reuss Voigt Hill
#
# Bulk Modulus (GPa) = 36.00913 47.88495 41.94704
# Shear Modulus (GPa) = 20.94215 25.61348 23.27781
#
# Velocity S-wave (km/s) = 3.25587 3.60073 3.43264
# Velocity P-wave (km/s) = 5.68874 6.44406 6.07814
#
# Compressibility (1/GPa) = 0.02777074
#
# Stress axis : x y z
#
# Youngs Moduli (GPa) = 91.88283 32.89425 60.90357
#
# Poissons Ratio (x) = 0.07915 0.13309
# Poissons Ratio (y) = 0.22109 0.63186
# Poissons Ratio (z) = 0.20078 0.34127
#
# Static dielectric constant tensor:
#      x y z
#    x 1.663350 0.000000 -0.008930 
#    y 0.000000 1.666070 0.000000 
#    z -0.008930 0.000000 1.718650 
# 
# From -- ./inp_files/327308.got.cif
#   From: 2010.05.17/outbox.cif.g08.bks.cpg/sg12_164_cif.got.tgz:327308.got - 2010.06.03 13:09:07.
