data_PCOD9214519
_publ_section_title
;
Structure prediction by ZEFSAII (Michael W. Deem and Ramdas Pophale) SiO2 
 PCOD9214519
Probable space group: C 2/M
;
_chemical_formula_sum "Si O2"
_cell_formula_units_Z 56
_cell_length_a 12.066142
_cell_length_b 25.661687
_cell_length_c 9.781526
_cell_angle_alpha 90.000000
_cell_angle_beta 111.593146
_cell_angle_gamma 90.000000
_cell_volume 2816.173280
_symmetry_space_group_name_H-M "C 2/M"
_symmetry_group_IT_number 12
_symmetry_cell_setting 'monoclinic'
loop_
_space_group_symop_operation_xyz
x,y,z
-x,y,-z
-x,-y,-z
x,-y,z
1/2+x,1/2+y,z
1/2-x,1/2+y,-z
1/2-x,1/2-y,-z
1/2+x,1/2-y,z
loop_
_atom_site_type_symbol
_atom_site_label
_atom_site_fract_x
_atom_site_fract_y
_atom_site_fract_z
Si Si1 0.645877 0.227818 0.058720
Si Si2 0.314111 0.560044 0.737745
Si Si3 0.610040 0.888417 0.965368
Si Si4 0.797860 0.214730 0.644907
Si Si5 0.859491 0.062322 0.065124
Si Si6 0.476540 0.627507 0.650691
Si Si7 0.393983 0.871751 0.347177
O O1 0.652297 0.165802 0.050199
O O2 0.686573 0.247106 0.222907
O O3 0.500000 0.240922 0.000000
O O4 0.750000 0.250000 0.000000
O O5 0.335821 0.500000 0.740727
O O6 0.369326 0.588035 0.633388
O O7 0.176310 0.573971 0.676314
O O8 0.373123 0.577915 0.909569
O O9 0.718465 0.928475 0.016608
O O10 0.500000 0.909464 0.000000
O O11 0.571809 0.869787 0.796046
O O12 0.750000 0.250000 0.500000
O O13 0.921091 0.183522 0.668703
O O14 0.702122 0.171962 0.653430
O O15 0.924199 0.101242 0.202801
O O16 0.888350 0.000000 0.094538
O O17 0.500000 0.628480 0.500000
O O18 0.500000 0.868177 0.500000
#
# Coordination Sequence:
#
# PCOD9214519 Si02
#       7
#     8   8   8   8   8   8   8
#     4  11  25  43  69  99 129 177 230 284 338 402
#     4   9  20  41  65  94 126 169 218 266 333 407
#     4  10  23  41  64  94 131 171 224 277 329 405
#     4  11  27  42  62  90 129 173 220 275 340 406
#     4  10  22  42  70  95 129 172 221 278 344 406
#     4  11  25  40  62  97 131 169 213 281 339 409
#     4  10  22  40  61  89 128 167 214 268 329 396
#
# _framework density 19.88514
#
# number of rings (size 3 to 8) (size 9 to 14) (size 15 to 20)
#    0.000    1.714    1.429    0.857    8.000    4.571 
#    0.000    0.000    0.000    0.000    0.000    0.000 
#    0.000    0.000    0.000    0.000    0.000    0.000 
#
# Total GULP energy -155886.935763 kJ/mol
# GULP energy per Si atom -5567.390563 kJ/mol
# Density = 1.983988 g / cm^3
# Si number density = 19.885140 Si / 1000 Ang^3
#
#
#
# Elastic Constant Matrix: (Units=GPa)
#
#
# Indices 1 2 3 4 5 6 
#
# 1 87.0621 15.1909 40.9629 0.0000 -15.6859 0.0000
# 2 15.1909 49.8884 44.0725 0.0000 -5.9066 0.0000
# 3 40.9629 44.0725 139.7084 0.0000 -16.8789 0.0000
# 4 0.0000 0.0000 0.0000 27.2256 0.0000 1.4830
# 5 -15.6859 -5.9066 -16.8789 0.0000 41.3098 0.0000
# 6 0.0000 0.0000 0.0000 1.4830 0.0000 14.0158
#
#
#
# Elastic Compliance Matrix: (Units=1/GPa)
#
#
# Indices 1 2 3 4 5 6 
#
# 1 0.013890 -0.000815 -0.003358 0.000000 0.003786 0.000000
# 2 -0.000815 0.027844 -0.008522 0.000000 0.000190 0.000000
# 3 -0.003358 -0.008522 0.011076 0.000000 0.002032 0.000000
# 4 0.000000 0.000000 0.000000 0.036943 0.000000 -0.003909
# 5 0.003786 0.000190 0.002032 0.000000 0.026502 0.000000
# 6 0.000000 0.000000 0.000000 -0.003909 0.000000 0.071761
#
#
# Mechanical properties :
#
#
# Convention : Reuss Voigt Hill
#
# Bulk Modulus (GPa) = 36.46865 53.01239 44.74052
# Shear Modulus (GPa) = 22.46721 28.27240 25.36981
#
# Velocity S-wave (km/s) = 3.36497 3.77475 3.57573
# Velocity P-wave (km/s) = 5.78592 6.76132 6.29255
#
# Compressibility (1/GPa) = 0.02742081
#
# Stress axis : x y z
#
# Youngs Moduli (GPa) = 71.99228 35.91497 90.28341
#
# Poissons Ratio (x) = 0.02925 0.30321
# Poissons Ratio (y) = 0.05864 0.76937
# Poissons Ratio (z) = 0.24178 0.30606
#
# Static dielectric constant tensor:
#      x y z
#    x 1.715410 0.000000 0.072950 
#    y 0.000000 1.754150 0.000000 
#    z 0.072950 0.000000 1.634600 
# 
# From -- ./inp_files/53131.got.cif
#   From: 2010.05.17/outbox.cif.g08.bks.cpg/sg12_27_cif.got.tgz:53131.got - 2010.06.03 13:09:07.
