data_PCOD9214867
_publ_section_title
;
Structure prediction by ZEFSAII (Michael W. Deem and Ramdas Pophale) SiO2 
 PCOD9214867
Probable space group: C 2/M
;
_chemical_formula_sum "Si O2"
_cell_formula_units_Z 40
_cell_length_a 5.279076
_cell_length_b 24.825315
_cell_length_c 12.802871
_cell_angle_alpha 90.000000
_cell_angle_beta 98.191228
_cell_angle_gamma 90.000000
_cell_volume 1660.759128
_symmetry_space_group_name_H-M "C 2/M"
_symmetry_group_IT_number 12
_symmetry_cell_setting 'monoclinic'
loop_
_space_group_symop_operation_xyz
x,y,z
-x,y,-z
-x,-y,-z
x,-y,z
1/2+x,1/2+y,z
1/2-x,1/2+y,-z
1/2-x,1/2-y,-z
1/2+x,1/2-y,z
loop_
_atom_site_type_symbol
_atom_site_label
_atom_site_fract_x
_atom_site_fract_y
_atom_site_fract_z
Si Si1 0.732118 0.434943 0.441182
Si Si2 0.340199 0.939914 0.210900
Si Si3 0.861221 0.350513 0.899378
Si Si4 0.500000 0.425566 0.000000
Si Si5 0.015363 0.784546 0.729106
Si Si6 0.500000 0.287262 0.500000
O O1 0.500000 0.416517 0.500000
O O2 0.739817 0.500000 0.453769
O O3 0.723410 0.426343 0.316810
O O4 0.000000 0.412203 0.500000
O O5 0.496442 0.887536 0.179479
O O6 0.474159 0.000000 0.227676
O O7 0.122906 0.948609 0.111647
O O8 0.732810 0.392761 0.968475
O O9 0.634802 0.319603 0.827594
O O10 0.000000 0.315278 0.000000
O O11 0.226714 0.735887 0.733212
O O12 0.025429 0.813052 0.616147
O O13 0.250000 0.250000 0.500000
#
# Coordination Sequence:
#
# PCOD9214867 Si02
#       6
#     8   8   8   4   8   4
#     4   9  19  36  60  89 122 159 204 261 322 384
#     4  10  22  40  65  91 128 177 224 275 334 391
#     4  10  24  41  60  93 133 168 224 278 326 394
#     4  10  23  40  60  88 134 170 230 282 325 380
#     4  10  22  40  70  96 130 170 213 266 337 396
#     4   8  16  36  62  96 123 156 203 260 312 386
#
# _framework density 24.085373000000001
#
# number of rings (size 3 to 8) (size 9 to 14) (size 15 to 20)
#    0.000    2.400    0.000    0.300    8.400    5.200 
#    0.000    2.000    2.200    0.000    0.000    0.000 
#    0.000    0.000    0.000    0.000    0.000    0.000 
#
# Total GULP energy -111405.770917 kJ/mol
# GULP energy per Si atom -5570.288546 kJ/mol
# Density = 2.403055 g / cm^3
# Si number density = 24.085373 Si / 1000 Ang^3
#
#
#
# Elastic Constant Matrix: (Units=GPa)
#
#
# Indices 1 2 3 4 5 6 
#
# 1 106.2782 2.7239 39.7789 0.0000 -15.6101 0.0000
# 2 2.7239 36.4885 27.9064 0.0000 -3.3754 0.0000
# 3 39.7789 27.9064 206.1990 0.0000 -0.8540 0.0000
# 4 0.0000 0.0000 0.0000 56.4493 0.0000 -3.1277
# 5 -15.6101 -3.3754 -0.8540 0.0000 39.5704 0.0000
# 6 0.0000 0.0000 0.0000 -3.1277 0.0000 -2.4371
#
#
#
# Elastic Compliance Matrix: (Units=1/GPa)
#
#
# Indices 1 2 3 4 5 6 
#
# 1 0.010858 0.001316 -0.002255 0.000000 0.004347 0.000000
# 2 0.001316 0.030983 -0.004434 0.000000 0.003066 0.000000
# 3 -0.002255 -0.004434 0.005880 0.000000 -0.001141 0.000000
# 4 0.000000 0.000000 0.000000 0.016539 0.000000 -0.021226
# 5 0.004347 0.003066 -0.001141 0.000000 0.027223 0.000000
# 6 0.000000 0.000000 0.000000 -0.021226 0.000000 -0.383088
#
#
# Mechanical properties :
#
#
# Convention : Reuss Voigt Hill
#
# Bulk Modulus (GPa) = 27.04562 54.42045 40.73304
# Shear Modulus (GPa) = -18.61958 37.28695 9.33368
#
# Velocity S-wave (km/s) = -2.78342 3.93888 1.97070
# Velocity P-wave (km/s) = 0.96100 6.58257 4.70392
#
# Compressibility (1/GPa) = 0.03697456
#
# Stress axis : x y z
#
# Youngs Moduli (GPa) = 92.09836 32.27616 170.06627
#
# Poissons Ratio (x) = -0.04248 0.38346
# Poissons Ratio (y) = -0.12120 0.75412
# Poissons Ratio (z) = 0.20766 0.14312
#
# Static dielectric constant tensor:
#      x y z
#    x 1.939730 0.000000 0.077910 
#    y 0.000000 2.139860 0.000000 
#    z 0.077910 0.000000 1.946640 
# 
# From -- ./inp_files/115547.got.cif
#   From: 2010.05.17/outbox.cif.g08.bks.cpg/sg12_58_cif.got.tgz:115547.got - 2010.06.03 13:09:07.
