data_PCOD9214538
_publ_section_title
;
Structure prediction by ZEFSAII (Michael W. Deem and Ramdas Pophale) SiO2 
 PCOD9214538
Probable space group: C 2/M
;
_chemical_formula_sum "Si O2"
_cell_formula_units_Z 40
_cell_length_a 18.463959
_cell_length_b 19.308291
_cell_length_c 5.086602
_cell_angle_alpha 90.000000
_cell_angle_beta 99.988647
_cell_angle_gamma 90.000000
_cell_volume 1785.924291
_symmetry_space_group_name_H-M "C 2/M"
_symmetry_group_IT_number 12
_symmetry_cell_setting 'monoclinic'
loop_
_space_group_symop_operation_xyz
x,y,z
-x,y,-z
-x,-y,-z
x,-y,z
1/2+x,1/2+y,z
1/2-x,1/2+y,-z
1/2-x,1/2-y,-z
1/2+x,1/2-y,z
loop_
_atom_site_type_symbol
_atom_site_label
_atom_site_fract_x
_atom_site_fract_y
_atom_site_fract_z
Si Si1 0.689886 0.871626 0.829588
Si Si2 0.965031 0.420461 0.222970
Si Si3 0.855511 0.918499 0.026430
Si Si4 0.581206 0.343830 0.428655
Si Si5 0.176602 0.715375 0.333636
O O1 0.621947 0.919988 0.860262
O O2 0.770885 0.903089 0.894696
O O3 0.670484 0.850209 0.520299
O O4 0.684877 0.808270 0.037152
O O5 0.991501 0.500000 0.241839
O O6 0.000000 0.386823 0.500000
O O7 0.000000 0.382300 0.000000
O O8 0.907044 0.892790 0.818838
O O9 0.865988 0.000000 0.080183
O O10 0.871182 0.875386 0.301152
O O11 0.500000 0.339763 0.500000
O O12 0.612499 0.270240 0.349607
O O13 0.250000 0.750000 0.500000
#
# Coordination Sequence:
#
# PCOD9214538 Si02
#       5
#     8   8   8   8   8
#     4  12  23  41  71  97 131 169 226 266 327 400
#     4  10  22  40  61  93 137 174 212 268 325 380
#     4  12  25  44  70  98 130 176 224 271 330 395
#     4  12  27  45  66  98 134 174 222 275 330 393
#     4  12  23  43  69  93 130 172 209 275 333 386
#
# _framework density 22.397362999999999
#
# number of rings (size 3 to 8) (size 9 to 14) (size 15 to 20)
#    0.000    0.400    4.000    4.800    0.000    4.800 
#    0.000    6.000    0.000    0.000    0.000    0.000 
#    0.000    0.000    0.000    0.000    0.000    0.000 
#
# Total GULP energy -111770.597661 kJ/mol
# GULP energy per Si atom -5588.529883 kJ/mol
# Density = 2.234639 g / cm^3
# Si number density = 22.397363 Si / 1000 Ang^3
#
#
#
# Elastic Constant Matrix: (Units=GPa)
#
#
# Indices 1 2 3 4 5 6 
#
# 1 104.0170 -1.1226 11.6209 0.0000 -10.9756 0.0000
# 2 -1.1226 29.0692 6.7436 0.0000 -3.0658 0.0000
# 3 11.6209 6.7436 106.3551 0.0000 -13.9278 0.0000
# 4 0.0000 0.0000 0.0000 2.9821 0.0000 2.9161
# 5 -10.9756 -3.0658 -13.9278 0.0000 34.6714 0.0000
# 6 0.0000 0.0000 0.0000 2.9161 0.0000 27.7541
#
#
#
# Elastic Compliance Matrix: (Units=1/GPa)
#
#
# Indices 1 2 3 4 5 6 
#
# 1 0.010019 0.000875 -0.000765 0.000000 0.002942 0.000000
# 2 0.000875 0.035168 -0.001986 0.000000 0.002589 0.000000
# 3 -0.000765 -0.001986 0.010088 0.000000 0.003635 0.000000
# 4 0.000000 0.000000 0.000000 0.373735 0.000000 -0.039267
# 5 0.002942 0.002589 0.003635 0.000000 0.031462 0.000000
# 6 0.000000 0.000000 0.000000 -0.039267 0.000000 0.040156
#
#
# Mechanical properties :
#
#
# Convention : Reuss Voigt Hill
#
# Bulk Modulus (GPa) = 19.40927 30.43614 24.92271
# Shear Modulus (GPa) = 9.58668 27.89482 18.74075
#
# Velocity S-wave (km/s) = 2.07113 3.53292 2.89578
# Velocity P-wave (km/s) = 3.79527 5.50098 4.72572
#
# Compressibility (1/GPa) = 0.05152176
#
# Stress axis : x y z
#
# Youngs Moduli (GPa) = 99.80926 28.43468 99.12789
#
# Poissons Ratio (x) = -0.02487 0.07583
# Poissons Ratio (y) = -0.08730 0.19692
# Poissons Ratio (z) = 0.07635 0.05648
#
# Static dielectric constant tensor:
#      x y z
#    x 1.864580 0.000000 -0.036370 
#    y 0.000000 1.873320 0.000000 
#    z -0.036370 0.000000 1.782520 
# 
# From -- ./inp_files/15304.got.cif
#   From: 2010.05.17/outbox.cif.g08.bks.cpg/sg12_8_cif.got.tgz:15304.got - 2010.06.03 13:09:07.
