data_PCOD9214685
_publ_section_title
;
Structure prediction by ZEFSAII (Michael W. Deem and Ramdas Pophale) SiO2 
 PCOD9214685
Probable space group: C 2/M
;
_chemical_formula_sum "Si O2"
_cell_formula_units_Z 48
_cell_length_a 14.487905
_cell_length_b 12.980260
_cell_length_c 15.064785
_cell_angle_alpha 90.000000
_cell_angle_beta 129.127604
_cell_angle_gamma 90.000000
_cell_volume 2197.705462
_symmetry_space_group_name_H-M "C 2/M"
_symmetry_group_IT_number 12
_symmetry_cell_setting 'monoclinic'
loop_
_space_group_symop_operation_xyz
x,y,z
-x,y,-z
-x,-y,-z
x,-y,z
1/2+x,1/2+y,z
1/2-x,1/2+y,-z
1/2-x,1/2-y,-z
1/2+x,1/2-y,z
loop_
_atom_site_type_symbol
_atom_site_label
_atom_site_fract_x
_atom_site_fract_y
_atom_site_fract_z
Si Si1 0.445629 0.754226 0.655253
Si Si2 0.131139 0.326209 0.078905
Si Si3 0.140411 0.117233 0.674286
Si Si4 0.795165 0.112311 0.821100
Si Si5 0.614949 0.881237 0.876431
Si Si6 0.802797 0.697165 0.413370
O O1 0.541980 0.674341 0.675115
O O2 0.504037 0.819035 0.769523
O O3 0.326178 0.700553 0.618536
O O4 0.401466 0.826665 0.547060
O O5 0.235344 0.379928 0.196707
O O6 0.123251 0.212351 0.117841
O O7 0.163359 0.329139 0.994874
O O8 0.000000 0.373189 0.000000
O O9 0.161667 0.189111 0.601498
O O10 0.108601 0.000000 0.634920
O O11 0.711023 0.117355 0.855901
O O12 0.713847 0.129448 0.684580
O O13 0.853415 0.000000 0.851541
O O14 0.584720 0.000000 0.877316
#
# Coordination Sequence:
#
# PCOD9214685 Si02
#       6
#     8   8   8   8   8   8
#     4  11  23  41  66  95 128 171 213 267 326 387
#     4  11  23  42  65  91 129 168 211 272 323 381
#     4  11  24  43  68  95 129 174 220 269 326 390
#     4  10  22  40  63  91 124 166 211 258 317 386
#     4  11  22  38  63  91 121 165 213 254 316 387
#     4  10  23  42  64  94 132 165 213 271 325 384
#
# _framework density 21.840959999999999
#
# number of rings (size 3 to 8) (size 9 to 14) (size 15 to 20)
#    0.000    1.333    3.333    3.500    0.000    6.333 
#    0.000    5.000    0.000    0.000    0.000    0.000 
#    0.000    0.000    0.000    0.000    0.000    0.000 
#
# Total GULP energy -134093.638711 kJ/mol
# GULP energy per Si atom -5587.234946 kJ/mol
# Density = 2.179125 g / cm^3
# Si number density = 21.840960 Si / 1000 Ang^3
#
#
#
# Elastic Constant Matrix: (Units=GPa)
#
#
# Indices 1 2 3 4 5 6 
#
# 1 75.4579 16.7307 -15.4200 0.0000 -0.4683 0.0000
# 2 16.7307 102.0821 15.0156 0.0000 8.3731 0.0000
# 3 -15.4200 15.0156 100.5105 0.0000 -11.4549 0.0000
# 4 0.0000 0.0000 0.0000 -2.2305 0.0000 -6.7753
# 5 -0.4683 8.3731 -11.4549 0.0000 39.4787 0.0000
# 6 0.0000 0.0000 0.0000 -6.7753 0.0000 4.7366
#
#
#
# Elastic Compliance Matrix: (Units=1/GPa)
#
#
# Indices 1 2 3 4 5 6 
#
# 1 0.014493 -0.002926 0.002845 0.000000 0.001618 0.000000
# 2 -0.002926 0.010882 -0.002422 0.000000 -0.003045 0.000000
# 3 0.002845 -0.002422 0.011180 0.000000 0.003791 0.000000
# 4 0.000000 0.000000 0.000000 -0.083879 0.000000 -0.119981
# 5 0.001618 -0.003045 0.003791 0.000000 0.027095 0.000000
# 6 0.000000 0.000000 0.000000 -0.119981 0.000000 0.039498
#
#
# Mechanical properties :
#
#
# Convention : Reuss Voigt Hill
#
# Bulk Modulus (GPa) = 31.69806 34.52256 33.11031
# Shear Modulus (GPa) = 143.71674 25.84526 84.78100
#
# Velocity S-wave (km/s) = 8.12061 3.44370 6.23712
# Velocity P-wave (km/s) = 10.12277 5.62608 8.18911
#
# Compressibility (1/GPa) = 0.03154768
#
# Stress axis : x y z
#
# Youngs Moduli (GPa) = 69.00010 91.89760 89.44909
#
# Poissons Ratio (x) = 0.26894 -0.25449
# Poissons Ratio (y) = 0.20193 0.21662
# Poissons Ratio (z) = -0.19631 0.22255
#
# Static dielectric constant tensor:
#      x y z
#    x 1.830390 0.000000 -0.012180 
#    y 0.000000 1.803740 0.000000 
#    z -0.012180 0.000000 1.791590 
# 
# From -- ./inp_files/214648.got.cif
#   From: 2010.05.17/outbox.cif.g08.bks.cpg/sg12_108_cif.got.tgz:214648.got - 2010.06.03 13:09:07.
