data_PCOD9214416
_publ_section_title
;
Structure prediction by ZEFSAII (Michael W. Deem and Ramdas Pophale) SiO2 
 PCOD9214416
Probable space group: C 2/M
;
_chemical_formula_sum "Si O2"
_cell_formula_units_Z 48
_cell_length_a 10.058768
_cell_length_b 9.152469
_cell_length_c 26.503902
_cell_angle_alpha 90.000000
_cell_angle_beta 90.099246
_cell_angle_gamma 90.000000
_cell_volume 2440.013468
_symmetry_space_group_name_H-M "C 2/M"
_symmetry_group_IT_number 12
_symmetry_cell_setting 'monoclinic'
loop_
_space_group_symop_operation_xyz
x,y,z
-x,y,-z
-x,-y,-z
x,-y,z
1/2+x,1/2+y,z
1/2-x,1/2+y,-z
1/2-x,1/2-y,-z
1/2+x,1/2-y,z
loop_
_atom_site_type_symbol
_atom_site_label
_atom_site_fract_x
_atom_site_fract_y
_atom_site_fract_z
Si Si1 0.350359 0.826774 0.861636
Si Si2 0.806079 0.173920 0.306358
Si Si3 0.863876 0.669647 0.531632
Si Si4 0.135622 0.171341 0.031527
Si Si5 0.575813 0.673940 0.363045
Si Si6 0.579317 0.326782 0.803801
O O1 0.376606 0.745562 0.914048
O O2 0.452261 0.764902 0.820321
O O3 0.199637 0.801829 0.843060
O O4 0.369012 0.000000 0.867485
O O5 0.676534 0.263998 0.321200
O O6 0.864308 0.209651 0.251386
O O7 0.924395 0.203333 0.346226
O O8 0.776565 0.000000 0.307130
O O9 0.827775 0.500000 0.539847
O O10 0.750000 0.750000 0.500000
O O11 0.888233 0.747894 0.584811
O O12 0.000000 0.675177 0.500000
O O13 0.165988 0.000000 0.037712
O O14 0.250000 0.250000 0.000000
O O15 0.000000 0.184382 0.000000
O O16 0.591925 0.500000 0.367554
O O17 0.546875 0.500000 0.804099
#
# Coordination Sequence:
#
# PCOD9214416 Si02
#       6
#     8   8   8   8   8   8
#     4  11  23  38  60  89 118 153 196 240 290 347
#     4  10  22  40  61  86 119 157 195 239 289 342
#     4  11  24  41  62  88 118 154 195 240 291 346
#     4  11  24  41  61  86 117 153 194 241 292 348
#     4  11  23  38  60  89 118 153 196 239 288 345
#     4  10  22  40  60  86 120 155 194 240 289 342
#
# _framework density 19.672021999999998
#
# number of rings (size 3 to 8) (size 9 to 14) (size 15 to 20)
#    0.000    1.333    0.000    5.000    0.000   12.667 
#    0.000    0.000    0.000    0.000    0.000    0.000 
#    0.000    0.000    0.000    0.000    0.000    0.000 
#
# Total GULP energy -134299.602917 kJ/mol
# GULP energy per Si atom -5595.816788 kJ/mol
# Density = 1.962725 g / cm^3
# Si number density = 19.672022 Si / 1000 Ang^3
#
#
#
# Elastic Constant Matrix: (Units=GPa)
#
#
# Indices 1 2 3 4 5 6 
#
# 1 52.3028 37.8169 -16.9672 0.0000 -8.0127 0.0000
# 2 37.8169 73.3191 10.7124 0.0000 4.9670 0.0000
# 3 -16.9672 10.7124 58.7917 0.0000 6.0611 0.0000
# 4 0.0000 0.0000 0.0000 36.2570 0.0000 -8.4503
# 5 -8.0127 4.9670 6.0611 0.0000 31.2505 0.0000
# 6 0.0000 0.0000 0.0000 -8.4503 0.0000 31.4352
#
#
#
# Elastic Compliance Matrix: (Units=1/GPa)
#
#
# Indices 1 2 3 4 5 6 
#
# 1 0.046309 -0.027244 0.016998 0.000000 0.012907 0.000000
# 2 -0.027244 0.030136 -0.012387 0.000000 -0.009373 0.000000
# 3 0.016998 -0.012387 0.023999 0.000000 0.001672 0.000000
# 4 0.000000 0.000000 0.000000 0.029424 0.000000 0.007910
# 5 0.012907 -0.009373 0.001672 0.000000 0.036474 0.000000
# 6 0.000000 0.000000 0.000000 0.007910 0.000000 0.033938
#
#
# Mechanical properties :
#
#
# Convention : Reuss Voigt Hill
#
# Bulk Modulus (GPa) = 18.12282 27.50423 22.81352
# Shear Modulus (GPa) = 18.94379 29.97863 24.46121
#
# Velocity S-wave (km/s) = 3.10656 3.90798 3.53009
# Velocity P-wave (km/s) = 4.70108 5.86300 5.31389
#
# Compressibility (1/GPa) = 0.05517906
#
# Stress axis : x y z
#
# Youngs Moduli (GPa) = 21.59401 33.18334 41.66763
#
# Poissons Ratio (x) = 0.90403 -0.70827
# Poissons Ratio (y) = 0.58830 0.51614
# Poissons Ratio (z) = -0.36706 0.41105
#
# Static dielectric constant tensor:
#      x y z
#    x 1.659640 0.000000 0.000600 
#    y 0.000000 1.653970 0.000000 
#    z 0.000600 0.000000 1.675450 
# 
# From -- ./inp_files/371859.got.cif
#   From: 2010.05.17/outbox.cif.g08.bks.cpg/sg12_186_cif.got.tgz:371859.got - 2010.06.03 13:09:07.
