data_PCOD9214020
_publ_section_title
;
Structure prediction by ZEFSAII (Michael W. Deem and Ramdas Pophale) SiO2 
 PCOD9214020
Probable space group: C 2/M
;
_chemical_formula_sum "Si O2"
_cell_formula_units_Z 48
_cell_length_a 13.647392
_cell_length_b 18.433686
_cell_length_c 15.103590
_cell_angle_alpha 90.000000
_cell_angle_beta 146.596515
_cell_angle_gamma 90.000000
_cell_volume 2091.819596
_symmetry_space_group_name_H-M "C 2/M"
_symmetry_group_IT_number 12
_symmetry_cell_setting 'monoclinic'
loop_
_space_group_symop_operation_xyz
x,y,z
-x,y,-z
-x,-y,-z
x,-y,z
1/2+x,1/2+y,z
1/2-x,1/2+y,-z
1/2-x,1/2-y,-z
1/2+x,1/2-y,z
loop_
_atom_site_type_symbol
_atom_site_label
_atom_site_fract_x
_atom_site_fract_y
_atom_site_fract_z
Si Si1 0.571437 0.086092 0.689225
Si Si2 0.945864 0.583280 0.108621
Si Si3 0.661893 0.304103 0.863755
Si Si4 0.301980 0.342549 0.382959
Si Si5 0.797211 0.784574 0.809591
Si Si6 0.221850 0.169366 0.438154
O O1 0.577186 0.093675 0.801483
O O2 0.733049 0.132462 0.769218
O O3 0.389652 0.127825 0.523923
O O4 0.571248 0.000000 0.668680
O O5 0.929183 0.500000 0.076455
O O6 0.135617 0.613026 0.220079
O O7 0.792022 0.629556 0.948778
O O8 0.662499 0.257926 0.774560
O O9 0.471026 0.331218 0.752145
O O10 0.750000 0.250000 0.000000
O O11 0.500000 0.354333 0.500000
O O12 0.244768 0.259217 0.312977
O O13 0.306714 0.368649 0.487903
O O14 0.000000 0.776474 0.000000
O O15 0.250000 0.250000 0.500000
#
# Coordination Sequence:
#
# PCOD9214020 Si02
#       6
#     8   8   8   8   8   8
#     4  10  22  42  63  92 128 164 210 259 308 369
#     4  10  22  39  61  90 127 163 204 260 314 370
#     4  12  21  38  64  94 119 160 215 252 304 373
#     4  11  21  37  60  91 125 158 206 253 312 371
#     4  12  23  37  64  94 124 164 204 260 310 370
#     4  11  21  37  66  90 115 164 209 255 302 364
#
# _framework density 22.946529000000002
#
# number of rings (size 3 to 8) (size 9 to 14) (size 15 to 20)
#    0.000    1.000    6.667    1.000    0.000    1.333 
#    0.000    1.667    0.000    4.500    0.000    0.000 
#    0.000    0.000    0.000    0.000    0.000    0.000 
#
# Total GULP energy -134040.985050 kJ/mol
# GULP energy per Si atom -5585.041044 kJ/mol
# Density = 2.289430 g / cm^3
# Si number density = 22.946529 Si / 1000 Ang^3
#
#
#
# Elastic Constant Matrix: (Units=GPa)
#
#
# Indices 1 2 3 4 5 6 
#
# 1 54.9542 8.8991 17.2816 0.0005 7.1284 0.0002
# 2 8.8991 155.4126 39.0278 0.0019 16.1996 0.0008
# 3 17.2816 39.0278 99.3362 0.0043 24.6977 0.0019
# 4 0.0005 0.0019 0.0043 26.1476 0.0016 7.8295
# 5 7.1284 16.1996 24.6977 0.0016 39.7674 0.0005
# 6 0.0002 0.0008 0.0019 7.8295 0.0005 25.8808
#
#
#
# Elastic Compliance Matrix: (Units=1/GPa)
#
#
# Indices 1 2 3 4 5 6 
#
# 1 0.019345 -0.000218 -0.002885 0.000000 -0.001587 0.000000
# 2 -0.000218 0.007206 -0.002452 0.000000 -0.001374 0.000000
# 3 -0.002885 -0.002452 0.013192 -0.000001 -0.006677 0.000000
# 4 0.000000 0.000000 -0.000001 0.042054 -0.000001 -0.012722
# 5 -0.001587 -0.001374 -0.006677 -0.000001 0.030137 0.000000
# 6 0.000000 0.000000 0.000000 -0.012722 0.000000 0.042487
#
#
# Mechanical properties :
#
#
# Convention : Reuss Voigt Hill
#
# Bulk Modulus (GPa) = 34.92368 48.90222 41.91295
# Shear Modulus (GPa) = 28.55904 34.65880 31.60892
#
# Velocity S-wave (km/s) = 3.53170 3.89062 3.71550
# Velocity P-wave (km/s) = 5.64652 6.44517 6.05902
#
# Compressibility (1/GPa) = 0.02863387
#
# Stress axis : x y z
#
# Youngs Moduli (GPa) = 51.69168 138.77692 75.80275
#
# Poissons Ratio (x) = 0.03021 0.21872
# Poissons Ratio (y) = 0.01125 0.18584
# Poissons Ratio (z) = 0.14915 0.34023
#
# Static dielectric constant tensor:
#      x y z
#    x 2.154510 0.000000 -0.125700 
#    y 0.000000 1.828280 0.000000 
#    z -0.125700 0.000000 1.893230 
# 
# From -- ./inp_files/89026.got.cif
#   From: 2010.05.17/outbox.cif.g08.bks.cpg/sg12_45_cif.got.tgz:89026.got - 2010.06.03 13:09:07.
