data_PCOD9214116
_publ_section_title
;
Structure prediction by ZEFSAII (Michael W. Deem and Ramdas Pophale) SiO2 
 PCOD9214116
Probable space group: C 2/M
;
_chemical_formula_sum "Si O2"
_cell_formula_units_Z 26
_cell_length_a 28.335858
_cell_length_b 7.601879
_cell_length_c 9.518458
_cell_angle_alpha 90.000000
_cell_angle_beta 38.317666
_cell_angle_gamma 90.000000
_cell_volume 1271.248044
_symmetry_space_group_name_H-M "C 2/M"
_symmetry_group_IT_number 12
_symmetry_cell_setting 'monoclinic'
loop_
_space_group_symop_operation_xyz
x,y,z
-x,y,-z
-x,-y,-z
x,-y,z
1/2+x,1/2+y,z
1/2-x,1/2+y,-z
1/2-x,1/2-y,-z
1/2+x,1/2-y,z
loop_
_atom_site_type_symbol
_atom_site_label
_atom_site_fract_x
_atom_site_fract_y
_atom_site_fract_z
Si Si1 0.555607 0.500000 0.550446
Si Si2 0.672607 0.201171 0.262664
Si Si3 0.732423 0.792008 0.702176
Si Si4 0.500000 0.500000 0.000000
Si Si5 0.608870 0.500000 0.007941
O O1 0.603784 0.331090 0.392770
O O2 0.550273 0.500000 0.735128
O O3 0.533354 0.500000 0.278656
O O4 0.697647 0.229007 0.365529
O O5 0.653182 0.000000 0.280062
O O6 0.750000 0.250000 0.000000
O O7 0.750000 0.750000 0.500000
O O8 0.660292 0.671741 0.911387
O O9 0.719709 0.000000 0.752427
O O10 0.577315 0.500000 0.921115
#
# Coordination Sequence:
#
# PCOD9214116 Si02
#       5
#     4   8   8   2   4
#     4  10  22  41  64  96 138 163 217 270 332 379
#     4  12  23  42  69  97 130 177 221 268 328 395
#     4  12  22  39  66  97 128 175 224 267 321 392
#     4   8  20  40  62  90 140 166 198 276 340 366
#     4  10  22  39  62  94 134 161 214 275 327 369
#
# _framework density 20.452341000000001
#
# number of rings (size 3 to 8) (size 9 to 14) (size 15 to 20)
#    0.923    0.000    6.154    1.846    0.000    1.231 
#    0.000    4.615    0.000    3.692    0.000    0.000 
#    0.000    0.000    0.000    0.000    0.000    0.000 
#
# Total GULP energy -72378.593767 kJ/mol
# GULP energy per Si atom -5567.584136 kJ/mol
# Density = 2.040579 g / cm^3
# Si number density = 20.452341 Si / 1000 Ang^3
#
#
#
# Elastic Constant Matrix: (Units=GPa)
#
#
# Indices 1 2 3 4 5 6 
#
# 1 71.0535 16.7834 4.8346 0.0000 -13.4466 0.0000
# 2 16.7834 218.9502 64.4373 0.0000 -40.2945 0.0000
# 3 4.8346 64.4373 131.5594 0.0000 -22.4499 0.0000
# 4 0.0000 0.0000 0.0000 26.2847 0.0000 -5.6405
# 5 -13.4466 -40.2945 -22.4499 0.0000 50.6066 0.0000
# 6 0.0000 0.0000 0.0000 -5.6405 0.0000 23.9121
#
#
#
# Elastic Compliance Matrix: (Units=1/GPa)
#
#
# Indices 1 2 3 4 5 6 
#
# 1 0.014877 -0.000573 0.000358 0.000000 0.003655 0.000000
# 2 -0.000573 0.005938 -0.002279 0.000000 0.003565 0.000000
# 3 0.000358 -0.002279 0.009100 0.000000 0.002317 0.000000
# 4 0.000000 0.000000 0.000000 0.040073 0.000000 0.009453
# 5 0.003655 0.003565 0.002317 0.000000 0.024598 0.000000
# 6 0.000000 0.000000 0.000000 0.009453 0.000000 0.044050
#
#
# Mechanical properties :
#
#
# Convention : Reuss Voigt Hill
#
# Bulk Modulus (GPa) = 40.11919 65.96373 53.04146
# Shear Modulus (GPa) = 32.90942 42.52787 37.71864
#
# Velocity S-wave (km/s) = 4.01568 4.56495 4.29910
# Velocity P-wave (km/s) = 6.41557 7.75290 7.11572
#
# Compressibility (1/GPa) = 0.02492573
#
# Stress axis : x y z
#
# Youngs Moduli (GPa) = 67.21946 168.40936 109.89428
#
# Poissons Ratio (x) = 0.09648 -0.03931
# Poissons Ratio (y) = 0.03851 0.25045
# Poissons Ratio (z) = -0.02404 0.38381
#
# Static dielectric constant tensor:
#      x y z
#    x 1.806150 0.000000 0.051310 
#    y 0.000000 1.694210 0.000000 
#    z 0.051310 0.000000 1.757220 
# 
# From -- ./inp_files/69729.got.cif
#   From: 2010.05.17/outbox.cif.g08.bks.cpg/sg12_35_cif.got.tgz:69729.got - 2010.06.03 13:09:07.
