data_PCOD9214814
_publ_section_title
;
Structure prediction by ZEFSAII (Michael W. Deem and Ramdas Pophale) SiO2 
 PCOD9214814
Probable space group: C 2/M
;
_chemical_formula_sum "Si O2"
_cell_formula_units_Z 48
_cell_length_a 13.798890
_cell_length_b 21.088307
_cell_length_c 14.967180
_cell_angle_alpha 90.000000
_cell_angle_beta 32.152086
_cell_angle_gamma 90.000000
_cell_volume 2317.794762
_symmetry_space_group_name_H-M "C 2/M"
_symmetry_group_IT_number 12
_symmetry_cell_setting 'monoclinic'
loop_
_space_group_symop_operation_xyz
x,y,z
-x,y,-z
-x,-y,-z
x,-y,z
1/2+x,1/2+y,z
1/2-x,1/2+y,-z
1/2-x,1/2-y,-z
1/2+x,1/2-y,z
loop_
_atom_site_type_symbol
_atom_site_label
_atom_site_fract_x
_atom_site_fract_y
_atom_site_fract_z
Si Si1 0.831361 0.817329 0.195790
Si Si2 0.278417 0.810075 0.165327
Si Si3 0.661236 0.071307 0.799550
Si Si4 0.573732 0.929062 0.342637
Si Si5 0.148162 0.648957 0.627746
Si Si6 0.517464 0.292494 0.729131
O O1 0.719420 0.751784 0.268206
O O2 0.732663 0.878694 0.234876
O O3 0.907992 0.819465 0.235780
O O4 0.000000 0.809317 0.000000
O O5 0.208074 0.876913 0.257590
O O6 0.191447 0.803553 0.135592
O O7 0.500000 0.813027 0.000000
O O8 0.616117 0.107691 0.742188
O O9 0.727157 0.000000 0.730501
O O10 0.500000 0.064615 0.000000
O O11 0.500000 0.935771 0.500000
O O12 0.428954 0.894824 0.391555
O O13 0.622159 0.000000 0.271837
O O14 0.352668 0.673322 0.445734
O O15 0.045424 0.716647 0.710094
#
# Coordination Sequence:
#
# PCOD9214814 Si02
#       6
#     8   8   8   8   8   8
#     4  11  23  40  65  96 132 174 216 275 325 388
#     4  10  22  40  64  94 131 172 216 274 329 384
#     4  10  22  42  64  93 131 173 220 270 330 393
#     4  11  23  42  66  94 134 174 216 267 329 395
#     4  11  22  39  67  95 131 173 218 271 324 391
#     4  11  23  39  64 100 130 166 221 274 325 389
#
# _framework density 20.709339
#
# number of rings (size 3 to 8) (size 9 to 14) (size 15 to 20)
#    0.000    1.333    5.000    0.500    0.000    6.333 
#    0.000    3.333    0.000    0.000    0.000    0.000 
#    0.000    0.000    0.000    0.000    0.000    0.000 
#
# Total GULP energy -133636.761053 kJ/mol
# GULP energy per Si atom -5568.198377 kJ/mol
# Density = 2.066220 g / cm^3
# Si number density = 20.709339 Si / 1000 Ang^3
#
#
#
# Elastic Constant Matrix: (Units=GPa)
#
#
# Indices 1 2 3 4 5 6 
#
# 1 115.4401 59.3594 25.4534 0.0159 2.3394 -0.0062
# 2 59.3594 209.6578 35.9899 -0.0139 -11.5280 -0.0043
# 3 25.4534 35.9899 49.8413 -0.0304 9.8349 -0.0304
# 4 0.0159 -0.0139 -0.0304 19.2698 0.0068 -17.3433
# 5 2.3394 -11.5280 9.8349 0.0068 31.3649 0.0114
# 6 -0.0062 -0.0043 -0.0304 -17.3433 0.0114 17.2654
#
#
#
# Elastic Compliance Matrix: (Units=1/GPa)
#
#
# Indices 1 2 3 4 5 6 
#
# 1 0.010727 -0.002452 -0.003595 -0.000193 -0.000574 -0.000196
# 2 -0.002452 0.006379 -0.004107 -0.000098 0.003815 -0.000107
# 3 -0.003595 -0.004107 0.026768 0.000956 -0.009635 0.001012
# 4 -0.000193 -0.000098 0.000956 0.541115 -0.000635 0.543559
# 5 -0.000574 0.003815 -0.009635 -0.000635 0.036349 -0.000679
# 6 -0.000196 -0.000107 0.001012 0.543559 -0.000679 0.603934
#
#
# Mechanical properties :
#
#
# Convention : Reuss Voigt Hill
#
# Bulk Modulus (GPa) = 42.43300 68.50495 55.46897
# Shear Modulus (GPa) = 3.98904 30.52247 17.25575
#
# Velocity S-wave (km/s) = 1.38938 3.84324 2.88971
# Velocity P-wave (km/s) = 4.80709 7.26946 6.16252
#
# Compressibility (1/GPa) = 0.02356656
#
# Stress axis : x y z
#
# Youngs Moduli (GPa) = 93.21870 156.77583 37.35857
#
# Poissons Ratio (x) = 0.38436 0.13431
# Poissons Ratio (y) = 0.22854 0.15342
# Poissons Ratio (z) = 0.33513 0.64384
#
# Static dielectric constant tensor:
#      x y z
#    x 1.723510 0.000010 0.015520 
#    y 0.000010 1.867800 0.000010 
#    z 0.015520 0.000010 1.782540 
# 
# From -- ./inp_files/207917.got.cif
#   From: 2010.05.17/outbox.cif.g08.bks.cpg/sg12_104_cif.got.tgz:207917.got - 2010.06.03 13:09:07.
