data_PCOD9214199
_publ_section_title
;
Structure prediction by ZEFSAII (Michael W. Deem and Ramdas Pophale) SiO2 
 PCOD9214199
Probable space group: C 2/M
;
_chemical_formula_sum "Si O2"
_cell_formula_units_Z 56
_cell_length_a 20.510938
_cell_length_b 19.838044
_cell_length_c 17.606325
_cell_angle_alpha 90.000000
_cell_angle_beta 21.344926
_cell_angle_gamma 90.000000
_cell_volume 2607.549680
_symmetry_space_group_name_H-M "C 2/M"
_symmetry_group_IT_number 12
_symmetry_cell_setting 'monoclinic'
loop_
_space_group_symop_operation_xyz
x,y,z
-x,y,-z
-x,-y,-z
x,-y,z
1/2+x,1/2+y,z
1/2-x,1/2+y,-z
1/2-x,1/2-y,-z
1/2+x,1/2-y,z
loop_
_atom_site_type_symbol
_atom_site_label
_atom_site_fract_x
_atom_site_fract_y
_atom_site_fract_z
Si Si1 0.787349 0.785147 0.876341
Si Si2 0.912017 0.651035 0.676145
Si Si3 0.976948 0.430602 0.113283
Si Si4 0.777071 0.341177 0.553501
Si Si5 0.044852 0.920084 0.039219
Si Si6 0.124362 0.702134 0.722325
Si Si7 0.101674 0.077996 0.307576
O O1 0.888091 0.730058 0.716776
O O2 0.899177 0.855625 0.747809
O O3 0.750000 0.750000 0.000000
O O4 0.588996 0.789324 0.055845
O O5 0.720470 0.615754 0.881249
O O6 0.000000 0.636556 0.500000
O O7 0.045912 0.630534 0.598436
O O8 0.899341 0.500000 0.230558
O O9 0.852550 0.366265 0.257405
O O10 0.000000 0.436497 0.000000
O O11 0.181724 0.425141 0.918711
O O12 0.808659 0.318356 0.433723
O O13 0.709927 0.269895 0.662373
O O14 0.622020 0.394935 0.731035
O O15 0.068676 0.000000 0.015262
O O16 0.000000 0.900823 0.000000
O O17 0.000000 0.090123 0.500000
O O18 0.048344 0.000000 0.342574
#
# Coordination Sequence:
#
# PCOD9214199 Si02
#       7
#     8   8   8   8   8   8   8
#     4  11  21  38  61  93 136 172 224 283 329 401
#     4  12  24  40  68  99 130 172 230 277 342 400
#     4   9  19  36  59  89 123 163 212 264 318 387
#     4  11  23  42  65  97 129 174 218 275 329 400
#     4  11  25  45  67  95 132 170 223 284 337 401
#     4  10  22  39  64  91 134 177 214 267 334 394
#     4   9  19  37  59  89 127 168 214 268 336 398
#
# _framework density 21.476101
#
# number of rings (size 3 to 8) (size 9 to 14) (size 15 to 20)
#    0.000    1.571    4.286    0.429    0.000    5.429 
#    0.000    0.714    0.000    0.000    0.000    0.000 
#    0.000    0.000    0.000    0.000    0.000    0.000 
#
# Total GULP energy -155998.059991 kJ/mol
# GULP energy per Si atom -5571.359285 kJ/mol
# Density = 2.142722 g / cm^3
# Si number density = 21.476101 Si / 1000 Ang^3
#
#
#
# Elastic Constant Matrix: (Units=GPa)
#
#
# Indices 1 2 3 4 5 6 
#
# 1 53.0241 26.4666 13.9094 -0.0072 -14.3659 0.0018
# 2 26.4666 110.6659 18.6212 -0.0337 -9.1254 -0.0012
# 3 13.9094 18.6212 67.4125 -0.0247 -18.7723 0.0043
# 4 -0.0072 -0.0337 -0.0247 121.2433 -0.0223 4.1084
# 5 -14.3659 -9.1254 -18.7723 -0.0223 27.5738 0.0035
# 6 0.0018 -0.0012 0.0043 4.1084 0.0035 22.8676
#
#
#
# Elastic Compliance Matrix: (Units=1/GPa)
#
#
# Indices 1 2 3 4 5 6 
#
# 1 0.024325 -0.004821 -0.000744 0.000002 0.010572 -0.000004
# 2 -0.004821 0.010495 -0.002019 0.000002 -0.000413 0.000001
# 3 -0.000744 -0.002019 0.018819 0.000006 0.011756 -0.000006
# 4 0.000002 0.000002 0.000006 0.008298 0.000012 -0.001491
# 5 0.010572 -0.000413 0.011756 0.000012 0.049641 -0.000013
# 6 -0.000004 0.000001 -0.000006 -0.001491 -0.000013 0.043998
#
#
# Mechanical properties :
#
#
# Convention : Reuss Voigt Hill
#
# Bulk Modulus (GPa) = 25.99320 38.78854 32.39087
# Shear Modulus (GPa) = 27.23802 45.81063 36.52433
#
# Velocity S-wave (km/s) = 3.56518 4.62356 4.12842
# Velocity P-wave (km/s) = 5.39230 6.82668 6.15144
#
# Compressibility (1/GPa) = 0.03847161
#
# Stress axis : x y z
#
# Youngs Moduli (GPa) = 41.11041 95.28520 53.13761
#
# Poissons Ratio (x) = 0.45933 0.03951
# Poissons Ratio (y) = 0.19818 0.10730
# Poissons Ratio (z) = 0.03057 0.19241
#
# Static dielectric constant tensor:
#      x y z
#    x 1.819440 -0.000540 0.007060 
#    y -0.000540 3.575600 -0.000010 
#    z 0.007060 -0.000010 1.762600 
# 
# From -- ./inp_files/286000.got.cif
#   From: 2010.05.17/outbox.cif.g08.bks.cpg/sg12_143_cif.got.tgz:286000.got - 2010.06.03 13:09:07.
