data_PCOD9214905
_publ_section_title
;
Structure prediction by ZEFSAII (Michael W. Deem and Ramdas Pophale) SiO2 
 PCOD9214905
Probable space group: C 2/M
;
_chemical_formula_sum "Si O2"
_cell_formula_units_Z 40
_cell_length_a 8.415794
_cell_length_b 25.435559
_cell_length_c 8.610372
_cell_angle_alpha 90.000000
_cell_angle_beta 85.964369
_cell_angle_gamma 90.000000
_cell_volume 1838.569781
_symmetry_space_group_name_H-M "C 2/M"
_symmetry_group_IT_number 12
_symmetry_cell_setting 'monoclinic'
loop_
_space_group_symop_operation_xyz
x,y,z
-x,y,-z
-x,-y,-z
x,-y,z
1/2+x,1/2+y,z
1/2-x,1/2+y,-z
1/2-x,1/2-y,-z
1/2+x,1/2-y,z
loop_
_atom_site_type_symbol
_atom_site_label
_atom_site_fract_x
_atom_site_fract_y
_atom_site_fract_z
Si Si1 0.269198 0.587491 0.151364
Si Si2 0.822778 0.000000 0.562300
Si Si3 0.288789 0.809751 0.334156
Si Si4 0.907561 0.500000 0.674770
Si Si5 0.829507 0.693082 0.693919
Si Si6 0.139196 0.087792 0.205753
O O1 0.116887 0.553335 0.224197
O O2 0.237709 0.648783 0.188021
O O3 0.447946 0.579171 0.210556
O O4 0.291868 0.575647 0.968539
O O5 0.784406 0.049841 0.670760
O O6 0.000000 0.000000 0.500000
O O7 0.758545 0.000000 0.396639
O O8 0.225671 0.753071 0.283323
O O9 0.479657 0.810568 0.303322
O O10 0.270002 0.818804 0.521460
O O11 0.191230 0.854001 0.250697
O O12 0.000000 0.500000 0.500000
#
# Coordination Sequence:
#
# PCOD9214905 Si02
#       6
#     8   4   8   4   8   8
#     4  11  24  43  65  95 134 170 209 267 317 382
#     4  12  23  43  69  95 122 170 219 264 310 379
#     4  10  22  40  66  97 128 170 214 265 315 380
#     4  12  27  43  67  95 130 168 216 266 316 379
#     4  10  22  40  65  96 130 167 216 263 317 376
#     4  11  24  42  67  96 130 170 215 260 323 376
#
# _framework density 21.756039000000001
#
# number of rings (size 3 to 8) (size 9 to 14) (size 15 to 20)
#    0.000    1.200    2.000    3.000    5.600    4.800 
#    0.000    1.000    0.000    0.000    0.000    0.000 
#    0.000    0.000    0.000    0.000    0.000    0.000 
#
# Total GULP energy -111467.248219 kJ/mol
# GULP energy per Si atom -5573.362411 kJ/mol
# Density = 2.170652 g / cm^3
# Si number density = 21.756039 Si / 1000 Ang^3
#
#
#
# Elastic Constant Matrix: (Units=GPa)
#
#
# Indices 1 2 3 4 5 6 
#
# 1 32.2644 4.3995 8.6870 0.0000 -15.2557 0.0000
# 2 4.3995 98.6255 39.8506 0.0000 -10.8223 0.0000
# 3 8.6870 39.8506 51.5950 0.0000 -16.5015 0.0000
# 4 0.0000 0.0000 0.0000 -44.2131 0.0000 -70.5113
# 5 -15.2557 -10.8223 -16.5015 0.0000 33.8427 0.0000
# 6 0.0000 0.0000 0.0000 -70.5113 0.0000 -11.4109
#
#
#
# Elastic Compliance Matrix: (Units=1/GPa)
#
#
# Indices 1 2 3 4 5 6 
#
# 1 0.039495 0.000857 -0.001813 0.000000 0.017194 0.000000
# 2 0.000857 0.014786 -0.011763 0.000000 -0.000621 0.000000
# 3 -0.001813 -0.011763 0.032354 0.000000 0.011196 0.000000
# 4 0.000000 0.000000 0.000000 0.002554 0.000000 -0.015784
# 5 0.017194 -0.000621 0.011196 0.000000 0.042560 0.000000
# 6 0.000000 0.000000 0.000000 -0.015784 0.000000 0.009897
#
#
# Mechanical properties :
#
#
# Convention : Reuss Voigt Hill
#
# Bulk Modulus (GPa) = 16.34069 32.03993 24.19031
# Shear Modulus (GPa) = 26.66916 4.28025 15.47470
#
# Velocity S-wave (km/s) = 3.50498 1.40416 2.66988
# Velocity P-wave (km/s) = 4.88948 4.16986 4.54394
#
# Compressibility (1/GPa) = 0.06119694
#
# Stress axis : x y z
#
# Youngs Moduli (GPa) = 25.31968 67.63122 30.90848
#
# Poissons Ratio (x) = -0.05799 0.05604
# Poissons Ratio (y) = -0.02171 0.36359
# Poissons Ratio (z) = 0.04590 0.79557
#
# Static dielectric constant tensor:
#      x y z
#    x 1.711520 0.000000 -0.049680 
#    y 0.000000 1.840750 0.000000 
#    z -0.049680 0.000000 1.775820 
# 
# From -- ./inp_files/39255.got.cif
#   From: 2010.05.17/outbox.cif.g08.bks.cpg/sg12_20_cif.got.tgz:39255.got - 2010.06.03 13:09:07.
