data_PCOD9214279
_publ_section_title
;
Structure prediction by ZEFSAII (Michael W. Deem and Ramdas Pophale) SiO2 
 PCOD9214279
Probable space group: C 2/M
;
_chemical_formula_sum "Si O2"
_cell_formula_units_Z 44
_cell_length_a 10.843323
_cell_length_b 15.259449
_cell_length_c 23.597659
_cell_angle_alpha 90.000000
_cell_angle_beta 145.413777
_cell_angle_gamma 90.000000
_cell_volume 2216.397228
_symmetry_space_group_name_H-M "C 2/M"
_symmetry_group_IT_number 12
_symmetry_cell_setting 'monoclinic'
loop_
_space_group_symop_operation_xyz
x,y,z
-x,y,-z
-x,-y,-z
x,-y,z
1/2+x,1/2+y,z
1/2-x,1/2+y,-z
1/2-x,1/2-y,-z
1/2+x,1/2-y,z
loop_
_atom_site_type_symbol
_atom_site_label
_atom_site_fract_x
_atom_site_fract_y
_atom_site_fract_z
Si Si1 0.110539 0.824838 0.748379
Si Si2 0.254876 0.500000 0.381803
Si Si3 0.976730 0.000000 0.351900
Si Si4 0.915752 0.308627 0.027760
Si Si5 0.572227 0.135192 0.687781
Si Si6 0.528853 0.401103 0.833631
Si Si7 0.532534 0.000000 0.445028
O O1 0.036998 0.912033 0.689298
O O2 0.370967 0.828104 0.855341
O O3 0.044110 0.738069 0.688686
O O4 0.019061 0.831983 0.778056
O O5 0.500000 0.500000 0.500000
O O6 0.290866 0.500000 0.328525
O O7 0.109087 0.582769 0.345633
O O8 0.211799 0.000000 0.469581
O O9 0.750000 0.250000 0.000000
O O10 0.763417 0.389144 0.950941
O O11 0.000000 0.268257 0.000000
O O12 0.555128 0.087779 0.619436
O O13 0.825131 0.115344 0.797940
O O14 0.512558 0.500000 0.805278
O O15 0.500000 0.000000 0.500000
#
# Coordination Sequence:
#
# PCOD9214279 Si02
#       7
#     8   4   4   8   8   8   4
#     4  11  25  41  67 103 133 179 225 272 333 397
#     4  11  24  48  65  91 132 170 219 284 347 397
#     4  12  25  43  63  95 140 165 226 282 327 401
#     4  10  22  39  66  98 141 175 224 277 328 405
#     4  11  23  43  71  95 130 180 220 277 341 403
#     4  11  21  42  69  98 135 180 227 271 332 399
#     4  11  23  46  69  95 126 168 223 287 326 399
#
# _framework density 19.852038
#
# number of rings (size 3 to 8) (size 9 to 14) (size 15 to 20)
#    0.000    1.091    6.364    1.091    3.818    1.818 
#    0.000    0.000    0.000    1.636    0.000    0.000 
#    0.000    0.000    0.000    0.000    0.000    0.000 
#
# Total GULP energy -122628.843779 kJ/mol
# GULP energy per Si atom -5574.038354 kJ/mol
# Density = 1.980685 g / cm^3
# Si number density = 19.852038 Si / 1000 Ang^3
#
#
#
# Elastic Constant Matrix: (Units=GPa)
#
#
# Indices 1 2 3 4 5 6 
#
# 1 83.5959 29.2538 20.9199 0.0002 22.2835 0.0000
# 2 29.2538 154.5238 46.5533 0.0003 -4.8960 0.0000
# 3 20.9199 46.5533 95.5629 0.0006 19.5452 -0.0001
# 4 0.0002 0.0003 0.0006 30.8919 -0.0001 5.0396
# 5 22.2835 -4.8960 19.5452 -0.0001 36.8940 0.0000
# 6 0.0000 0.0000 -0.0001 5.0396 0.0000 28.0596
#
#
#
# Elastic Compliance Matrix: (Units=1/GPa)
#
#
# Indices 1 2 3 4 5 6 
#
# 1 0.015779 -0.003388 0.000266 0.000000 -0.010121 0.000000
# 2 -0.003388 0.008694 -0.004652 0.000000 0.005665 0.000000
# 3 0.000266 -0.004652 0.014391 0.000000 -0.008402 0.000000
# 4 0.000000 0.000000 0.000000 0.033348 0.000000 -0.005989
# 5 -0.010121 0.005665 -0.008402 0.000000 0.038421 0.000000
# 6 0.000000 0.000000 0.000000 -0.005989 0.000000 0.036714
#
#
# Mechanical properties :
#
#
# Convention : Reuss Voigt Hill
#
# Bulk Modulus (GPa) = 42.88903 58.57072 50.72988
# Shear Modulus (GPa) = 29.29689 34.96614 32.13151
#
# Velocity S-wave (km/s) = 3.84573 4.20138 4.02749
# Velocity P-wave (km/s) = 6.43201 7.28719 6.87292
#
# Compressibility (1/GPa) = 0.02331599
#
# Stress axis : x y z
#
# Youngs Moduli (GPa) = 63.37432 115.02240 69.48933
#
# Poissons Ratio (x) = 0.38972 -0.01851
# Poissons Ratio (y) = 0.21472 0.32327
# Poissons Ratio (z) = -0.01688 0.53510
#
# Static dielectric constant tensor:
#      x y z
#    x 1.745750 0.000000 -0.010850 
#    y 0.000000 1.687670 0.000000 
#    z -0.010850 0.000000 1.818560 
# 
# From -- ./inp_files/358290.got.cif
#   From: 2010.05.17/outbox.cif.g08.bks.cpg/sg12_180_cif.got.tgz:358290.got - 2010.06.03 13:09:07.
