data_PCOD9214166
_publ_section_title
;
Structure prediction by ZEFSAII (Michael W. Deem and Ramdas Pophale) SiO2 
 PCOD9214166
Probable space group: C 2/M
;
_chemical_formula_sum "Si O2"
_cell_formula_units_Z 56
_cell_length_a 9.546100
_cell_length_b 16.841606
_cell_length_c 27.149816
_cell_angle_alpha 90.000000
_cell_angle_beta 35.775601
_cell_angle_gamma 90.000000
_cell_volume 2551.786140
_symmetry_space_group_name_H-M "C 2/M"
_symmetry_group_IT_number 12
_symmetry_cell_setting 'monoclinic'
loop_
_space_group_symop_operation_xyz
x,y,z
-x,y,-z
-x,-y,-z
x,-y,z
1/2+x,1/2+y,z
1/2-x,1/2+y,-z
1/2-x,1/2-y,-z
1/2+x,1/2-y,z
loop_
_atom_site_type_symbol
_atom_site_label
_atom_site_fract_x
_atom_site_fract_y
_atom_site_fract_z
Si Si1 0.277175 0.180117 0.843603
Si Si2 0.368658 0.000000 0.932190
Si Si3 0.430984 0.912775 0.640195
Si Si4 0.862828 0.301629 0.342705
Si Si5 0.681132 0.500000 0.878078
Si Si6 0.045855 0.870459 0.672963
Si Si7 0.433298 0.413374 0.443853
Si Si8 0.960655 0.332842 0.132286
O O1 0.520090 0.201701 0.744725
O O2 0.093518 0.250630 0.881099
O O3 0.331050 0.180148 0.886547
O O4 0.219312 0.088447 0.844693
O O5 0.356636 0.000000 0.875731
O O6 0.482851 0.914579 0.913451
O O7 0.095055 0.000000 0.027228
O O8 0.447277 0.845973 0.676671
O O9 0.198442 0.909531 0.672680
O O10 0.663971 0.900849 0.539194
O O11 0.448394 0.000000 0.658387
O O12 0.829020 0.214064 0.371869
O O13 0.617975 0.349325 0.411018
O O14 0.051462 0.913155 0.619421
O O15 0.780212 0.853709 0.768413
O O16 0.512382 0.500000 0.439047
#
# Coordination Sequence:
#
# PCOD9214166 Si02
#       8
#     8   4   8   8   4   8   8   8
#     4  10  22  39  63  95 124 161 204 250 299 356
#     4   9  20  40  67  97 126 164 203 236 295 369
#     4  11  25  39  55  85 117 154 201 254 310 348
#     4  11  23  38  58  85 115 157 201 249 299 357
#     4   9  20  40  67  97 126 164 203 236 295 369
#     4  11  23  38  58  85 115 157 201 249 299 357
#     4  11  23  39  59  81 115 156 203 252 302 360
#     4  10  22  39  63  95 124 161 204 250 299 356
#
# _framework density 21.945412999999999
#
# number of rings (size 3 to 8) (size 9 to 14) (size 15 to 20)
#    0.000    1.571    1.429    2.571   10.000    6.286 
#    0.000    0.714    0.000    0.857    0.000    0.000 
#    0.000    0.000    0.000    0.000    0.000    0.000 
#
# Total GULP energy -156398.311045 kJ/mol
# GULP energy per Si atom -5585.653966 kJ/mol
# Density = 2.189546 g / cm^3
# Si number density = 21.945413 Si / 1000 Ang^3
#
#
#
# Elastic Constant Matrix: (Units=GPa)
#
#
# Indices 1 2 3 4 5 6 
#
# 1 77.5707 38.5521 -0.1388 0.0038 -6.2407 0.0071
# 2 38.5521 177.8754 16.9481 -0.0001 -9.6402 -0.0054
# 3 -0.1388 16.9481 17.6277 0.0160 -8.2405 0.0161
# 4 0.0038 -0.0001 0.0160 20.1940 -0.0099 -31.4555
# 5 -6.2407 -9.6402 -8.2405 -0.0099 16.6861 -0.0168
# 6 0.0071 -0.0054 0.0161 -31.4555 -0.0168 -11.9294
#
#
#
# Elastic Compliance Matrix: (Units=1/GPa)
#
#
# Indices 1 2 3 4 5 6 
#
# 1 0.015245 -0.003575 0.006835 0.000002 0.007012 0.000004
# 2 -0.003575 0.007036 -0.007174 -0.000003 -0.000815 -0.000006
# 3 0.006835 -0.007174 0.081829 0.000010 0.038823 0.000037
# 4 0.000002 -0.000003 0.000010 0.009696 -0.000016 -0.025566
# 5 0.007012 -0.000815 0.038823 -0.000016 0.081254 -0.000015
# 6 0.000004 -0.000006 0.000037 -0.025566 -0.000015 -0.016413
#
#
# Mechanical properties :
#
#
# Convention : Reuss Voigt Hill
#
# Bulk Modulus (GPa) = 10.38622 42.64408 26.51515
# Shear Modulus (GPa) = 22.87608 19.50430 21.19019
#
# Velocity S-wave (km/s) = 3.23214 2.98445 3.11076
# Velocity P-wave (km/s) = 4.32111 5.59911 5.00110
#
# Compressibility (1/GPa) = 0.09628139
#
# Stress axis : x y z
#
# Youngs Moduli (GPa) = 65.59652 142.12208 12.22063
#
# Poissons Ratio (x) = 0.50814 -0.08353
# Poissons Ratio (y) = 0.23453 0.08767
# Poissons Ratio (z) = -0.44837 1.01960
#
# Static dielectric constant tensor:
#      x y z
#    x 1.804640 0.000000 0.012100 
#    y 0.000000 1.833960 0.000000 
#    z 0.012100 0.000000 1.769350 
# 
# From -- ./inp_files/356705.got.cif
#   From: 2010.05.17/outbox.cif.g08.bks.cpg/sg12_179_cif.got.tgz:356705.got - 2010.06.03 13:09:07.
