data_PCOD9214297
_publ_section_title
;
Structure prediction by ZEFSAII (Michael W. Deem and Ramdas Pophale) SiO2 
 PCOD9214297
Probable space group: C 2/M
;
_chemical_formula_sum "Si O2"
_cell_formula_units_Z 64
_cell_length_a 14.198925
_cell_length_b 24.528356
_cell_length_c 17.364954
_cell_angle_alpha 90.000000
_cell_angle_beta 148.480179
_cell_angle_gamma 90.000000
_cell_volume 3161.751405
_symmetry_space_group_name_H-M "C 2/M"
_symmetry_group_IT_number 12
_symmetry_cell_setting 'monoclinic'
loop_
_space_group_symop_operation_xyz
x,y,z
-x,y,-z
-x,-y,-z
x,-y,z
1/2+x,1/2+y,z
1/2-x,1/2+y,-z
1/2-x,1/2-y,-z
1/2+x,1/2-y,z
loop_
_atom_site_type_symbol
_atom_site_label
_atom_site_fract_x
_atom_site_fract_y
_atom_site_fract_z
Si Si1 0.782185 0.366801 0.351550
Si Si2 0.310542 0.805901 0.226885
Si Si3 0.254234 0.365374 0.358509
Si Si4 0.859484 0.639305 0.102462
Si Si5 0.177909 0.256224 0.536491
Si Si6 0.828772 0.302092 0.927703
Si Si7 0.064058 0.886777 0.677684
Si Si8 0.044906 0.937142 0.824364
O O1 0.728484 0.349289 0.227949
O O2 0.743168 0.311294 0.371996
O O3 0.653119 0.413000 0.295130
O O4 0.000000 0.378227 0.500000
O O5 0.382896 0.837759 0.203833
O O6 0.467105 0.772757 0.381667
O O7 0.183941 0.760191 0.103860
O O8 0.277721 0.298820 0.383987
O O9 0.358283 0.384612 0.507341
O O10 0.339024 0.387241 0.338109
O O11 0.051798 0.386042 0.216961
O O12 0.844147 0.687509 0.028702
O O13 0.692263 0.599546 0.971910
O O14 0.250000 0.250000 0.500000
O O15 0.647897 0.332470 0.774089
O O16 0.000000 0.326021 0.000000
O O17 0.085986 0.929750 0.761454
O O18 0.057229 0.000000 0.854427
#
# Coordination Sequence:
#
# PCOD9214297 Si02
#       8
#     8   8   8   8   8   8   8   8
#     4  10  25  42  66  98 131 171 224 278 327 396
#     4  11  23  36  57  98 140 179 219 255 312 405
#     4  11  20  38  65 103 143 176 208 250 331 411
#     4  11  25  38  64  94 137 176 222 273 323 397
#     4  11  20  34  63  99 144 179 209 252 319 405
#     4  11  21  35  56  94 142 183 209 248 321 397
#     4  10  22  39  68  96 133 176 218 268 318 409
#     4  11  27  51  70  91 123 172 235 301 351 374
#
# _framework density 20.241945000000001
#
# number of rings (size 3 to 8) (size 9 to 14) (size 15 to 20)
#    0.000    1.250    3.750    1.875    8.750    0.250 
#    0.000    4.375    0.000    0.000    0.000    0.000 
#    0.000    0.000    0.000    0.000    0.000    0.000 
#
# Total GULP energy -178501.256964 kJ/mol
# GULP energy per Si atom -5578.164280 kJ/mol
# Density = 2.019587 g / cm^3
# Si number density = 20.241945 Si / 1000 Ang^3
#
#
#
# Elastic Constant Matrix: (Units=GPa)
#
#
# Indices 1 2 3 4 5 6 
#
# 1 100.4270 23.2409 19.4087 0.0000 -6.6286 0.0000
# 2 23.2409 61.9121 12.7813 0.0000 9.9635 0.0000
# 3 19.4087 12.7813 55.4536 0.0002 10.4378 0.0001
# 4 0.0000 0.0000 0.0002 -6.4908 0.0001 -12.3804
# 5 -6.6286 9.9635 10.4378 0.0001 33.6011 0.0001
# 6 0.0000 0.0000 0.0001 -12.3804 0.0001 4.9003
#
#
#
# Elastic Compliance Matrix: (Units=1/GPa)
#
#
# Indices 1 2 3 4 5 6 
#
# 1 0.012134 -0.004505 -0.004153 0.000000 0.005020 0.000000
# 2 -0.004505 0.019167 -0.001703 0.000000 -0.006043 0.000000
# 3 -0.004153 -0.001703 0.021177 0.000000 -0.006893 0.000000
# 4 0.000000 0.000000 0.000000 -0.026476 0.000000 -0.066892
# 5 0.005020 -0.006043 -0.006893 0.000000 0.034684 0.000000
# 6 0.000000 0.000000 0.000000 -0.066892 0.000000 0.035070
#
#
# Mechanical properties :
#
#
# Convention : Reuss Voigt Hill
#
# Bulk Modulus (GPa) = 31.49224 36.51715 34.00470
# Shear Modulus (GPa) = 39.34980 17.22623 28.28801
#
# Velocity S-wave (km/s) = 4.41383 2.92038 3.74236
# Velocity P-wave (km/s) = 6.44729 5.42688 5.95897
#
# Compressibility (1/GPa) = 0.03175385
#
# Stress axis : x y z
#
# Youngs Moduli (GPa) = 82.41205 52.17190 47.22161
#
# Poissons Ratio (x) = 0.23506 0.19613
# Poissons Ratio (y) = 0.37130 0.08044
# Poissons Ratio (z) = 0.34229 0.08887
#
# Static dielectric constant tensor:
#      x y z
#    x 1.779610 0.000000 0.029070 
#    y 0.000000 1.698890 0.000000 
#    z 0.029070 0.000000 1.764190 
# 
# From -- ./inp_files/272876.got.cif
#   From: 2010.05.17/outbox.cif.g08.bks.cpg/sg12_137_cif.got.tgz:272876.got - 2010.06.03 13:09:07.
