data_PCOD9214165
_publ_section_title
;
Structure prediction by ZEFSAII (Michael W. Deem and Ramdas Pophale) SiO2 
 PCOD9214165
Probable space group: C 2/M
;
_chemical_formula_sum "Si O2"
_cell_formula_units_Z 56
_cell_length_a 19.520869
_cell_length_b 21.535533
_cell_length_c 9.304388
_cell_angle_alpha 90.000000
_cell_angle_beta 44.946766
_cell_angle_gamma 90.000000
_cell_volume 2763.272435
_symmetry_space_group_name_H-M "C 2/M"
_symmetry_group_IT_number 12
_symmetry_cell_setting 'monoclinic'
loop_
_space_group_symop_operation_xyz
x,y,z
-x,y,-z
-x,-y,-z
x,-y,z
1/2+x,1/2+y,z
1/2-x,1/2+y,-z
1/2-x,1/2-y,-z
1/2+x,1/2-y,z
loop_
_atom_site_type_symbol
_atom_site_label
_atom_site_fract_x
_atom_site_fract_y
_atom_site_fract_z
Si Si1 0.013563 0.804757 0.152061
Si Si2 0.188955 0.231405 0.449660
Si Si3 0.390250 0.928915 0.108894
Si Si4 0.909660 0.930171 0.024869
Si Si5 0.151765 0.311958 0.012204
Si Si6 0.388301 0.158142 0.620218
Si Si7 0.200438 0.572712 0.463350
O O1 0.904960 0.809434 0.374422
O O2 0.069445 0.869228 0.100579
O O3 0.074676 0.744782 0.112831
O O4 0.000000 0.797379 0.000000
O O5 0.250000 0.250000 0.500000
O O6 0.258315 0.205100 0.223009
O O7 0.140454 0.293179 0.458664
O O8 0.387219 0.877775 0.989348
O O9 0.329172 0.902686 0.335824
O O10 0.359853 0.000000 0.114669
O O11 0.500000 0.932652 0.000000
O O12 0.811945 0.916217 0.258065
O O13 0.899924 0.000000 0.974777
O O14 0.000000 0.933080 0.000000
O O15 0.172874 0.324267 0.147730
O O16 0.500000 0.161105 0.500000
O O17 0.361726 0.094957 0.579977
O O18 0.184723 0.500000 0.503152
#
# Coordination Sequence:
#
# PCOD9214165 Si02
#       7
#     8   8   8   8   8   8   8
#     4  11  22  38  64  98 124 170 214 271 331 391
#     4  12  25  41  65  93 128 171 218 272 332 397
#     4  10  22  39  63  94 130 172 221 273 325 388
#     4   9  20  38  63  96 128 159 211 270 319 381
#     4  12  24  40  63  94 132 171 215 274 335 391
#     4  12  25  42  63  93 136 174 216 274 341 399
#     4  10  22  41  66  94 128 175 222 269 329 400
#
# _framework density 20.265827999999999
#
# number of rings (size 3 to 8) (size 9 to 14) (size 15 to 20)
#    0.000    1.143    2.857    3.429    6.000    0.857 
#    0.000    0.000    0.000    0.000    0.000    4.000 
#    0.000    0.000    0.000    0.000    0.000    0.000 
#
# Total GULP energy -156317.318018 kJ/mol
# GULP energy per Si atom -5582.761358 kJ/mol
# Density = 2.021970 g / cm^3
# Si number density = 20.265828 Si / 1000 Ang^3
#
#
#
# Elastic Constant Matrix: (Units=GPa)
#
#
# Indices 1 2 3 4 5 6 
#
# 1 74.9582 25.3709 25.4399 0.0000 -1.4008 0.0000
# 2 25.3709 102.9041 27.5016 0.0000 -2.1801 0.0000
# 3 25.4399 27.5016 98.0908 0.0000 -6.3715 0.0000
# 4 0.0000 0.0000 0.0000 19.2911 0.0000 -6.2198
# 5 -1.4008 -2.1801 -6.3715 0.0000 27.6261 0.0000
# 6 0.0000 0.0000 0.0000 -6.2198 0.0000 13.7269
#
#
#
# Elastic Compliance Matrix: (Units=1/GPa)
#
#
# Indices 1 2 3 4 5 6 
#
# 1 0.015417 -0.002955 -0.003182 0.000000 -0.000185 0.000000
# 2 -0.002955 0.011072 -0.002326 0.000000 0.000187 0.000000
# 3 -0.003182 -0.002326 0.011827 0.000000 0.002383 0.000000
# 4 0.000000 0.000000 0.000000 0.060706 0.000000 0.027507
# 5 -0.000185 0.000187 0.002383 0.000000 0.036753 0.000000
# 6 0.000000 0.000000 0.000000 0.027507 0.000000 0.085314
#
#
# Mechanical properties :
#
#
# Convention : Reuss Voigt Hill
#
# Bulk Modulus (GPa) = 46.74885 48.06422 47.40653
# Shear Modulus (GPa) = 20.39622 25.30486 22.85054
#
# Velocity S-wave (km/s) = 3.17588 3.53745 3.36153
# Velocity P-wave (km/s) = 6.04700 6.36028 6.20561
#
# Compressibility (1/GPa) = 0.02139090
#
# Stress axis : x y z
#
# Youngs Moduli (GPa) = 64.86213 90.31982 84.55400
#
# Poissons Ratio (x) = 0.26686 0.26906
# Poissons Ratio (y) = 0.19164 0.19665
# Poissons Ratio (z) = 0.20640 0.21006
#
# Static dielectric constant tensor:
#      x y z
#    x 1.376870 0.000000 0.200140 
#    y 0.000000 1.803870 0.000000 
#    z 0.200140 0.000000 1.595190 
# 
# From -- ./inp_files/79064.got.cif
#   From: 2010.05.17/outbox.cif.g08.bks.cpg/sg12_40_cif.got.tgz:79064.got - 2010.06.03 13:09:07.
