data_PCOD9214608
_publ_section_title
;
Structure prediction by ZEFSAII (Michael W. Deem and Ramdas Pophale) SiO2 
 PCOD9214608
Probable space group: C 2/M
;
_chemical_formula_sum "Si O2"
_cell_formula_units_Z 32
_cell_length_a 16.778173
_cell_length_b 14.084246
_cell_length_c 12.333500
_cell_angle_alpha 90.000000
_cell_angle_beta 152.915406
_cell_angle_gamma 90.000000
_cell_volume 1326.989630
_symmetry_space_group_name_H-M "C 2/M"
_symmetry_group_IT_number 12
_symmetry_cell_setting 'monoclinic'
loop_
_space_group_symop_operation_xyz
x,y,z
-x,y,-z
-x,-y,-z
x,-y,z
1/2+x,1/2+y,z
1/2-x,1/2+y,-z
1/2-x,1/2-y,-z
1/2+x,1/2-y,z
loop_
_atom_site_type_symbol
_atom_site_label
_atom_site_fract_x
_atom_site_fract_y
_atom_site_fract_z
Si Si1 0.262953 0.110777 0.298074
Si Si2 0.512911 0.301625 0.175266
Si Si3 0.556404 0.610699 0.685687
Si Si4 0.474268 0.892762 0.209208
O O1 0.454651 0.121913 0.581864
O O2 0.141641 0.139598 0.254378
O O3 0.239121 0.000000 0.239983
O O4 0.181238 0.174173 0.104606
O O5 0.525831 0.334297 0.314083
O O6 0.544586 0.189291 0.215502
O O7 0.500000 0.646917 0.500000
O O8 0.503364 0.500000 0.628451
O O9 0.765605 0.614415 0.951916
O O10 0.526974 0.000000 0.242494
#
# Coordination Sequence:
#
# PCOD9214608 Si02
#       4
#     8   8   8   8
#     4  10  22  41  65  93 120 155 208 254 298 356
#     4  11  21  39  67  88 121 163 203 246 308 356
#     4  10  22  40  62  91 126 160 200 250 306 361
#     4  10  23  41  60  91 126 159 204 251 297 360
#
# _framework density 24.114732
#
# number of rings (size 3 to 8) (size 9 to 14) (size 15 to 20)
#    0.000    1.750    0.000    4.500    3.500    1.000 
#    0.000    6.250    0.000    0.000    0.000    0.000 
#    0.000    0.000    0.000    0.000    0.000    0.000 
#
# Total GULP energy -89551.183664 kJ/mol
# GULP energy per Si atom -5596.948979 kJ/mol
# Density = 2.405985 g / cm^3
# Si number density = 24.114732 Si / 1000 Ang^3
#
#
#
# Elastic Constant Matrix: (Units=GPa)
#
#
# Indices 1 2 3 4 5 6 
#
# 1 65.5946 17.6646 32.0096 0.0000 -25.3794 0.0000
# 2 17.6646 127.1783 47.0669 0.0000 -19.7239 0.0000
# 3 32.0096 47.0669 168.7995 0.0000 -27.3790 0.0000
# 4 0.0000 0.0000 0.0000 34.5667 0.0000 -8.7009
# 5 -25.3794 -19.7239 -27.3790 0.0000 41.4769 0.0000
# 6 0.0000 0.0000 0.0000 -8.7009 0.0000 9.2524
#
#
#
# Elastic Compliance Matrix: (Units=1/GPa)
#
#
# Indices 1 2 3 4 5 6 
#
# 1 0.020628 -0.000403 -0.001997 0.000000 0.011112 0.000000
# 2 -0.000403 0.009090 -0.002013 0.000000 0.002748 0.000000
# 3 -0.001997 -0.002013 0.007291 0.000000 0.002634 0.000000
# 4 0.000000 0.000000 0.000000 0.037901 0.000000 0.035642
# 5 0.011112 0.002748 0.002634 0.000000 0.033955 0.000000
# 6 0.000000 0.000000 0.000000 0.035642 0.000000 0.141598
#
#
# Mechanical properties :
#
#
# Convention : Reuss Voigt Hill
#
# Bulk Modulus (GPa) = 35.48072 61.67273 48.57672
# Shear Modulus (GPa) = 18.60935 34.71461 26.66198
#
# Velocity S-wave (km/s) = 2.78096 3.79827 3.32871
# Velocity P-wave (km/s) = 5.00569 6.69821 5.91282
#
# Compressibility (1/GPa) = 0.02818432
#
# Stress axis : x y z
#
# Youngs Moduli (GPa) = 48.47893 110.01282 137.15050
#
# Poissons Ratio (x) = 0.04430 0.27388
# Poissons Ratio (y) = 0.01952 0.27602
# Poissons Ratio (z) = 0.09681 0.22140
#
# Static dielectric constant tensor:
#      x y z
#    x 1.902260 0.000000 0.051010 
#    y 0.000000 1.931820 0.000000 
#    z 0.051010 0.000000 1.981750 
# 
# From -- ./inp_files/45205.got.cif
#   From: 2010.05.17/outbox.cif.g08.bks.cpg/sg12_23_cif.got.tgz:45205.got - 2010.06.03 13:09:07.
