data_PCOD9214284
_publ_section_title
;
Structure prediction by ZEFSAII (Michael W. Deem and Ramdas Pophale) SiO2 
 PCOD9214284
Probable space group: C 2/M
;
_chemical_formula_sum "Si O2"
_cell_formula_units_Z 34
_cell_length_a 9.205001
_cell_length_b 14.397095
_cell_length_c 14.314128
_cell_angle_alpha 90.000000
_cell_angle_beta 55.321938
_cell_angle_gamma 90.000000
_cell_volume 1560.007247
_symmetry_space_group_name_H-M "C 2/M"
_symmetry_group_IT_number 12
_symmetry_cell_setting 'monoclinic'
loop_
_space_group_symop_operation_xyz
x,y,z
-x,y,-z
-x,-y,-z
x,-y,z
1/2+x,1/2+y,z
1/2-x,1/2+y,-z
1/2-x,1/2-y,-z
1/2+x,1/2-y,z
loop_
_atom_site_type_symbol
_atom_site_label
_atom_site_fract_x
_atom_site_fract_y
_atom_site_fract_z
Si Si1 0.487586 0.205246 0.891690
Si Si2 0.288668 0.640763 0.478546
Si Si3 0.000000 0.500000 0.500000
Si Si4 0.311186 0.603723 0.689188
Si Si5 0.639906 0.602091 0.032738
O O1 0.672506 0.175524 0.782205
O O2 0.425485 0.308504 0.885424
O O3 0.500000 0.203736 0.000000
O O4 0.331754 0.132895 0.924319
O O5 0.250000 0.750000 0.500000
O O6 0.145832 0.581535 0.474732
O O7 0.289764 0.605877 0.585126
O O8 0.484877 0.625896 0.366466
O O9 0.267256 0.500000 0.738567
O O10 0.649501 0.500000 0.073604
O O11 0.500000 0.595829 0.000000
#
# Coordination Sequence:
#
# PCOD9214284 Si02
#       5
#     8   8   2   8   8
#     4  10  22  39  67  93 127 185 227 263 335 412
#     4  11  24  43  73 101 136 176 230 296 357 424
#     4  12  20  46  76 106 130 178 242 284 350 430
#     4  11  22  45  66  93 138 181 217 284 358 404
#     4   9  19  38  60  89 129 170 226 282 326 383
#
# _framework density 21.79477
#
# number of rings (size 3 to 8) (size 9 to 14) (size 15 to 20)
#    0.000    1.647    2.353    2.824    0.000    7.529 
#    0.000    2.353   15.529    0.000    0.000    0.000 
#    0.000    0.000    0.000    0.000    0.000    0.000 
#
# Total GULP energy -94749.018471 kJ/mol
# GULP energy per Si atom -5573.471675 kJ/mol
# Density = 2.174516 g / cm^3
# Si number density = 21.794770 Si / 1000 Ang^3
#
#
#
# Elastic Constant Matrix: (Units=GPa)
#
#
# Indices 1 2 3 4 5 6 
#
# 1 130.0770 49.7959 54.6168 0.0010 -49.2955 -0.0005
# 2 49.7959 205.1201 43.8113 0.0001 -37.6307 -0.0001
# 3 54.6168 43.8113 125.4595 0.0023 -34.5442 -0.0013
# 4 0.0010 0.0001 0.0023 3034.0497 -0.0016-1674.3891
# 5 -49.2955 -37.6307 -34.5442 -0.0016 41.3422 0.0009
# 6 -0.0005 -0.0001 -0.0013-1674.3891 0.0009 942.7870
#
#
#
# Elastic Compliance Matrix: (Units=1/GPa)
#
#
# Indices 1 2 3 4 5 6 
#
# 1 0.014415 -0.000273 -0.001969 0.000000 0.015295 0.000000
# 2 -0.000273 0.005912 -0.000719 0.000000 0.004455 0.000000
# 3 -0.001969 -0.000719 0.010718 0.000000 0.005954 0.000000
# 4 0.000000 0.000000 0.000000 0.016574 0.000000 0.029435
# 5 0.015295 0.004455 0.005954 0.000000 0.051455 0.000000
# 6 0.000000 0.000000 0.000000 0.029435 0.000000 0.053338
#
#
# Mechanical properties :
#
#
# Convention : Reuss Voigt Hill
#
# Bulk Modulus (GPa) = 39.80267 84.12273 61.96270
# Shear Modulus (GPa) = 29.99230 824.46462 427.22846
#
# Velocity S-wave (km/s) = 3.71364 19.47066 14.01602
# Velocity P-wave (km/s) = 6.05725 23.32718 17.04182
#
# Compressibility (1/GPa) = 0.02512394
#
# Stress axis : x y z
#
# Youngs Moduli (GPa) = 69.37104 169.13600 93.29927
#
# Poissons Ratio (x) = 0.04618 0.18369
# Poissons Ratio (y) = 0.01894 0.06709
# Poissons Ratio (z) = 0.13658 0.12162
#
# Static dielectric constant tensor:
#      x y z
#    x 1.809040 0.000000 0.034470 
#    y 0.000000 1.872780 0.000000 
#    z 0.034470 0.000000 1.771880 
# 
# From -- ./inp_files/255172.got.cif
#   From: 2010.05.17/outbox.cif.g08.bks.cpg/sg12_128_cif.got.tgz:255172.got - 2010.06.03 13:09:07.
