data_PCOD9214016
_publ_section_title
;
Structure prediction by ZEFSAII (Michael W. Deem and Ramdas Pophale) SiO2 
 PCOD9214016
Probable space group: C 2/M
;
_chemical_formula_sum "Si O2"
_cell_formula_units_Z 48
_cell_length_a 28.633373
_cell_length_b 16.629164
_cell_length_c 8.771016
_cell_angle_alpha 90.000000
_cell_angle_beta 147.644211
_cell_angle_gamma 90.000000
_cell_volume 2235.057769
_symmetry_space_group_name_H-M "C 2/M"
_symmetry_group_IT_number 12
_symmetry_cell_setting 'monoclinic'
loop_
_space_group_symop_operation_xyz
x,y,z
-x,y,-z
-x,-y,-z
x,-y,z
1/2+x,1/2+y,z
1/2-x,1/2+y,-z
1/2-x,1/2-y,-z
1/2+x,1/2-y,z
loop_
_atom_site_type_symbol
_atom_site_label
_atom_site_fract_x
_atom_site_fract_y
_atom_site_fract_z
Si Si1 0.140343 0.907161 0.774220
Si Si2 0.846615 0.670849 0.837818
Si Si3 0.526228 0.093017 0.392595
Si Si4 0.206095 0.330626 0.950363
Si Si5 0.676717 0.645642 0.207846
Si Si6 0.503375 0.591276 0.844687
O O1 0.055625 0.872934 0.452950
O O2 0.124227 0.000000 0.772442
O O3 0.221745 0.898308 0.885681
O O4 0.164863 0.860277 0.994456
O O5 0.773666 0.628942 0.532508
O O6 0.847771 0.765162 0.801966
O O7 0.813561 0.670161 0.923068
O O8 0.941075 0.631518 0.080990
O O9 0.500000 0.092857 0.500000
O O10 0.614357 0.144892 0.619682
O O11 0.540512 0.000000 0.386964
O O12 0.250000 0.250000 0.000000
O O13 0.603141 0.589093 0.072793
O O14 0.468200 0.500000 0.764836
O O15 0.500000 0.631859 0.000000
#
# Coordination Sequence:
#
# PCOD9214016 Si02
#       6
#     8   8   8   8   8   8
#     4  11  23  38  62  93 126 164 206 261 326 383
#     4  10  23  40  61  90 122 167 214 256 322 376
#     4   9  20  38  61  89 120 160 212 260 309 376
#     4  11  21  38  64  91 121 164 208 264 317 383
#     4  11  22  39  59  90 128 162 211 265 310 386
#     4  10  22  39  61  90 123 163 207 257 319 384
#
# _framework density 21.475954999999999
#
# number of rings (size 3 to 8) (size 9 to 14) (size 15 to 20)
#    0.000    1.667    1.667    2.500    2.333    4.667 
#    0.000    0.833    0.000    2.000    0.000    0.000 
#    0.000    0.000    0.000    0.000    0.000    0.000 
#
# Total GULP energy -133969.727088 kJ/mol
# GULP energy per Si atom -5582.071962 kJ/mol
# Density = 2.142707 g / cm^3
# Si number density = 21.475955 Si / 1000 Ang^3
#
#
#
# Elastic Constant Matrix: (Units=GPa)
#
#
# Indices 1 2 3 4 5 6 
#
# 1 45.7961 21.3385 26.9648 0.0000 6.0697 0.0000
# 2 21.3385 62.4691 53.4015 0.0000 14.9365 0.0000
# 3 26.9648 53.4015 209.1013 0.0000 12.3792 0.0000
# 4 0.0000 0.0000 0.0000 18.2551 0.0000 13.5872
# 5 6.0697 14.9365 12.3792 0.0000 35.0397 0.0000
# 6 0.0000 0.0000 0.0000 13.5872 0.0000 24.5929
#
#
#
# Elastic Compliance Matrix: (Units=1/GPa)
#
#
# Indices 1 2 3 4 5 6 
#
# 1 0.026308 -0.007587 -0.001406 0.000000 -0.000826 0.000000
# 2 -0.007587 0.024515 -0.004843 0.000000 -0.007425 0.000000
# 3 -0.001406 -0.004843 0.006193 0.000000 0.000120 0.000000
# 4 0.000000 0.000000 0.000000 0.093037 0.000000 -0.051402
# 5 -0.000826 -0.007425 0.000120 0.000000 0.031805 0.000000
# 6 0.000000 0.000000 0.000000 -0.051402 0.000000 0.069061
#
#
# Mechanical properties :
#
#
# Convention : Reuss Voigt Hill
#
# Bulk Modulus (GPa) = 34.07761 57.86403 45.97082
# Shear Modulus (GPa) = 17.33867 29.95497 23.64682
#
# Velocity S-wave (km/s) = 2.84448 3.73877 3.32186
# Velocity P-wave (km/s) = 5.16627 6.75574 6.01375
#
# Compressibility (1/GPa) = 0.02934478
#
# Stress axis : x y z
#
# Youngs Moduli (GPa) = 38.01056 40.79197 161.46310
#
# Poissons Ratio (x) = 0.30949 0.22703
# Poissons Ratio (y) = 0.28839 0.78192
# Poissons Ratio (z) = 0.05345 0.19754
#
# Static dielectric constant tensor:
#      x y z
#    x 1.802580 0.000000 -0.030610 
#    y 0.000000 1.822210 0.000000 
#    z -0.030610 0.000000 1.792940 
# 
# From -- ./inp_files/77262.got.cif
#   From: 2010.05.17/outbox.cif.g08.bks.cpg/sg12_39_cif.got.tgz:77262.got - 2010.06.03 13:09:07.
