data_PCOD9214661
_publ_section_title
;
Structure prediction by ZEFSAII (Michael W. Deem and Ramdas Pophale) SiO2 
 PCOD9214661
Probable space group: C 2/M
;
_chemical_formula_sum "Si O2"
_cell_formula_units_Z 48
_cell_length_a 30.176253
_cell_length_b 9.301467
_cell_length_c 9.469747
_cell_angle_alpha 90.000000
_cell_angle_beta 99.834168
_cell_angle_gamma 90.000000
_cell_volume 2618.944906
_symmetry_space_group_name_H-M "C 2/M"
_symmetry_group_IT_number 12
_symmetry_cell_setting 'monoclinic'
loop_
_space_group_symop_operation_xyz
x,y,z
-x,y,-z
-x,-y,-z
x,-y,z
1/2+x,1/2+y,z
1/2-x,1/2+y,-z
1/2-x,1/2-y,-z
1/2+x,1/2-y,z
loop_
_atom_site_type_symbol
_atom_site_label
_atom_site_fract_x
_atom_site_fract_y
_atom_site_fract_z
Si Si1 0.546754 0.830438 0.108698
Si Si2 0.545614 0.172545 0.441287
Si Si3 0.374516 0.673255 0.349483
Si Si4 0.124748 0.827700 0.983601
Si Si5 0.716347 0.835036 0.082340
Si Si6 0.224617 0.836668 0.605075
O O1 0.542061 0.794660 0.272291
O O2 0.559360 0.000000 0.106095
O O3 0.500000 0.812821 0.000000
O O4 0.583760 0.734058 0.051867
O O5 0.500000 0.212005 0.500000
O O6 0.587576 0.251309 0.536349
O O7 0.551241 0.000000 0.457767
O O8 0.377669 0.500000 0.364793
O O9 0.380461 0.706456 0.186333
O O10 0.324430 0.717751 0.372505
O O11 0.128514 0.000000 0.998939
O O12 0.169823 0.749952 0.060735
O O13 0.742005 0.838984 0.244329
O O14 0.709210 0.000000 0.031386
O O15 0.750000 0.750000 0.000000
O O16 0.250000 0.750000 0.500000
O O17 0.217620 0.000000 0.551715
#
# Coordination Sequence:
#
# PCOD9214661 Si02
#       6
#     8   8   8   8   8   8
#     4  10  22  41  64  91 122 154 196 249 301 357
#     4  10  22  40  63  90 119 154 197 242 295 359
#     4  10  22  41  60  85 121 158 197 245 296 351
#     4  11  23  40  62  89 122 159 203 248 297 356
#     4  11  22  40  63  89 122 159 203 249 297 351
#     4  10  23  41  59  85 122 159 201 247 294 350
#
# _framework density 18.327991999999998
#
# number of rings (size 3 to 8) (size 9 to 14) (size 15 to 20)
#    0.000    1.667    1.667    2.000    2.333    6.000 
#    0.000    0.000    0.000    0.000    0.000    0.000 
#    0.000    0.000    0.000    0.000    0.000    0.000 
#
# Total GULP energy -134033.629229 kJ/mol
# GULP energy per Si atom -5584.734551 kJ/mol
# Density = 1.828628 g / cm^3
# Si number density = 18.327992 Si / 1000 Ang^3
#
#
#
# Elastic Constant Matrix: (Units=GPa)
#
#
# Indices 1 2 3 4 5 6 
#
# 1 147.2190 73.9707 89.8478 0.0000 -4.1782 0.0000
# 2 73.9707 78.4529 63.0555 0.0000 -9.8820 0.0000
# 3 89.8478 63.0555 128.8735 0.0000 -12.8861 0.0000
# 4 0.0000 0.0000 0.0000 33.9947 0.0000 -0.4649
# 5 -4.1782 -9.8820 -12.8861 0.0000 39.2186 0.0000
# 6 0.0000 0.0000 0.0000 -0.4649 0.0000 39.4045
#
#
#
# Elastic Compliance Matrix: (Units=1/GPa)
#
#
# Indices 1 2 3 4 5 6 
#
# 1 0.015543 -0.010018 -0.006226 0.000000 -0.002914 0.000000
# 2 -0.010018 0.027615 -0.006140 0.000000 0.003874 0.000000
# 3 -0.006226 -0.006140 0.015389 0.000000 0.002846 0.000000
# 4 0.000000 0.000000 0.000000 0.029421 0.000000 0.000347
# 5 -0.002914 0.003874 0.002846 0.000000 0.027099 0.000000
# 6 0.000000 0.000000 0.000000 0.000347 0.000000 0.025382
#
#
# Mechanical properties :
#
#
# Convention : Reuss Voigt Hill
#
# Bulk Modulus (GPa) = 72.57366 89.81038 81.19202
# Shear Modulus (GPa) = 26.34206 31.03499 28.68853
#
# Velocity S-wave (km/s) = 3.79523 4.11945 3.96066
# Velocity P-wave (km/s) = 7.67386 8.46963 8.08155
#
# Compressibility (1/GPa) = 0.01377910
#
# Stress axis : x y z
#
# Youngs Moduli (GPa) = 64.33584 36.21214 64.98172
#
# Poissons Ratio (x) = 0.36278 0.40459
# Poissons Ratio (y) = 0.64453 0.39897
# Poissons Ratio (z) = 0.40057 0.22233
#
# Static dielectric constant tensor:
#      x y z
#    x 1.614450 0.000000 -0.016690 
#    y 0.000000 1.625800 0.000000 
#    z -0.016690 0.000000 1.609540 
# 
# From -- ./inp_files/108739.got.cif
#   From: 2010.05.17/outbox.cif.g08.bks.cpg/sg12_55_cif.got.tgz:108739.got - 2010.06.03 13:09:07.
