data_PCOD9214571
_publ_section_title
;
Structure prediction by ZEFSAII (Michael W. Deem and Ramdas Pophale) SiO2 
 PCOD9214571
Probable space group: C 2/M
;
_chemical_formula_sum "Si O2"
_cell_formula_units_Z 56
_cell_length_a 17.033195
_cell_length_b 16.715840
_cell_length_c 9.839951
_cell_angle_alpha 90.000000
_cell_angle_beta 66.860590
_cell_angle_gamma 90.000000
_cell_volume 2576.281278
_symmetry_space_group_name_H-M "C 2/M"
_symmetry_group_IT_number 12
_symmetry_cell_setting 'monoclinic'
loop_
_space_group_symop_operation_xyz
x,y,z
-x,y,-z
-x,-y,-z
x,-y,z
1/2+x,1/2+y,z
1/2-x,1/2+y,-z
1/2-x,1/2-y,-z
1/2+x,1/2-y,z
loop_
_atom_site_type_symbol
_atom_site_label
_atom_site_fract_x
_atom_site_fract_y
_atom_site_fract_z
Si Si1 0.814634 0.590032 0.582874
Si Si2 0.655547 0.322346 0.602724
Si Si3 0.148970 0.342626 0.150942
Si Si4 0.098721 0.909017 0.897506
Si Si5 0.598392 0.590930 0.395144
Si Si6 0.534724 0.177010 0.628939
Si Si7 0.186756 0.841131 0.088464
O O1 0.781889 0.500000 0.579764
O O2 0.752885 0.663719 0.582304
O O3 0.830065 0.603981 0.731988
O O4 0.904023 0.602695 0.445464
O O5 0.610239 0.386039 0.733372
O O6 0.653008 0.350281 0.449769
O O7 0.596498 0.244345 0.650021
O O8 0.175849 0.249266 0.148498
O O9 0.046178 0.340306 0.220114
O O10 0.213826 0.367267 0.985976
O O11 0.127357 0.000000 0.903042
O O12 0.151845 0.850147 0.958540
O O13 0.000000 0.902786 0.000000
O O14 0.500000 0.605845 0.500000
O O15 0.617154 0.500000 0.419327
O O16 0.624878 0.605698 0.222840
O O17 0.500000 0.201864 0.500000
#
# Coordination Sequence:
#
# PCOD9214571 Si02
#       7
#     8   8   8   8   8   8   8
#     4  11  23  41  66  97 129 164 215 272 323 374
#     4  12  22  39  64  91 127 163 207 265 319 378
#     4  10  22  40  62  88 123 165 214 263 310 376
#     4  11  22  36  59  93 131 168 208 260 321 379
#     4  11  22  36  58  88 125 168 208 252 313 380
#     4  10  22  40  64  94 126 166 214 263 318 378
#     4  11  22  39  61  87 126 168 213 262 311 383
#
# _framework density 21.736758999999999
#
# number of rings (size 3 to 8) (size 9 to 14) (size 15 to 20)
#    0.000    1.143    1.429    6.857    0.000    5.429 
#    0.000    0.000    0.000    0.000    0.000    2.000 
#    0.000    0.000    0.000    0.000    0.000    0.000 
#
# Total GULP energy -156230.588932 kJ/mol
# GULP energy per Si atom -5579.663890 kJ/mol
# Density = 2.168729 g / cm^3
# Si number density = 21.736759 Si / 1000 Ang^3
#
#
#
# Elastic Constant Matrix: (Units=GPa)
#
#
# Indices 1 2 3 4 5 6 
#
# 1 93.8465 28.2991 31.3914 0.0000 -35.6803 0.0000
# 2 28.2991 62.8715 12.7038 0.0000 1.2357 0.0000
# 3 31.3914 12.7038 78.5694 0.0000 -38.6875 0.0000
# 4 0.0000 0.0000 0.0000 17.0885 0.0000 1.0186
# 5 -35.6803 1.2357 -38.6875 0.0000 52.9036 0.0000
# 6 0.0000 0.0000 0.0000 1.0186 0.0000 21.0867
#
#
#
# Elastic Compliance Matrix: (Units=1/GPa)
#
#
# Indices 1 2 3 4 5 6 
#
# 1 0.017776 -0.008323 0.000379 0.000000 0.012460 0.000000
# 2 -0.008323 0.020800 -0.004752 0.000000 -0.009574 0.000000
# 3 0.000379 -0.004752 0.021136 0.000000 0.015823 0.000000
# 4 0.000000 0.000000 0.000000 0.058688 0.000000 -0.002835
# 5 0.012460 -0.009574 0.015823 0.000000 0.039101 0.000000
# 6 0.000000 0.000000 0.000000 -0.002835 0.000000 0.047560
#
#
# Mechanical properties :
#
#
# Convention : Reuss Voigt Hill
#
# Bulk Modulus (GPa) = 29.13763 42.23068 35.68416
# Shear Modulus (GPa) = 20.67036 29.07530 24.87283
#
# Velocity S-wave (km/s) = 3.08708 3.66130 3.38638
# Velocity P-wave (km/s) = 5.11279 6.11097 5.63403
#
# Compressibility (1/GPa) = 0.03431988
#
# Stress axis : x y z
#
# Youngs Moduli (GPa) = 56.25550 48.07688 47.31329
#
# Poissons Ratio (x) = 0.40013 -0.01793
# Poissons Ratio (y) = 0.46820 0.22485
# Poissons Ratio (z) = -0.02132 0.22847
#
# Static dielectric constant tensor:
#      x y z
#    x 1.851950 0.000000 -0.052860 
#    y 0.000000 1.785000 0.000000 
#    z -0.052860 0.000000 1.780870 
# 
# From -- ./inp_files/75909.got.cif
#   From: 2010.05.17/outbox.cif.g08.bks.cpg/sg12_38_cif.got.tgz:75909.got - 2010.06.03 13:09:07.
