data_PCOD9214000
_publ_section_title
;
Structure prediction by ZEFSAII (Michael W. Deem and Ramdas Pophale) SiO2 
 PCOD9214000
Probable space group: C 2/M
;
_chemical_formula_sum "Si O2"
_cell_formula_units_Z 48
_cell_length_a 21.093741
_cell_length_b 10.997291
_cell_length_c 33.320938
_cell_angle_alpha 90.000000
_cell_angle_beta 163.794932
_cell_angle_gamma 90.000000
_cell_volume 2157.143845
_symmetry_space_group_name_H-M "C 2/M"
_symmetry_group_IT_number 12
_symmetry_cell_setting 'monoclinic'
loop_
_space_group_symop_operation_xyz
x,y,z
-x,y,-z
-x,-y,-z
x,-y,z
1/2+x,1/2+y,z
1/2-x,1/2+y,-z
1/2-x,1/2-y,-z
1/2+x,1/2-y,z
loop_
_atom_site_type_symbol
_atom_site_label
_atom_site_fract_x
_atom_site_fract_y
_atom_site_fract_z
Si Si1 0.619120 0.144958 0.945716
Si Si2 0.002653 0.631449 0.380318
Si Si3 0.200398 0.630881 0.588864
Si Si4 0.981678 0.865909 0.326465
Si Si5 0.668699 0.855611 0.067845
Si Si6 0.226918 0.631244 0.330690
O O1 0.370300 0.144269 0.773322
O O2 0.695312 0.000000 0.988583
O O3 0.750000 0.250000 0.000000
O O4 0.632896 0.183994 0.000571
O O5 0.887906 0.500000 0.304307
O O6 0.072719 0.641989 0.469128
O O7 0.891384 0.754822 0.297655
O O8 0.246306 0.627174 0.505597
O O9 0.323129 0.500000 0.664661
O O10 0.341295 0.749720 0.686018
O O11 0.000000 0.624928 0.500000
O O12 0.911631 0.841914 0.237708
O O13 0.892698 0.000000 0.283662
O O14 0.629702 0.000000 0.042015
O O15 0.500000 0.806548 0.000000
O O16 0.500000 0.626850 0.500000
O O17 0.141628 0.500000 0.294242
#
# Coordination Sequence:
#
# PCOD9214000 Si02
#       6
#     8   8   8   8   8   8
#     4  10  22  39  61  89 121 158 198 245 298 355
#     4   9  18  32  51  78 110 139 176 223 272 327
#     4   9  18  31  49  76 111 149 182 220 275 340
#     4   9  18  33  55  79 101 137 182 227 274 320
#     4   9  19  36  59  84 110 147 197 241 281 340
#     4   9  19  35  54  82 117 150 190 241 292 339
#
# _framework density 22.251645
#
# number of rings (size 3 to 8) (size 9 to 14) (size 15 to 20)
#    0.000    2.833    0.000    0.000    2.333    4.000 
#    0.000    5.833    0.000    2.000    0.000    0.000 
#    0.000    0.000    0.000    0.000    0.000    0.000 
#
# Total GULP energy -133660.136700 kJ/mol
# GULP energy per Si atom -5569.172362 kJ/mol
# Density = 2.220100 g / cm^3
# Si number density = 22.251645 Si / 1000 Ang^3
#
#
#
# Elastic Constant Matrix: (Units=GPa)
#
#
# Indices 1 2 3 4 5 6 
#
# 1 88.4233 71.2452 22.2275 0.0336 -27.1711 -0.0247
# 2 71.2452 208.1934 39.8274 0.0542 -43.1056 -0.1040
# 3 22.2275 39.8274 92.3514 0.1419 -15.9589 -0.3767
# 4 0.0336 0.0542 0.1419 15.8475 0.0021 -13.6088
# 5 -27.1711 -43.1056 -15.9589 0.0021 36.0310 -0.0011
# 6 -0.0247 -0.1040 -0.3767 -13.6088 -0.0011 -0.5831
#
#
#
# Elastic Compliance Matrix: (Units=1/GPa)
#
#
# Indices 1 2 3 4 5 6 
#
# 1 0.017229 -0.004121 -0.001057 0.000027 0.007594 0.000048
# 2 -0.004121 0.007583 -0.001351 -0.000013 0.005365 -0.000009
# 3 -0.001057 -0.001351 0.012180 -0.000315 0.002981 -0.000247
# 4 0.000027 -0.000013 -0.000315 0.003007 -0.000137 -0.069983
# 5 0.007594 0.005365 0.002981 -0.000137 0.041220 -0.000082
# 6 0.000048 -0.000009 -0.000247 -0.069983 -0.000082 -0.081498
#
#
# Mechanical properties :
#
#
# Convention : Reuss Voigt Hill
#
# Bulk Modulus (GPa) = 41.78328 72.84092 57.31210
# Shear Modulus (GPa) = 240.87141 27.30360 134.08751
#
# Velocity S-wave (km/s) = 10.41556 3.50671 7.77113
# Velocity P-wave (km/s) = 12.78528 7.01442 10.31178
#
# Compressibility (1/GPa) = 0.02393302
#
# Stress axis : x y z
#
# Youngs Moduli (GPa) = 58.04115 131.87434 82.10219
#
# Poissons Ratio (x) = 0.54352 0.08678
# Poissons Ratio (y) = 0.23921 0.11093
# Poissons Ratio (z) = 0.06135 0.17817
#
# Static dielectric constant tensor:
#      x y z
#    x 1.842870 -0.000030 0.044380 
#    y -0.000030 1.952720 -0.000010 
#    z 0.044380 -0.000010 1.863280 
# 
# From -- ./inp_files/381210.got.cif
#   From: 2010.05.17/outbox.cif.g08.bks.cpg/sg12_191_cif.got.tgz:381210.got - 2010.06.03 13:09:07.
