data_PCOD9214835
_publ_section_title
;
Structure prediction by ZEFSAII (Michael W. Deem and Ramdas Pophale) SiO2 
 PCOD9214835
Probable space group: C 2/M
;
_chemical_formula_sum "Si O2"
_cell_formula_units_Z 64
_cell_length_a 24.680760
_cell_length_b 20.550429
_cell_length_c 18.288685
_cell_angle_alpha 90.000000
_cell_angle_beta 19.990173
_cell_angle_gamma 90.000000
_cell_volume 3171.092268
_symmetry_space_group_name_H-M "C 2/M"
_symmetry_group_IT_number 12
_symmetry_cell_setting 'monoclinic'
loop_
_space_group_symop_operation_xyz
x,y,z
-x,y,-z
-x,-y,-z
x,-y,z
1/2+x,1/2+y,z
1/2-x,1/2+y,-z
1/2-x,1/2-y,-z
1/2+x,1/2-y,z
loop_
_atom_site_type_symbol
_atom_site_label
_atom_site_fract_x
_atom_site_fract_y
_atom_site_fract_z
Si Si1 0.525849 0.851046 0.138856
Si Si2 0.766064 0.671729 0.984351
Si Si3 0.434944 0.571348 0.008598
Si Si4 0.194771 0.877826 0.592297
Si Si5 0.866876 0.247147 0.231873
Si Si6 0.339051 0.924160 0.159975
Si Si7 0.162259 0.420670 0.247624
Si Si8 0.097443 0.153077 0.554980
O O1 0.608057 0.837647 0.110838
O O2 0.373115 0.896415 0.346678
O O3 0.447610 0.790550 0.194170
O O4 0.651420 0.883558 0.925902
O O5 0.820142 0.627010 0.845561
O O6 0.750000 0.750000 0.000000
O O7 0.585560 0.652697 0.233753
O O8 0.373237 0.500000 0.107959
O O9 0.298787 0.601604 0.131804
O O10 0.500000 0.602638 0.000000
O O11 0.587702 0.568073 0.764016
O O12 0.190921 0.818017 0.654546
O O13 0.108732 0.855796 0.627604
O O14 0.711324 0.284109 0.397467
O O15 0.000000 0.241553 0.000000
O O16 0.191011 0.904404 0.396476
O O17 0.342090 0.000000 0.140886
O O18 0.500000 0.906809 0.000000
O O19 0.182661 0.500000 0.204894
O O20 0.000000 0.414712 0.500000
#
# Coordination Sequence:
#
# PCOD9214835 Si02
#       8
#     8   8   8   8   8   8   8   8
#     4  11  23  41  60  92 130 166 216 272 317 383
#     4  12  26  45  66  99 136 175 225 276 329 399
#     4  10  22  40  64  97 126 157 214 272 319 386
#     4  11  21  36  65  93 120 166 214 261 324 386
#     4  11  20  40  63  87 129 169 212 265 334 384
#     4  11  22  42  69  96 127 172 222 271 330 388
#     4  10  24  48  71  94 135 181 217 266 340 408
#     4  11  21  43  62  89 130 171 213 269 324 386
#
# _framework density 20.182319
#
# number of rings (size 3 to 8) (size 9 to 14) (size 15 to 20)
#    0.000    1.125    5.000    3.375    1.750    2.500 
#    4.500    0.625    0.000    0.000    0.000    0.000 
#    0.000    0.000    0.000    0.000    0.000    0.000 
#
# Total GULP energy -178379.126817 kJ/mol
# GULP energy per Si atom -5574.347713 kJ/mol
# Density = 2.013638 g / cm^3
# Si number density = 20.182319 Si / 1000 Ang^3
#
#
#
# Elastic Constant Matrix: (Units=GPa)
#
#
# Indices 1 2 3 4 5 6 
#
# 1 94.9656 23.3749 23.3514 0.0050 -4.7715 -0.0080
# 2 23.3749 73.7938 12.0372 0.0035 6.5535 -0.0062
# 3 23.3514 12.0372 102.7996 0.0014 1.8554 -0.0083
# 4 0.0050 0.0035 0.0014 22.4340 -0.0045 7.6217
# 5 -4.7715 6.5535 1.8554 -0.0045 37.4298 0.0051
# 6 -0.0080 -0.0062 -0.0083 7.6217 0.0051 -3.2729
#
#
#
# Elastic Compliance Matrix: (Units=1/GPa)
#
#
# Indices 1 2 3 4 5 6 
#
# 1 0.012129 -0.003660 -0.002368 0.000002 0.002305 -0.000009
# 2 -0.003660 0.015128 -0.000884 0.000003 -0.003071 -0.000015
# 3 -0.002368 -0.000884 0.010381 0.000004 -0.000662 -0.000011
# 4 0.000002 0.000003 0.000004 0.024886 -0.000005 0.057953
# 5 0.002305 -0.003071 -0.000662 -0.000005 0.027581 0.000032
# 6 -0.000009 -0.000015 -0.000011 0.057953 0.000032 -0.170580
#
#
# Mechanical properties :
#
#
# Convention : Reuss Voigt Hill
#
# Bulk Modulus (GPa) = 41.99563 43.23179 42.61371
# Shear Modulus (GPa) = -85.16282 25.50452 -29.82915
#
# Velocity S-wave (km/s) = -6.50295 3.55872 -3.84863
# Velocity P-wave (km/s) = 5.96080 6.19299 1.18785
#
# Compressibility (1/GPa) = 0.02381200
#
# Stress axis : x y z
#
# Youngs Moduli (GPa) = 82.44557 66.10351 96.32874
#
# Poissons Ratio (x) = 0.24197 0.22812
# Poissons Ratio (y) = 0.30178 0.08520
# Poissons Ratio (z) = 0.19525 0.05847
#
# Static dielectric constant tensor:
#      x y z
#    x 1.738940 0.000010 0.001670 
#    y 0.000010 1.776380 0.000000 
#    z 0.001670 0.000000 1.711800 
# 
# From -- ./inp_files/290903.got.cif
#   From: 2010.05.17/outbox.cif.g08.bks.cpg/sg12_146_cif.got.tgz:290903.got - 2010.06.03 13:09:07.
