data_PCOD9214237
_publ_section_title
;
Structure prediction by ZEFSAII (Michael W. Deem and Ramdas Pophale) SiO2 
 PCOD9214237
Probable space group: C 2/M
;
_chemical_formula_sum "Si O2"
_cell_formula_units_Z 64
_cell_length_a 16.633822
_cell_length_b 16.723172
_cell_length_c 21.952464
_cell_angle_alpha 90.000000
_cell_angle_beta 149.539099
_cell_angle_gamma 90.000000
_cell_volume 3095.703322
_symmetry_space_group_name_H-M "C 2/M"
_symmetry_group_IT_number 12
_symmetry_cell_setting 'monoclinic'
loop_
_space_group_symop_operation_xyz
x,y,z
-x,y,-z
-x,-y,-z
x,-y,z
1/2+x,1/2+y,z
1/2-x,1/2+y,-z
1/2-x,1/2-y,-z
1/2+x,1/2-y,z
loop_
_atom_site_type_symbol
_atom_site_label
_atom_site_fract_x
_atom_site_fract_y
_atom_site_fract_z
Si Si1 0.008558 0.754923 0.435132
Si Si2 0.146540 0.810052 0.353497
Si Si3 0.595110 0.213069 0.005937
Si Si4 0.378708 0.408644 0.541933
Si Si5 0.230441 0.654611 0.799522
Si Si6 0.287701 0.908247 0.012817
Si Si7 0.045004 0.148909 0.155282
Si Si8 0.020513 0.632615 0.272486
O O1 0.174624 0.720447 0.518951
O O2 0.014742 0.849432 0.428537
O O3 0.000000 0.736466 0.500000
O O4 0.867863 0.712654 0.308703
O O5 0.108749 0.872158 0.381946
O O6 0.131327 0.848502 0.276759
O O7 0.039737 0.729654 0.286352
O O8 0.683399 0.287389 0.095938
O O9 0.500000 0.173871 0.000000
O O10 0.700231 0.152173 0.036253
O O11 0.483475 0.259221 0.884823
O O12 0.427091 0.500000 0.571604
O O13 0.196434 0.400444 0.399453
O O14 0.355547 0.612409 0.836127
O O15 0.100489 0.606528 0.753052
O O16 0.436365 0.892446 0.154863
O O17 0.288387 0.000000 0.993587
O O18 0.125792 0.889908 0.943569
#
# Coordination Sequence:
#
# PCOD9214237 Si02
#       8
#     8   8   8   8   8   8   8   8
#     4  11  21  38  64  91 117 157 211 255 302 362
#     4  11  20  37  66  88 118 158 214 255 293 369
#     4  10  22  39  65  91 119 160 211 256 299 359
#     4  11  24  38  58  94 129 158 197 253 319 374
#     4  11  20  38  66  89 115 155 219 263 291 348
#     4  12  25  40  61  93 132 165 198 250 317 371
#     4  11  22  37  63  93 118 160 211 263 296 348
#     4  11  20  40  64  88 116 169 214 250 298 365
#
# _framework density 20.673815999999999
#
# number of rings (size 3 to 8) (size 9 to 14) (size 15 to 20)
#    0.000    1.000    6.250    2.250    0.000    1.000 
#    0.000    1.875    0.000    1.875    0.000    0.000 
#    0.000    0.000    0.000    0.000    0.000    0.000 
#
# Total GULP energy -178775.581417 kJ/mol
# GULP energy per Si atom -5586.736919 kJ/mol
# Density = 2.062676 g / cm^3
# Si number density = 20.673816 Si / 1000 Ang^3
#
#
#
# Elastic Constant Matrix: (Units=GPa)
#
#
# Indices 1 2 3 4 5 6 
#
# 1 58.3795 -22.1724 8.3171 0.0042 -0.8645 0.0018
# 2 -22.1724 35.1639 6.9955 0.0051 -2.4186 0.0020
# 3 8.3171 6.9955 78.0459 0.0071 -15.4805 0.0036
# 4 0.0042 0.0051 0.0071 14.2800 0.0024 -2.3155
# 5 -0.8645 -2.4186 -15.4805 0.0024 31.1915 0.0007
# 6 0.0018 0.0020 0.0036 -2.3155 0.0007 5.1850
#
#
#
# Elastic Compliance Matrix: (Units=1/GPa)
#
#
# Indices 1 2 3 4 5 6 
#
# 1 0.023649 0.015690 -0.003943 -0.000013 -0.000085 -0.000017
# 2 0.015690 0.039396 -0.005004 -0.000021 0.001006 -0.000026
# 3 -0.003943 -0.005004 0.015066 -0.000008 0.006980 -0.000011
# 4 -0.000013 -0.000021 -0.000008 0.075495 -0.000012 0.033714
# 5 -0.000085 0.001006 0.006980 -0.000012 0.035600 -0.000016
# 6 -0.000017 -0.000026 -0.000011 0.033714 -0.000016 0.207920
#
#
# Mechanical properties :
#
#
# Convention : Reuss Voigt Hill
#
# Bulk Modulus (GPa) = 10.91726 17.54109 14.22917
# Shear Modulus (GPa) = 12.07226 22.02790 17.05008
#
# Velocity S-wave (km/s) = 2.41911 3.26774 2.87491
# Velocity P-wave (km/s) = 3.61869 4.76871 4.23294
#
# Compressibility (1/GPa) = 0.09159808
#
# Stress axis : x y z
#
# Youngs Moduli (GPa) = 42.28510 25.38308 66.37358
#
# Poissons Ratio (x) = -0.39827 0.26174
# Poissons Ratio (y) = -0.66347 0.33211
# Poissons Ratio (z) = 0.16675 0.12701
#
# Static dielectric constant tensor:
#      x y z
#    x 1.784130 0.000000 0.026620 
#    y 0.000000 1.716970 0.000000 
#    z 0.026620 0.000000 1.762420 
# 
# From -- ./inp_files/317393.got.cif
#   From: 2010.05.17/outbox.cif.g08.bks.cpg/sg12_159_cif.got.tgz:317393.got - 2010.06.03 13:09:07.
