data_PCOD9214687
_publ_section_title
;
Structure prediction by ZEFSAII (Michael W. Deem and Ramdas Pophale) SiO2 
 PCOD9214687
Probable space group: C 2/M
;
_chemical_formula_sum "Si O2"
_cell_formula_units_Z 56
_cell_length_a 7.665729
_cell_length_b 13.965597
_cell_length_c 26.666767
_cell_angle_alpha 90.000000
_cell_angle_beta 128.087092
_cell_angle_gamma 90.000000
_cell_volume 2246.978448
_symmetry_space_group_name_H-M "C 2/M"
_symmetry_group_IT_number 12
_symmetry_cell_setting 'monoclinic'
loop_
_space_group_symop_operation_xyz
x,y,z
-x,y,-z
-x,-y,-z
x,-y,z
1/2+x,1/2+y,z
1/2-x,1/2+y,-z
1/2-x,1/2-y,-z
1/2+x,1/2-y,z
loop_
_atom_site_type_symbol
_atom_site_label
_atom_site_fract_x
_atom_site_fract_y
_atom_site_fract_z
Si Si1 0.463705 0.221347 0.571036
Si Si2 0.124307 0.716363 0.799918
Si Si3 0.252377 0.109297 0.022513
Si Si4 0.021241 0.388125 0.685197
Si Si5 0.927742 0.802349 0.101084
Si Si6 0.034651 0.898808 0.743821
Si Si7 0.371239 0.395542 0.602275
O O1 0.250000 0.250000 0.500000
O O2 0.439500 0.165997 0.620026
O O3 0.532140 0.328271 0.599358
O O4 0.640682 0.159398 0.572090
O O5 0.092626 0.780177 0.844269
O O6 0.326019 0.652734 0.855824
O O7 0.982929 0.657797 0.733643
O O8 0.190090 0.807939 0.776615
O O9 0.397412 0.197178 0.069888
O O10 0.322685 0.000000 0.045078
O O11 0.229313 0.129785 0.958818
O O12 0.000000 0.121677 0.000000
O O13 0.955956 0.500000 0.672572
O O14 0.292064 0.383905 0.726107
O O15 0.974707 0.904789 0.675092
O O16 0.129416 0.000000 0.778087
O O17 0.334045 0.500000 0.573203
#
# Coordination Sequence:
#
# PCOD9214687 Si02
#       7
#     8   8   8   8   8   8   8
#     4  11  22  39  67  96 128 172 222 277 333 394
#     4  12  21  38  63  92 128 158 205 261 321 372
#     4  10  22  43  65  88 125 167 207 250 305 372
#     4  10  22  40  63  91 126 170 215 260 322 397
#     4  11  24  38  63  98 123 159 208 259 305 371
#     4   9  19  37  61  87 121 162 203 255 321 385
#     4  10  22  42  66  93 128 171 219 271 334 401
#
# _framework density 24.922359
#
# number of rings (size 3 to 8) (size 9 to 14) (size 15 to 20)
#    0.000    1.571    4.286    1.714    0.000    4.000 
#    0.000    2.143    0.000    4.286    0.000    0.000 
#    0.000    0.000    0.000    0.000    0.000    0.000 
#
# Total GULP energy -155950.459342 kJ/mol
# GULP energy per Si atom -5569.659262 kJ/mol
# Density = 2.486563 g / cm^3
# Si number density = 24.922359 Si / 1000 Ang^3
#
#
#
# Elastic Constant Matrix: (Units=GPa)
#
#
# Indices 1 2 3 4 5 6 
#
# 1 59.0204 5.9027 7.5323 0.0000 -9.3127 0.0000
# 2 5.9027 169.8473 34.8177 0.0000 -1.9585 0.0000
# 3 7.5323 34.8177 137.6079 0.0000 -12.3215 0.0000
# 4 0.0000 0.0000 0.0000 6.9032 0.0000 11.1153
# 5 -9.3127 -1.9585 -12.3215 0.0000 39.0956 0.0000
# 6 0.0000 0.0000 0.0000 11.1153 0.0000 18.2633
#
#
#
# Elastic Compliance Matrix: (Units=1/GPa)
#
#
# Indices 1 2 3 4 5 6 
#
# 1 0.017689 -0.000468 -0.000488 0.000000 0.004036 0.000000
# 2 -0.000468 0.006223 -0.001576 0.000000 -0.000296 0.000000
# 3 -0.000488 -0.001576 0.007898 0.000000 0.002294 0.000000
# 4 0.000000 0.000000 0.000000 7.234342 0.000000 -4.402939
# 5 0.004036 -0.000296 0.002294 0.000000 0.027248 0.000000
# 6 0.000000 0.000000 0.000000 -4.402939 0.000000 2.734455
#
#
# Mechanical properties :
#
#
# Convention : Reuss Voigt Hill
#
# Bulk Modulus (GPa) = 37.38822 51.44236 44.41529
# Shear Modulus (GPa) = 0.49792 34.06728 17.28260
#
# Velocity S-wave (km/s) = 0.44746 3.70122 2.63621
# Velocity P-wave (km/s) = 3.91170 6.24109 5.20829
#
# Compressibility (1/GPa) = 0.02674639
#
# Stress axis : x y z
#
# Youngs Moduli (GPa) = 56.53133 160.68193 126.61748
#
# Poissons Ratio (x) = 0.07521 0.06184
# Poissons Ratio (y) = 0.02646 0.19950
# Poissons Ratio (z) = 0.02761 0.25317
#
# Static dielectric constant tensor:
#      x y z
#    x 2.316980 0.000000 0.090430 
#    y 0.000000 2.013850 0.000000 
#    z 0.090430 0.000000 2.014430 
# 
# From -- ./inp_files/372399.got.cif
#   From: 2010.05.17/outbox.cif.g08.bks.cpg/sg12_187_cif.got.tgz:372399.got - 2010.06.03 13:09:07.
