data_PCOD9214024
_publ_section_title
;
Structure prediction by ZEFSAII (Michael W. Deem and Ramdas Pophale) SiO2 
 PCOD9214024
Probable space group: C 2/M
;
_chemical_formula_sum "Si O2"
_cell_formula_units_Z 64
_cell_length_a 7.863253
_cell_length_b 13.865703
_cell_length_c 26.128120
_cell_angle_alpha 90.000000
_cell_angle_beta 90.877176
_cell_angle_gamma 90.000000
_cell_volume 2848.402819
_symmetry_space_group_name_H-M "C 2/M"
_symmetry_group_IT_number 12
_symmetry_cell_setting 'monoclinic'
loop_
_space_group_symop_operation_xyz
x,y,z
-x,y,-z
-x,-y,-z
x,-y,z
1/2+x,1/2+y,z
1/2-x,1/2+y,-z
1/2-x,1/2-y,-z
1/2+x,1/2-y,z
loop_
_atom_site_type_symbol
_atom_site_label
_atom_site_fract_x
_atom_site_fract_y
_atom_site_fract_z
Si Si1 0.005133 0.391826 0.630637
Si Si2 0.267603 0.763672 0.780199
Si Si3 0.745414 0.384659 0.137955
Si Si4 0.615485 0.208762 0.459781
Si Si5 0.396275 0.391747 0.604304
Si Si6 0.152468 0.884285 0.873277
Si Si7 0.463912 0.882603 0.942793
Si Si8 0.022171 0.211372 0.703262
O O1 0.976798 0.500000 0.648518
O O2 0.189982 0.387936 0.603467
O O3 0.861486 0.358404 0.589388
O O4 0.023727 0.312709 0.674219
O O5 0.197790 0.669659 0.810194
O O6 0.246086 0.844236 0.823024
O O7 0.442824 0.718999 0.759503
O O8 0.210692 0.805324 0.724496
O O9 0.748573 0.500000 0.144325
O O10 0.547871 0.355793 0.125006
O O11 0.881201 0.358041 0.094804
O O12 0.500000 0.152796 0.500000
O O13 0.750000 0.250000 0.500000
O O14 0.540793 0.306299 0.432496
O O15 0.449503 0.500000 0.590883
O O16 0.451658 0.364846 0.662574
O O17 0.279400 0.854070 0.919637
O O18 0.151606 0.000000 0.871575
O O19 0.462156 0.000000 0.944713
O O20 0.500000 0.846251 0.000000
#
# Coordination Sequence:
#
# PCOD9214024 Si02
#       8
#     8   8   8   8   8   8   8   8
#     4  10  22  40  62  88 119 157 202 245 295 364
#     4  12  22  39  62  86 125 157 201 252 308 359
#     4  10  22  39  62  91 122 161 208 256 308 371
#     4  11  22  39  62  91 121 154 197 246 299 353
#     4  10  22  40  61  87 121 156 198 247 295 359
#     4  10  22  39  61  91 123 159 208 257 306 372
#     4   9  19  38  63  90 123 162 204 256 314 369
#     4  11  23  38  60  88 116 160 195 249 304 358
#
# _framework density 22.468731999999999
#
# number of rings (size 3 to 8) (size 9 to 14) (size 15 to 20)
#    0.000    1.625    3.750    0.750    0.000    3.500 
#    0.000    4.375    0.000    0.000    0.000    0.000 
#    0.000    0.000    0.000    0.000    0.000    0.000 
#
# Total GULP energy -178222.303319 kJ/mol
# GULP energy per Si atom -5569.446979 kJ/mol
# Density = 2.241759 g / cm^3
# Si number density = 22.468732 Si / 1000 Ang^3
#
#
#
# Elastic Constant Matrix: (Units=GPa)
#
#
# Indices 1 2 3 4 5 6 
#
# 1 41.0683 -28.0747 6.5987 0.0000 13.4893 0.0000
# 2 -28.0747 47.5662 -9.8645 0.0000 2.6649 0.0000
# 3 6.5987 -9.8645 100.3839 0.0000 20.8233 0.0000
# 4 0.0000 0.0000 0.0000 10.2793 0.0000 -1.5920
# 5 13.4893 2.6649 20.8233 0.0000 44.7022 0.0000
# 6 0.0000 0.0000 0.0000 -1.5920 0.0000 25.3263
#
#
#
# Elastic Compliance Matrix: (Units=1/GPa)
#
#
# Indices 1 2 3 4 5 6 
#
# 1 0.052817 0.033080 0.003868 0.000000 -0.019712 0.000000
# 2 0.033080 0.042436 0.005082 0.000000 -0.014879 0.000000
# 3 0.003868 0.005082 0.011636 0.000000 -0.006891 0.000000
# 4 0.000000 0.000000 0.000000 0.098239 0.000000 0.006175
# 5 -0.019712 -0.014879 -0.006891 0.000000 0.032415 0.000000
# 6 0.000000 0.000000 0.000000 0.006175 0.000000 0.039873
#
#
# Mechanical properties :
#
#
# Convention : Reuss Voigt Hill
#
# Bulk Modulus (GPa) = 5.23702 14.03749 9.63726
# Shear Modulus (GPa) = 19.45486 30.75217 25.10351
#
# Velocity S-wave (km/s) = 2.94575 3.70356 3.34618
# Velocity P-wave (km/s) = 3.72904 4.95476 4.38494
#
# Compressibility (1/GPa) = 0.19094817
#
# Stress axis : x y z
#
# Youngs Moduli (GPa) = 18.93344 23.56517 85.93827
#
# Poissons Ratio (x) = -0.77954 -0.33239
# Poissons Ratio (y) = -0.62632 -0.43674
# Poissons Ratio (z) = -0.07323 -0.11976
#
# Static dielectric constant tensor:
#      x y z
#    x 2.358740 0.000000 0.077010 
#    y 0.000000 1.817890 0.000000 
#    z 0.077010 0.000000 1.771640 
# 
# From -- ./inp_files/332929.got.cif
#   From: 2010.05.17/outbox.cif.g08.bks.cpg/sg12_167_cif.got.tgz:332929.got - 2010.06.03 13:09:07.
