data_PCOD9214001
_publ_section_title
;
Structure prediction by ZEFSAII (Michael W. Deem and Ramdas Pophale) SiO2 
 PCOD9214001
Probable space group: C 2/M
;
_chemical_formula_sum "Si O2"
_cell_formula_units_Z 58
_cell_length_a 28.336515
_cell_length_b 25.126655
_cell_length_c 8.555279
_cell_angle_alpha 90.000000
_cell_angle_beta 152.557781
_cell_angle_gamma 90.000000
_cell_volume 2807.233361
_symmetry_space_group_name_H-M "C 2/M"
_symmetry_group_IT_number 12
_symmetry_cell_setting 'monoclinic'
loop_
_space_group_symop_operation_xyz
x,y,z
-x,y,-z
-x,-y,-z
x,-y,z
1/2+x,1/2+y,z
1/2-x,1/2+y,-z
1/2-x,1/2-y,-z
1/2+x,1/2-y,z
loop_
_atom_site_type_symbol
_atom_site_label
_atom_site_fract_x
_atom_site_fract_y
_atom_site_fract_z
Si Si1 0.613329 0.745352 0.886298
Si Si2 0.120047 0.439454 0.323470
Si Si3 0.923295 0.904984 0.082888
Si Si4 0.919514 0.798457 0.891700
Si Si5 0.724528 0.940352 0.304631
Si Si6 0.765758 0.659684 0.863029
Si Si7 0.500000 0.500000 0.500000
Si Si8 0.221756 0.854615 0.090540
O O1 0.500000 0.727176 0.500000
O O2 0.606597 0.744957 0.053981
O O3 0.640387 0.799626 0.877947
O O4 0.703963 0.704111 0.108966
O O5 0.156536 0.500000 0.476797
O O6 0.144944 0.434975 0.212992
O O7 0.179938 0.391050 0.581395
O O8 0.000000 0.436528 0.000000
O O9 0.993080 0.953256 0.342548
O O10 0.961071 0.851777 0.104645
O O11 0.833739 0.928459 0.708372
O O12 0.867368 0.885288 0.077485
O O13 0.818677 0.817115 0.504395
O O14 0.000000 0.779950 0.000000
O O15 0.704536 0.897775 0.113463
O O16 0.723102 0.000000 0.239681
O O17 0.720060 0.653805 0.900807
#
# Coordination Sequence:
#
# PCOD9214001 Si02
#       8
#     8   8   8   8   8   8   2   8
#     4  11  24  43  63  85 118 157 201 250 306 366
#     4   9  19  38  64  90 121 163 206 245 292 354
#     4   9  21  35  56  88 123 162 200 238 287 356
#     4  10  22  40  61  86 120 157 197 247 305 356
#     4   9  18  39  56  83 123 155 191 247 300 354
#     4  11  23  39  61  89 119 154 200 252 306 361
#     4  12  20  32  62  88 126 160 214 232 290 356
#     4  10  22  39  61  89 121 158 203 247 299 358
#
# _framework density 20.660910999999999
#
# number of rings (size 3 to 8) (size 9 to 14) (size 15 to 20)
#    0.000    2.069    0.690    2.483    6.759    1.655 
#    0.000    1.724    0.000    2.897    0.000    0.000 
#    0.000    0.000    0.000    0.000    0.000    0.000 
#
# Total GULP energy -161483.226823 kJ/mol
# GULP energy per Si atom -5568.387132 kJ/mol
# Density = 2.061389 g / cm^3
# Si number density = 20.660911 Si / 1000 Ang^3
#
#
#
# Elastic Constant Matrix: (Units=GPa)
#
#
# Indices 1 2 3 4 5 6 
#
# 1 86.3219 30.7723 26.5731 0.0000 -12.7745 0.0000
# 2 30.7723 103.8563 21.7149 0.0000 -1.2032 0.0000
# 3 26.5731 21.7149 36.2014 0.0000 1.2688 0.0000
# 4 0.0000 0.0000 0.0000 12.6920 0.0000 -5.0841
# 5 -12.7745 -1.2032 1.2688 0.0000 16.9079 0.0000
# 6 0.0000 0.0000 0.0000 -5.0841 0.0000 3.4791
#
#
#
# Elastic Compliance Matrix: (Units=1/GPa)
#
#
# Indices 1 2 3 4 5 6 
#
# 1 0.018607 -0.002718 -0.012547 0.000000 0.014806 0.000000
# 2 -0.002718 0.011434 -0.004833 0.000000 -0.000877 0.000000
# 3 -0.012547 -0.004833 0.040182 0.000000 -0.012839 0.000000
# 4 0.000000 0.000000 0.000000 0.190025 0.000000 0.277688
# 5 0.014806 -0.000877 -0.012839 0.000000 0.071232 0.000000
# 6 0.000000 0.000000 0.000000 0.277688 0.000000 0.693222
#
#
# Mechanical properties :
#
#
# Convention : Reuss Voigt Hill
#
# Bulk Modulus (GPa) = 33.30239 42.72226 38.01232
# Shear Modulus (GPa) = 4.65157 16.43708 10.54432
#
# Velocity S-wave (km/s) = 1.50209 2.82363 2.26155
# Velocity P-wave (km/s) = 4.37743 5.59940 5.02569
#
# Compressibility (1/GPa) = 0.03002788
#
# Stress axis : x y z
#
# Youngs Moduli (GPa) = 53.74306 87.45529 24.88700
#
# Poissons Ratio (x) = 0.23774 0.31225
# Poissons Ratio (y) = 0.14609 0.12027
# Poissons Ratio (z) = 0.67429 0.42264
#
# Static dielectric constant tensor:
#      x y z
#    x 1.716370 0.000000 0.003200 
#    y 0.000000 1.716330 0.000000 
#    z 0.003200 0.000000 1.777760 
# 
# From -- ./inp_files/106908.got.cif
#   From: 2010.05.17/outbox.cif.g08.bks.cpg/sg12_54_cif.got.tgz:106908.got - 2010.06.03 13:09:07.
