data_PCOD9214508
_publ_section_title
;
Structure prediction by ZEFSAII (Michael W. Deem and Ramdas Pophale) SiO2 
 PCOD9214508
Probable space group: C 2/M
;
_chemical_formula_sum "Si O2"
_cell_formula_units_Z 64
_cell_length_a 21.353051
_cell_length_b 14.297703
_cell_length_c 15.754300
_cell_angle_alpha 90.000000
_cell_angle_beta 42.845085
_cell_angle_gamma 90.000000
_cell_volume 3270.739964
_symmetry_space_group_name_H-M "C 2/M"
_symmetry_group_IT_number 12
_symmetry_cell_setting 'monoclinic'
loop_
_space_group_symop_operation_xyz
x,y,z
-x,y,-z
-x,-y,-z
x,-y,z
1/2+x,1/2+y,z
1/2-x,1/2+y,-z
1/2-x,1/2-y,-z
1/2+x,1/2-y,z
loop_
_atom_site_type_symbol
_atom_site_label
_atom_site_fract_x
_atom_site_fract_y
_atom_site_fract_z
Si Si1 0.095363 0.110812 0.577401
Si Si2 0.590331 0.893511 0.352177
Si Si3 0.779809 0.391604 0.128480
Si Si4 0.705261 0.609247 0.799138
Si Si5 0.905108 0.799527 0.742871
Si Si6 0.886420 0.220942 0.958757
Si Si7 0.100519 0.213546 0.752080
Si Si8 0.702713 0.106959 0.690986
O O1 0.108441 0.157527 0.656495
O O2 0.189393 0.125289 0.432711
O O3 0.004989 0.156477 0.626233
O O4 0.080260 0.000000 0.601636
O O5 0.500000 0.884272 0.500000
O O6 0.684183 0.882515 0.313041
O O7 0.591793 0.809847 0.283400
O O8 0.591716 0.000000 0.315747
O O9 0.781390 0.500000 0.101585
O O10 0.676381 0.351366 0.225605
O O11 0.813548 0.384368 0.192193
O O12 0.843155 0.323826 0.010006
O O13 0.680752 0.500000 0.821512
O O14 0.656890 0.662124 0.769933
O O15 0.671012 0.655363 0.920851
O O16 0.883837 0.811095 0.863950
O O17 0.992735 0.219655 0.881037
O O18 0.142324 0.317056 0.702707
O O19 0.683617 0.000000 0.683954
#
# Coordination Sequence:
#
# PCOD9214508 Si02
#       8
#     8   8   8   8   8   8   8   8
#     4  10  23  40  61  92 124 156 200 259 307 359
#     4  10  23  42  65  95 126 157 200 253 306 366
#     4  11  23  39  61  88 121 162 204 246 302 366
#     4  11  23  40  66  91 120 161 204 253 306 362
#     4  11  23  39  64  91 122 162 202 252 305 365
#     4  11  24  40  57  91 123 158 207 251 302 356
#     4  11  22  40  64  87 124 160 208 251 306 362
#     4  10  22  40  61  89 122 158 204 249 305 366
#
# _framework density 19.567439
#
# number of rings (size 3 to 8) (size 9 to 14) (size 15 to 20)
#    0.000    1.375    2.500    1.875    3.500    4.500 
#    0.000    5.000    0.000    0.000    0.000    0.000 
#    0.000    0.000    0.000    0.000    0.000    0.000 
#
# Total GULP energy -178849.183567 kJ/mol
# GULP energy per Si atom -5589.036986 kJ/mol
# Density = 1.952290 g / cm^3
# Si number density = 19.567439 Si / 1000 Ang^3
#
#
#
# Elastic Constant Matrix: (Units=GPa)
#
#
# Indices 1 2 3 4 5 6 
#
# 1 58.5891 27.1896 5.7003 0.0000 -16.6889 0.0000
# 2 27.1896 98.3145 13.6283 0.0000 -17.9936 0.0000
# 3 5.7003 13.6283 41.7821 0.0000 -20.6636 0.0000
# 4 0.0000 0.0000 0.0000 -203.7116 0.0000 136.0188
# 5 -16.6889 -17.9936 -20.6636 0.0000 25.6471 0.0000
# 6 0.0000 0.0000 0.0000 136.0188 0.0000 -57.6364
#
#
#
# Elastic Compliance Matrix: (Units=1/GPa)
#
#
# Indices 1 2 3 4 5 6 
#
# 1 0.023452 -0.004165 0.007084 0.000000 0.018046 0.000000
# 2 -0.004165 0.012414 -0.000854 0.000000 0.005311 0.000000
# 3 0.007084 -0.000854 0.041941 0.000000 0.037801 0.000000
# 4 0.000000 0.000000 0.000000 0.008526 0.000000 0.020121
# 5 0.018046 0.005311 0.037801 0.000000 0.084915 0.000000
# 6 0.000000 0.000000 0.000000 0.020121 0.000000 0.030135
#
#
# Mechanical properties :
#
#
# Convention : Reuss Voigt Hill
#
# Bulk Modulus (GPa) = 12.20484 32.41358 22.30921
# Shear Modulus (GPa) = 22.26512 -36.99568 -7.36528
#
# Velocity S-wave (km/s) = 3.37689 -4.35291 -1.94222
# Velocity P-wave (km/s) = 4.63199 2.94325 2.52909
#
# Compressibility (1/GPa) = 0.08193472
#
# Stress axis : x y z
#
# Youngs Moduli (GPa) = 42.64040 80.55618 23.84312
#
# Poissons Ratio (x) = 0.33552 -0.16889
# Poissons Ratio (y) = 0.17760 0.02037
# Poissons Ratio (z) = -0.30205 0.06883
#
# Static dielectric constant tensor:
#      x y z
#    x 1.662800 0.000000 -0.009070 
#    y 0.000000 1.682830 0.000000 
#    z -0.009070 0.000000 1.663870 
# 
# From -- ./inp_files/225669.got.cif
#   From: 2010.05.17/outbox.cif.g08.bks.cpg/sg12_113_cif.got.tgz:225669.got - 2010.06.03 13:09:07.
