data_PCOD9214706
_publ_section_title
;
Structure prediction by ZEFSAII (Michael W. Deem and Ramdas Pophale) SiO2 
 PCOD9214706
Probable space group: C 2/M
;
_chemical_formula_sum "Si O2"
_cell_formula_units_Z 56
_cell_length_a 18.962034
_cell_length_b 8.775216
_cell_length_c 18.374346
_cell_angle_alpha 90.000000
_cell_angle_beta 68.149490
_cell_angle_gamma 90.000000
_cell_volume 2837.765971
_symmetry_space_group_name_H-M "C 2/M"
_symmetry_group_IT_number 12
_symmetry_cell_setting 'monoclinic'
loop_
_space_group_symop_operation_xyz
x,y,z
-x,y,-z
-x,-y,-z
x,-y,z
1/2+x,1/2+y,z
1/2-x,1/2+y,-z
1/2-x,1/2-y,-z
1/2+x,1/2-y,z
loop_
_atom_site_type_symbol
_atom_site_label
_atom_site_fract_x
_atom_site_fract_y
_atom_site_fract_z
Si Si1 0.439273 0.178729 0.966670
Si Si2 0.073424 0.685462 0.518141
Si Si3 0.268304 0.177094 0.070570
Si Si4 0.777576 0.316159 0.628268
Si Si5 0.972793 0.819284 0.798836
Si Si6 0.335371 0.181394 0.767386
Si Si7 0.110740 0.682881 0.666963
O O1 0.441826 0.263270 0.888825
O O2 0.455778 0.000000 0.945096
O O3 0.500000 0.241221 0.000000
O O4 0.358913 0.184659 0.037957
O O5 0.071175 0.500000 0.517188
O O6 0.153328 0.731152 0.450965
O O7 0.076508 0.730406 0.601442
O O8 0.000000 0.738024 0.500000
O O9 0.226728 0.267958 0.149728
O O10 0.244247 0.000000 0.082281
O O11 0.250000 0.250000 0.000000
O O12 0.769417 0.500000 0.626621
O O13 0.805367 0.278235 0.699085
O O14 0.696813 0.241589 0.641515
O O15 0.913513 0.760272 0.761090
O O16 0.055092 0.749321 0.749662
O O17 0.976842 0.000000 0.796135
O O18 0.347139 0.000000 0.765576
O O19 0.110358 0.500000 0.670767
#
# Coordination Sequence:
#
# PCOD9214706 Si02
#       7
#     8   8   8   8   8   8   8
#     4  10  23  42  63  88 120 160 203 251 305 362
#     4   9  18  37  65  93 122 161 205 247 297 358
#     4  11  22  38  62  90 122 159 202 254 305 360
#     4  10  22  40  63  93 127 161 203 251 299 358
#     4  12  25  41  62  89 122 160 205 256 306 363
#     4  11  23  40  63  89 122 162 205 253 306 364
#     4  11  23  39  63  91 125 165 203 248 305 362
#
# _framework density 19.733834000000002
#
# number of rings (size 3 to 8) (size 9 to 14) (size 15 to 20)
#    0.000    1.429    1.429    3.857    2.000    4.286 
#    0.000    0.714    0.000    3.000    0.000    0.000 
#    0.000    0.000    0.000    0.000    0.000    0.000 
#
# Total GULP energy -156502.573417 kJ/mol
# GULP energy per Si atom -5589.377622 kJ/mol
# Density = 1.968892 g / cm^3
# Si number density = 19.733834 Si / 1000 Ang^3
#
#
#
# Elastic Constant Matrix: (Units=GPa)
#
#
# Indices 1 2 3 4 5 6 
#
# 1 107.7495 31.1346 13.6246 0.0000 -4.9475 0.0000
# 2 31.1346 50.1282 15.4173 0.0000 2.5097 0.0000
# 3 13.6246 15.4173 71.5364 0.0000 -14.6227 0.0000
# 4 0.0000 0.0000 0.0000 13.3013 0.0000 -5.8107
# 5 -4.9475 2.5097 -14.6227 0.0000 32.1070 0.0000
# 6 0.0000 0.0000 0.0000 -5.8107 0.0000 29.5219
#
#
#
# Elastic Compliance Matrix: (Units=1/GPa)
#
#
# Indices 1 2 3 4 5 6 
#
# 1 0.011484 -0.007191 -0.000177 0.000000 0.002251 0.000000
# 2 -0.007191 0.026382 -0.005474 0.000000 -0.005663 0.000000
# 3 -0.000177 -0.005474 0.016842 0.000000 0.008071 0.000000
# 4 0.000000 0.000000 0.000000 0.082253 0.000000 0.016190
# 5 0.002251 -0.005663 0.008071 0.000000 0.035611 0.000000
# 6 0.000000 0.000000 0.000000 0.016190 0.000000 0.037060
#
#
# Mechanical properties :
#
#
# Convention : Reuss Voigt Hill
#
# Bulk Modulus (GPa) = 34.45396 38.86300 36.65848
# Shear Modulus (GPa) = 20.40879 26.26856 23.33867
#
# Velocity S-wave (km/s) = 3.21939 3.65244 3.44273
# Velocity P-wave (km/s) = 5.59612 6.12564 5.86686
#
# Compressibility (1/GPa) = 0.02902424
#
# Stress axis : x y z
#
# Youngs Moduli (GPa) = 87.07406 37.90418 59.37470
#
# Poissons Ratio (x) = 0.27257 0.01053
# Poissons Ratio (y) = 0.62616 0.32501
# Poissons Ratio (z) = 0.01544 0.20748
#
# Static dielectric constant tensor:
#      x y z
#    x 1.701500 0.000000 0.002020 
#    y 0.000000 1.671950 0.000000 
#    z 0.002020 0.000000 1.656160 
# 
# From -- ./inp_files/275307.got.cif
#   From: 2010.05.17/outbox.cif.g08.bks.cpg/sg12_138_cif.got.tgz:275307.got - 2010.06.03 13:09:07.
