data_PCOD9214942
_publ_section_title
;
Structure prediction by ZEFSAII (Michael W. Deem and Ramdas Pophale) SiO2 
 PCOD9214942
Probable space group: C 2/M
;
_chemical_formula_sum "Si O2"
_cell_formula_units_Z 60
_cell_length_a 18.405509
_cell_length_b 25.276485
_cell_length_c 6.937654
_cell_angle_alpha 90.000000
_cell_angle_beta 118.170548
_cell_angle_gamma 90.000000
_cell_volume 2845.261895
_symmetry_space_group_name_H-M "C 2/M"
_symmetry_group_IT_number 12
_symmetry_cell_setting 'monoclinic'
loop_
_space_group_symop_operation_xyz
x,y,z
-x,y,-z
-x,-y,-z
x,-y,z
1/2+x,1/2+y,z
1/2-x,1/2+y,-z
1/2-x,1/2-y,-z
1/2+x,1/2-y,z
loop_
_atom_site_type_symbol
_atom_site_label
_atom_site_fract_x
_atom_site_fract_y
_atom_site_fract_z
Si Si1 0.000000 0.105733 0.000000
Si Si2 0.242789 0.700536 0.340191
Si Si3 0.284032 0.871272 0.996599
Si Si4 0.210281 0.560170 0.383528
Si Si5 0.170070 0.061196 0.114735
Si Si6 0.939242 0.693544 0.744932
Si Si7 0.063371 0.185941 0.402190
Si Si8 0.421340 0.095946 0.476729
O O1 0.073462 0.070080 0.011581
O O2 0.036054 0.144710 0.206393
O O3 0.250000 0.750000 0.500000
O O4 0.221217 0.689765 0.083851
O O5 0.155796 0.680982 0.320799
O O6 0.337340 0.679458 0.451352
O O7 0.289217 0.904070 0.804682
O O8 0.206552 0.894797 0.016336
O O9 0.359635 0.885515 0.230587
O O10 0.215443 0.500000 0.324288
O O11 0.286546 0.570903 0.623815
O O12 0.131814 0.567297 0.425295
O O13 0.190040 0.000000 0.085017
O O14 0.946659 0.752908 0.675096
O O15 0.959635 0.647913 0.622515
O O16 0.000000 0.689029 0.000000
O O17 0.000000 0.177918 0.500000
O O18 0.500000 0.064159 0.500000
#
# Coordination Sequence:
#
# PCOD9214942 Si02
#       8
#     4   8   8   8   8   8   8   8
#     4  12  23  40  68  92 142 174 217 288 336 398
#     4  10  22  40  66  92 130 177 224 272 335 402
#     4  11  21  42  67  94 132 173 225 278 337 401
#     4  10  22  42  66  91 132 172 215 282 342 402
#     4  10  23  41  68 101 131 174 226 274 346 414
#     4  11  22  44  66  91 136 177 225 275 338 399
#     4  11  24  42  62  97 131 179 223 278 336 400
#     4  11  24  38  65  96 126 174 224 275 333 408
#
# _framework density 21.087691
#
# number of rings (size 3 to 8) (size 9 to 14) (size 15 to 20)
#    0.000    1.333    2.000    3.400    1.867    0.800 
#    0.000    2.667    0.000    4.000    0.000    0.000 
#    0.000    0.000    0.000    0.000    0.000    0.000 
#
# Total GULP energy -167061.633319 kJ/mol
# GULP energy per Si atom -5568.721111 kJ/mol
# Density = 2.103969 g / cm^3
# Si number density = 21.087691 Si / 1000 Ang^3
#
#
#
# Elastic Constant Matrix: (Units=GPa)
#
#
# Indices 1 2 3 4 5 6 
#
# 1 138.9266 -8.6691 13.0781 0.0000 4.8535 0.0000
# 2 -8.6691 62.2474 5.9753 0.0000 -17.4556 0.0000
# 3 13.0781 5.9753 62.0028 0.0000 -9.5415 0.0000
# 4 0.0000 0.0000 0.0000 4.8150 0.0000 -3.8070
# 5 4.8535 -17.4556 -9.5415 0.0000 19.6498 0.0000
# 6 0.0000 0.0000 0.0000 -3.8070 0.0000 12.1035
#
#
#
# Elastic Compliance Matrix: (Units=1/GPa)
#
#
# Indices 1 2 3 4 5 6 
#
# 1 0.007503 0.000593 -0.001993 0.000000 -0.002294 0.000000
# 2 0.000593 0.021491 0.000777 0.000000 0.019322 0.000000
# 3 -0.001993 0.000777 0.018001 0.000000 0.009923 0.000000
# 4 0.000000 0.000000 0.000000 0.276433 0.000000 0.086949
# 5 -0.002294 0.019322 0.009923 0.000000 0.073441 0.000000
# 6 0.000000 0.000000 0.000000 0.086949 0.000000 0.109970
#
#
# Mechanical properties :
#
#
# Convention : Reuss Voigt Hill
#
# Bulk Modulus (GPa) = 21.85804 31.54950 26.70377
# Shear Modulus (GPa) = 9.55414 24.16648 16.86031
#
# Velocity S-wave (km/s) = 2.13085 3.38893 2.83067
# Velocity P-wave (km/s) = 4.05485 5.50516 4.83470
#
# Compressibility (1/GPa) = 0.04574976
#
# Stress axis : x y z
#
# Youngs Moduli (GPa) = 133.28395 46.53042 55.55304
#
# Poissons Ratio (x) = -0.02759 0.11070
# Poissons Ratio (y) = -0.07902 -0.04318
# Poissons Ratio (z) = 0.26560 -0.03617
#
# Static dielectric constant tensor:
#      x y z
#    x 1.777780 0.000000 -0.001340 
#    y 0.000000 1.820500 0.000000 
#    z -0.001340 0.000000 1.740830 
# 
# From -- ./inp_files/18357.got.cif
#   From: 2010.05.17/outbox.cif.g08.bks.cpg/sg12_10_cif.got.tgz:18357.got - 2010.06.03 13:09:07.
