data_PCOD9214137
_publ_section_title
;
Structure prediction by ZEFSAII (Michael W. Deem and Ramdas Pophale) SiO2 
 PCOD9214137
Probable space group: C 2/M
;
_chemical_formula_sum "Si O2"
_cell_formula_units_Z 56
_cell_length_a 13.401131
_cell_length_b 19.970380
_cell_length_c 15.988792
_cell_angle_alpha 90.000000
_cell_angle_beta 147.812465
_cell_angle_gamma 90.000000
_cell_volume 2279.395817
_symmetry_space_group_name_H-M "C 2/M"
_symmetry_group_IT_number 12
_symmetry_cell_setting 'monoclinic'
loop_
_space_group_symop_operation_xyz
x,y,z
-x,y,-z
-x,-y,-z
x,-y,z
1/2+x,1/2+y,z
1/2-x,1/2+y,-z
1/2-x,1/2-y,-z
1/2+x,1/2-y,z
loop_
_atom_site_type_symbol
_atom_site_label
_atom_site_fract_x
_atom_site_fract_y
_atom_site_fract_z
Si Si1 0.438741 0.000000 0.554670
Si Si2 0.718587 0.923484 0.340207
Si Si3 0.224654 0.631897 0.163449
Si Si4 0.769725 0.423171 0.014716
Si Si5 0.894836 0.730631 0.335258
Si Si6 0.580326 0.357753 0.189869
Si Si7 0.330074 0.500000 0.817410
Si Si8 0.275941 0.858282 0.495075
O O1 0.500000 0.000000 0.500000
O O2 0.339504 0.932883 0.512654
O O3 0.643538 0.000000 0.740318
O O4 0.766268 0.907961 0.278382
O O5 0.793669 0.869619 0.460155
O O6 0.772006 0.000000 0.397664
O O7 0.491565 0.917543 0.186000
O O8 0.269091 0.592089 0.110672
O O9 0.330164 0.701698 0.246477
O O10 0.000000 0.643716 0.000000
O O11 0.711086 0.500000 0.986538
O O12 0.641792 0.370375 0.974732
O O13 0.702835 0.689992 0.218514
O O14 0.000000 0.739085 0.500000
O O15 0.043829 0.689229 0.385859
O O16 0.660158 0.431988 0.227947
O O17 0.631588 0.336859 0.320915
O O18 0.500000 0.500000 0.000000
#
# Coordination Sequence:
#
# PCOD9214137 Si02
#       8
#     4   8   8   8   8   8   4   8
#     4  12  18  36  58  83 124 165 191 236 297 359
#     4  10  22  39  64  91 116 153 205 249 302 359
#     4  10  23  44  62  83 117 162 205 254 298 350
#     4  10  22  39  63  89 121 153 197 254 308 350
#     4  10  23  41  61  85 122 164 201 238 295 362
#     4  11  22  38  57  91 124 156 193 245 300 355
#     4  12  24  32  56  91 128 159 193 240 301 359
#     4  11  21  36  61  89 120 158 196 242 298 358
#
# _framework density 24.567913999999998
#
# number of rings (size 3 to 8) (size 9 to 14) (size 15 to 20)
#    0.000    1.429    4.286    0.857    2.000    5.714 
#    0.000    5.714    0.000    2.571    0.000    0.000 
#    0.000    0.000    0.000    0.000    0.000    0.000 
#
# Total GULP energy -156752.840872 kJ/mol
# GULP energy per Si atom -5598.315745 kJ/mol
# Density = 2.451200 g / cm^3
# Si number density = 24.567914 Si / 1000 Ang^3
#
#
#
# Elastic Constant Matrix: (Units=GPa)
#
#
# Indices 1 2 3 4 5 6 
#
# 1 101.7285 34.0520 32.2949 0.0010 -14.1075 0.0003
# 2 34.0520 89.4627 25.2741 -0.0004 -8.0833 -0.0006
# 3 32.2949 25.2741 58.0458 0.0017 -2.8808 -0.0004
# 4 0.0010 -0.0004 0.0017 8.0797 -0.0003 -8.5188
# 5 -14.1075 -8.0833 -2.8808 -0.0003 52.7615 -0.0005
# 6 0.0003 -0.0006 -0.0004 -8.5188 -0.0005 25.7488
#
#
#
# Elastic Compliance Matrix: (Units=1/GPa)
#
#
# Indices 1 2 3 4 5 6 
#
# 1 0.013082 -0.003098 -0.005795 -0.000001 0.002707 -0.000001
# 2 -0.003098 0.013625 -0.004158 0.000004 0.001032 0.000001
# 3 -0.005795 -0.004158 0.022214 -0.000006 -0.000974 -0.000002
# 4 -0.000001 0.000004 -0.000006 0.190065 0.000002 0.062882
# 5 0.002707 0.001032 -0.000974 0.000002 0.019782 0.000001
# 6 -0.000001 0.000001 -0.000002 0.062882 0.000001 0.059641
#
#
# Mechanical properties :
#
#
# Convention : Reuss Voigt Hill
#
# Bulk Modulus (GPa) = 43.82220 48.05321 45.93770
# Shear Modulus (GPa) = 14.19981 27.82574 21.01277
#
# Velocity S-wave (km/s) = 2.40673 3.36907 2.92771
# Velocity P-wave (km/s) = 5.05955 5.89372 5.49250
#
# Compressibility (1/GPa) = 0.02281949
#
# Stress axis : x y z
#
# Youngs Moduli (GPa) = 76.43983 73.39590 45.01616
#
# Poissons Ratio (x) = 0.22735 0.26089
# Poissons Ratio (y) = 0.23678 0.18717
# Poissons Ratio (z) = 0.44300 0.30517
#
# Static dielectric constant tensor:
#      x y z
#    x 1.982460 0.000000 0.003180 
#    y 0.000000 1.877250 0.000000 
#    z 0.003180 0.000000 2.052090 
# 
# From -- ./inp_files/64113.got.cif
#   From: 2010.05.17/outbox.cif.g08.bks.cpg/sg12_33_cif.got.tgz:64113.got - 2010.06.03 13:09:07.
