data_PCOD9214994
_publ_section_title
;
Structure prediction by ZEFSAII (Michael W. Deem and Ramdas Pophale) SiO2 
 PCOD9214994
Probable space group: C 2/M
;
_chemical_formula_sum "Si O2"
_cell_formula_units_Z 48
_cell_length_a 19.711778
_cell_length_b 14.982566
_cell_length_c 19.220930
_cell_angle_alpha 90.000000
_cell_angle_beta 26.409850
_cell_angle_gamma 90.000000
_cell_volume 2524.879111
_symmetry_space_group_name_H-M "C 2/M"
_symmetry_group_IT_number 12
_symmetry_cell_setting 'monoclinic'
loop_
_space_group_symop_operation_xyz
x,y,z
-x,y,-z
-x,-y,-z
x,-y,z
1/2+x,1/2+y,z
1/2-x,1/2+y,-z
1/2-x,1/2-y,-z
1/2+x,1/2-y,z
loop_
_atom_site_type_symbol
_atom_site_label
_atom_site_fract_x
_atom_site_fract_y
_atom_site_fract_z
Si Si1 0.861762 0.297982 0.453022
Si Si2 0.352418 0.500000 0.682966
Si Si3 0.326941 0.824382 0.642767
Si Si4 0.631750 0.500000 0.818945
Si Si5 0.827718 0.807298 0.869079
Si Si6 0.450927 0.500000 0.753050
Si Si7 0.671287 0.826217 0.869803
Si Si8 0.249896 0.000000 0.554388
O O1 0.750000 0.250000 0.500000
O O2 0.813332 0.283880 0.577759
O O3 0.846664 0.407278 0.461974
O O4 0.026353 0.250912 0.291180
O O5 0.500000 0.500000 0.500000
O O6 0.411870 0.500000 0.707475
O O7 0.246596 0.414959 0.770354
O O8 0.500000 0.848590 0.500000
O O9 0.225196 0.910750 0.745685
O O10 0.270388 0.753486 0.749285
O O11 0.637784 0.500000 0.726776
O O12 0.500000 0.500000 0.000000
O O13 0.884622 0.905573 0.841241
O O14 0.703054 0.824614 0.923005
O O15 0.750000 0.750000 0.000000
O O16 0.630865 0.500000 0.600752
O O17 0.500000 0.817348 0.000000
#
# Coordination Sequence:
#
# PCOD9214994 Si02
#       8
#     8   4   8   4   8   4   8   4
#     4  11  23  41  67  94 127 167 221 267 320 392
#     4  10  23  41  65  94 128 165 210 273 323 380
#     4  11  22  41  64  91 125 169 217 267 318 381
#     4  10  23  39  61  94 129 165 214 269 324 379
#     4  11  25  43  64  95 134 171 213 274 331 385
#     4  10  22  42  63  92 129 164 215 263 320 392
#     4  11  24  41  65  94 130 169 217 265 328 387
#     4  10  22  40  67  96 127 170 221 262 325 395
#
# _framework density 19.010811
#
# number of rings (size 3 to 8) (size 9 to 14) (size 15 to 20)
#    0.000    1.333    3.333    1.500    4.667    2.000 
#    0.000    0.000    0.000    0.000    0.000    0.000 
#    0.000    0.000    0.000    0.000    0.000    0.000 
#
# Total GULP energy -133778.593389 kJ/mol
# GULP energy per Si atom -5574.108058 kJ/mol
# Density = 1.896754 g / cm^3
# Si number density = 19.010811 Si / 1000 Ang^3
#
#
#
# Elastic Constant Matrix: (Units=GPa)
#
#
# Indices 1 2 3 4 5 6 
#
# 1 62.7852 14.9346 26.3848 0.0005 -12.5000 -0.0003
# 2 14.9346 120.8884 40.8492 0.0002 11.0228 0.0000
# 3 26.3848 40.8492 112.8265 0.0007 -1.2723 -0.0002
# 4 0.0005 0.0002 0.0007 32.7093 -0.0003 -2.8775
# 5 -12.5000 11.0228 -1.2723 -0.0003 28.2476 0.0001
# 6 -0.0003 0.0000 -0.0002 -2.8775 0.0001 31.8460
#
#
#
# Elastic Compliance Matrix: (Units=1/GPa)
#
#
# Indices 1 2 3 4 5 6 
#
# 1 0.019886 -0.002028 -0.003810 0.000000 0.009420 0.000000
# 2 -0.002028 0.010066 -0.003226 0.000000 -0.004971 0.000000
# 3 -0.003810 -0.003226 0.010923 0.000000 0.000065 0.000000
# 4 0.000000 0.000000 0.000000 0.030817 0.000000 0.002785
# 5 0.009420 -0.004971 0.000065 0.000000 0.041512 0.000000
# 6 0.000000 0.000000 0.000000 0.002785 0.000000 0.031653
#
#
# Mechanical properties :
#
#
# Convention : Reuss Voigt Hill
#
# Bulk Modulus (GPa) = 43.96278 51.20414 47.58346
# Shear Modulus (GPa) = 29.31376 32.84936 31.08156
#
# Velocity S-wave (km/s) = 3.93103 4.16135 4.04783
# Velocity P-wave (km/s) = 6.61660 7.07685 6.85059
#
# Compressibility (1/GPa) = 0.02274651
#
# Stress axis : x y z
#
# Youngs Moduli (GPa) = 50.28601 99.34366 91.55071
#
# Poissons Ratio (x) = 0.20150 0.34880
# Poissons Ratio (y) = 0.10199 0.29536
# Poissons Ratio (z) = 0.19158 0.32050
#
# Static dielectric constant tensor:
#      x y z
#    x 1.678300 0.000000 0.008170 
#    y 0.000000 1.675750 0.000000 
#    z 0.008170 0.000000 1.630890 
# 
# From -- ./inp_files/278081.got.cif
#   From: 2010.05.17/outbox.cif.g08.bks.cpg/sg12_140_cif.got.tgz:278081.got - 2010.06.03 13:09:07.
