data_PCOD9214304
_publ_section_title
;
Structure prediction by ZEFSAII (Michael W. Deem and Ramdas Pophale) SiO2 
 PCOD9214304
Probable space group: C 2/M
;
_chemical_formula_sum "Si O2"
_cell_formula_units_Z 48
_cell_length_a 16.458891
_cell_length_b 15.020568
_cell_length_c 16.743096
_cell_angle_alpha 90.000000
_cell_angle_beta 145.622406
_cell_angle_gamma 90.000000
_cell_volume 2337.209457
_symmetry_space_group_name_H-M "C 2/M"
_symmetry_group_IT_number 12
_symmetry_cell_setting 'monoclinic'
loop_
_space_group_symop_operation_xyz
x,y,z
-x,y,-z
-x,-y,-z
x,-y,z
1/2+x,1/2+y,z
1/2-x,1/2+y,-z
1/2-x,1/2-y,-z
1/2+x,1/2-y,z
loop_
_atom_site_type_symbol
_atom_site_label
_atom_site_fract_x
_atom_site_fract_y
_atom_site_fract_z
Si Si1 0.422176 0.500000 0.554387
Si Si2 0.065825 0.600667 0.670016
Si Si3 0.231480 0.000000 0.740898
Si Si4 0.398642 0.205343 0.144920
Si Si5 0.904813 0.677009 0.849674
Si Si6 0.639407 0.331375 0.391377
Si Si7 0.289070 0.836271 0.359680
O O1 0.597375 0.500000 0.693965
O O2 0.352643 0.500000 0.411071
O O3 0.364793 0.410752 0.549925
O O4 0.009815 0.500000 0.626754
O O5 0.113093 0.631447 0.795535
O O6 0.188525 0.608392 0.702522
O O7 0.939639 0.662233 0.530404
O O8 0.333640 0.086214 0.823622
O O9 0.491614 0.170689 0.144300
O O10 0.487983 0.284074 0.259135
O O11 0.250000 0.250000 0.000000
O O12 0.773875 0.741417 0.718024
O O13 0.000000 0.714905 0.000000
O O14 0.750000 0.250000 0.500000
O O15 0.679938 0.370967 0.337768
#
# Coordination Sequence:
#
# PCOD9214304 Si02
#       7
#     4   8   4   8   8   8   8
#     4  11  26  40  70 100 141 169 234 297 346 406
#     4  11  24  40  70 104 134 173 229 284 344 417
#     4  11  27  42  66 103 132 186 233 287 346 406
#     4  11  25  44  70 100 138 180 228 277 349 408
#     4  11  25  44  69  93 137 187 229 280 345 418
#     4  11  23  43  68  97 135 180 223 284 347 413
#     4  10  22  39  70  96 132 172 226 283 344 409
#
# _framework density 20.537312
#
# number of rings (size 3 to 8) (size 9 to 14) (size 15 to 20)
#    0.000    1.167    1.667    4.250    8.167    1.333 
#    1.500    0.000    0.000    4.000    0.000    0.000 
#    0.000    0.000    0.000    0.000    0.000    0.000 
#
# Total GULP energy -133957.689866 kJ/mol
# GULP energy per Si atom -5581.570411 kJ/mol
# Density = 2.049057 g / cm^3
# Si number density = 20.537312 Si / 1000 Ang^3
#
#
#
# Elastic Constant Matrix: (Units=GPa)
#
#
# Indices 1 2 3 4 5 6 
#
# 1 96.8124 54.6199 19.8287 -0.0002 -18.7239 0.0000
# 2 54.6199 91.3944 56.0332 -0.0001 8.5630 0.0000
# 3 19.8287 56.0332 112.4054 -0.0006 1.5429 -0.0002
# 4 -0.0002 -0.0001 -0.0006 10.8000 -0.0003 -12.2753
# 5 -18.7239 8.5630 1.5429 -0.0003 34.6734 -0.0001
# 6 0.0000 0.0000 -0.0002 -12.2753 -0.0001 13.9753
#
#
#
# Elastic Compliance Matrix: (Units=1/GPa)
#
#
# Indices 1 2 3 4 5 6 
#
# 1 0.022738 -0.018058 0.004764 0.000758 0.016526 0.000666
# 2 -0.018058 0.030546 -0.011811 -0.000931 -0.016769 -0.000818
# 3 0.004764 -0.011811 0.013877 0.000729 0.004872 0.000641
# 4 0.000758 -0.000931 0.000729 55.744687 0.001240 48.963585
# 5 0.016526 -0.016769 0.004872 0.001240 0.041689 0.001089
# 6 0.000666 -0.000818 0.000641 48.963585 0.001089 43.078930
#
#
# Mechanical properties :
#
#
# Convention : Reuss Voigt Hill
#
# Bulk Modulus (GPa) = 58.99642 62.39731 60.69687
# Shear Modulus (GPa) = 0.05051 23.23175 11.64113
#
# Velocity S-wave (km/s) = 0.15700 3.36698 2.38340
# Velocity P-wave (km/s) = 5.36858 6.75009 6.09858
#
# Compressibility (1/GPa) = 0.01695018
#
# Stress axis : x y z
#
# Youngs Moduli (GPa) = 43.98002 32.73757 72.06169
#
# Poissons Ratio (x) = 0.59116 -0.34329
# Poissons Ratio (y) = 0.79418 0.85114
# Poissons Ratio (z) = -0.20951 0.38667
#
# Static dielectric constant tensor:
#      x y z
#    x 1.813250 0.000000 0.035990 
#    y 0.000000 1.728240 0.000000 
#    z 0.035990 0.000000 1.788200 
# 
# From -- ./inp_files/278253.got.cif
#   From: 2010.05.17/outbox.cif.g08.bks.cpg/sg12_140_cif.got.tgz:278253.got - 2010.06.03 13:09:07.
