data_PCOD9214217
_publ_section_title
;
Structure prediction by ZEFSAII (Michael W. Deem and Ramdas Pophale) SiO2 
 PCOD9214217
Probable space group: C 2/M
;
_chemical_formula_sum "Si O2"
_cell_formula_units_Z 32
_cell_length_a 11.421092
_cell_length_b 29.537807
_cell_length_c 10.000849
_cell_angle_alpha 90.000000
_cell_angle_beta 152.911735
_cell_angle_gamma 90.000000
_cell_volume 1536.314315
_symmetry_space_group_name_H-M "C 2/M"
_symmetry_group_IT_number 12
_symmetry_cell_setting 'monoclinic'
loop_
_space_group_symop_operation_xyz
x,y,z
-x,y,-z
-x,-y,-z
x,-y,z
1/2+x,1/2+y,z
1/2-x,1/2+y,-z
1/2-x,1/2-y,-z
1/2+x,1/2-y,z
loop_
_atom_site_type_symbol
_atom_site_label
_atom_site_fract_x
_atom_site_fract_y
_atom_site_fract_z
Si Si1 0.206275 0.449694 0.326646
Si Si2 0.995999 0.398958 0.344629
Si Si3 0.972684 0.135281 0.696226
Si Si4 0.995321 0.762764 0.653769
O O1 0.317919 0.500000 0.435378
O O2 0.406672 0.408604 0.538959
O O3 0.047898 0.441575 0.302038
O O4 0.000000 0.443891 0.000000
O O5 0.000000 0.412852 0.500000
O O6 0.231258 0.365009 0.552036
O O7 0.734155 0.375022 0.038045
O O8 0.988476 0.182649 0.639434
O O9 0.750000 0.750000 0.500000
O O10 0.000000 0.746476 0.500000
O O11 0.250000 0.750000 0.000000
#
# Coordination Sequence:
#
# PCOD9214217 Si02
#       4
#     8   8   8   8
#     4   9  22  41  66  98 135 178 226 276 335 410
#     4  10  22  39  64  96 130 177 222 281 333 401
#     4  10  24  41  69  94 135 176 222 276 345 405
#     4  12  28  47  74 106 141 184 237 296 357 426
#
# _framework density 20.829072
#
# number of rings (size 3 to 8) (size 9 to 14) (size 15 to 20)
#    1.500    0.250    0.000    3.000    3.500    7.500 
#    0.000    3.750    0.000    0.000    0.000    0.000 
#    0.000    0.000    0.000    0.000    0.000    0.000 
#
# Total GULP energy -89138.703688 kJ/mol
# GULP energy per Si atom -5571.168981 kJ/mol
# Density = 2.078166 g / cm^3
# Si number density = 20.829072 Si / 1000 Ang^3
#
#
#
# Elastic Constant Matrix: (Units=GPa)
#
#
# Indices 1 2 3 4 5 6 
#
# 1 217.8335 7.1666 24.5561 0.0000 -1.4557 0.0000
# 2 7.1666 128.4682 85.5203 0.0000 -14.8892 0.0000
# 3 24.5561 85.5203 244.6936 0.0000 -24.4547 0.0000
# 4 0.0000 0.0000 0.0000 16.3403 0.0000 42.2486
# 5 -1.4557 -14.8892 -24.4547 0.0000 61.4493 0.0000
# 6 0.0000 0.0000 0.0000 42.2486 0.0000 17.2098
#
#
#
# Elastic Compliance Matrix: (Units=1/GPa)
#
#
# Indices 1 2 3 4 5 6 
#
# 1 0.004644 0.000062 -0.000495 0.000000 -0.000072 0.000000
# 2 0.000062 0.010216 -0.003467 0.000000 0.001097 0.000000
# 3 -0.000495 -0.003467 0.005481 0.000000 0.001329 0.000000
# 4 0.000000 0.000000 0.000000 -0.011445 0.000000 0.028096
# 5 -0.000072 0.001097 0.001329 0.000000 0.017067 0.000000
# 6 0.000000 0.000000 0.000000 0.028096 0.000000 -0.010867
#
#
# Mechanical properties :
#
#
# Convention : Reuss Voigt Hill
#
# Bulk Modulus (GPa) = 79.73889 91.72013 85.72951
# Shear Modulus (GPa) = 184.66582 50.58338 117.62460
#
# Velocity S-wave (km/s) = 9.42604 4.93333 7.52290
# Velocity P-wave (km/s) = 12.52328 8.75103 10.80308
#
# Compressibility (1/GPa) = 0.01254093
#
# Stress axis : x y z
#
# Youngs Moduli (GPa) = 215.33476 97.88921 182.44928
#
# Poissons Ratio (x) = -0.00608 0.09030
# Poissons Ratio (y) = -0.01337 0.63254
# Poissons Ratio (z) = 0.10657 0.33938
#
# Static dielectric constant tensor:
#      x y z
#    x 1.808830 0.000000 0.017600 
#    y 0.000000 1.766420 0.000000 
#    z 0.017600 0.000000 1.705790 
# 
# From -- ./inp_files/54873.got.cif
#   From: 2010.05.17/outbox.cif.g08.bks.cpg/sg12_28_cif.got.tgz:54873.got - 2010.06.03 13:09:07.
