data_PCOD9214097
_publ_section_title
;
Structure prediction by ZEFSAII (Michael W. Deem and Ramdas Pophale) SiO2 
 PCOD9214097
Probable space group: C 2/M
;
_chemical_formula_sum "Si O2"
_cell_formula_units_Z 32
_cell_length_a 13.525627
_cell_length_b 23.320384
_cell_length_c 9.146691
_cell_angle_alpha 90.000000
_cell_angle_beta 150.151006
_cell_angle_gamma 90.000000
_cell_volume 1435.947458
_symmetry_space_group_name_H-M "C 2/M"
_symmetry_group_IT_number 12
_symmetry_cell_setting 'monoclinic'
loop_
_space_group_symop_operation_xyz
x,y,z
-x,y,-z
-x,-y,-z
x,-y,z
1/2+x,1/2+y,z
1/2-x,1/2+y,-z
1/2-x,1/2-y,-z
1/2+x,1/2-y,z
loop_
_atom_site_type_symbol
_atom_site_label
_atom_site_fract_x
_atom_site_fract_y
_atom_site_fract_z
Si Si1 0.261463 0.318345 0.924640
Si Si2 0.790153 0.431224 0.777850
Si Si3 0.602090 0.242136 0.443414
Si Si4 0.378381 0.432785 0.115328
O O1 0.229273 0.274621 0.748590
O O2 0.065181 0.308158 0.770347
O O3 0.460010 0.298087 0.262479
O O4 0.285577 0.382955 0.898391
O O5 0.811827 0.500000 0.810834
O O6 0.613001 0.422383 0.435786
O O7 0.715081 0.418422 0.844882
O O8 0.000000 0.405202 0.000000
O O9 0.750000 0.250000 0.500000
O O10 0.343838 0.500000 0.036316
#
# Coordination Sequence:
#
# PCOD9214097 Si02
#       4
#     8   8   8   8
#     4  10  22  39  62  93 120 154 207 252 304 370
#     4   8  15  29  49  77 117 167 211 237 275 349
#     4  10  22  42  63  83 116 159 206 259 301 348
#     4   9  18  33  55  87 127 161 194 249 311 368
#
# _framework density 22.284938
#
# number of rings (size 3 to 8) (size 9 to 14) (size 15 to 20)
#    0.000    2.750    0.000    2.250    0.000   10.000 
#    0.000    2.500    0.000    3.000    0.000    1.750 
#    0.000   14.000    0.000    0.000    0.000    0.000 
#
# Total GULP energy -89118.626190 kJ/mol
# GULP energy per Si atom -5569.914137 kJ/mol
# Density = 2.223422 g / cm^3
# Si number density = 22.284938 Si / 1000 Ang^3
#
#
#
# Elastic Constant Matrix: (Units=GPa)
#
#
# Indices 1 2 3 4 5 6 
#
# 1 120.1193 17.5501 47.7489 0.0000 31.4482 0.0000
# 2 17.5501 112.3486 35.4604 0.0000 -4.7283 0.0000
# 3 47.7489 35.4604 53.5412 0.0000 3.2105 0.0000
# 4 0.0000 0.0000 0.0000 26.2623 0.0000 2.4961
# 5 31.4482 -4.7283 3.2105 0.0000 32.1329 0.0000
# 6 0.0000 0.0000 0.0000 2.4961 0.0000 8.0760
#
#
#
# Elastic Compliance Matrix: (Units=1/GPa)
#
#
# Indices 1 2 3 4 5 6 
#
# 1 0.019519 0.001773 -0.017557 0.000000 -0.017088 0.000000
# 2 0.001773 0.011604 -0.009321 0.000000 0.000903 0.000000
# 3 -0.017557 -0.009321 0.039798 0.000000 0.011835 0.000000
# 4 0.000000 0.000000 0.000000 0.039230 0.000000 -0.012125
# 5 -0.017088 0.000903 0.011835 0.000000 0.046795 0.000000
# 6 0.000000 0.000000 0.000000 -0.012125 0.000000 0.127571
#
#
# Mechanical properties :
#
#
# Convention : Reuss Voigt Hill
#
# Bulk Modulus (GPa) = 48.28145 54.16976 51.22561
# Shear Modulus (GPa) = 14.63572 25.64423 20.13998
#
# Velocity S-wave (km/s) = 2.56550 3.39594 3.00950
# Velocity P-wave (km/s) = 5.52162 6.30374 5.92560
#
# Compressibility (1/GPa) = 0.02071189
#
# Stress axis : x y z
#
# Youngs Moduli (GPa) = 51.23267 86.17877 25.12676
#
# Poissons Ratio (x) = -0.15282 0.44115
# Poissons Ratio (y) = -0.09085 0.23420
# Poissons Ratio (z) = 0.89949 0.80325
#
# Static dielectric constant tensor:
#      x y z
#    x 1.889590 0.000000 0.002690 
#    y 0.000000 1.867050 0.000000 
#    z 0.002690 0.000000 1.876910 
# 
# From -- ./inp_files/67231.got.cif
#   From: 2010.05.17/outbox.cif.g08.bks.cpg/sg12_34_cif.got.tgz:67231.got - 2010.06.03 13:09:07.
