data_PCOD9214902
_publ_section_title
;
Structure prediction by ZEFSAII (Michael W. Deem and Ramdas Pophale) SiO2 
 PCOD9214902
Probable space group: C 2/M
;
_chemical_formula_sum "Si O2"
_cell_formula_units_Z 32
_cell_length_a 17.661052
_cell_length_b 18.916620
_cell_length_c 10.057762
_cell_angle_alpha 90.000000
_cell_angle_beta 30.343147
_cell_angle_gamma 90.000000
_cell_volume 1697.483676
_symmetry_space_group_name_H-M "C 2/M"
_symmetry_group_IT_number 12
_symmetry_cell_setting 'monoclinic'
loop_
_space_group_symop_operation_xyz
x,y,z
-x,y,-z
-x,-y,-z
x,-y,z
1/2+x,1/2+y,z
1/2-x,1/2+y,-z
1/2-x,1/2-y,-z
1/2+x,1/2-y,z
loop_
_atom_site_type_symbol
_atom_site_label
_atom_site_fract_x
_atom_site_fract_y
_atom_site_fract_z
Si Si1 0.645747 0.082330 0.372893
Si Si2 0.824432 0.204975 0.504492
Si Si3 0.361588 0.916328 0.303234
Si Si4 0.679108 0.720180 0.972972
O O1 0.500000 0.089403 0.500000
O O2 0.610492 0.097100 0.582184
O O3 0.762685 0.141023 0.147187
O O4 0.695755 0.000000 0.288448
O O5 0.750000 0.250000 0.500000
O O6 0.783734 0.125068 0.527192
O O7 0.741595 0.229536 0.762715
O O8 0.000005 0.219411 0.248878
O O9 0.344054 0.000000 0.313688
O O10 0.500000 0.893180 0.000000
O O11 0.750000 0.750000 0.000000
#
# Coordination Sequence:
#
# PCOD9214902 Si02
#       4
#     8   8   8   8
#     4  10  22  41  65  93 129 171 211 256 318 384
#     4  12  24  41  65  93 127 164 211 266 315 368
#     4  10  22  40  65  96 129 167 210 261 320 377
#     4  12  26  43  63  94 129 169 212 261 316 378
#
# _framework density 18.851433
#
# number of rings (size 3 to 8) (size 9 to 14) (size 15 to 20)
#    0.000    1.000    2.500    4.500    3.500    1.000 
#    0.000    2.500    0.000    3.000    0.000    0.000 
#    0.000    0.000    0.000    0.000    0.000    0.000 
#
# Total GULP energy -89426.808185 kJ/mol
# GULP energy per Si atom -5589.175512 kJ/mol
# Density = 1.880853 g / cm^3
# Si number density = 18.851433 Si / 1000 Ang^3
#
#
#
# Elastic Constant Matrix: (Units=GPa)
#
#
# Indices 1 2 3 4 5 6 
#
# 1 168.5506 58.1283 93.6725 -0.0014 4.0118 0.0003
# 2 58.1283 86.5416 47.0684 -0.0017 -2.4823 0.0011
# 3 93.6725 47.0684 122.8487 -0.0026 -5.7204 0.0019
# 4 -0.0014 -0.0017 -0.0026 36.6761 0.0009 -3.3615
# 5 4.0118 -2.4823 -5.7204 0.0009 44.8127 -0.0002
# 6 0.0003 0.0011 0.0019 -3.3615 -0.0002 38.5841
#
#
#
# Elastic Compliance Matrix: (Units=1/GPa)
#
#
# Indices 1 2 3 4 5 6 
#
# 1 0.011325 -0.003686 -0.007324 0.000000 -0.002153 0.000000
# 2 -0.003686 0.015797 -0.003205 0.000000 0.000796 0.000000
# 3 -0.007324 -0.003205 0.015064 0.000001 0.002401 -0.000001
# 4 0.000000 0.000000 0.000001 0.027485 0.000000 0.002395
# 5 -0.002153 0.000796 0.002401 0.000000 0.022858 0.000000
# 6 0.000000 0.000000 -0.000001 0.002395 0.000000 0.026126
#
#
# Mechanical properties :
#
#
# Convention : Reuss Voigt Hill
#
# Bulk Modulus (GPa) = 72.68738 86.18659 79.43698
# Shear Modulus (GPa) = 32.96611 35.95270 34.45940
#
# Velocity S-wave (km/s) = 4.18632 4.37184 4.28009
# Velocity P-wave (km/s) = 7.87456 8.44406 8.16428
#
# Compressibility (1/GPa) = 0.01375755
#
# Stress axis : x y z
#
# Youngs Moduli (GPa) = 88.29645 63.30465 66.38178
#
# Poissons Ratio (x) = 0.23331 0.48617
# Poissons Ratio (y) = 0.32542 0.21276
# Poissons Ratio (z) = 0.64667 0.20289
#
# Static dielectric constant tensor:
#      x y z
#    x 1.595650 0.000000 0.001770 
#    y 0.000000 1.690430 0.000000 
#    z 0.001770 0.000000 1.635100 
# 
# From -- ./inp_files/38568.got.cif
#   From: 2010.05.17/outbox.cif.g08.bks.cpg/sg12_20_cif.got.tgz:38568.got - 2010.06.03 13:09:07.
