data_PCOD9214899
_publ_section_title
;
Structure prediction by ZEFSAII (Michael W. Deem and Ramdas Pophale) SiO2 
 PCOD9214899
Probable space group: C 2/M
;
_chemical_formula_sum "Si O2"
_cell_formula_units_Z 36
_cell_length_a 13.061515
_cell_length_b 33.002581
_cell_length_c 11.134738
_cell_angle_alpha 90.000000
_cell_angle_beta 158.029641
_cell_angle_gamma 90.000000
_cell_volume 1795.727256
_symmetry_space_group_name_H-M "C 2/M"
_symmetry_group_IT_number 12
_symmetry_cell_setting 'monoclinic'
loop_
_space_group_symop_operation_xyz
x,y,z
-x,y,-z
-x,-y,-z
x,-y,z
1/2+x,1/2+y,z
1/2-x,1/2+y,-z
1/2-x,1/2-y,-z
1/2+x,1/2-y,z
loop_
_atom_site_type_symbol
_atom_site_label
_atom_site_fract_x
_atom_site_fract_y
_atom_site_fract_z
Si Si1 0.732245 0.400698 0.924018
Si Si2 0.851861 0.794944 0.584378
Si Si3 0.813793 0.453007 0.677055
Si Si4 0.105108 0.668483 0.748441
Si Si5 0.500000 0.664001 0.500000
O O1 0.469022 0.429015 0.620282
O O2 0.711705 0.366432 0.796851
O O3 0.748020 0.373961 0.060687
O O4 0.997467 0.428537 0.208792
O O5 0.750000 0.750000 0.500000
O O6 0.645623 0.824104 0.432957
O O7 0.869654 0.809067 0.464515
O O8 0.158402 0.799015 0.968655
O O9 0.765281 0.500000 0.595433
O O10 0.000000 0.451915 0.000000
O O11 0.000000 0.670853 0.500000
#
# Coordination Sequence:
#
# PCOD9214899 Si02
#       5
#     8   8   8   8   4
#     4  11  21  38  64  89 131 165 210 262 307 395
#     4  11  25  43  68  92 128 166 214 281 327 375
#     4  11  21  35  60  97 133 162 199 260 328 380
#     4  11  25  45  66  93 124 176 223 259 317 385
#     4  10  22  40  65  96 124 168 216 256 335 370
#
# _framework density 20.047588000000001
#
# number of rings (size 3 to 8) (size 9 to 14) (size 15 to 20)
#    0.000    1.111    2.222    4.667    1.556    4.444 
#    8.000    0.000    0.000    4.000    0.000    0.000 
#    0.000    0.000    0.000    0.000    0.000    0.000 
#
# Total GULP energy -100583.105883 kJ/mol
# GULP energy per Si atom -5587.950327 kJ/mol
# Density = 2.000196 g / cm^3
# Si number density = 20.047588 Si / 1000 Ang^3
#
#
#
# Elastic Constant Matrix: (Units=GPa)
#
#
# Indices 1 2 3 4 5 6 
#
# 1 126.8650 69.7802 64.7864 -0.0001 -0.1792 -0.0002
# 2 69.7802 144.1630 42.6622 0.0000 -0.7205 0.0000
# 3 64.7864 42.6622 99.0092 -0.0002 -7.4394 -0.0002
# 4 -0.0001 0.0000 -0.0002 19.9306 -0.0001 17.2971
# 5 -0.1792 -0.7205 -7.4394 -0.0001 27.4877 -0.0002
# 6 -0.0002 0.0000 -0.0002 17.2971 -0.0002 63.2271
#
#
#
# Elastic Compliance Matrix: (Units=1/GPa)
#
#
# Indices 1 2 3 4 5 6 
#
# 1 0.014289 -0.004715 -0.007472 0.000000 -0.002053 0.000000
# 2 -0.004715 0.009521 -0.001021 0.000000 -0.000058 0.000000
# 3 -0.007472 -0.001021 0.015744 0.000000 0.004186 0.000000
# 4 0.000000 0.000000 0.000000 0.065795 0.000000 -0.018000
# 5 -0.002053 -0.000058 0.004186 0.000000 0.037498 0.000000
# 6 0.000000 0.000000 0.000000 -0.018000 0.000000 0.020740
#
#
# Mechanical properties :
#
#
# Convention : Reuss Voigt Hill
#
# Bulk Modulus (GPa) = 76.12693 80.49941 78.31317
# Shear Modulus (GPa) = 25.72217 34.98296 30.35256
#
# Velocity S-wave (km/s) = 3.58586 4.18185 3.89527
# Velocity P-wave (km/s) = 7.42968 7.97236 7.70579
#
# Compressibility (1/GPa) = 0.01313596
#
# Stress axis : x y z
#
# Youngs Moduli (GPa) = 69.98340 105.03130 63.51530
#
# Poissons Ratio (x) = 0.49526 0.47462
# Poissons Ratio (y) = 0.33000 0.06487
# Poissons Ratio (z) = 0.52295 0.10727
#
# Static dielectric constant tensor:
#      x y z
#    x 1.732930 0.000000 0.023720 
#    y 0.000000 1.728680 0.000000 
#    z 0.023720 0.000000 1.719330 
# 
# From -- ./inp_files/150377.got.cif
#   From: 2010.05.17/outbox.cif.g08.bks.cpg/sg12_76_cif.got.tgz:150377.got - 2010.06.03 13:09:07.
