data_PCOD9214603
_publ_section_title
;
Structure prediction by ZEFSAII (Michael W. Deem and Ramdas Pophale) SiO2 
 PCOD9214603
Probable space group: C 2/M
;
_chemical_formula_sum "Si O2"
_cell_formula_units_Z 56
_cell_length_a 24.292840
_cell_length_b 27.393377
_cell_length_c 11.260337
_cell_angle_alpha 90.000000
_cell_angle_beta 156.305740
_cell_angle_gamma 90.000000
_cell_volume 3011.242663
_symmetry_space_group_name_H-M "C 2/M"
_symmetry_group_IT_number 12
_symmetry_cell_setting 'monoclinic'
loop_
_space_group_symop_operation_xyz
x,y,z
-x,y,-z
-x,-y,-z
x,-y,z
1/2+x,1/2+y,z
1/2-x,1/2+y,-z
1/2-x,1/2-y,-z
1/2+x,1/2-y,z
loop_
_atom_site_type_symbol
_atom_site_label
_atom_site_fract_x
_atom_site_fract_y
_atom_site_fract_z
Si Si1 0.548314 0.057839 0.731073
Si Si2 0.178312 0.197623 0.221613
Si Si3 0.039985 0.942056 0.712962
Si Si4 0.158038 0.557267 0.301685
Si Si5 0.285909 0.095579 0.337821
Si Si6 0.354417 0.294564 0.562419
Si Si7 0.209883 0.894167 0.665827
O O1 0.500000 0.060859 0.500000
O O2 0.440366 0.086630 0.599729
O O3 0.552948 0.000000 0.772698
O O4 0.693464 0.083171 0.041718
O O5 0.238917 0.150435 0.274857
O O6 0.276205 0.243697 0.390191
O O7 0.175777 0.190107 0.359880
O O8 0.019384 0.208088 0.874889
O O9 0.000000 0.928228 0.500000
O O10 0.940878 0.914196 0.607278
O O11 0.021124 0.000000 0.687008
O O12 0.192107 0.927545 0.050449
O O13 0.156456 0.500000 0.271646
O O14 0.229053 0.566748 0.567934
O O15 0.232604 0.584729 0.343392
O O16 0.000000 0.574105 0.000000
O O17 0.296819 0.336172 0.361795
#
# Coordination Sequence:
#
# PCOD9214603 Si02
#       7
#     8   8   8   8   8   8   8
#     4  11  24  41  62  89 124 173 223 252 286 360
#     4  10  22  40  62  91 123 158 201 249 311 381
#     4  11  24  41  62  89 124 169 213 250 298 366
#     4  11  22  35  56  91 130 165 200 249 312 373
#     4  12  22  39  63  91 127 162 202 260 313 364
#     4  10  22  40  62  91 123 158 201 249 311 381
#     4  12  22  39  63  91 127 162 202 260 313 364
#
# _framework density 18.596972999999998
#
# number of rings (size 3 to 8) (size 9 to 14) (size 15 to 20)
#    0.000    1.000    4.286    3.429    2.000    2.857 
#    0.000    1.429    0.000    5.143    0.000    0.000 
#    0.000    0.000    0.000    0.000    0.000    0.000 
#
# Total GULP energy -156436.400501 kJ/mol
# GULP energy per Si atom -5587.014304 kJ/mol
# Density = 1.855465 g / cm^3
# Si number density = 18.596973 Si / 1000 Ang^3
#
#
#
# Elastic Constant Matrix: (Units=GPa)
#
#
# Indices 1 2 3 4 5 6 
#
# 1 50.0096 24.0152 5.0731 0.0000 -4.6329 0.0000
# 2 24.0152 87.9326 25.1627 0.0000 3.5363 0.0000
# 3 5.0731 25.1627 66.8589 0.0000 -4.3612 0.0000
# 4 0.0000 0.0000 0.0000 -43.3997 0.0000 -43.5857
# 5 -4.6329 3.5363 -4.3612 0.0000 37.4576 0.0000
# 6 0.0000 0.0000 0.0000 -43.5857 0.0000 -18.3498
#
#
#
# Elastic Compliance Matrix: (Units=1/GPa)
#
#
# Indices 1 2 3 4 5 6 
#
# 1 0.023532 -0.006873 0.001041 0.000000 0.003681 0.000000
# 2 -0.006873 0.014870 -0.005262 0.000000 -0.002867 0.000000
# 3 0.001041 -0.005262 0.017028 0.000000 0.002608 0.000000
# 4 0.000000 0.000000 0.000000 0.016631 0.000000 -0.039504
# 5 0.003681 -0.002867 0.002608 0.000000 0.027726 0.000000
# 6 0.000000 0.000000 0.000000 -0.039504 0.000000 0.039335
#
#
# Mechanical properties :
#
#
# Convention : Reuss Voigt Hill
#
# Bulk Modulus (GPa) = 30.08116 34.81144 32.44630
# Shear Modulus (GPa) = 29.00372 5.17829 17.09101
#
# Velocity S-wave (km/s) = 3.95345 1.67049 3.03482
# Velocity P-wave (km/s) = 6.08688 4.74133 5.45575
#
# Compressibility (1/GPa) = 0.03324340
#
# Stress axis : x y z
#
# Youngs Moduli (GPa) = 42.49556 67.24762 58.72543
#
# Poissons Ratio (x) = 0.46217 -0.06114
# Poissons Ratio (y) = 0.29206 0.30902
# Poissons Ratio (z) = -0.04424 0.35386
#
# Static dielectric constant tensor:
#      x y z
#    x 1.633910 0.000000 -0.013330 
#    y 0.000000 1.602810 0.000000 
#    z -0.013330 0.000000 1.664590 
# 
# From -- ./inp_files/178706.got.cif
#   From: 2010.05.17/outbox.cif.g08.bks.cpg/sg12_90_cif.got.tgz:178706.got - 2010.06.03 13:09:07.
