data_PCOD9214573
_publ_section_title
;
Structure prediction by ZEFSAII (Michael W. Deem and Ramdas Pophale) SiO2 
 PCOD9214573
Probable space group: C 2/M
;
_chemical_formula_sum "Si O2"
_cell_formula_units_Z 56
_cell_length_a 12.116109
_cell_length_b 30.601207
_cell_length_c 13.177701
_cell_angle_alpha 90.000000
_cell_angle_beta 32.087233
_cell_angle_gamma 90.000000
_cell_volume 2595.418886
_symmetry_space_group_name_H-M "C 2/M"
_symmetry_group_IT_number 12
_symmetry_cell_setting 'monoclinic'
loop_
_space_group_symop_operation_xyz
x,y,z
-x,y,-z
-x,-y,-z
x,-y,z
1/2+x,1/2+y,z
1/2-x,1/2+y,-z
1/2-x,1/2-y,-z
1/2+x,1/2-y,z
loop_
_atom_site_type_symbol
_atom_site_label
_atom_site_fract_x
_atom_site_fract_y
_atom_site_fract_z
Si Si1 0.673966 0.000000 0.236719
Si Si2 0.287513 0.904006 0.840651
Si Si3 0.354295 0.794533 0.454494
Si Si4 0.703676 0.880422 0.598715
Si Si5 0.206099 0.000000 0.622775
Si Si6 0.245609 0.048936 0.276796
Si Si7 0.911295 0.081789 0.799149
Si Si8 0.287281 0.682512 0.213989
O O1 0.768771 0.954468 0.127797
O O2 0.430922 0.000000 0.392707
O O3 0.718229 0.000000 0.321195
O O4 0.536655 0.899943 0.649555
O O5 0.222736 0.869216 0.806794
O O6 0.000000 0.800701 0.000000
O O7 0.250000 0.750000 0.500000
O O8 0.344146 0.829264 0.370137
O O9 0.233756 0.811461 0.649352
O O10 0.591924 0.794661 0.309868
O O11 0.672751 0.910589 0.720955
O O12 0.939116 0.886074 0.379257
O O13 0.066108 0.957903 0.708541
O O14 0.000000 0.046404 0.500000
O O15 0.250085 0.060757 0.154584
O O16 0.329270 0.000000 0.231012
O O17 0.807471 0.105890 0.974907
#
# Coordination Sequence:
#
# PCOD9214573 Si02
#       8
#     4   8   8   8   4   8   8   8
#     4  11  25  35  56  92 124 177 229 266 309 366
#     4  11  24  37  61  92 129 173 218 267 321 378
#     4  10  23  45  73  99 130 170 215 269 340 406
#     4  10  22  40  62  88 127 161 217 272 316 390
#     4  11  23  37  55  79 129 171 217 277 312 367
#     4   9  19  35  58  85 120 171 215 257 319 376
#     4  11  21  39  58  85 120 172 216 265 330 378
#     4  10  23  44  70 102 136 171 212 269 339 399
#
# _framework density 21.576478999999999
#
# number of rings (size 3 to 8) (size 9 to 14) (size 15 to 20)
#    0.000    1.714    2.143    1.286    6.000    2.857 
#    7.714    0.714    0.000    0.000    0.000    0.000 
#    0.000    0.000    0.000    0.000    0.000    0.000 
#
# Total GULP energy -156320.760058 kJ/mol
# GULP energy per Si atom -5582.884288 kJ/mol
# Density = 2.152737 g / cm^3
# Si number density = 21.576479 Si / 1000 Ang^3
#
#
#
# Elastic Constant Matrix: (Units=GPa)
#
#
# Indices 1 2 3 4 5 6 
#
# 1 96.2893 60.2629 27.9709 0.0000 6.7062 0.0000
# 2 60.2629 137.7772 24.1423 0.0000 -0.4537 0.0000
# 3 27.9709 24.1423 99.8527 0.0000 7.1995 -0.0001
# 4 0.0000 0.0000 0.0000 1.6271 0.0000 13.7513
# 5 6.7062 -0.4537 7.1995 0.0000 31.4528 0.0000
# 6 0.0000 0.0000 -0.0001 13.7513 0.0000 17.4538
#
#
#
# Elastic Compliance Matrix: (Units=1/GPa)
#
#
# Indices 1 2 3 4 5 6 
#
# 1 0.015208 -0.006213 -0.002560 0.000000 -0.002746 0.000000
# 2 -0.006213 0.010126 -0.000828 0.000000 0.001660 0.000000
# 3 -0.002560 -0.000828 0.011076 0.000000 -0.002001 0.000000
# 4 0.000000 0.000000 0.000000 -0.108612 0.000000 0.085572
# 5 -0.002746 0.001660 -0.002001 0.000000 0.032861 0.000000
# 6 0.000000 0.000000 0.000000 0.085572 0.000000 -0.010125
#
#
# Mechanical properties :
#
#
# Convention : Reuss Voigt Hill
#
# Bulk Modulus (GPa) = 58.10570 62.07458 60.09014
# Shear Modulus (GPa) = -203.84915 24.87630 -89.48642
#
# Velocity S-wave (km/s) = -9.73050 3.39917 -6.44702
# Velocity P-wave (km/s) = 9.96267 6.65116 5.24485
#
# Compressibility (1/GPa) = 0.01721001
#
# Stress axis : x y z
#
# Youngs Moduli (GPa) = 65.75297 98.75659 90.28264
#
# Poissons Ratio (x) = 0.61353 0.23114
# Poissons Ratio (y) = 0.40849 0.07472
# Poissons Ratio (z) = 0.16834 0.08174
#
# Static dielectric constant tensor:
#      x y z
#    x 1.814370 0.000000 -0.009840 
#    y 0.000000 1.804220 0.000000 
#    z -0.009840 0.000000 1.870240 
# 
# From -- ./inp_files/209702.got.cif
#   From: 2010.05.17/outbox.cif.g08.bks.cpg/sg12_105_cif.got.tgz:209702.got - 2010.06.03 13:09:07.
