data_PCOD9214483
_publ_section_title
;
Structure prediction by ZEFSAII (Michael W. Deem and Ramdas Pophale) SiO2 
 PCOD9214483
Probable space group: C 2/M
;
_chemical_formula_sum "Si O2"
_cell_formula_units_Z 56
_cell_length_a 16.367567
_cell_length_b 8.815762
_cell_length_c 23.253107
_cell_angle_alpha 90.000000
_cell_angle_beta 58.005383
_cell_angle_gamma 90.000000
_cell_volume 2845.580994
_symmetry_space_group_name_H-M "C 2/M"
_symmetry_group_IT_number 12
_symmetry_cell_setting 'monoclinic'
loop_
_space_group_symop_operation_xyz
x,y,z
-x,y,-z
-x,-y,-z
x,-y,z
1/2+x,1/2+y,z
1/2-x,1/2+y,-z
1/2-x,1/2-y,-z
1/2+x,1/2-y,z
loop_
_atom_site_type_symbol
_atom_site_label
_atom_site_fract_x
_atom_site_fract_y
_atom_site_fract_z
Si Si1 0.166901 0.821937 0.069977
Si Si2 0.199125 0.679538 0.786494
Si Si3 0.506231 0.823028 0.929397
Si Si4 0.276832 0.681747 0.342498
Si Si5 0.628701 0.180409 0.207712
Si Si6 0.459919 0.317270 0.340276
Si Si7 0.937187 0.817111 0.579276
O O1 0.160340 0.744754 0.134467
O O2 0.067343 0.786486 0.074932
O O3 0.183815 0.000000 0.070627
O O4 0.250000 0.750000 0.000000
O O5 0.217660 0.500000 0.773675
O O6 0.112120 0.699799 0.863825
O O7 0.177084 0.750221 0.732846
O O8 0.293262 0.761341 0.775590
O O9 0.479435 0.000000 0.927788
O O10 0.500000 0.800442 0.000000
O O11 0.272392 0.500000 0.339949
O O12 0.348922 0.722169 0.368000
O O13 0.168976 0.746595 0.385841
O O14 0.526829 0.246309 0.266062
O O15 0.625412 0.000000 0.207314
O O16 0.467584 0.500000 0.334382
O O17 0.504913 0.269566 0.384737
O O18 0.000000 0.778193 0.500000
O O19 0.926709 0.000000 0.585477
#
# Coordination Sequence:
#
# PCOD9214483 Si02
#       7
#     8   8   8   8   8   8   8
#     4  12  25  41  61  86 121 162 207 261 319 379
#     4  11  22  38  62  90 124 165 207 261 323 380
#     4  10  22  40  61  87 120 160 208 260 318 382
#     4  11  23  39  62  94 128 168 217 269 319 379
#     4  12  24  39  63  93 124 162 212 263 316 379
#     4  10  22  41  64  93 132 171 212 263 323 382
#     4  10  22  42  67  94 129 174 218 264 324 391
#
# _framework density 19.679637
#
# number of rings (size 3 to 8) (size 9 to 14) (size 15 to 20)
#    0.000    1.143    1.429    5.143    0.000    6.857 
#    0.000    0.000    0.000    0.000    0.000    0.000 
#    0.000    0.000    0.000    0.000    0.000    0.000 
#
# Total GULP energy -156581.531215 kJ/mol
# GULP energy per Si atom -5592.197543 kJ/mol
# Density = 1.963485 g / cm^3
# Si number density = 19.679637 Si / 1000 Ang^3
#
#
#
# Elastic Constant Matrix: (Units=GPa)
#
#
# Indices 1 2 3 4 5 6 
#
# 1 141.1393 50.1150 57.7878 0.0000 1.3960 0.0000
# 2 50.1150 56.3472 34.4063 0.0000 -0.2100 0.0001
# 3 57.7878 34.4063 122.8661 0.0000 0.7641 0.0000
# 4 0.0000 0.0000 0.0000 26.8730 0.0000 2.2854
# 5 1.3960 -0.2100 0.7641 0.0000 20.7912 0.0000
# 6 0.0000 0.0001 0.0000 2.2854 0.0000 41.5119
#
#
#
# Elastic Compliance Matrix: (Units=1/GPa)
#
#
# Indices 1 2 3 4 5 6 
#
# 1 0.011208 -0.008148 -0.002985 0.000000 -0.000725 0.000000
# 2 -0.008148 0.027335 -0.003828 0.000000 0.000964 0.000000
# 3 -0.002985 -0.003828 0.010616 0.000000 -0.000228 0.000000
# 4 0.000000 0.000000 0.000000 0.037387 0.000000 -0.002058
# 5 -0.000725 0.000964 -0.000228 0.000000 0.048164 0.000000
# 6 0.000000 0.000000 0.000000 -0.002058 0.000000 0.024203
#
#
# Mechanical properties :
#
#
# Convention : Reuss Voigt Hill
#
# Bulk Modulus (GPa) = 51.98533 67.21897 59.60215
# Shear Modulus (GPa) = 25.60835 29.70479 27.65657
#
# Velocity S-wave (km/s) = 3.61121 3.88934 3.75285
# Velocity P-wave (km/s) = 6.62276 7.37564 7.00931
#
# Compressibility (1/GPa) = 0.01923619
#
# Stress axis : x y z
#
# Youngs Moduli (GPa) = 89.22372 36.58280 94.19351
#
# Poissons Ratio (x) = 0.29808 0.28118
# Poissons Ratio (y) = 0.72700 0.36061
# Poissons Ratio (z) = 0.26635 0.14005
#
# Static dielectric constant tensor:
#      x y z
#    x 1.724270 0.000000 0.034880 
#    y 0.000000 1.658540 0.000000 
#    z 0.034880 0.000000 1.741800 
# 
# From -- ./inp_files/338466.got.cif
#   From: 2010.05.17/outbox.cif.g08.bks.cpg/sg12_170_cif.got.tgz:338466.got - 2010.06.03 13:09:07.
