data_PCOD9214575
_publ_section_title
;
Structure prediction by ZEFSAII (Michael W. Deem and Ramdas Pophale) SiO2 
 PCOD9214575
Probable space group: C 2/M
;
_chemical_formula_sum "Si O2"
_cell_formula_units_Z 56
_cell_length_a 15.214310
_cell_length_b 18.205053
_cell_length_c 14.440440
_cell_angle_alpha 90.000000
_cell_angle_beta 41.351089
_cell_angle_gamma 90.000000
_cell_volume 2642.470010
_symmetry_space_group_name_H-M "C 2/M"
_symmetry_group_IT_number 12
_symmetry_cell_setting 'monoclinic'
loop_
_space_group_symop_operation_xyz
x,y,z
-x,y,-z
-x,-y,-z
x,-y,z
1/2+x,1/2+y,z
1/2-x,1/2+y,-z
1/2-x,1/2-y,-z
1/2+x,1/2-y,z
loop_
_atom_site_type_symbol
_atom_site_label
_atom_site_fract_x
_atom_site_fract_y
_atom_site_fract_z
Si Si1 0.549365 0.914422 0.565723
Si Si2 0.102228 0.271793 0.996888
Si Si3 0.632167 0.415916 0.096380
Si Si4 0.365295 0.589544 0.558550
Si Si5 0.145330 0.310712 0.164968
Si Si6 0.651196 0.589226 0.638041
Si Si7 0.297537 0.083437 0.142665
O O1 0.500000 0.915032 0.500000
O O2 0.464186 0.856531 0.692727
O O3 0.704185 0.892518 0.439349
O O4 0.539838 0.000000 0.609042
O O5 0.254496 0.243835 0.859360
O O6 0.104703 0.359324 0.979964
O O7 0.086248 0.268064 0.121664
O O8 0.000000 0.241524 0.000000
O O9 0.641047 0.500000 0.056938
O O10 0.481831 0.388159 0.202980
O O11 0.667448 0.416552 0.178183
O O12 0.745255 0.369305 0.958090
O O13 0.500000 0.615679 0.500000
O O14 0.369565 0.500000 0.553517
O O15 0.353359 0.616232 0.463977
O O16 0.243938 0.607745 0.722214
O O17 0.642245 0.500000 0.642916
O O18 0.345250 0.000000 0.105685
#
# Coordination Sequence:
#
# PCOD9214575 Si02
#       7
#     8   8   8   8   8   8   8
#     4  10  22  40  62  89 120 156 204 260 305 341
#     4  10  23  40  59  83 118 160 202 239 298 360
#     4   9  16  31  57  88 116 149 195 241 288 347
#     4   9  14  24  46  79 118 150 173 218 287 350
#     4  10  22  41  62  82 119 163 201 245 298 357
#     4   9  17  29  51  86 122 149 184 237 292 345
#     4   9  17  30  52  84 119 147 183 233 288 356
#
# _framework density 21.192294
#
# number of rings (size 3 to 8) (size 9 to 14) (size 15 to 20)
#    0.000    2.571    1.429    0.429    2.000    2.000 
#    0.000    0.714    0.000   12.857    0.000    0.000 
#    0.000    0.000    0.000    0.000    0.000    0.000 
#
# Total GULP energy -156031.402302 kJ/mol
# GULP energy per Si atom -5572.550082 kJ/mol
# Density = 2.114406 g / cm^3
# Si number density = 21.192294 Si / 1000 Ang^3
#
#
#
# Elastic Constant Matrix: (Units=GPa)
#
#
# Indices 1 2 3 4 5 6 
#
# 1 124.3357 11.0319 23.8576 0.0003 -26.9285 -0.0001
# 2 11.0319 64.2655 20.8199 0.0002 -5.4781 -0.0001
# 3 23.8576 20.8199 69.1358 0.0006 -18.2093 -0.0002
# 4 0.0003 0.0002 0.0006 23.7049 -0.0002 -0.6048
# 5 -26.9285 -5.4781 -18.2093 -0.0002 22.0474 0.0000
# 6 -0.0001 -0.0001 -0.0002 -0.6048 0.0000 12.5250
#
#
#
# Elastic Compliance Matrix: (Units=1/GPa)
#
#
# Indices 1 2 3 4 5 6 
#
# 1 0.010972 -0.000729 -0.000108 0.000000 0.013131 0.000000
# 2 -0.000729 0.017291 -0.005187 0.000000 -0.000878 0.000000
# 3 -0.000108 -0.005187 0.020051 0.000000 0.015140 0.000000
# 4 0.000000 0.000000 0.000000 0.042237 0.000000 0.002039
# 5 0.013131 -0.000878 0.015140 0.000000 0.073680 0.000000
# 6 0.000000 0.000000 0.000000 0.002039 0.000000 0.079939
#
#
# Mechanical properties :
#
#
# Convention : Reuss Voigt Hill
#
# Bulk Modulus (GPa) = 27.57413 41.01732 34.29572
# Shear Modulus (GPa) = 18.63532 25.12396 21.87964
#
# Velocity S-wave (km/s) = 2.96859 3.44688 3.21664
# Velocity P-wave (km/s) = 4.97892 5.93617 5.47850
#
# Compressibility (1/GPa) = 0.03626588
#
# Stress axis : x y z
#
# Youngs Moduli (GPa) = 91.14094 57.83314 49.87238
#
# Poissons Ratio (x) = 0.04217 0.00540
# Poissons Ratio (y) = 0.06645 0.25868
# Poissons Ratio (z) = 0.00987 0.29997
#
# Static dielectric constant tensor:
#      x y z
#    x 1.815600 0.000000 -0.010160 
#    y 0.000000 1.816210 0.000000 
#    z -0.010160 0.000000 1.760160 
# 
# From -- ./inp_files/217645.got.cif
#   From: 2010.05.17/outbox.cif.g08.bks.cpg/sg12_109_cif.got.tgz:217645.got - 2010.06.03 13:09:07.
