data_PCOD9214536
_publ_section_title
;
Structure prediction by ZEFSAII (Michael W. Deem and Ramdas Pophale) SiO2 
 PCOD9214536
Probable space group: C 2/M
;
_chemical_formula_sum "Si O2"
_cell_formula_units_Z 40
_cell_length_a 18.238118
_cell_length_b 27.388985
_cell_length_c 11.407183
_cell_angle_alpha 90.000000
_cell_angle_beta 159.372348
_cell_angle_gamma 90.000000
_cell_volume 2007.422717
_symmetry_space_group_name_H-M "C 2/M"
_symmetry_group_IT_number 12
_symmetry_cell_setting 'monoclinic'
loop_
_space_group_symop_operation_xyz
x,y,z
-x,y,-z
-x,-y,-z
x,-y,z
1/2+x,1/2+y,z
1/2-x,1/2+y,-z
1/2-x,1/2-y,-z
1/2+x,1/2-y,z
loop_
_atom_site_type_symbol
_atom_site_label
_atom_site_fract_x
_atom_site_fract_y
_atom_site_fract_z
Si Si1 0.231750 0.000000 0.906409
Si Si2 0.394118 0.000000 0.716619
Si Si3 0.879896 0.102229 0.193819
Si Si4 0.733107 0.700538 0.403176
Si Si5 0.113155 0.299114 0.791886
Si Si6 0.374386 0.401684 0.687252
O O1 0.244547 0.051011 0.994000
O O2 0.000000 0.000000 0.500000
O O3 0.418259 0.000000 0.094118
O O4 0.258674 0.049035 0.506038
O O5 0.500000 0.000000 0.000000
O O6 0.000000 0.101908 0.500000
O O7 0.004724 0.100464 0.256847
O O8 0.748869 0.151869 0.003413
O O9 0.750000 0.750000 0.500000
O O10 0.750019 0.649382 0.497045
O O11 0.926577 0.701330 0.605105
O O12 0.500000 0.700875 0.000000
O O13 0.000000 0.300303 0.500000
O O14 0.250000 0.250000 0.000000
O O15 0.500000 0.401873 0.000000
#
# Coordination Sequence:
#
# PCOD9214536 Si02
#       6
#     4   4   8   8   8   8
#     4  10  22  40  61  93 130 168 213 264 317 379
#     4  12  23  40  68  99 129 172 219 268 324 385
#     4  11  23  43  67  96 132 172 215 268 323 386
#     4  11  24  42  63  92 128 168 212 264 320 382
#     4  12  24  42  66  96 129 171 219 269 325 388
#     4  11  24  44  66  96 132 171 214 267 326 388
#
# _framework density 19.926047000000001
#
# number of rings (size 3 to 8) (size 9 to 14) (size 15 to 20)
#    0.000    0.800    0.000    9.900    0.000    2.400 
#    0.000    1.500    0.000    0.000    0.000    0.000 
#    0.000    0.000    0.000    0.000    0.000    0.000 
#
# Total GULP energy -111586.944498 kJ/mol
# GULP energy per Si atom -5579.347225 kJ/mol
# Density = 1.988069 g / cm^3
# Si number density = 19.926047 Si / 1000 Ang^3
#
#
#
# Elastic Constant Matrix: (Units=GPa)
#
#
# Indices 1 2 3 4 5 6 
#
# 1 219.1543 101.8959 70.6515 0.0000 45.3216 0.0000
# 2 101.8959 267.2929 89.5558 -0.0002 24.2032 -0.0001
# 3 70.6515 89.5558 94.9296 -0.0004 18.9152 -0.0002
# 4 0.0000 -0.0002 -0.0004 40.4344 -0.0002 8.7351
# 5 45.3216 24.2032 18.9152 -0.0002 55.7971 -0.0001
# 6 0.0000 -0.0001 -0.0002 8.7351 -0.0001 41.9857
#
#
#
# Elastic Compliance Matrix: (Units=1/GPa)
#
#
# Indices 1 2 3 4 5 6 
#
# 1 0.007023 -0.001212 -0.003272 0.000000 -0.004069 0.000000
# 2 -0.001212 0.005703 -0.004484 0.000000 0.000031 0.000000
# 3 -0.003272 -0.004484 0.017462 0.000000 -0.001317 0.000000
# 4 0.000000 0.000000 0.000000 0.025895 0.000000 -0.005387
# 5 -0.004069 0.000031 -0.001317 0.000000 0.021660 0.000000
# 6 0.000000 0.000000 0.000000 -0.005387 0.000000 0.024938
#
#
# Mechanical properties :
#
#
# Convention : Reuss Voigt Hill
#
# Bulk Modulus (GPa) = 81.62807 122.84260 102.23534
# Shear Modulus (GPa) = 40.09511 48.92833 44.51172
#
# Velocity S-wave (km/s) = 4.49062 4.96067 4.73149
# Velocity P-wave (km/s) = 8.24269 9.72595 9.01488
#
# Compressibility (1/GPa) = 0.01225069
#
# Stress axis : x y z
#
# Youngs Moduli (GPa) = 142.38389 175.34828 57.26709
#
# Poissons Ratio (x) = 0.21261 0.18740
# Poissons Ratio (y) = 0.17264 0.25678
# Poissons Ratio (z) = 0.46593 0.78625
#
# Static dielectric constant tensor:
#      x y z
#    x 1.731970 0.000000 -0.064620 
#    y 0.000000 1.656150 0.000000 
#    z -0.064620 0.000000 1.700770 
# 
# From -- ./inp_files/161140.got.cif
#   From: 2010.05.17/outbox.cif.g08.bks.cpg/sg12_81_cif.got.tgz:161140.got - 2010.06.03 13:09:07.
