data_PCOD9214287
_publ_section_title
;
Structure prediction by ZEFSAII (Michael W. Deem and Ramdas Pophale) SiO2 
 PCOD9214287
Probable space group: C 2/M
;
_chemical_formula_sum "Si O2"
_cell_formula_units_Z 44
_cell_length_a 16.684274
_cell_length_b 14.363667
_cell_length_c 8.796000
_cell_angle_alpha 90.000000
_cell_angle_beta 92.783636
_cell_angle_gamma 90.000000
_cell_volume 2105.450877
_symmetry_space_group_name_H-M "C 2/M"
_symmetry_group_IT_number 12
_symmetry_cell_setting 'monoclinic'
loop_
_space_group_symop_operation_xyz
x,y,z
-x,y,-z
-x,-y,-z
x,-y,z
1/2+x,1/2+y,z
1/2-x,1/2+y,-z
1/2-x,1/2-y,-z
1/2+x,1/2-y,z
loop_
_atom_site_type_symbol
_atom_site_label
_atom_site_fract_x
_atom_site_fract_y
_atom_site_fract_z
Si Si1 0.514523 0.188340 0.775827
Si Si2 0.000000 0.166600 0.500000
Si Si3 0.252158 0.000000 0.405619
Si Si4 0.717518 0.367697 0.129352
Si Si5 0.431797 0.000000 0.370613
Si Si6 0.612829 0.500000 0.601940
Si Si7 0.592807 0.500000 0.961304
Si Si8 0.136942 0.313908 0.040630
O O1 0.496370 0.265150 0.645529
O O2 0.556332 0.095033 0.719689
O O3 0.431631 0.155563 0.847851
O O4 0.579623 0.227906 0.901889
O O5 0.072693 0.093374 0.528384
O O6 0.229720 0.086848 0.294338
O O7 0.345816 0.000000 0.439582
O O8 0.203713 0.000000 0.555826
O O9 0.693856 0.260078 0.130138
O O10 0.642229 0.415238 0.039528
O O11 0.798719 0.380232 0.037332
O O12 0.500000 0.000000 0.500000
O O13 0.599434 0.500000 0.780415
O O14 0.500000 0.500000 0.000000
#
# Coordination Sequence:
#
# PCOD9214287 Si02
#       8
#     8   4   4   8   4   4   4   8
#     4  11  23  41  66  96 134 173 224 270 328 392
#     4  11  24  43  66 102 128 175 218 271 334 398
#     4  11  23  44  66  94 135 174 216 274 329 395
#     4  10  22  41  65  98 133 169 215 275 333 383
#     4  12  25  44  63  92 131 181 217 271 325 384
#     4  11  26  42  68 100 134 169 220 265 344 398
#     4  11  26  41  66  96 132 172 212 276 329 393
#     4  10  22  39  67  98 127 171 221 274 326 390
#
# _framework density 20.898136999999998
#
# number of rings (size 3 to 8) (size 9 to 14) (size 15 to 20)
#    0.000    1.273    2.727    2.182   10.182    4.364 
#    0.000    0.909    0.000    0.000    0.000    0.000 
#    0.000    0.000    0.000    0.000    0.000    0.000 
#
# Total GULP energy -122770.087075 kJ/mol
# GULP energy per Si atom -5580.458503 kJ/mol
# Density = 2.085057 g / cm^3
# Si number density = 20.898137 Si / 1000 Ang^3
#
#
#
# Elastic Constant Matrix: (Units=GPa)
#
#
# Indices 1 2 3 4 5 6 
#
# 1 178.1099 13.9164 61.7335 0.0000 -30.5494 0.0000
# 2 13.9164 53.0424 17.9725 0.0000 -4.5476 0.0000
# 3 61.7335 17.9725 90.9351 0.0000 -15.5341 0.0000
# 4 0.0000 0.0000 0.0000 -115.0547 0.0000 -40.3602
# 5 -30.5494 -4.5476 -15.5341 0.0000 48.3308 0.0000
# 6 0.0000 0.0000 0.0000 -40.3602 0.0000 6.6198
#
#
#
# Elastic Compliance Matrix: (Units=1/GPa)
#
#
# Indices 1 2 3 4 5 6 
#
# 1 0.007848 -0.000170 -0.004708 0.000000 0.003432 0.000000
# 2 -0.000170 0.020229 -0.003784 0.000000 0.000580 0.000000
# 3 -0.004708 -0.003784 0.015207 0.000000 0.001556 0.000000
# 4 0.000000 0.000000 0.000000 -0.002769 0.000000 -0.016883
# 5 0.003432 0.000580 0.001556 0.000000 0.023414 0.000000
# 6 0.000000 0.000000 0.000000 -0.016883 0.000000 0.048128
#
#
# Mechanical properties :
#
#
# Convention : Reuss Voigt Hill
#
# Bulk Modulus (GPa) = 38.51978 56.59247 47.55613
# Shear Modulus (GPa) = 36.22276 3.21017 19.71646
#
# Velocity S-wave (km/s) = 4.16781 1.24074 3.07490
# Velocity P-wave (km/s) = 6.45237 5.40292 5.95082
#
# Compressibility (1/GPa) = 0.02596069
#
# Stress axis : x y z
#
# Youngs Moduli (GPa) = 127.41710 49.43362 65.76027
#
# Poissons Ratio (x) = 0.00838 0.30962
# Poissons Ratio (y) = 0.02161 0.24883
# Poissons Ratio (z) = 0.59991 0.18705
#
# Static dielectric constant tensor:
#      x y z
#    x 1.741000 0.000000 -0.003100 
#    y 0.000000 1.611390 0.000000 
#    z -0.003100 0.000000 1.762920 
# 
# From -- ./inp_files/73100.got.cif
#   From: 2010.05.17/outbox.cif.g08.bks.cpg/sg12_37_cif.got.tgz:73100.got - 2010.06.03 13:09:07.
