data_PCOD9214917
_publ_section_title
;
Structure prediction by ZEFSAII (Michael W. Deem and Ramdas Pophale) SiO2 
 PCOD9214917
Probable space group: C 2/M
;
_chemical_formula_sum "Si O2"
_cell_formula_units_Z 44
_cell_length_a 9.860491
_cell_length_b 14.373775
_cell_length_c 15.243635
_cell_angle_alpha 90.000000
_cell_angle_beta 124.002892
_cell_angle_gamma 90.000000
_cell_volume 1791.089762
_symmetry_space_group_name_H-M "C 2/M"
_symmetry_group_IT_number 12
_symmetry_cell_setting 'monoclinic'
loop_
_space_group_symop_operation_xyz
x,y,z
-x,y,-z
-x,-y,-z
x,-y,z
1/2+x,1/2+y,z
1/2-x,1/2+y,-z
1/2-x,1/2-y,-z
1/2+x,1/2-y,z
loop_
_atom_site_type_symbol
_atom_site_label
_atom_site_fract_x
_atom_site_fract_y
_atom_site_fract_z
Si Si1 0.659643 0.898944 0.659848
Si Si2 0.500000 0.254482 0.500000
Si Si3 0.482195 0.786524 0.158641
Si Si4 0.991934 0.102554 0.274685
Si Si5 0.160169 0.843367 0.098243
Si Si6 0.740422 0.605873 0.640056
O O1 0.540866 0.814582 0.595048
O O2 0.749959 0.889043 0.785918
O O3 0.811180 0.893302 0.646628
O O4 0.581333 0.000000 0.625267
O O5 0.342982 0.320576 0.454690
O O6 0.449687 0.691300 0.200689
O O7 0.304567 0.830514 0.080518
O O8 0.586555 0.752092 0.113638
O O9 0.593935 0.854289 0.257980
O O10 0.891001 0.105850 0.327409
O O11 0.957163 0.000000 0.221962
O O12 0.000000 0.890438 0.000000
O O13 0.754567 0.500000 0.613587
#
# Coordination Sequence:
#
# PCOD9214917 Si02
#       6
#     8   4   8   8   8   8
#     4  10  22  40  65  97 132 172 223 275 333 396
#     4  12  20  40  64  94 136 180 220 272 332 396
#     4  11  20  42  65 100 134 173 222 278 332 394
#     4   9  18  38  63  87 128 178 219 266 326 398
#     4  11  23  41  69  98 133 176 221 273 338 393
#     4  11  23  39  63  97 135 176 224 274 329 392
#
# _framework density 24.566047999999999
#
# number of rings (size 3 to 8) (size 9 to 14) (size 15 to 20)
#    0.000    1.455    5.455    1.091    0.000    1.818 
#    3.273    0.000    0.000    4.364    0.000    0.000 
#    0.000    0.000    0.000    0.000    0.000    0.000 
#
# Total GULP energy -123005.007253 kJ/mol
# GULP energy per Si atom -5591.136693 kJ/mol
# Density = 2.451013 g / cm^3
# Si number density = 24.566048 Si / 1000 Ang^3
#
#
#
# Elastic Constant Matrix: (Units=GPa)
#
#
# Indices 1 2 3 4 5 6 
#
# 1 133.6685 13.5939 18.5008 0.0000 28.3463 0.0000
# 2 13.5939 173.3325 66.2769 0.0000 19.4167 0.0000
# 3 18.5008 66.2769 130.3951 0.0000 22.2447 0.0000
# 4 0.0000 0.0000 0.0000 4.4468 0.0000 -1.0576
# 5 28.3463 19.4167 22.2447 0.0000 34.1681 0.0000
# 6 0.0000 0.0000 0.0000 -1.0576 0.0000 3.7099
#
#
#
# Elastic Compliance Matrix: (Units=1/GPa)
#
#
# Indices 1 2 3 4 5 6 
#
# 1 0.009082 0.000168 -0.000081 0.000000 -0.007577 0.000000
# 2 0.000168 0.007277 -0.003367 0.000000 -0.002082 0.000000
# 3 -0.000081 -0.003367 0.010185 0.000000 -0.004650 0.000000
# 4 0.000000 0.000000 0.000000 0.241236 0.000000 0.068769
# 5 -0.007577 -0.002082 -0.004650 0.000000 0.039764 0.000000
# 6 0.000000 0.000000 0.000000 0.068769 0.000000 0.289154
#
#
# Mechanical properties :
#
#
# Convention : Reuss Voigt Hill
#
# Bulk Modulus (GPa) = 50.04346 70.45991 60.25168
# Shear Modulus (GPa) = 8.19779 31.06659 19.63219
#
# Velocity S-wave (km/s) = 1.82874 3.56000 2.83001
# Velocity P-wave (km/s) = 4.98741 6.75590 5.93786
#
# Compressibility (1/GPa) = 0.01998263
#
# Stress axis : x y z
#
# Youngs Moduli (GPa) = 110.10527 137.42147 98.18060
#
# Poissons Ratio (x) = -0.02302 0.00797
# Poissons Ratio (y) = -0.01844 0.33060
# Poissons Ratio (z) = 0.00893 0.46273
#
# Static dielectric constant tensor:
#      x y z
#    x 1.981000 0.000000 -0.034670 
#    y 0.000000 1.941200 0.000000 
#    z -0.034670 0.000000 1.983890 
# 
# From -- ./inp_files/263055.got.cif
#   From: 2010.05.17/outbox.cif.g08.bks.cpg/sg12_132_cif.got.tgz:263055.got - 2010.06.03 13:09:07.
