data_PCOD9214350
_publ_section_title
;
Structure prediction by ZEFSAII (Michael W. Deem and Ramdas Pophale) SiO2 
 PCOD9214350
Probable space group: C 2/M
;
_chemical_formula_sum "Si O2"
_cell_formula_units_Z 24
_cell_length_a 6.732965
_cell_length_b 13.409725
_cell_length_c 9.558677
_cell_angle_alpha 90.000000
_cell_angle_beta 109.890827
_cell_angle_gamma 90.000000
_cell_volume 811.540374
_symmetry_space_group_name_H-M "C 2/M"
_symmetry_group_IT_number 12
_symmetry_cell_setting 'monoclinic'
loop_
_space_group_symop_operation_xyz
x,y,z
-x,y,-z
-x,-y,-z
x,-y,z
1/2+x,1/2+y,z
1/2-x,1/2+y,-z
1/2-x,1/2-y,-z
1/2+x,1/2-y,z
loop_
_atom_site_type_symbol
_atom_site_label
_atom_site_fract_x
_atom_site_fract_y
_atom_site_fract_z
Si Si1 0.699095 0.618229 0.456874
Si Si2 0.461953 0.113300 0.787293
Si Si3 0.449384 0.669837 0.141192
O O1 0.500000 0.656820 0.500000
O O2 0.679299 0.500000 0.437883
O O3 0.894789 0.631136 0.608963
O O4 0.652904 0.658447 0.292163
O O5 0.583502 0.210287 0.871760
O O6 0.243255 0.117095 0.824901
O O7 0.545969 0.000000 0.819918
O O8 0.500000 0.629811 0.000000
#
# Coordination Sequence:
#
# PCOD9214350 Si02
#       3
#     8   8   8
#     4   8  16  33  57  81 108 147 187 224 273 330
#     4  10  22  40  59  81 113 151 188 227 275 333
#     4  11  21  36  59  86 114 146 185 232 282 328
#
# _framework density 29.57339
#
# number of rings (size 3 to 8) (size 9 to 14) (size 15 to 20)
#    0.000    2.333    0.000    5.000    0.000    3.333 
#    0.000    3.333    0.000   13.000    0.000    0.000 
#    0.000    0.000    0.000    0.000    0.000    0.000 
#
# Total GULP energy -67348.730553 kJ/mol
# GULP energy per Si atom -5612.394213 kJ/mol
# Density = 2.950608 g / cm^3
# Si number density = 29.573390 Si / 1000 Ang^3
#
#
#
# Elastic Constant Matrix: (Units=GPa)
#
#
# Indices 1 2 3 4 5 6 
#
# 1 95.0234 17.1637 42.8504 0.0000 0.1411 0.0000
# 2 17.1637 204.5730 44.9793 0.0000 6.9117 0.0000
# 3 42.8504 44.9793 265.4052 0.0000 -39.3483 0.0000
# 4 0.0000 0.0000 0.0000 31.7519 0.0000 9.4915
# 5 0.1411 6.9117 -39.3483 0.0000 54.3126 0.0000
# 6 0.0000 0.0000 0.0000 9.4915 0.0000 49.3487
#
#
#
# Elastic Compliance Matrix: (Units=1/GPa)
#
#
# Indices 1 2 3 4 5 6 
#
# 1 0.011508 -0.000482 -0.001985 0.000000 -0.001407 0.000000
# 2 -0.000482 0.005198 -0.001009 0.000000 -0.001391 0.000000
# 3 -0.001985 -0.001009 0.004794 0.000000 0.003607 0.000000
# 4 0.000000 0.000000 0.000000 0.033415 0.000000 -0.006427
# 5 -0.001407 -0.001391 0.003607 0.000000 0.021206 0.000000
# 6 0.000000 0.000000 0.000000 -0.006427 0.000000 0.021500
#
#
# Mechanical properties :
#
#
# Convention : Reuss Voigt Hill
#
# Bulk Modulus (GPa) = 68.73886 86.10981 77.42434
# Shear Modulus (GPa) = 45.69478 57.74988 51.72233
#
# Velocity S-wave (km/s) = 3.93508 4.42380 4.18658
# Velocity P-wave (km/s) = 6.62876 7.43464 7.04324
#
# Compressibility (1/GPa) = 0.01454781
#
# Stress axis : x y z
#
# Youngs Moduli (GPa) = 86.89691 192.39712 208.58968
#
# Poissons Ratio (x) = 0.09265 0.41403
# Poissons Ratio (y) = 0.04185 0.21055
# Poissons Ratio (z) = 0.17248 0.19421
#
# Static dielectric constant tensor:
#      x y z
#    x 2.390680 0.000000 0.013810 
#    y 0.000000 2.147030 0.000000 
#    z 0.013810 0.000000 2.253940 
# 
# From -- ./inp_files/35705.got.cif
#   From: 2010.05.17/outbox.cif.g08.bks.cpg/sg12_18_cif.got.tgz:35705.got - 2010.06.03 13:09:07.
