data_PCOD9214833
_publ_section_title
;
Structure prediction by ZEFSAII (Michael W. Deem and Ramdas Pophale) SiO2 
 PCOD9214833
Probable space group: C 2/M
;
_chemical_formula_sum "Si O2"
_cell_formula_units_Z 40
_cell_length_a 9.588503
_cell_length_b 27.408044
_cell_length_c 15.476879
_cell_angle_alpha 90.000000
_cell_angle_beta 24.096478
_cell_angle_gamma 90.000000
_cell_volume 1660.597316
_symmetry_space_group_name_H-M "C 2/M"
_symmetry_group_IT_number 12
_symmetry_cell_setting 'monoclinic'
loop_
_space_group_symop_operation_xyz
x,y,z
-x,y,-z
-x,-y,-z
x,-y,z
1/2+x,1/2+y,z
1/2-x,1/2+y,-z
1/2-x,1/2-y,-z
1/2+x,1/2-y,z
loop_
_atom_site_type_symbol
_atom_site_label
_atom_site_fract_x
_atom_site_fract_y
_atom_site_fract_z
Si Si1 0.956431 0.690650 0.625853
Si Si2 0.401284 0.555483 0.798176
Si Si3 0.796449 0.127629 0.012470
Si Si4 0.944564 0.283156 0.132564
Si Si5 0.742894 0.607535 0.444657
O O1 0.885351 0.748181 0.673578
O O2 0.000000 0.680461 0.500000
O O3 0.233823 0.661885 0.525911
O O4 0.606811 0.664490 0.852598
O O5 0.493803 0.500000 0.767569
O O6 0.621393 0.574121 0.592385
O O7 0.425766 0.591679 0.865021
O O8 0.000000 0.556724 0.000000
O O9 0.496525 0.164591 0.147994
O O10 0.617323 0.098565 0.191431
O O11 0.000000 0.291171 0.000000
O O12 0.250000 0.250000 0.000000
O O13 0.500000 0.600375 0.500000
#
# Coordination Sequence:
#
# PCOD9214833 Si02
#       5
#     8   8   8   8   8
#     4  11  23  44  69 103 147 192 231 288 349 420
#     4  11  24  45  73 106 142 182 234 299 360 420
#     4  11  23  46  70 100 146 186 235 293 348 420
#     4  10  22  40  64  96 138 186 235 274 340 413
#     4  12  25  42  74 104 139 186 238 288 355 419
#
# _framework density 24.087717000000001
#
# number of rings (size 3 to 8) (size 9 to 14) (size 15 to 20)
#    0.000    1.000    4.000    3.600    0.000    2.000 
#    0.000    6.000    0.000    2.400    0.000    0.000 
#    0.000    0.000    0.000    0.000    0.000    0.000 
#
# Total GULP energy -111841.857175 kJ/mol
# GULP energy per Si atom -5592.092859 kJ/mol
# Density = 2.403289 g / cm^3
# Si number density = 24.087717 Si / 1000 Ang^3
#
#
#
# Elastic Constant Matrix: (Units=GPa)
#
#
# Indices 1 2 3 4 5 6 
#
# 1 66.9767 22.7186 21.5665 0.0009 29.3784 -0.0011
# 2 22.7186 151.7513 36.1808 0.0001 14.0972 -0.0001
# 3 21.5665 36.1808 131.8944 0.0011 35.2075 -0.0013
# 4 0.0009 0.0001 0.0011 8.8048 -0.0008 19.0103
# 5 29.3784 14.0972 35.2075 -0.0008 59.6819 0.0009
# 6 -0.0011 -0.0001 -0.0013 19.0103 0.0009 -8.0369
#
#
#
# Elastic Compliance Matrix: (Units=1/GPa)
#
#
# Indices 1 2 3 4 5 6 
#
# 1 0.019676 -0.002047 -0.000237 0.000001 -0.009063 -0.000002
# 2 -0.002047 0.007283 -0.001748 0.000000 0.000319 0.000000
# 3 -0.000237 -0.001748 0.009446 0.000000 -0.005043 -0.000001
# 4 0.000001 0.000000 0.000000 0.018597 -0.000001 0.043990
# 5 -0.009063 0.000319 -0.005043 -0.000001 0.024116 0.000002
# 6 -0.000002 0.000000 -0.000001 0.043990 0.000002 -0.020374
#
#
# Mechanical properties :
#
#
# Convention : Reuss Voigt Hill
#
# Bulk Modulus (GPa) = 35.28394 56.83935 46.06164
# Shear Modulus (GPa) = 65.56744 30.10039 47.83392
#
# Velocity S-wave (km/s) = 5.22297 3.53883 4.46109
# Velocity P-wave (km/s) = 7.14510 6.35183 6.76011
#
# Compressibility (1/GPa) = 0.02834151
#
# Stress axis : x y z
#
# Youngs Moduli (GPa) = 50.82229 137.29722 105.86157
#
# Poissons Ratio (x) = 0.28111 0.02504
# Poissons Ratio (y) = 0.10406 0.18508
# Poissons Ratio (z) = 0.01202 0.24004
#
# Static dielectric constant tensor:
#      x y z
#    x 2.026590 0.000000 -0.068640 
#    y 0.000000 1.914730 0.000000 
#    z -0.068640 0.000000 1.960450 
# 
# From -- ./inp_files/201109.got.cif
#   From: 2010.05.17/outbox.cif.g08.bks.cpg/sg12_101_cif.got.tgz:201109.got - 2010.06.03 13:09:07.
