data_PCOD9214078
_publ_section_title
;
Structure prediction by ZEFSAII (Michael W. Deem and Ramdas Pophale) SiO2 
 PCOD9214078
Probable space group: C 2/M
;
_chemical_formula_sum "Si O2"
_cell_formula_units_Z 64
_cell_length_a 16.010766
_cell_length_b 15.081648
_cell_length_c 23.548501
_cell_angle_alpha 90.000000
_cell_angle_beta 144.850851
_cell_angle_gamma 90.000000
_cell_volume 3273.599768
_symmetry_space_group_name_H-M "C 2/M"
_symmetry_group_IT_number 12
_symmetry_cell_setting 'monoclinic'
loop_
_space_group_symop_operation_xyz
x,y,z
-x,y,-z
-x,-y,-z
x,-y,z
1/2+x,1/2+y,z
1/2-x,1/2+y,-z
1/2-x,1/2-y,-z
1/2+x,1/2-y,z
loop_
_atom_site_type_symbol
_atom_site_label
_atom_site_fract_x
_atom_site_fract_y
_atom_site_fract_z
Si Si1 0.671779 0.603724 0.595188
Si Si2 0.869658 0.176651 0.081241
Si Si3 0.652261 0.598182 0.052008
Si Si4 0.112558 0.901753 0.788025
Si Si5 0.636199 0.104927 0.408845
Si Si6 0.345187 0.215217 0.237529
Si Si7 0.263744 0.599875 0.603540
Si Si8 0.297564 0.730266 0.722666
O O1 0.500000 0.622147 0.500000
O O2 0.691903 0.500000 0.620952
O O3 0.741916 0.617754 0.571782
O O4 0.751297 0.670048 0.682148
O O5 0.835443 0.123320 0.119640
O O6 0.028645 0.219510 0.178671
O O7 0.750000 0.250000 0.000000
O O8 0.875304 0.114115 0.029476
O O9 0.714537 0.500000 0.096083
O O10 0.756188 0.671111 0.136881
O O11 0.500000 0.603637 0.000000
O O12 0.153202 0.820526 0.770547
O O13 0.937605 0.902743 0.692925
O O14 0.162388 0.000000 0.798924
O O15 0.503173 0.170735 0.323910
O O16 0.696207 0.122634 0.505203
O O17 0.593712 0.000000 0.382870
O O18 0.268398 0.197464 0.254735
O O19 0.216323 0.500000 0.593101
O O20 0.234927 0.669574 0.637022
#
# Coordination Sequence:
#
# PCOD9214078 Si02
#       8
#     8   8   8   8   8   8   8   8
#     4  10  24  44  64  88 125 171 218 262 309 374
#     4  11  21  42  68  89 123 163 208 261 316 374
#     4  11  23  41  65  90 122 163 204 254 320 383
#     4  10  22  39  62  90 119 163 211 250 301 371
#     4  10  22  41  64  93 124 162 209 260 318 374
#     4  12  24  39  62  93 130 159 205 264 311 378
#     4   9  21  40  63  89 124 164 206 253 308 373
#     4  11  25  39  62  96 126 163 210 258 317 376
#
# _framework density 19.550343999999999
#
# number of rings (size 3 to 8) (size 9 to 14) (size 15 to 20)
#    0.000    1.500    2.500    2.250    3.500    3.000 
#    0.000    1.875    0.000    1.125    0.000    0.000 
#    0.000    0.000    0.000    0.000    0.000    0.000 
#
# Total GULP energy -178809.018572 kJ/mol
# GULP energy per Si atom -5587.781830 kJ/mol
# Density = 1.950585 g / cm^3
# Si number density = 19.550344 Si / 1000 Ang^3
#
#
#
# Elastic Constant Matrix: (Units=GPa)
#
#
# Indices 1 2 3 4 5 6 
#
# 1 64.6823 25.2405 26.2285 0.0001 -1.4823 0.0000
# 2 25.2405 106.4803 51.9618 0.0001 6.2921 0.0000
# 3 26.2285 51.9618 93.5706 0.0004 -8.0549 0.0001
# 4 0.0001 0.0001 0.0004 23.5407 0.0001 4.1657
# 5 -1.4823 6.2921 -8.0549 0.0001 25.1363 0.0000
# 6 0.0000 0.0000 0.0001 4.1657 0.0000 8.2728
#
#
#
# Elastic Compliance Matrix: (Units=1/GPa)
#
#
# Indices 1 2 3 4 5 6 
#
# 1 0.017908 -0.002539 -0.003562 0.000000 0.000550 0.000000
# 2 -0.002539 0.014081 -0.007634 0.000000 -0.006121 0.000000
# 3 -0.003562 -0.007634 0.016528 0.000000 0.006997 0.000000
# 4 0.000000 0.000000 0.000000 0.046635 0.000000 -0.023483
# 5 0.000550 -0.006121 0.006997 0.000000 0.043590 0.000000
# 6 0.000000 0.000000 0.000000 -0.023483 0.000000 0.132702
#
#
# Mechanical properties :
#
#
# Convention : Reuss Voigt Hill
#
# Bulk Modulus (GPa) = 47.51845 52.39941 49.95893
# Shear Modulus (GPa) = 16.34360 22.14346 19.24353
#
# Velocity S-wave (km/s) = 2.89446 3.36912 3.14077
# Velocity P-wave (km/s) = 5.96062 6.48036 6.22592
#
# Compressibility (1/GPa) = 0.02104446
#
# Stress axis : x y z
#
# Youngs Moduli (GPa) = 55.84047 71.02017 60.50486
#
# Poissons Ratio (x) = 0.18033 0.21554
# Poissons Ratio (y) = 0.14178 0.46192
# Poissons Ratio (z) = 0.19893 0.54220
#
# Static dielectric constant tensor:
#      x y z
#    x 1.664800 0.000000 -0.004930 
#    y 0.000000 1.701450 0.000000 
#    z -0.004930 0.000000 1.651510 
# 
# From -- ./inp_files/270676.got.cif
#   From: 2010.05.17/outbox.cif.g08.bks.cpg/sg12_136_cif.got.tgz:270676.got - 2010.06.03 13:09:07.
