data_PCOD9214397
_publ_section_title
;
Structure prediction by ZEFSAII (Michael W. Deem and Ramdas Pophale) SiO2 
 PCOD9214397
Probable space group: C 2/M
;
_chemical_formula_sum "Si O2"
_cell_formula_units_Z 40
_cell_length_a 9.897184
_cell_length_b 9.185327
_cell_length_c 21.849292
_cell_angle_alpha 90.000000
_cell_angle_beta 97.056859
_cell_angle_gamma 90.000000
_cell_volume 1971.247745
_symmetry_space_group_name_H-M "C 2/M"
_symmetry_group_IT_number 12
_symmetry_cell_setting 'monoclinic'
loop_
_space_group_symop_operation_xyz
x,y,z
-x,y,-z
-x,-y,-z
x,-y,z
1/2+x,1/2+y,z
1/2-x,1/2+y,-z
1/2-x,1/2-y,-z
1/2+x,1/2-y,z
loop_
_atom_site_type_symbol
_atom_site_label
_atom_site_fract_x
_atom_site_fract_y
_atom_site_fract_z
Si Si1 0.530160 0.327167 0.368003
Si Si2 0.885765 0.172678 0.833719
Si Si3 0.361308 0.327626 0.235979
Si Si4 0.277808 0.673030 0.437272
Si Si5 0.351917 0.832588 0.960651
O O1 0.562712 0.500000 0.369467
O O2 0.445840 0.294690 0.301968
O O3 0.427495 0.298096 0.418610
O O4 0.665511 0.234435 0.384109
O O5 0.773150 0.233693 0.780643
O O6 0.862850 0.253474 0.896270
O O7 0.035422 0.199736 0.814551
O O8 0.869130 0.000000 0.840107
O O9 0.327616 0.500000 0.235293
O O10 0.263548 0.500000 0.442851
O O11 0.250000 0.750000 0.500000
O O12 0.307893 0.000000 0.949507
O O13 0.500000 0.832004 0.000000
O O14 0.250000 0.750000 0.000000
#
# Coordination Sequence:
#
# PCOD9214397 Si02
#       5
#     8   8   8   8   8
#     4  10  22  40  60  85 117 152 193 240 289 343
#     4  11  23  38  60  89 118 152 193 236 286 344
#     4  10  22  40  61  86 118 154 192 238 289 342
#     4  11  23  38  59  86 116 153 195 240 291 346
#     4  11  24  41  62  88 118 154 195 239 288 342
#
# _framework density 20.291716000000001
#
# number of rings (size 3 to 8) (size 9 to 14) (size 15 to 20)
#    0.000    1.400    0.000    4.800    0.000   11.200 
#    0.000    0.000    0.000    0.000    0.000    0.000 
#    0.000    0.000    0.000    0.000    0.000    0.000 
#
# Total GULP energy -111926.040183 kJ/mol
# GULP energy per Si atom -5596.302009 kJ/mol
# Density = 2.024553 g / cm^3
# Si number density = 20.291716 Si / 1000 Ang^3
#
#
#
# Elastic Constant Matrix: (Units=GPa)
#
#
# Indices 1 2 3 4 5 6 
#
# 1 56.1653 35.6276 -11.4000 0.0000 4.0013 0.0000
# 2 35.6276 63.8802 7.4151 0.0000 -4.6282 0.0000
# 3 -11.4000 7.4151 57.0824 0.0000 -9.6829 0.0000
# 4 0.0000 0.0000 0.0000 38.1431 0.0000 6.6781
# 5 4.0013 -4.6282 -9.6829 0.0000 32.2808 0.0000
# 6 0.0000 0.0000 0.0000 6.6781 0.0000 29.5678
#
#
#
# Elastic Compliance Matrix: (Units=1/GPa)
#
#
# Indices 1 2 3 4 5 6 
#
# 1 0.031784 -0.018973 0.008094 0.000000 -0.004232 0.000000
# 2 -0.018973 0.027314 -0.006610 0.000000 0.004285 0.000000
# 3 0.008094 -0.006610 0.020717 0.000000 0.004263 0.000000
# 4 0.000000 0.000000 0.000000 0.027296 0.000000 -0.006165
# 5 -0.004232 0.004285 0.004263 0.000000 0.033396 0.000000
# 6 0.000000 0.000000 0.000000 -0.006165 0.000000 0.035213
#
#
# Mechanical properties :
#
#
# Convention : Reuss Voigt Hill
#
# Bulk Modulus (GPa) = 22.30297 26.71259 24.50778
# Shear Modulus (GPa) = 22.15876 29.69735 25.92805
#
# Velocity S-wave (km/s) = 3.30814 3.82975 3.57846
# Velocity P-wave (km/s) = 5.06031 5.72266 5.40165
#
# Compressibility (1/GPa) = 0.04483707
#
# Stress axis : x y z
#
# Youngs Moduli (GPa) = 31.46204 36.61144 48.26959
#
# Poissons Ratio (x) = 0.69463 -0.39072
# Poissons Ratio (y) = 0.59693 0.31908
# Poissons Ratio (z) = -0.25467 0.24202
#
# Static dielectric constant tensor:
#      x y z
#    x 1.693340 0.000000 0.002600 
#    y 0.000000 1.671560 0.000000 
#    z 0.002600 0.000000 1.729310 
# 
# From -- ./inp_files/303446.got.cif
#   From: 2010.05.17/outbox.cif.g08.bks.cpg/sg12_152_cif.got.tgz:303446.got - 2010.06.03 13:09:07.
