data_PCOD9214012
_publ_section_title
;
Structure prediction by ZEFSAII (Michael W. Deem and Ramdas Pophale) SiO2 
 PCOD9214012
Probable space group: C 2/M
;
_chemical_formula_sum "Si O2"
_cell_formula_units_Z 40
_cell_length_a 27.075193
_cell_length_b 7.574085
_cell_length_c 10.985975
_cell_angle_alpha 90.000000
_cell_angle_beta 131.531197
_cell_angle_gamma 90.000000
_cell_volume 1686.503161
_symmetry_space_group_name_H-M "C 2/M"
_symmetry_group_IT_number 12
_symmetry_cell_setting 'monoclinic'
loop_
_space_group_symop_operation_xyz
x,y,z
-x,y,-z
-x,-y,-z
x,-y,z
1/2+x,1/2+y,z
1/2-x,1/2+y,-z
1/2-x,1/2-y,-z
1/2+x,1/2-y,z
loop_
_atom_site_type_symbol
_atom_site_label
_atom_site_fract_x
_atom_site_fract_y
_atom_site_fract_z
Si Si1 0.177976 0.789247 0.824681
Si Si2 0.035167 0.706273 0.675472
Si Si3 0.333401 0.210177 0.731846
Si Si4 0.963057 0.716642 0.060651
Si Si5 0.188835 0.212334 0.566241
O O1 0.114359 0.716923 0.791522
O O2 0.172456 0.724426 0.674982
O O3 0.171459 0.000000 0.813262
O O4 0.250000 0.750000 0.000000
O O5 0.016476 0.500000 0.647782
O O6 0.013806 0.781614 0.770617
O O7 0.000000 0.786460 0.500000
O O8 0.261696 0.282115 0.648843
O O9 0.352513 0.242928 0.622167
O O10 0.329460 0.000000 0.738577
O O11 0.388028 0.273353 0.914324
O O12 0.965250 0.500000 0.065941
O O13 0.000000 0.774054 0.000000
O O14 0.190614 0.000000 0.575606
#
# Coordination Sequence:
#
# PCOD9214012 Si02
#       5
#     8   8   8   8   8
#     4  11  23  39  61  86 118 157 197 245 300 354
#     4  10  22  39  61  90 122 157 200 245 291 352
#     4   9  17  31  54  79 107 142 186 234 280 337
#     4   9  18  33  55  82 113 149 190 236 284 335
#     4   9  19  34  52  79 112 145 181 233 292 340
#
# _framework density 23.717711999999999
#
# number of rings (size 3 to 8) (size 9 to 14) (size 15 to 20)
#    0.000    2.400    0.000    1.800    2.800    5.200 
#    0.000    5.000    0.000    1.200    0.000    0.000 
#    0.000    0.000    0.000    0.000    0.000    0.000 
#
# Total GULP energy -111688.775722 kJ/mol
# GULP energy per Si atom -5584.438786 kJ/mol
# Density = 2.366373 g / cm^3
# Si number density = 23.717712 Si / 1000 Ang^3
#
#
#
# Elastic Constant Matrix: (Units=GPa)
#
#
# Indices 1 2 3 4 5 6 
#
# 1 100.8462 -12.4627 48.2755 0.0000 -36.8247 0.0000
# 2 -12.4627 59.6911 -2.0080 0.0000 -5.2219 0.0000
# 3 48.2755 -2.0080 139.6621 0.0000 -38.7152 0.0000
# 4 0.0000 0.0000 0.0000 11.5533 0.0000 -1.4417
# 5 -36.8247 -5.2219 -38.7152 0.0000 44.6584 0.0000
# 6 0.0000 0.0000 0.0000 -1.4417 0.0000 14.0759
#
#
#
# Elastic Compliance Matrix: (Units=1/GPa)
#
#
# Indices 1 2 3 4 5 6 
#
# 1 0.015692 0.004215 -0.002159 0.000000 0.011561 0.000000
# 2 0.004215 0.018174 0.000470 0.000000 0.006008 0.000000
# 3 -0.002159 0.000470 0.009787 0.000000 0.006759 0.000000
# 4 0.000000 0.000000 0.000000 0.087676 0.000000 0.008980
# 5 0.011561 0.006008 0.006759 0.000000 0.038487 0.000000
# 6 0.000000 0.000000 0.000000 0.008980 0.000000 0.071963
#
#
# Mechanical properties :
#
#
# Convention : Reuss Voigt Hill
#
# Bulk Modulus (GPa) = 20.53173 40.86765 30.69969
# Shear Modulus (GPa) = 19.76580 31.81717 25.79149
#
# Velocity S-wave (km/s) = 2.88996 3.66661 3.30121
# Velocity P-wave (km/s) = 4.45099 5.93243 5.24428
#
# Compressibility (1/GPa) = 0.04870510
#
# Stress axis : x y z
#
# Youngs Moduli (GPa) = 63.72742 55.02261 102.17870
#
# Poissons Ratio (x) = -0.23192 0.22058
# Poissons Ratio (y) = -0.26861 -0.04801
# Poissons Ratio (z) = 0.13757 -0.02585
#
# Static dielectric constant tensor:
#      x y z
#    x 1.922070 0.000000 -0.004280 
#    y 0.000000 1.874940 0.000000 
#    z -0.004280 0.000000 1.928180 
# 
# From -- ./inp_files/180306.got.cif
#   From: 2010.05.17/outbox.cif.g08.bks.cpg/sg12_91_cif.got.tgz:180306.got - 2010.06.03 13:09:07.
