data_PCOD9214684
_publ_section_title
;
Structure prediction by ZEFSAII (Michael W. Deem and Ramdas Pophale) SiO2 
 PCOD9214684
Probable space group: C 2/M
;
_chemical_formula_sum "Si O2"
_cell_formula_units_Z 48
_cell_length_a 9.984803
_cell_length_b 8.364140
_cell_length_c 25.117275
_cell_angle_alpha 90.000000
_cell_angle_beta 75.727639
_cell_angle_gamma 90.000000
_cell_volume 2032.906897
_symmetry_space_group_name_H-M "C 2/M"
_symmetry_group_IT_number 12
_symmetry_cell_setting 'monoclinic'
loop_
_space_group_symop_operation_xyz
x,y,z
-x,y,-z
-x,-y,-z
x,-y,z
1/2+x,1/2+y,z
1/2-x,1/2+y,-z
1/2-x,1/2-y,-z
1/2+x,1/2-y,z
loop_
_atom_site_type_symbol
_atom_site_label
_atom_site_fract_x
_atom_site_fract_y
_atom_site_fract_z
Si Si1 0.757944 0.688728 0.113845
Si Si2 0.265325 0.500000 0.522322
Si Si3 0.962098 0.190630 0.945517
Si Si4 0.933195 0.313234 0.775427
Si Si5 0.408658 0.179232 0.385163
Si Si6 0.763540 0.309972 0.289770
Si Si7 0.988915 0.000000 0.416440
O O1 0.783070 0.500000 0.106138
O O2 0.904742 0.773639 0.103759
O O3 0.674952 0.752382 0.070072
O O4 0.656655 0.718397 0.173019
O O5 0.169178 0.647336 0.550684
O O6 0.336106 0.500000 0.458418
O O7 0.392916 0.500000 0.551036
O O8 0.945074 0.000000 0.951792
O O9 0.000000 0.257354 0.000000
O O10 0.929082 0.500000 0.789875
O O11 0.858676 0.285165 0.726132
O O12 0.092812 0.265601 0.754352
O O13 0.302172 0.213162 0.347820
O O14 0.498952 0.336408 0.382971
O O15 0.467808 0.000000 0.368257
O O16 0.740531 0.500000 0.284316
#
# Coordination Sequence:
#
# PCOD9214684 Si02
#       7
#     8   4   8   8   8   8   4
#     4  11  23  39  60  89 122 159 202 250 304 357
#     4   9  22  40  59  93 123 157 212 253 304 387
#     4  10  22  40  63  91 124 160 202 248 299 361
#     4  11  24  40  62  88 118 160 206 249 308 369
#     4   9  22  39  59  89 123 156 205 260 305 378
#     4  10  23  41  60  89 122 155 204 258 307 367
#     4  11  20  40  63  87 125 165 202 253 318 371
#
# _framework density 23.611508000000001
#
# number of rings (size 3 to 8) (size 9 to 14) (size 15 to 20)
#    0.500    1.333    0.000    3.000    3.500    5.667 
#    1.500    0.833    0.000    0.000    0.000    0.000 
#    0.000    0.000    0.000    0.000    0.000    0.000 
#
# Total GULP energy -134137.825851 kJ/mol
# GULP energy per Si atom -5589.076077 kJ/mol
# Density = 2.355777 g / cm^3
# Si number density = 23.611508 Si / 1000 Ang^3
#
#
#
# Elastic Constant Matrix: (Units=GPa)
#
#
# Indices 1 2 3 4 5 6 
#
# 1 72.6511 19.5185 -14.1927 0.0000 -2.2706 0.0000
# 2 19.5185 67.6667 -3.6545 0.0000 12.9389 0.0000
# 3 -14.1927 -3.6545 60.8737 0.0000 -4.5285 0.0000
# 4 0.0000 0.0000 0.0000 21.6626 0.0000 2.1370
# 5 -2.2706 12.9389 -4.5285 0.0000 31.7365 0.0000
# 6 0.0000 0.0000 0.0000 2.1370 0.0000 18.4686
#
#
#
# Elastic Compliance Matrix: (Units=1/GPa)
#
#
# Indices 1 2 3 4 5 6 
#
# 1 0.015983 -0.005130 0.003698 0.000000 0.003763 0.000000
# 2 -0.005130 0.017688 -0.000705 0.000000 -0.007679 0.000000
# 3 0.003698 -0.000705 0.017474 0.000000 0.003046 0.000000
# 4 0.000000 0.000000 0.000000 0.046696 0.000000 -0.005403
# 5 0.003763 -0.007679 0.003046 0.000000 0.035344 0.000000
# 6 0.000000 0.000000 0.000000 -0.005403 0.000000 0.054771
#
#
# Mechanical properties :
#
#
# Convention : Reuss Voigt Hill
#
# Bulk Modulus (GPa) = 21.33521 22.72599 22.03060
# Shear Modulus (GPa) = 24.05537 27.67487 25.86512
#
# Velocity S-wave (km/s) = 3.19533 3.42730 3.31334
# Velocity P-wave (km/s) = 4.76120 5.03067 4.89779
#
# Compressibility (1/GPa) = 0.04687089
#
# Stress axis : x y z
#
# Youngs Moduli (GPa) = 62.56748 56.53434 57.22804
#
# Poissons Ratio (x) = 0.29002 -0.21165
# Poissons Ratio (y) = 0.32097 0.04037
# Poissons Ratio (z) = -0.23140 0.03988
#
# Static dielectric constant tensor:
#      x y z
#    x 1.858230 0.000000 -0.031400 
#    y 0.000000 1.853820 0.000000 
#    z -0.031400 0.000000 1.965360 
# 
# From -- ./inp_files/334802.got.cif
#   From: 2010.05.17/outbox.cif.g08.bks.cpg/sg12_168_cif.got.tgz:334802.got - 2010.06.03 13:09:07.
