data_PCOD9214645
_publ_section_title
;
Structure prediction by ZEFSAII (Michael W. Deem and Ramdas Pophale) SiO2 
 PCOD9214645
Probable space group: C 2/M
;
_chemical_formula_sum "Si O2"
_cell_formula_units_Z 56
_cell_length_a 18.943091
_cell_length_b 25.816643
_cell_length_c 8.939175
_cell_angle_alpha 90.000000
_cell_angle_beta 135.455604
_cell_angle_gamma 90.000000
_cell_volume 3066.563982
_symmetry_space_group_name_H-M "C 2/M"
_symmetry_group_IT_number 12
_symmetry_cell_setting 'monoclinic'
loop_
_space_group_symop_operation_xyz
x,y,z
-x,y,-z
-x,-y,-z
x,-y,z
1/2+x,1/2+y,z
1/2-x,1/2+y,-z
1/2-x,1/2-y,-z
1/2+x,1/2-y,z
loop_
_atom_site_type_symbol
_atom_site_label
_atom_site_fract_x
_atom_site_fract_y
_atom_site_fract_z
Si Si1 0.197774 0.151213 0.469193
Si Si2 0.120208 0.060707 0.151061
Si Si3 0.230362 0.283178 0.680763
Si Si4 0.693429 0.374863 0.991740
Si Si5 0.190199 0.330109 0.096358
Si Si6 0.496620 0.684810 0.657001
Si Si7 0.010104 0.283826 0.193208
O O1 0.176041 0.099301 0.347958
O O2 0.202526 0.199872 0.362106
O O3 0.298686 0.148687 0.718380
O O4 0.108233 0.161051 0.450768
O O5 0.168494 0.077091 0.063324
O O6 0.135029 0.000000 0.199351
O O7 0.000000 0.071268 0.000000
O O8 0.253519 0.329286 0.830904
O O9 0.258159 0.227953 0.800575
O O10 0.116743 0.286295 0.441475
O O11 0.756515 0.370339 0.934619
O O12 0.581741 0.357675 0.777726
O O13 0.076666 0.320633 0.873220
O O14 0.500000 0.711446 0.500000
O O15 0.525904 0.725496 0.827443
O O16 0.000000 0.291058 0.000000
#
# Coordination Sequence:
#
# PCOD9214645 Si02
#       7
#     8   8   8   8   8   8   8
#     4  11  21  36  56  81 115 156 191 229 284 338
#     4  10  22  40  63  86 109 143 191 240 293 352
#     4  11  22  36  53  82 118 161 199 231 270 334
#     4  11  23  36  56  84 116 156 187 235 287 342
#     4  12  22  35  54  83 120 157 197 227 281 335
#     4  12  22  32  53  81 123 159 193 226 278 334
#     4  12  24  34  52  80 119 165 200 234 256 327
#
# _framework density 18.261482000000001
#
# number of rings (size 3 to 8) (size 9 to 14) (size 15 to 20)
#    0.000    0.714    7.143    1.714    4.000    0.000 
#    0.000    0.714    0.000    2.571    0.000   16.000 
#    0.000    0.000    0.000    0.000    0.000    0.000 
#
# Total GULP energy -155934.141957 kJ/mol
# GULP energy per Si atom -5569.076498 kJ/mol
# Density = 1.821992 g / cm^3
# Si number density = 18.261482 Si / 1000 Ang^3
#
#
#
# Elastic Constant Matrix: (Units=GPa)
#
#
# Indices 1 2 3 4 5 6 
#
# 1 77.4489 17.2243 15.8225 0.0000 -5.2375 0.0000
# 2 17.2243 75.4744 17.9009 0.0000 0.3931 0.0000
# 3 15.8225 17.9009 74.0792 0.0000 7.9907 0.0000
# 4 0.0000 0.0000 0.0000 13.6278 0.0000 0.5526
# 5 -5.2375 0.3931 7.9907 0.0000 29.5403 0.0000
# 6 0.0000 0.0000 0.0000 0.5526 0.0000 21.6161
#
#
#
# Elastic Compliance Matrix: (Units=1/GPa)
#
#
# Indices 1 2 3 4 5 6 
#
# 1 0.014286 -0.002619 -0.002776 0.000000 0.003319 0.000000
# 2 -0.002619 0.014552 -0.002973 0.000000 0.000146 0.000000
# 3 -0.002776 -0.002973 0.015306 0.000000 -0.004593 0.000000
# 4 0.000000 0.000000 0.000000 0.073455 0.000000 -0.001878
# 5 0.003319 0.000146 -0.004593 0.000000 0.035681 0.000000
# 6 0.000000 0.000000 0.000000 -0.001878 0.000000 0.046310
#
#
# Mechanical properties :
#
#
# Convention : Reuss Voigt Hill
#
# Bulk Modulus (GPa) = 36.48703 36.54422 36.51562
# Shear Modulus (GPa) = 22.17678 24.69385 23.43531
#
# Velocity S-wave (km/s) = 3.48861 3.68127 3.58623
# Velocity P-wave (km/s) = 6.02087 6.17447 6.09815
#
# Compressibility (1/GPa) = 0.02740700
#
# Stress axis : x y z
#
# Youngs Moduli (GPa) = 69.99940 68.72141 65.33461
#
# Poissons Ratio (x) = 0.17998 0.18139
# Poissons Ratio (y) = 0.18333 0.19422
# Poissons Ratio (z) = 0.19435 0.20429
#
# Static dielectric constant tensor:
#      x y z
#    x 1.756710 0.000000 0.001520 
#    y 0.000000 1.596130 0.000000 
#    z 0.001520 0.000000 1.700680 
# 
# From -- ./inp_files/65442.got.cif
#   From: 2010.05.17/outbox.cif.g08.bks.cpg/sg12_33_cif.got.tgz:65442.got - 2010.06.03 13:09:07.
