data_PCOD9214997
_publ_section_title
;
Structure prediction by ZEFSAII (Michael W. Deem and Ramdas Pophale) SiO2 
 PCOD9214997
Probable space group: C 2/M
;
_chemical_formula_sum "Si O2"
_cell_formula_units_Z 64
_cell_length_a 14.388377
_cell_length_b 21.368656
_cell_length_c 18.296007
_cell_angle_alpha 90.000000
_cell_angle_beta 31.199506
_cell_angle_gamma 90.000000
_cell_volume 2914.013471
_symmetry_space_group_name_H-M "C 2/M"
_symmetry_group_IT_number 12
_symmetry_cell_setting 'monoclinic'
loop_
_space_group_symop_operation_xyz
x,y,z
-x,y,-z
-x,-y,-z
x,-y,z
1/2+x,1/2+y,z
1/2-x,1/2+y,-z
1/2-x,1/2-y,-z
1/2+x,1/2-y,z
loop_
_atom_site_type_symbol
_atom_site_label
_atom_site_fract_x
_atom_site_fract_y
_atom_site_fract_z
Si Si1 0.810626 0.886847 0.125396
Si Si2 0.546547 0.072536 0.553058
Si Si3 0.485780 0.601744 0.587640
Si Si4 0.566071 0.429925 0.693764
Si Si5 0.073075 0.360756 0.870938
Si Si6 0.362864 0.261265 0.498053
Si Si7 0.768181 0.576929 0.982951
Si Si8 0.272084 0.270527 0.252273
O O1 0.625827 0.910262 0.284852
O O2 0.848241 0.828470 0.154898
O O3 0.764546 0.887155 0.070810
O O4 0.000000 0.923943 0.000000
O O5 0.500000 0.080555 0.500000
O O6 0.741158 0.103397 0.431858
O O7 0.574118 0.000000 0.552094
O O8 0.500000 0.569435 0.500000
O O9 0.526873 0.567247 0.634568
O O10 0.279062 0.620230 0.730547
O O11 0.610471 0.664405 0.503260
O O12 0.584562 0.500000 0.713047
O O13 0.396347 0.404355 0.852146
O O14 0.087369 0.286129 0.850868
O O15 0.000000 0.375477 0.000000
O O16 0.950989 0.397478 0.895537
O O17 0.250000 0.250000 0.500000
O O18 0.273719 0.230015 0.630068
O O19 0.571383 0.239353 0.352369
O O20 0.774332 0.500000 0.970463
#
# Coordination Sequence:
#
# PCOD9214997 Si02
#       8
#     8   8   8   8   8   8   8   8
#     4  12  27  45  68 103 144 187 239 300 361 431
#     4  10  23  42  68  96 132 178 230 299 356 421
#     4  11  22  41  65  97 139 181 226 290 361 421
#     4  10  23  43  68 104 137 177 240 293 362 436
#     4  11  22  45  68 100 143 185 237 295 358 441
#     4  10  22  40  67  96 134 186 237 296 352 423
#     4  11  26  46  74 106 142 194 241 298 373 435
#     4  10  24  43  63 105 141 188 241 293 365 422
#
# _framework density 21.962835999999999
#
# number of rings (size 3 to 8) (size 9 to 14) (size 15 to 20)
#    0.000    1.375    3.750    1.500    7.000    4.000 
#    0.000    1.250    0.000    0.000    0.000    0.000 
#    0.000    0.000    0.000    0.000    0.000    0.000 
#
# Total GULP energy -178424.085233 kJ/mol
# GULP energy per Si atom -5575.752664 kJ/mol
# Density = 2.191285 g / cm^3
# Si number density = 21.962836 Si / 1000 Ang^3
#
#
#
# Elastic Constant Matrix: (Units=GPa)
#
#
# Indices 1 2 3 4 5 6 
#
# 1 218.8578 24.7431 76.1791 -0.0060 13.9552 0.0041
# 2 24.7431 88.2298 31.5614 0.0163 -2.9035 0.0017
# 3 76.1791 31.5614 113.1684 0.0093 11.7223 0.0244
# 4 -0.0060 0.0163 0.0093 33.3285 -0.0011 -19.2562
# 5 13.9552 -2.9035 11.7223 -0.0011 45.0324 -0.0098
# 6 0.0041 0.0017 0.0244 -19.2562 -0.0098 42.0463
#
#
#
# Elastic Compliance Matrix: (Units=1/GPa)
#
#
# Indices 1 2 3 4 5 6 
#
# 1 0.006006 -0.000333 -0.003859 0.000004 -0.000878 0.000003
# 2 -0.000333 0.012748 -0.003522 -0.000006 0.001842 -0.000001
# 3 -0.003859 -0.003522 0.012657 -0.000009 -0.002326 -0.000012
# 4 0.000004 -0.000006 -0.000009 0.040800 0.000006 0.018686
# 5 -0.000878 0.001842 -0.002326 0.000006 0.023203 0.000009
# 6 0.000003 -0.000001 -0.000012 0.018686 0.000009 0.032341
#
#
# Mechanical properties :
#
#
# Convention : Reuss Voigt Hill
#
# Bulk Modulus (GPa) = 62.56510 76.13592 69.35051
# Shear Modulus (GPa) = 33.66756 43.26627 38.46692
#
# Velocity S-wave (km/s) = 3.91952 4.44326 4.18958
# Velocity P-wave (km/s) = 7.00229 7.81437 7.41945
#
# Compressibility (1/GPa) = 0.01598335
#
# Stress axis : x y z
#
# Youngs Moduli (GPa) = 166.49750 78.44452 79.00491
#
# Poissons Ratio (x) = 0.02610 0.30490
# Poissons Ratio (y) = 0.05540 0.27826
# Poissons Ratio (z) = 0.64256 0.27629
#
# Static dielectric constant tensor:
#      x y z
#    x 1.791280 0.000000 -0.021710 
#    y 0.000000 1.900440 0.000000 
#    z -0.021710 0.000000 1.940610 
# 
# From -- ./inp_files/272821.got.cif
#   From: 2010.05.17/outbox.cif.g08.bks.cpg/sg12_137_cif.got.tgz:272821.got - 2010.06.03 13:09:07.
