data_PCOD9214944
_publ_section_title
;
Structure prediction by ZEFSAII (Michael W. Deem and Ramdas Pophale) SiO2 
 PCOD9214944
Probable space group: C 2/M
;
_chemical_formula_sum "Si O2"
_cell_formula_units_Z 36
_cell_length_a 17.386458
_cell_length_b 9.606959
_cell_length_c 17.387749
_cell_angle_alpha 90.000000
_cell_angle_beta 142.963124
_cell_angle_gamma 90.000000
_cell_volume 1749.339575
_symmetry_space_group_name_H-M "C 2/M"
_symmetry_group_IT_number 12
_symmetry_cell_setting 'monoclinic'
loop_
_space_group_symop_operation_xyz
x,y,z
-x,y,-z
-x,-y,-z
x,-y,z
1/2+x,1/2+y,z
1/2-x,1/2+y,-z
1/2-x,1/2-y,-z
1/2+x,1/2-y,z
loop_
_atom_site_type_symbol
_atom_site_label
_atom_site_fract_x
_atom_site_fract_y
_atom_site_fract_z
Si Si1 0.664691 0.500000 0.984027
Si Si2 0.515017 0.281016 0.758072
Si Si3 0.708603 0.500000 0.431029
Si Si4 0.648669 0.000000 0.139533
Si Si5 0.785027 0.717564 0.202378
Si Si6 0.152522 0.500000 0.620602
Si Si7 0.905298 0.500000 0.727740
O O1 0.711898 0.620702 0.083165
O O2 0.610217 0.378883 0.881601
O O3 0.383888 0.365906 0.644154
O O4 0.577228 0.245659 0.725778
O O5 0.490626 0.137078 0.783107
O O6 0.792134 0.500000 0.420507
O O7 0.799108 0.500000 0.576709
O O8 0.714147 0.137669 0.158786
O O9 0.656448 0.000000 0.237970
O O10 0.500000 0.000000 0.000000
O O11 0.798235 0.633495 0.292288
O O12 0.000000 0.500000 0.500000
#
# Coordination Sequence:
#
# PCOD9214944 Si02
#       7
#     4   8   4   4   8   4   4
#     4  10  22  40  66  93 127 171 216 259 315 389
#     4  11  23  42  67  96 128 170 217 264 315 383
#     4  11  24  44  66  95 130 172 215 259 320 390
#     4  12  26  43  64  99 135 166 208 273 330 372
#     4  11  24  43  67  96 129 170 217 267 322 381
#     4  11  24  45  68  93 130 175 217 261 318 387
#     4  12  24  42  67  96 129 168 214 268 320 378
#
# _framework density 20.579194999999999
#
# number of rings (size 3 to 8) (size 9 to 14) (size 15 to 20)
#    0.000    0.889    0.000    8.000    0.000    5.333 
#    0.000    8.333    0.000    0.000    0.000    0.000 
#    0.000    0.000    0.000    0.000    0.000    0.000 
#
# Total GULP energy -100239.484450 kJ/mol
# GULP energy per Si atom -5568.860247 kJ/mol
# Density = 2.053236 g / cm^3
# Si number density = 20.579195 Si / 1000 Ang^3
#
#
#
# Elastic Constant Matrix: (Units=GPa)
#
#
# Indices 1 2 3 4 5 6 
#
# 1 127.4807 44.3819 28.7636 0.0000 -7.8614 0.0000
# 2 44.3819 181.8586 15.3215 0.0000 9.8260 0.0000
# 3 28.7636 15.3215 72.1657 0.0000 -24.9645 0.0000
# 4 0.0000 0.0000 0.0000 -6.3979 0.0000 -2.1470
# 5 -7.8614 9.8260 -24.9645 0.0000 25.5082 0.0000
# 6 0.0000 0.0000 0.0000 -2.1470 0.0000 15.8893
#
#
#
# Elastic Compliance Matrix: (Units=1/GPa)
#
#
# Indices 1 2 3 4 5 6 
#
# 1 0.009283 -0.002047 -0.003028 0.000000 0.000686 0.000000
# 2 -0.002047 0.006511 -0.002498 0.000000 -0.005583 0.000000
# 3 -0.003028 -0.002498 0.023591 0.000000 0.023117 0.000000
# 4 0.000000 0.000000 0.000000 -0.149522 0.000000 -0.020204
# 5 0.000686 -0.005583 0.023117 0.000000 0.064190 0.000000
# 6 0.000000 0.000000 0.000000 -0.020204 0.000000 0.060205
#
#
# Mechanical properties :
#
#
# Convention : Reuss Voigt Hill
#
# Bulk Modulus (GPa) = 41.25651 62.04877 51.65264
# Shear Modulus (GPa) = 133.39551 26.53581 79.96566
#
# Velocity S-wave (km/s) = 8.05986 3.59478 6.24034
# Velocity P-wave (km/s) = 10.32987 6.88815 8.77932
#
# Compressibility (1/GPa) = 0.02423860
#
# Stress axis : x y z
#
# Youngs Moduli (GPa) = 107.72871 153.59744 42.38895
#
# Poissons Ratio (x) = 0.31447 0.12834
# Poissons Ratio (y) = 0.22056 0.10587
# Poissons Ratio (z) = 0.32618 0.38364
#
# Static dielectric constant tensor:
#      x y z
#    x 1.746180 0.000000 0.045060 
#    y 0.000000 1.720230 0.000000 
#    z 0.045060 0.000000 1.718250 
# 
# From -- ./inp_files/274745.got.cif
#   From: 2010.05.17/outbox.cif.g08.bks.cpg/sg12_138_cif.got.tgz:274745.got - 2010.06.03 13:09:07.
