data_PCOD9214188
_publ_section_title
;
Structure prediction by ZEFSAII (Michael W. Deem and Ramdas Pophale) SiO2 
 PCOD9214188
Probable space group: C 2/M
;
_chemical_formula_sum "Si O2"
_cell_formula_units_Z 36
_cell_length_a 19.644858
_cell_length_b 20.975500
_cell_length_c 8.596091
_cell_angle_alpha 90.000000
_cell_angle_beta 144.759090
_cell_angle_gamma 90.000000
_cell_volume 2043.853635
_symmetry_space_group_name_H-M "C 2/M"
_symmetry_group_IT_number 12
_symmetry_cell_setting 'monoclinic'
loop_
_space_group_symop_operation_xyz
x,y,z
-x,y,-z
-x,-y,-z
x,-y,z
1/2+x,1/2+y,z
1/2-x,1/2+y,-z
1/2-x,1/2-y,-z
1/2+x,1/2-y,z
loop_
_atom_site_type_symbol
_atom_site_label
_atom_site_fract_x
_atom_site_fract_y
_atom_site_fract_z
Si Si1 0.500000 0.782043 0.000000
Si Si2 0.687472 0.000000 0.556340
Si Si3 0.305595 0.500000 0.090957
Si Si4 0.811340 0.390678 0.696608
Si Si5 0.950170 0.842648 0.740092
Si Si6 0.500000 0.396018 0.500000
Si Si7 0.085613 0.500000 0.894686
O O1 0.390169 0.828431 0.819318
O O2 0.468807 0.732950 0.802872
O O3 0.699302 0.936479 0.473763
O O4 0.787302 0.000000 0.872758
O O5 0.555150 0.000000 0.380853
O O6 0.383675 0.440149 0.289049
O O7 0.175083 0.500000 0.918305
O O8 0.683904 0.366862 0.512756
O O9 0.877431 0.437210 0.940077
O O10 0.005503 0.860400 0.676693
O O11 0.000000 0.869741 0.000000
#
# Coordination Sequence:
#
# PCOD9214188 Si02
#       7
#     4   4   4   8   8   4   4
#     4  10  22  39  64  87 122 170 200 252 298 364
#     4  11  22  35  67  90 119 158 209 253 315 362
#     4  11  23  37  62  87 131 159 191 272 307 354
#     4  11  19  41  61  91 120 158 209 253 305 361
#     4  10  23  38  65  87 123 166 206 243 304 365
#     4  11  22  44  58  94 130 153 212 252 306 363
#     4  11  20  38  63  90 121 159 196 264 311 356
#
# _framework density 17.613786999999999
#
# number of rings (size 3 to 8) (size 9 to 14) (size 15 to 20)
#    0.667    0.667    4.444    3.000    0.000    0.000 
#    0.000    6.667    0.000    0.000    0.000    0.000 
#    0.000    0.000    0.000    0.000    0.000    0.000 
#
# Total GULP energy -100212.429047 kJ/mol
# GULP energy per Si atom -5567.357169 kJ/mol
# Density = 1.757370 g / cm^3
# Si number density = 17.613787 Si / 1000 Ang^3
#
#
#
# Elastic Constant Matrix: (Units=GPa)
#
#
# Indices 1 2 3 4 5 6 
#
# 1 100.7090 49.7795 18.1825 0.0000 -12.2682 0.0000
# 2 49.7795 123.3510 32.0136 0.0000 -12.8255 0.0000
# 3 18.1825 32.0136 58.8906 0.0000 -18.4931 0.0000
# 4 0.0000 0.0000 0.0000 7.3752 0.0000 4.5542
# 5 -12.2682 -12.8255 -18.4931 0.0000 29.6483 0.0000
# 6 0.0000 0.0000 0.0000 4.5542 0.0000 5.3697
#
#
#
# Elastic Compliance Matrix: (Units=1/GPa)
#
#
# Indices 1 2 3 4 5 6 
#
# 1 0.012691 -0.004702 -0.000438 0.000000 0.002945 0.000000
# 2 -0.004702 0.011209 -0.004639 0.000000 0.000010 0.000000
# 3 -0.000438 -0.004639 0.023566 0.000000 0.012512 0.000000
# 4 0.000000 0.000000 0.000000 0.284692 0.000000 -0.241460
# 5 0.002945 0.000010 0.012512 0.000000 0.042756 0.000000
# 6 0.000000 0.000000 0.000000 -0.241460 0.000000 0.391024
#
#
# Mechanical properties :
#
#
# Convention : Reuss Voigt Hill
#
# Bulk Modulus (GPa) = 35.82893 53.65576 44.74235
# Shear Modulus (GPa) = 6.29090 20.67696 13.48393
#
# Velocity S-wave (km/s) = 1.89191 3.42995 2.76983
# Velocity P-wave (km/s) = 5.01578 6.79813 5.97380
#
# Compressibility (1/GPa) = 0.02791041
#
# Stress axis : x y z
#
# Youngs Moduli (GPa) = 78.79293 89.21074 42.43329
#
# Poissons Ratio (x) = 0.41947 0.01858
# Poissons Ratio (y) = 0.37048 0.19683
# Poissons Ratio (z) = 0.03450 0.41382
#
# Static dielectric constant tensor:
#      x y z
#    x 1.625960 0.000000 -0.013980 
#    y 0.000000 1.590990 0.000000 
#    z -0.013980 0.000000 1.594520 
# 
# From -- ./inp_files/47953.got.cif
#   From: 2010.05.17/outbox.cif.g08.bks.cpg/sg12_24_cif.got.tgz:47953.got - 2010.06.03 13:09:07.
