data_PCOD9214041
_publ_section_title
;
Structure prediction by ZEFSAII (Michael W. Deem and Ramdas Pophale) SiO2 
 PCOD9214041
Probable space group: C 2/M
;
_chemical_formula_sum "Si O2"
_cell_formula_units_Z 64
_cell_length_a 17.432115
_cell_length_b 15.202910
_cell_length_c 22.907826
_cell_angle_alpha 90.000000
_cell_angle_beta 30.075890
_cell_angle_gamma 90.000000
_cell_volume 3042.464389
_symmetry_space_group_name_H-M "C 2/M"
_symmetry_group_IT_number 12
_symmetry_cell_setting 'monoclinic'
loop_
_space_group_symop_operation_xyz
x,y,z
-x,y,-z
-x,-y,-z
x,-y,z
1/2+x,1/2+y,z
1/2-x,1/2+y,-z
1/2-x,1/2-y,-z
1/2+x,1/2-y,z
loop_
_atom_site_type_symbol
_atom_site_label
_atom_site_fract_x
_atom_site_fract_y
_atom_site_fract_z
Si Si1 0.439560 0.303785 0.770265
Si Si2 0.761645 0.833616 0.292894
Si Si3 0.247314 0.101932 0.567975
Si Si4 0.391283 0.405637 0.515056
Si Si5 0.084936 0.334859 0.760604
Si Si6 0.459693 0.398166 0.962475
Si Si7 0.995776 0.728422 0.619518
Si Si8 0.248157 0.396204 0.996243
O O1 0.571876 0.374913 0.669289
O O2 0.526547 0.226262 0.746671
O O3 0.389465 0.260333 0.742775
O O4 0.321800 0.345603 0.893129
O O5 0.736755 0.871256 0.374025
O O6 0.835848 0.736025 0.248735
O O7 0.605889 0.822824 0.360428
O O8 0.885490 0.891503 0.177248
O O9 0.364668 0.164050 0.455811
O O10 0.280955 0.000000 0.537490
O O11 0.500000 0.405194 0.500000
O O12 0.413958 0.500000 0.469438
O O13 0.217276 0.398058 0.651227
O O14 0.432102 0.316622 0.454796
O O15 0.932977 0.380972 0.883928
O O16 0.416130 0.500000 0.001837
O O17 0.328468 0.363078 0.004137
O O18 0.500000 0.359179 0.000000
O O19 0.283305 0.500000 0.968486
#
# Coordination Sequence:
#
# PCOD9214041 Si02
#       8
#     8   8   8   8   8   8   8   8
#     4  11  24  40  65  90 133 173 218 261 334 399
#     4  11  22  38  66  89 132 168 220 266 334 392
#     4  11  22  41  68  97 134 178 222 273 336 399
#     4  11  22  41  66  90 124 171 219 270 324 379
#     4  11  22  40  65  92 118 167 216 273 316 390
#     4  10  22  39  61  93 128 168 216 268 326 393
#     4  12  24  42  61  99 133 171 218 275 327 398
#     4  11  23  42  65  91 127 171 221 272 331 396
#
# _framework density 21.035578999999998
#
# number of rings (size 3 to 8) (size 9 to 14) (size 15 to 20)
#    0.000    1.000    6.250    2.250    1.750    2.500 
#    0.000    0.625    0.000    0.750    0.000    0.000 
#    0.000    0.000    0.000    0.000    0.000    0.000 
#
# Total GULP energy -178752.197570 kJ/mol
# GULP energy per Si atom -5586.006174 kJ/mol
# Density = 2.098770 g / cm^3
# Si number density = 21.035579 Si / 1000 Ang^3
#
#
#
# Elastic Constant Matrix: (Units=GPa)
#
#
# Indices 1 2 3 4 5 6 
#
# 1 41.9237 -0.5590 25.6273 -0.0008 9.6054 -0.0005
# 2 -0.5590 92.4872 5.4393 -0.0025 0.9960 -0.0042
# 3 25.6273 5.4393 80.8461 -0.0065 -5.9823 -0.0013
# 4 -0.0008 -0.0025 -0.0065 27.6759 0.0008 -3.8768
# 5 9.6054 0.9960 -5.9823 0.0008 31.7874 -0.0003
# 6 -0.0005 -0.0042 -0.0013 -3.8768 -0.0003 38.9675
#
#
#
# Elastic Compliance Matrix: (Units=1/GPa)
#
#
# Indices 1 2 3 4 5 6 
#
# 1 0.033904 0.001030 -0.011741 -0.000001 -0.012487 0.000000
# 2 0.001030 0.010894 -0.001123 0.000001 -0.000864 0.000001
# 3 -0.011741 -0.001123 0.016664 0.000003 0.006719 0.000001
# 4 -0.000001 0.000001 0.000003 0.036643 0.000000 0.003646
# 5 -0.012487 -0.000864 0.006719 0.000000 0.036524 0.000000
# 6 0.000000 0.000001 0.000001 0.003646 0.000000 0.026025
#
#
# Mechanical properties :
#
#
# Convention : Reuss Voigt Hill
#
# Bulk Modulus (GPa) = 26.45939 30.69691 28.57815
# Shear Modulus (GPa) = 25.39105 32.00281 28.69693
#
# Velocity S-wave (km/s) = 3.47804 3.90470 3.69753
# Velocity P-wave (km/s) = 5.36047 5.91214 5.64305
#
# Compressibility (1/GPa) = 0.03779377
#
# Stress axis : x y z
#
# Youngs Moduli (GPa) = 29.49476 91.79450 60.01120
#
# Poissons Ratio (x) = -0.09454 0.70457
# Poissons Ratio (y) = -0.03038 0.06741
# Poissons Ratio (z) = 0.34628 0.10312
#
# Static dielectric constant tensor:
#      x y z
#    x 1.801980 0.000000 0.003360 
#    y 0.000000 1.768650 0.000000 
#    z 0.003360 0.000000 1.741970 
# 
# From -- ./inp_files/343991.got.cif
#   From: 2010.05.17/outbox.cif.g08.bks.cpg/sg12_172_cif.got.tgz:343991.got - 2010.06.03 13:09:07.
