data_PCOD9214039
_publ_section_title
;
Structure prediction by ZEFSAII (Michael W. Deem and Ramdas Pophale) SiO2 
 PCOD9214039
Probable space group: C 2/M
;
_chemical_formula_sum "Si O2"
_cell_formula_units_Z 56
_cell_length_a 21.421848
_cell_length_b 18.424312
_cell_length_c 14.244593
_cell_angle_alpha 90.000000
_cell_angle_beta 150.792259
_cell_angle_gamma 90.000000
_cell_volume 2743.456871
_symmetry_space_group_name_H-M "C 2/M"
_symmetry_group_IT_number 12
_symmetry_cell_setting 'monoclinic'
loop_
_space_group_symop_operation_xyz
x,y,z
-x,y,-z
-x,-y,-z
x,-y,z
1/2+x,1/2+y,z
1/2-x,1/2+y,-z
1/2-x,1/2-y,-z
1/2+x,1/2-y,z
loop_
_atom_site_type_symbol
_atom_site_label
_atom_site_fract_x
_atom_site_fract_y
_atom_site_fract_z
Si Si1 0.421709 0.418989 0.752474
Si Si2 0.619722 0.206568 0.094373
Si Si3 0.423479 0.417743 0.301988
Si Si4 0.952231 0.675730 0.539176
Si Si5 0.681561 0.181277 0.963076
Si Si6 0.631450 0.675970 0.476345
Si Si7 0.324413 0.623075 0.824821
O O1 0.397713 0.500000 0.681341
O O2 0.354786 0.350828 0.611957
O O3 0.361881 0.416281 0.778073
O O4 0.574975 0.406419 0.966230
O O5 0.742134 0.164602 0.296420
O O6 0.640547 0.292037 0.139844
O O7 0.500000 0.183297 0.000000
O O8 0.616073 0.200549 0.976890
O O9 0.500000 0.416624 0.500000
O O10 0.400148 0.500000 0.243506
O O11 0.517084 0.376450 0.355425
O O12 0.293427 0.373759 0.135231
O O13 0.910608 0.743043 0.550974
O O14 0.828744 0.624737 0.360875
O O15 0.000000 0.703604 0.500000
O O16 0.076944 0.646698 0.756169
O O17 0.750000 0.250000 0.000000
#
# Coordination Sequence:
#
# PCOD9214039 Si02
#       7
#     8   8   8   8   8   8   8
#     4  11  23  42  65  89 125 174 216 258 312 392
#     4  11  23  38  64  98 134 160 209 274 336 383
#     4  11  23  42  64  91 127 169 216 262 315 387
#     4  11  24  38  65  97 131 160 207 276 330 378
#     4  12  23  40  68  95 131 172 216 273 326 386
#     4  11  22  38  64  95 127 159 215 260 329 376
#     4  10  22  39  61  93 125 163 213 261 324 372
#
# _framework density 20.412203999999999
#
# number of rings (size 3 to 8) (size 9 to 14) (size 15 to 20)
#    0.000    1.000    4.286    4.286    4.000    1.143 
#    0.000    1.429    0.000    4.286    0.000    0.000 
#    0.000    0.000    0.000    0.000    0.000    0.000 
#
# Total GULP energy -156226.954211 kJ/mol
# GULP energy per Si atom -5579.534079 kJ/mol
# Density = 2.036574 g / cm^3
# Si number density = 20.412204 Si / 1000 Ang^3
#
#
#
# Elastic Constant Matrix: (Units=GPa)
#
#
# Indices 1 2 3 4 5 6 
#
# 1 80.6357 3.8656 35.8539 0.0000 -4.6673 0.0000
# 2 3.8656 59.6771 16.2682 0.0000 3.1346 0.0000
# 3 35.8539 16.2682 124.3605 0.0000 2.3915 0.0000
# 4 0.0000 0.0000 0.0000 41.8069 0.0000 -16.6869
# 5 -4.6673 3.1346 2.3915 0.0000 37.3191 0.0000
# 6 0.0000 0.0000 0.0000 -16.6869 0.0000 34.7273
#
#
#
# Elastic Compliance Matrix: (Units=1/GPa)
#
#
# Indices 1 2 3 4 5 6 
#
# 1 0.014383 0.000105 -0.004200 0.000000 0.002059 0.000000
# 2 0.000105 0.017442 -0.002287 0.000000 -0.001305 0.000000
# 3 -0.004200 -0.002287 0.009569 0.000000 -0.000946 0.000000
# 4 0.000000 0.000000 0.000000 0.029596 0.000000 0.014221
# 5 0.002059 -0.001305 -0.000946 0.000000 0.027224 0.000000
# 6 0.000000 0.000000 0.000000 0.014221 0.000000 0.035629
#
#
# Mechanical properties :
#
#
# Convention : Reuss Voigt Hill
#
# Bulk Modulus (GPa) = 34.92733 41.84984 38.38859
# Shear Modulus (GPa) = 32.02039 36.68304 34.35172
#
# Velocity S-wave (km/s) = 3.96496 4.24384 4.10677
# Velocity P-wave (km/s) = 6.17328 6.67536 6.42922
#
# Compressibility (1/GPa) = 0.02863087
#
# Stress axis : x y z
#
# Youngs Moduli (GPa) = 69.52591 57.33285 104.49971
#
# Poissons Ratio (x) = -0.00603 0.43891
# Poissons Ratio (y) = -0.00731 0.23898
# Poissons Ratio (z) = 0.29202 0.13111
#
# Static dielectric constant tensor:
#      x y z
#    x 1.767440 0.000000 -0.006110 
#    y 0.000000 1.707650 0.000000 
#    z -0.006110 0.000000 1.774590 
# 
# From -- ./inp_files/234711.got.cif
#   From: 2010.05.17/outbox.cif.g08.bks.cpg/sg12_118_cif.got.tgz:234711.got - 2010.06.03 13:09:07.
