data_PCOD9214903
_publ_section_title
;
Structure prediction by ZEFSAII (Michael W. Deem and Ramdas Pophale) SiO2 
 PCOD9214903
Probable space group: C 2/M
;
_chemical_formula_sum "Si O2"
_cell_formula_units_Z 48
_cell_length_a 17.940595
_cell_length_b 9.861851
_cell_length_c 15.109337
_cell_angle_alpha 90.000000
_cell_angle_beta 108.960400
_cell_angle_gamma 90.000000
_cell_volume 2528.214923
_symmetry_space_group_name_H-M "C 2/M"
_symmetry_group_IT_number 12
_symmetry_cell_setting 'monoclinic'
loop_
_space_group_symop_operation_xyz
x,y,z
-x,y,-z
-x,-y,-z
x,-y,z
1/2+x,1/2+y,z
1/2-x,1/2+y,-z
1/2-x,1/2-y,-z
1/2+x,1/2-y,z
loop_
_atom_site_type_symbol
_atom_site_label
_atom_site_fract_x
_atom_site_fract_y
_atom_site_fract_z
Si Si1 0.072440 0.000000 0.952494
Si Si2 0.527623 0.724403 0.800619
Si Si3 0.694028 0.663998 0.414657
Si Si4 0.219554 0.000000 0.133155
Si Si5 0.592889 0.000000 0.071953
Si Si6 0.486682 0.341602 0.592750
Si Si7 0.390288 0.000000 0.118574
Si Si8 0.352914 0.256214 0.788228
O O1 0.070820 0.126059 0.885199
O O2 0.156212 0.000000 0.030858
O O3 0.000000 0.000000 0.000000
O O4 0.533600 0.712406 0.696796
O O5 0.437467 0.687818 0.789256
O O6 0.555354 0.872201 0.838617
O O7 0.712571 0.500000 0.409921
O O8 0.750000 0.750000 0.500000
O O9 0.605784 0.668168 0.420480
O O10 0.692639 0.749889 0.322427
O O11 0.310387 0.000000 0.143147
O O12 0.196263 0.135104 0.176567
O O13 0.621010 0.871464 0.141429
O O14 0.500000 0.000000 0.000000
O O15 0.635172 0.000000 0.993697
O O16 0.500000 0.281085 0.500000
O O17 0.508599 0.500000 0.596763
#
# Coordination Sequence:
#
# PCOD9214903 Si02
#       8
#     4   8   8   4   4   8   4   8
#     4  12  22  36  71  96 116 178 235 260 318 405
#     4  11  21  41  66  95 126 174 226 269 324 409
#     4  10  22  40  65  96 129 169 220 275 332 397
#     4  12  26  42  63  97 136 171 215 282 333 397
#     4  12  24  42  67  99 131 177 225 282 335 395
#     4   9  19  39  65  94 121 161 222 275 318 388
#     4  12  28  42  59 102 147 162 210 293 346 377
#     4  11  22  42  68  93 128 180 232 263 330 418
#
# _framework density 18.985726
#
# number of rings (size 3 to 8) (size 9 to 14) (size 15 to 20)
#    0.000    1.167    5.000    1.000    1.167    4.000 
#    1.500    0.417    0.000    0.000    0.000    0.000 
#    0.000    0.000    0.000    0.000    0.000    0.000 
#
# Total GULP energy -133613.989130 kJ/mol
# GULP energy per Si atom -5567.249547 kJ/mol
# Density = 1.894251 g / cm^3
# Si number density = 18.985726 Si / 1000 Ang^3
#
#
#
# Elastic Constant Matrix: (Units=GPa)
#
#
# Indices 1 2 3 4 5 6 
#
# 1 56.2720 15.8538 18.9623 0.0000 -7.8217 0.0000
# 2 15.8538 92.8156 53.4486 0.0000 -6.8241 0.0000
# 3 18.9623 53.4486 184.1207 0.0000 -5.9733 0.0000
# 4 0.0000 0.0000 0.0000 86.6920 0.0000 49.3005
# 5 -7.8217 -6.8241 -5.9733 0.0000 32.7829 0.0000
# 6 0.0000 0.0000 0.0000 49.3005 0.0000 64.8750
#
#
#
# Elastic Compliance Matrix: (Units=1/GPa)
#
#
# Indices 1 2 3 4 5 6 
#
# 1 0.019375 -0.002336 -0.001190 0.000000 0.003920 0.000000
# 2 -0.002336 0.013353 -0.003585 0.000000 0.001569 0.000000
# 3 -0.001190 -0.003585 0.006600 0.000000 0.000172 0.000000
# 4 0.000000 0.000000 0.000000 0.020314 0.000000 -0.015437
# 5 0.003920 0.001569 0.000172 0.000000 0.031797 0.000000
# 6 0.000000 0.000000 0.000000 -0.015437 0.000000 0.027145
#
#
# Mechanical properties :
#
#
# Convention : Reuss Voigt Hill
#
# Bulk Modulus (GPa) = 39.83103 56.63751 48.23427
# Shear Modulus (GPa) = 35.41730 53.19956 44.30843
#
# Velocity S-wave (km/s) = 4.32379 5.29921 4.83616
# Velocity P-wave (km/s) = 6.77879 8.20601 7.52630
#
# Compressibility (1/GPa) = 0.02510605
#
# Stress axis : x y z
#
# Youngs Moduli (GPa) = 51.61344 74.89136 151.51545
#
# Poissons Ratio (x) = 0.17494 0.18032
# Poissons Ratio (y) = 0.12056 0.54314
# Poissons Ratio (z) = 0.06143 0.26846
#
# Static dielectric constant tensor:
#      x y z
#    x 1.659740 0.000000 -0.024550 
#    y 0.000000 1.661810 0.000000 
#    z -0.024550 0.000000 1.746700 
# 
# From -- ./inp_files/230502.got.cif
#   From: 2010.05.17/outbox.cif.g08.bks.cpg/sg12_116_cif.got.tgz:230502.got - 2010.06.03 13:09:07.
