data_PCOD9214559
_publ_section_title
;
Structure prediction by ZEFSAII (Michael W. Deem and Ramdas Pophale) SiO2 
 PCOD9214559
Probable space group: C 2/M
;
_chemical_formula_sum "Si O2"
_cell_formula_units_Z 32
_cell_length_a 14.343247
_cell_length_b 21.613203
_cell_length_c 10.032648
_cell_angle_alpha 90.000000
_cell_angle_beta 27.122425
_cell_angle_gamma 90.000000
_cell_volume 1417.899299
_symmetry_space_group_name_H-M "C 2/M"
_symmetry_group_IT_number 12
_symmetry_cell_setting 'monoclinic'
loop_
_space_group_symop_operation_xyz
x,y,z
-x,y,-z
-x,-y,-z
x,-y,z
1/2+x,1/2+y,z
1/2-x,1/2+y,-z
1/2-x,1/2-y,-z
1/2+x,1/2-y,z
loop_
_atom_site_type_symbol
_atom_site_label
_atom_site_fract_x
_atom_site_fract_y
_atom_site_fract_z
Si Si1 0.824368 0.928342 0.632646
Si Si2 0.555261 0.813769 0.246051
Si Si3 0.399106 0.929497 0.336493
Si Si4 0.313478 0.267075 0.145676
O O1 0.765389 0.904350 0.561575
O O2 0.000000 0.898869 0.500000
O O3 0.888261 0.000000 0.525327
O O4 0.615506 0.932142 0.982562
O O5 0.440002 0.878941 0.396173
O O6 0.740435 0.809525 0.114403
O O7 0.387014 0.763653 0.507323
O O8 0.623506 0.795708 0.010663
O O9 0.350396 0.000000 0.439204
O O10 0.500000 0.287974 0.000000
#
# Coordination Sequence:
#
# PCOD9214559 Si02
#       4
#     8   8   8   8
#     4   8  15  29  48  78 117 151 188 230 284 343
#     4  10  22  40  62  88 116 153 200 242 294 349
#     4   9  18  33  55  86 118 149 188 241 294 347
#     4  10  22  41  60  85 116 156 202 244 287 340
#
# _framework density 22.568598000000001
#
# number of rings (size 3 to 8) (size 9 to 14) (size 15 to 20)
#    0.000    2.750    0.000    2.250    3.500    2.000 
#    9.000    2.500    0.000    1.500    0.000    1.750 
#    0.000    0.000    0.000    0.000    0.000    0.000 
#
# Total GULP energy -89199.864316 kJ/mol
# GULP energy per Si atom -5574.991520 kJ/mol
# Density = 2.251723 g / cm^3
# Si number density = 22.568598 Si / 1000 Ang^3
#
#
#
# Elastic Constant Matrix: (Units=GPa)
#
#
# Indices 1 2 3 4 5 6 
#
# 1 141.6645 44.3290 42.3008 -0.0089 -51.5145 0.0000
# 2 44.3290 79.6824 18.3387 -0.0086 -1.3535 0.0013
# 3 42.3008 18.3387 63.7541 -0.0191 -16.9207 0.0077
# 4 -0.0089 -0.0086 -0.0191 9.7904 0.0204 -3.8449
# 5 -51.5145 -1.3535 -16.9207 0.0204 47.3822 -0.0035
# 6 0.0000 0.0013 0.0077 -3.8449 -0.0035 25.5230
#
#
#
# Elastic Compliance Matrix: (Units=1/GPa)
#
#
# Indices 1 2 3 4 5 6 
#
# 1 0.017010 -0.008138 -0.004528 -0.000036 0.016644 -0.000001
# 2 -0.008138 0.017385 -0.002008 0.000024 -0.009068 0.000002
# 3 -0.004528 -0.002008 0.019824 0.000028 0.002100 -0.000001
# 4 -0.000036 0.000024 0.000028 0.108564 -0.000074 0.016354
# 5 0.016644 -0.009068 0.002100 -0.000074 0.039691 -0.000006
# 6 -0.000001 0.000002 -0.000001 0.016354 -0.000006 0.041644
#
#
# Mechanical properties :
#
#
# Convention : Reuss Voigt Hill
#
# Bulk Modulus (GPa) = 40.20633 55.00423 47.60528
# Shear Modulus (GPa) = 17.74581 28.54796 23.14689
#
# Velocity S-wave (km/s) = 2.80716 3.56046 3.20601
# Velocity P-wave (km/s) = 5.32547 6.42864 5.90289
#
# Compressibility (1/GPa) = 0.02487170
#
# Stress axis : x y z
#
# Youngs Moduli (GPa) = 58.78974 57.51973 50.44337
#
# Poissons Ratio (x) = 0.46810 0.22839
# Poissons Ratio (y) = 0.47844 0.10129
# Poissons Ratio (z) = 0.26618 0.11550
#
# Static dielectric constant tensor:
#      x y z
#    x 1.876610 0.000000 -0.005290 
#    y 0.000000 1.899060 0.000000 
#    z -0.005290 0.000000 1.837510 
# 
# From -- ./inp_files/148224.got.cif
#   From: 2010.05.17/outbox.cif.g08.bks.cpg/sg12_75_cif.got.tgz:148224.got - 2010.06.03 13:09:07.
