data_PCOD9214805
_publ_section_title
;
Structure prediction by ZEFSAII (Michael W. Deem and Ramdas Pophale) SiO2 
 PCOD9214805
Probable space group: C 2/M
;
_chemical_formula_sum "Si O2"
_cell_formula_units_Z 44
_cell_length_a 27.396025
_cell_length_b 7.586908
_cell_length_c 25.447999
_cell_angle_alpha 90.000000
_cell_angle_beta 21.773723
_cell_angle_gamma 90.000000
_cell_volume 1962.058670
_symmetry_space_group_name_H-M "C 2/M"
_symmetry_group_IT_number 12
_symmetry_cell_setting 'monoclinic'
loop_
_space_group_symop_operation_xyz
x,y,z
-x,y,-z
-x,-y,-z
x,-y,z
1/2+x,1/2+y,z
1/2-x,1/2+y,-z
1/2-x,1/2-y,-z
1/2+x,1/2-y,z
loop_
_atom_site_type_symbol
_atom_site_label
_atom_site_fract_x
_atom_site_fract_y
_atom_site_fract_z
Si Si1 0.603640 0.785079 0.439138
Si Si2 0.954072 0.293767 0.385882
Si Si3 0.750000 0.250000 0.500000
Si Si4 0.602964 0.286735 0.853800
Si Si5 0.248175 0.209374 0.063345
Si Si6 0.961918 0.705704 0.200323
O O1 0.500000 0.722020 0.500000
O O2 0.580213 0.724040 0.522123
O O3 0.750421 0.738459 0.275906
O O4 0.594072 0.000000 0.450609
O O5 0.917017 0.500000 0.419602
O O6 0.870713 0.211600 0.421877
O O7 0.111279 0.282420 0.222004
O O8 0.852674 0.214203 0.347871
O O9 0.595158 0.500000 0.858567
O O10 0.577757 0.218872 0.820511
O O11 0.500000 0.224889 0.000000
O O12 0.244313 0.000000 0.076210
O O13 0.250000 0.250000 0.000000
O O14 0.388892 0.275614 0.943974
O O15 0.963470 0.500000 0.216283
#
# Coordination Sequence:
#
# PCOD9214805 Si02
#       6
#     8   8   4   8   8   8
#     4   9  19  37  60  89 123 158 203 261 315 367
#     4  11  23  41  65  94 127 167 212 262 321 382
#     4  12  22  40  64  92 130 168 208 258 314 390
#     4  10  22  40  64  94 123 162 216 264 317 381
#     4  11  24  42  61  88 125 164 207 255 312 378
#     4  11  25  43  63  91 130 171 212 262 323 387
#
# _framework density 22.425425000000001
#
# number of rings (size 3 to 8) (size 9 to 14) (size 15 to 20)
#    0.000    1.455    3.636    1.091    2.545    4.000 
#    0.000    0.000    0.000    1.091    0.000    0.000 
#    0.000    0.000    0.000    0.000    0.000    0.000 
#
# Total GULP energy -122480.018607 kJ/mol
# GULP energy per Si atom -5567.273573 kJ/mol
# Density = 2.237438 g / cm^3
# Si number density = 22.425425 Si / 1000 Ang^3
#
#
#
# Elastic Constant Matrix: (Units=GPa)
#
#
# Indices 1 2 3 4 5 6 
#
# 1 166.5405 -1.1736 91.0475 -0.0077 -1.9734 0.0006
# 2 -1.1736 56.0004 4.3553 0.0325 -0.6545 0.0008
# 3 91.0475 4.3553 209.2760 0.0117 -1.7609 -0.0033
# 4 -0.0077 0.0325 0.0117 28.2425 -0.0088 3.8481
# 5 -1.9734 -0.6545 -1.7609 -0.0088 55.5169 0.0018
# 6 0.0006 0.0008 -0.0033 3.8481 0.0018 7.0985
#
#
#
# Elastic Compliance Matrix: (Units=1/GPa)
#
#
# Indices 1 2 3 4 5 6 
#
# 1 0.007891 0.000435 -0.003440 0.000004 0.000176 -0.000004
# 2 0.000435 0.017912 -0.000560 -0.000021 0.000209 0.000009
# 3 -0.003440 -0.000560 0.006287 -0.000004 0.000071 0.000005
# 4 0.000004 -0.000021 -0.000004 0.038232 0.000006 -0.020725
# 5 0.000176 0.000209 0.000071 0.000006 0.018024 -0.000008
# 6 -0.000004 0.000009 0.000005 -0.020725 -0.000008 0.152110
#
#
# Mechanical properties :
#
#
# Convention : Reuss Voigt Hill
#
# Bulk Modulus (GPa) = 40.06613 68.91948 54.49280
# Shear Modulus (GPa) = 19.53844 40.67742 30.10793
#
# Velocity S-wave (km/s) = 2.95492 4.26361 3.66810
# Velocity P-wave (km/s) = 5.43574 7.41871 6.50325
#
# Compressibility (1/GPa) = 0.02495874
#
# Stress axis : x y z
#
# Youngs Moduli (GPa) = 126.73327 55.82803 159.04754
#
# Poissons Ratio (x) = -0.02428 0.54719
# Poissons Ratio (y) = -0.05513 0.08911
# Poissons Ratio (z) = 0.43602 0.03128
#
# Static dielectric constant tensor:
#      x y z
#    x 1.774000 0.000290 -0.002760 
#    y 0.000290 1.708020 0.000500 
#    z -0.002760 0.000500 1.857740 
# 
# From -- ./inp_files/369009.got.cif
#   From: 2010.05.17/outbox.cif.g08.bks.cpg/sg12_185_cif.got.tgz:369009.got - 2010.06.03 13:09:07.
