data_PCOD9214562
_publ_section_title
;
Structure prediction by ZEFSAII (Michael W. Deem and Ramdas Pophale) SiO2 
 PCOD9214562
Probable space group: C 2/M
;
_chemical_formula_sum "Si O2"
_cell_formula_units_Z 64
_cell_length_a 6.941891
_cell_length_b 28.211421
_cell_length_c 15.295023
_cell_angle_alpha 90.000000
_cell_angle_beta 107.227985
_cell_angle_gamma 90.000000
_cell_volume 2860.995058
_symmetry_space_group_name_H-M "C 2/M"
_symmetry_group_IT_number 12
_symmetry_cell_setting 'monoclinic'
loop_
_space_group_symop_operation_xyz
x,y,z
-x,y,-z
-x,-y,-z
x,-y,z
1/2+x,1/2+y,z
1/2-x,1/2+y,-z
1/2-x,1/2-y,-z
1/2+x,1/2-y,z
loop_
_atom_site_type_symbol
_atom_site_label
_atom_site_fract_x
_atom_site_fract_y
_atom_site_fract_z
Si Si1 0.724373 0.446353 0.467189
Si Si2 0.237844 0.054220 0.017334
Si Si3 0.661562 0.625283 0.849091
Si Si4 0.567376 0.196237 0.111156
Si Si5 0.433639 0.304456 0.890005
Si Si6 0.994607 0.416234 0.643948
Si Si7 0.857307 0.370650 0.173131
Si Si8 0.861026 0.051396 0.301913
O O1 0.765264 0.500000 0.505308
O O2 0.830311 0.408115 0.544308
O O3 0.494371 0.442771 0.407369
O O4 0.832983 0.441818 0.387303
O O5 0.331728 0.081286 0.112725
O O6 0.308779 0.000000 0.014907
O O7 0.249867 0.090763 0.937537
O O8 0.000000 0.050917 0.000000
O O9 0.897914 0.642644 0.835514
O O10 0.672280 0.684455 0.874708
O O11 0.596635 0.593141 0.758468
O O12 0.589284 0.250304 0.145848
O O13 0.326549 0.184794 0.127641
O O14 0.500000 0.193931 0.000000
O O15 0.410499 0.361768 0.850301
O O16 0.500000 0.304805 0.000000
O O17 0.868362 0.446234 0.696841
O O18 0.085143 0.375227 0.716443
O O19 0.905940 0.000000 0.268917
#
# Coordination Sequence:
#
# PCOD9214562 Si02
#       8
#     8   8   8   8   8   8   8   8
#     4  10  22  40  62  88 118 160 210 255 304 360
#     4  11  23  37  54  80 123 171 206 236 287 365
#     4  12  20  39  54  85 120 154 204 243 297 367
#     4  11  22  36  59  86 118 154 198 260 310 353
#     4  11  21  38  62  82 114 162 205 257 307 351
#     4  11  22  38  61  88 123 155 199 258 305 358
#     4  12  21  39  56  88 118 154 201 247 303 365
#     4  11  23  38  61  90 126 167 203 248 302 364
#
# _framework density 22.369841000000001
#
# number of rings (size 3 to 8) (size 9 to 14) (size 15 to 20)
#    0.000    0.875    5.000    3.750    0.000    4.500 
#    0.000    0.625    0.000    0.000    0.000   15.750 
#    0.000    0.000    0.000    0.000    0.000    0.000 
#
# Total GULP energy -178383.112841 kJ/mol
# GULP energy per Si atom -5574.472276 kJ/mol
# Density = 2.231893 g / cm^3
# Si number density = 22.369841 Si / 1000 Ang^3
#
#
#
# Elastic Constant Matrix: (Units=GPa)
#
#
# Indices 1 2 3 4 5 6 
#
# 1 172.4633 60.9994 22.4430 0.0000 -1.1951 0.0000
# 2 60.9994 166.6861 72.5497 0.0000 2.5884 0.0000
# 3 22.4430 72.5497 114.9801 0.0000 6.8485 0.0000
# 4 0.0000 0.0000 0.0000 27.3635 0.0000 -3.5392
# 5 -1.1951 2.5884 6.8485 0.0000 41.9923 0.0000
# 6 0.0000 0.0000 0.0000 -3.5392 0.0000 36.0299
#
#
#
# Elastic Compliance Matrix: (Units=1/GPa)
#
#
# Indices 1 2 3 4 5 6 
#
# 1 0.006673 -0.002581 0.000308 0.000000 0.000299 0.000000
# 2 -0.002581 0.009274 -0.005361 0.000000 0.000229 0.000000
# 3 0.000308 -0.005361 0.012117 0.000000 -0.001637 0.000000
# 4 0.000000 0.000000 0.000000 0.037015 0.000000 0.003636
# 5 0.000299 0.000229 -0.001637 0.000000 0.024075 0.000000
# 6 0.000000 0.000000 0.000000 0.003636 0.000000 0.028112
#
#
# Mechanical properties :
#
#
# Convention : Reuss Voigt Hill
#
# Bulk Modulus (GPa) = 78.14893 85.12375 81.63634
# Shear Modulus (GPa) = 36.54961 40.95296 38.75128
#
# Velocity S-wave (km/s) = 4.04651 4.28334 4.16661
# Velocity P-wave (km/s) = 7.53944 7.91190 7.72791
#
# Compressibility (1/GPa) = 0.01279608
#
# Stress axis : x y z
#
# Youngs Moduli (GPa) = 149.85481 107.83142 82.52557
#
# Poissons Ratio (x) = 0.27829 -0.02543
# Poissons Ratio (y) = 0.38674 0.44245
# Poissons Ratio (z) = -0.04617 0.57813
#
# Static dielectric constant tensor:
#      x y z
#    x 2.366060 0.000000 -0.034890 
#    y 0.000000 1.767080 0.000000 
#    z -0.034890 0.000000 1.750810 
# 
# From -- ./inp_files/199890.got.cif
#   From: 2010.05.17/outbox.cif.g08.bks.cpg/sg12_100_cif.got.tgz:199890.got - 2010.06.03 13:09:07.
