data_PCOD9214500
_publ_section_title
;
Structure prediction by ZEFSAII (Michael W. Deem and Ramdas Pophale) SiO2 
 PCOD9214500
Probable space group: C 2/M
;
_chemical_formula_sum "Si O2"
_cell_formula_units_Z 58
_cell_length_a 15.987375
_cell_length_b 30.564134
_cell_length_c 11.088558
_cell_angle_alpha 90.000000
_cell_angle_beta 150.712786
_cell_angle_gamma 90.000000
_cell_volume 2650.574247
_symmetry_space_group_name_H-M "C 2/M"
_symmetry_group_IT_number 12
_symmetry_cell_setting 'monoclinic'
loop_
_space_group_symop_operation_xyz
x,y,z
-x,y,-z
-x,-y,-z
x,-y,z
1/2+x,1/2+y,z
1/2-x,1/2+y,-z
1/2-x,1/2-y,-z
1/2+x,1/2-y,z
loop_
_atom_site_type_symbol
_atom_site_label
_atom_site_fract_x
_atom_site_fract_y
_atom_site_fract_z
Si Si1 0.135558 0.771342 0.461383
Si Si2 0.913099 0.546876 0.229678
Si Si3 0.716950 0.376542 0.099314
Si Si4 0.651511 0.718661 0.085556
Si Si5 0.360516 0.625030 0.524832
Si Si6 0.212150 0.924913 0.338277
Si Si7 0.312878 0.951168 0.826864
Si Si8 0.000000 0.000000 0.000000
O O1 0.250000 0.750000 0.500000
O O2 0.205037 0.748507 0.670427
O O3 0.168217 0.823195 0.523362
O O4 0.948681 0.766033 0.162494
O O5 0.858822 0.500000 0.218559
O O6 0.858520 0.590989 0.226677
O O7 0.116338 0.548571 0.474256
O O8 0.839240 0.547935 0.002703
O O9 0.743891 0.325860 0.160600
O O10 0.672572 0.395745 0.173461
O O11 0.558318 0.379859 0.808723
O O12 0.500000 0.711434 0.000000
O O13 0.260884 0.607020 0.516566
O O14 0.301979 0.590574 0.350954
O O15 0.069889 0.961559 0.179165
O O16 0.248103 0.000000 0.708113
O O17 0.500000 0.946240 0.000000
#
# Coordination Sequence:
#
# PCOD9214500 Si02
#       8
#     8   8   8   8   8   8   8   2
#     4   9  18  34  60  97 125 157 213 279 328 388
#     4  11  25  41  59  89 133 172 218 260 317 380
#     4  11  23  38  59  91 129 171 205 265 319 387
#     4   9  18  37  61  96 130 163 215 275 334 394
#     4  11  22  38  66  95 124 166 221 266 319 390
#     4  12  22  38  59  94 128 170 216 264 314 372
#     4  10  22  40  61  88 124 165 210 275 315 372
#     4  12  24  32  66  94 130 178 220 264 318 370
#
# _framework density 21.882051000000001
#
# number of rings (size 3 to 8) (size 9 to 14) (size 15 to 20)
#    0.000    1.517    3.448    2.897    1.931    3.310 
#    2.483    1.379    0.000    0.828   10.759    0.000 
#    0.000    0.000    0.000    0.000    0.000    0.000 
#
# Total GULP energy -161452.088700 kJ/mol
# GULP energy per Si atom -5567.313403 kJ/mol
# Density = 2.183225 g / cm^3
# Si number density = 21.882051 Si / 1000 Ang^3
#
#
#
# Elastic Constant Matrix: (Units=GPa)
#
#
# Indices 1 2 3 4 5 6 
#
# 1 34.4213 25.8667 18.0106 0.0000 -12.4593 0.0000
# 2 25.8667 182.7781 105.1727 0.0000 -19.4041 0.0000
# 3 18.0106 105.1727 115.4833 -0.0001 -33.7409 0.0000
# 4 0.0000 0.0000 -0.0001 -16.7872 0.0000 -23.2981
# 5 -12.4593 -19.4041 -33.7409 0.0000 28.7575 0.0000
# 6 0.0000 0.0000 0.0000 -23.2981 0.0000 28.1299
#
#
#
# Elastic Compliance Matrix: (Units=1/GPa)
#
#
# Indices 1 2 3 4 5 6 
#
# 1 0.037728 -0.006480 0.005350 0.000000 0.018250 0.000000
# 2 -0.006480 0.013580 -0.014456 0.000000 -0.010605 0.000000
# 3 0.005350 -0.014456 0.028633 0.000000 0.026158 0.000000
# 4 0.000000 0.000000 0.000000 -0.027713 0.000000 -0.022953
# 5 0.018250 -0.010605 0.026158 0.000000 0.066216 0.000000
# 6 0.000000 0.000000 0.000000 -0.022953 0.000000 0.016539
#
#
# Mechanical properties :
#
#
# Convention : Reuss Voigt Hill
#
# Bulk Modulus (GPa) = 20.50484 70.08698 45.29591
# Shear Modulus (GPa) = 27.41067 20.26221 23.83644
#
# Velocity S-wave (km/s) = 3.54313 3.04628 3.30406
# Velocity P-wave (km/s) = 5.11168 6.66874 5.94144
#
# Compressibility (1/GPa) = 0.04876897
#
# Stress axis : x y z
#
# Youngs Moduli (GPa) = 26.50539 73.63623 34.92524
#
# Poissons Ratio (x) = 0.47717 -0.18684
# Poissons Ratio (y) = 0.17176 0.50487
# Poissons Ratio (z) = -0.14179 1.06446
#
# Static dielectric constant tensor:
#      x y z
#    x 1.840160 0.000000 0.019090 
#    y 0.000000 1.869000 0.000000 
#    z 0.019090 0.000000 1.863870 
# 
# From -- ./inp_files/160924.got.cif
#   From: 2010.05.17/outbox.cif.g08.bks.cpg/sg12_81_cif.got.tgz:160924.got - 2010.06.03 13:09:07.
