data_PCOD9214765
_publ_section_title
;
Structure prediction by ZEFSAII (Michael W. Deem and Ramdas Pophale) SiO2 
 PCOD9214765
Probable space group: C 2/M
;
_chemical_formula_sum "Si O2"
_cell_formula_units_Z 64
_cell_length_a 14.030148
_cell_length_b 19.599944
_cell_length_c 23.888437
_cell_angle_alpha 90.000000
_cell_angle_beta 151.358703
_cell_angle_gamma 90.000000
_cell_volume 3148.723292
_symmetry_space_group_name_H-M "C 2/M"
_symmetry_group_IT_number 12
_symmetry_cell_setting 'monoclinic'
loop_
_space_group_symop_operation_xyz
x,y,z
-x,y,-z
-x,-y,-z
x,-y,z
1/2+x,1/2+y,z
1/2-x,1/2+y,-z
1/2-x,1/2-y,-z
1/2+x,1/2-y,z
loop_
_atom_site_type_symbol
_atom_site_label
_atom_site_fract_x
_atom_site_fract_y
_atom_site_fract_z
Si Si1 0.490569 0.173200 0.262525
Si Si2 0.306319 0.201671 0.860298
Si Si3 0.217327 0.425221 0.583151
Si Si4 0.783369 0.741139 0.718765
Si Si5 0.888414 0.688992 0.552830
Si Si6 0.340815 0.421759 0.153312
Si Si7 0.824388 0.922964 0.953932
Si Si8 0.146339 0.177739 0.932300
O O1 0.347322 0.239736 0.197478
O O2 0.663649 0.194144 0.307382
O O3 0.547604 0.155312 0.355472
O O4 0.369160 0.110879 0.173374
O O5 0.325165 0.210420 0.802795
O O6 0.223536 0.125834 0.828419
O O7 0.500000 0.211950 0.000000
O O8 0.219245 0.500000 0.556177
O O9 0.225558 0.363880 0.544298
O O10 0.417415 0.424405 0.723440
O O11 0.000000 0.419846 0.500000
O O12 0.569967 0.776469 0.612705
O O13 0.944820 0.800695 0.798774
O O14 0.750000 0.750000 0.500000
O O15 0.271947 0.500000 0.119278
O O16 0.252746 0.377231 0.056596
O O17 0.790783 0.000000 0.958849
O O18 0.892802 0.866233 0.033312
O O19 0.000000 0.927319 0.000000
O O20 0.250000 0.250000 0.000000
#
# Coordination Sequence:
#
# PCOD9214765 Si02
#       8
#     8   8   8   8   8   8   8   8
#     4  11  22  41  60  91 123 166 212 253 315 368
#     4  11  22  37  60  92 123 162 210 247 309 363
#     4  10  22  40  64  90 122 161 202 259 328 374
#     4  11  22  37  64  90 123 162 208 259 307 371
#     4  11  25  38  63  94 125 158 211 273 310 372
#     4  11  23  40  60  87 125 160 202 254 304 371
#     4  11  23  38  59  92 131 167 206 252 306 375
#     4  12  21  37  64  90 122 164 205 252 306 368
#
# _framework density 20.325697999999999
#
# number of rings (size 3 to 8) (size 9 to 14) (size 15 to 20)
#    0.000    1.000    2.500    6.000    1.750    0.750 
#    0.000    3.750    0.000    0.750    0.000    3.500 
#    0.000    0.000    0.000    0.000    0.000    0.000 
#
# Total GULP energy -178524.089994 kJ/mol
# GULP energy per Si atom -5578.877812 kJ/mol
# Density = 2.027944 g / cm^3
# Si number density = 20.325698 Si / 1000 Ang^3
#
#
#
# Elastic Constant Matrix: (Units=GPa)
#
#
# Indices 1 2 3 4 5 6 
#
# 1 73.5236 23.3691 -9.5674 -0.0031 -2.2820 0.0006
# 2 23.3691 154.5867 5.3920 -0.0039 -3.5579 0.0010
# 3 -9.5674 5.3920 27.4381 -0.0114 3.4887 0.0035
# 4 -0.0031 -0.0039 -0.0114 -31.6973 0.0007 10.3213
# 5 -2.2820 -3.5579 3.4887 0.0007 21.4568 0.0000
# 6 0.0006 0.0010 0.0035 10.3213 0.0000 27.3399
#
#
#
# Elastic Compliance Matrix: (Units=1/GPa)
#
#
# Indices 1 2 3 4 5 6 
#
# 1 0.015145 -0.002483 0.005735 -0.000003 0.000266 0.000000
# 2 -0.002483 0.006957 -0.002396 0.000000 0.001279 0.000000
# 3 0.005735 -0.002396 0.039710 -0.000015 -0.006244 0.000000
# 4 -0.000003 0.000000 -0.000015 -0.028095 0.000003 0.010606
# 5 0.000266 0.001279 -0.006244 0.000003 0.047861 0.000000
# 6 0.000000 0.000000 0.000000 0.010606 0.000000 0.032573
#
#
# Mechanical properties :
#
#
# Convention : Reuss Voigt Hill
#
# Bulk Modulus (GPa) = 15.74203 32.65950 24.20077
# Shear Modulus (GPa) = 37.42121 19.17686 28.29903
#
# Velocity S-wave (km/s) = 4.29543 3.07494 3.73537
# Velocity P-wave (km/s) = 5.68882 5.35817 5.52597
#
# Compressibility (1/GPa) = 0.06352420
#
# Stress axis : x y z
#
# Youngs Moduli (GPa) = 66.02850 143.73426 25.18248
#
# Poissons Ratio (x) = 0.35695 -0.14442
# Poissons Ratio (y) = 0.16397 0.06033
# Poissons Ratio (z) = -0.37868 0.34436
#
# Static dielectric constant tensor:
#      x y z
#    x 1.794880 0.000000 -0.011480 
#    y 0.000000 1.734220 0.000000 
#    z -0.011480 0.000000 1.772170 
# 
# From -- ./inp_files/340836.got.cif
#   From: 2010.05.17/outbox.cif.g08.bks.cpg/sg12_171_cif.got.tgz:340836.got - 2010.06.03 13:09:07.
