data_PCOD9214666
_publ_section_title
;
Structure prediction by ZEFSAII (Michael W. Deem and Ramdas Pophale) SiO2 
 PCOD9214666
Probable space group: C 2/M
;
_chemical_formula_sum "Si O2"
_cell_formula_units_Z 48
_cell_length_a 9.821366
_cell_length_b 14.525727
_cell_length_c 24.925172
_cell_angle_alpha 90.000000
_cell_angle_beta 147.084258
_cell_angle_gamma 90.000000
_cell_volume 1932.287120
_symmetry_space_group_name_H-M "C 2/M"
_symmetry_group_IT_number 12
_symmetry_cell_setting 'monoclinic'
loop_
_space_group_symop_operation_xyz
x,y,z
-x,y,-z
-x,-y,-z
x,-y,z
1/2+x,1/2+y,z
1/2-x,1/2+y,-z
1/2-x,1/2-y,-z
1/2+x,1/2-y,z
loop_
_atom_site_type_symbol
_atom_site_label
_atom_site_fract_x
_atom_site_fract_y
_atom_site_fract_z
Si Si1 0.348636 0.103637 0.898513
Si Si2 0.607193 0.603274 0.088265
Si Si3 0.186471 0.891800 0.428252
Si Si4 0.780045 0.320567 0.577363
Si Si5 0.341070 0.346244 0.778251
Si Si6 0.865274 0.358801 0.779103
O O1 0.381337 0.141870 0.849252
O O2 0.051283 0.100555 0.814016
O O3 0.444591 0.000000 0.925313
O O4 0.500000 0.143790 0.000000
O O5 0.501896 0.500000 0.057919
O O6 0.560719 0.651523 0.128557
O O7 0.897721 0.597754 0.170348
O O8 0.500000 0.650201 0.000000
O O9 0.218847 0.790703 0.407662
O O10 0.290958 0.854128 0.519050
O O11 0.890213 0.901444 0.325486
O O12 0.271820 0.000000 0.447100
O O13 0.500000 0.353040 0.500000
O O14 0.042284 0.364981 0.684682
O O15 0.354953 0.246250 0.757267
#
# Coordination Sequence:
#
# PCOD9214666 Si02
#       6
#     8   8   8   8   8   8
#     4  11  24  42  64  93 130 169 211 262 319 380
#     4  11  23  39  61  90 124 164 211 261 315 379
#     4  10  22  40  63  90 123 165 211 263 322 383
#     4  10  23  42  63  93 128 164 215 268 319 388
#     4  11  24  41  64  93 127 166 209 262 319 377
#     4  11  23  40  63  92 125 165 213 261 315 382
#
# _framework density 24.84103
#
# number of rings (size 3 to 8) (size 9 to 14) (size 15 to 20)
#    0.000    1.333    0.000    5.000    0.000   15.333 
#    0.000    0.000    0.000    0.000    0.000    0.000 
#    0.000    0.000    0.000    0.000    0.000    0.000 
#
# Total GULP energy -133630.371162 kJ/mol
# GULP energy per Si atom -5567.932132 kJ/mol
# Density = 2.478449 g / cm^3
# Si number density = 24.841030 Si / 1000 Ang^3
#
#
#
# Elastic Constant Matrix: (Units=GPa)
#
#
# Indices 1 2 3 4 5 6 
#
# 1 99.5979 8.1364 17.7732 0.0000 18.7295 0.0000
# 2 8.1364 116.3831 15.5589 0.0000 5.9132 0.0000
# 3 17.7732 15.5589 90.1677 0.0007 3.1498 -0.0006
# 4 0.0000 0.0000 0.0007 23.5803 0.0000 -2.9605
# 5 18.7295 5.9132 3.1498 0.0000 46.1061 -0.0001
# 6 0.0000 0.0000 -0.0006 -2.9605 -0.0001 16.2572
#
#
#
# Elastic Compliance Matrix: (Units=1/GPa)
#
#
# Indices 1 2 3 4 5 6 
#
# 1 0.011250 -0.000294 -0.002013 0.000000 -0.004395 0.000000
# 2 -0.000294 0.008852 -0.001437 0.000000 -0.000918 0.000000
# 3 -0.002013 -0.001437 0.011728 0.000000 0.000201 0.000000
# 4 0.000000 0.000000 0.000000 0.043401 0.000000 0.007903
# 5 -0.004395 -0.000918 0.000201 0.000000 0.023578 0.000000
# 6 0.000000 0.000000 0.000000 0.007903 0.000000 0.062950
#
#
# Mechanical properties :
#
#
# Convention : Reuss Voigt Hill
#
# Bulk Modulus (GPa) = 41.08359 43.23177 42.15768
# Shear Modulus (GPa) = 28.19089 34.83408 31.51249
#
# Velocity S-wave (km/s) = 3.37241 3.74877 3.56556
# Velocity P-wave (km/s) = 5.63371 6.01488 5.82741
#
# Compressibility (1/GPa) = 0.02434062
#
# Stress axis : x y z
#
# Youngs Moduli (GPa) = 88.88801 112.97328 85.26390
#
# Poissons Ratio (x) = 0.03322 0.17166
# Poissons Ratio (y) = 0.02614 0.12256
# Poissons Ratio (z) = 0.17896 0.16239
#
# Static dielectric constant tensor:
#      x y z
#    x 1.961340 0.000000 0.013720 
#    y 0.000000 1.936190 0.000000 
#    z 0.013720 0.000000 2.018900 
# 
# From -- ./inp_files/358507.got.cif
#   From: 2010.05.17/outbox.cif.g08.bks.cpg/sg12_180_cif.got.tgz:358507.got - 2010.06.03 13:09:07.
