data_PCOD9214522
_publ_section_title
;
Structure prediction by ZEFSAII (Michael W. Deem and Ramdas Pophale) SiO2 
 PCOD9214522
Probable space group: C 2/M
;
_chemical_formula_sum "Si O2"
_cell_formula_units_Z 56
_cell_length_a 8.554834
_cell_length_b 16.725799
_cell_length_c 21.405449
_cell_angle_alpha 90.000000
_cell_angle_beta 124.326744
_cell_angle_gamma 90.000000
_cell_volume 2529.392200
_symmetry_space_group_name_H-M "C 2/M"
_symmetry_group_IT_number 12
_symmetry_cell_setting 'monoclinic'
loop_
_space_group_symop_operation_xyz
x,y,z
-x,y,-z
-x,-y,-z
x,-y,z
1/2+x,1/2+y,z
1/2-x,1/2+y,-z
1/2-x,1/2-y,-z
1/2+x,1/2-y,z
loop_
_atom_site_type_symbol
_atom_site_label
_atom_site_fract_x
_atom_site_fract_y
_atom_site_fract_z
Si Si1 0.843392 0.906526 0.682964
Si Si2 0.217360 0.669791 0.333123
Si Si3 0.784035 0.799234 0.213014
Si Si4 0.850238 0.382153 0.226773
Si Si5 0.359992 0.707504 0.580946
Si Si6 0.824568 0.592940 0.913713
Si Si7 0.499929 0.410216 0.931656
O O1 0.730996 0.899716 0.722463
O O2 0.761249 0.858768 0.603825
O O3 0.041752 0.861209 0.739836
O O4 0.869192 0.000000 0.674283
O O5 0.216916 0.716501 0.267995
O O6 0.442252 0.667610 0.397651
O O7 0.117210 0.718722 0.365595
O O8 0.073942 0.598375 0.283459
O O9 0.832495 0.710936 0.202417
O O10 0.644273 0.847163 0.136603
O O11 0.707856 0.418306 0.144323
O O12 0.250000 0.750000 0.500000
O O13 0.793116 0.500000 0.886460
O O14 0.639078 0.623787 0.909889
O O15 0.000000 0.593866 0.000000
O O16 0.581263 0.500000 0.959719
O O17 0.500000 0.370839 0.000000
#
# Coordination Sequence:
#
# PCOD9214522 Si02
#       7
#     8   8   8   8   8   8   8
#     4  11  22  43  71 102 139 184 229 278 345 420
#     4  11  22  38  65 101 133 174 228 274 339 404
#     4  11  21  38  64  97 132 179 232 285 341 405
#     4  12  21  39  65 101 132 181 233 286 338 412
#     4  11  22  42  71 105 136 184 223 275 346 425
#     4  10  22  40  61  89 131 186 237 288 355 414
#     4  10  23  42  62  91 138 189 234 292 359 412
#
# _framework density 22.139704999999999
#
# number of rings (size 3 to 8) (size 9 to 14) (size 15 to 20)
#    0.000    1.143    5.714    1.286    2.000    0.571 
#    0.000    7.857    0.000   15.429    0.000    0.000 
#    0.000    0.000    0.000    0.000    0.000    0.000 
#
# Total GULP energy -155911.897167 kJ/mol
# GULP energy per Si atom -5568.282042 kJ/mol
# Density = 2.208931 g / cm^3
# Si number density = 22.139705 Si / 1000 Ang^3
#
#
#
# Elastic Constant Matrix: (Units=GPa)
#
#
# Indices 1 2 3 4 5 6 
#
# 1 66.1595 -6.0372 37.2532 0.0000 13.3732 0.0000
# 2 -6.0372 102.7210 42.2788 0.0000 -1.1502 0.0000
# 3 37.2532 42.2788 141.5668 0.0000 -3.1213 0.0000
# 4 0.0000 0.0000 0.0000 -130.6465 0.0000 -34.6466
# 5 13.3732 -1.1502 -3.1213 0.0000 27.1748 0.0000
# 6 0.0000 0.0000 0.0000 -34.6466 0.0000 9.1166
#
#
#
# Elastic Compliance Matrix: (Units=1/GPa)
#
#
# Indices 1 2 3 4 5 6 
#
# 1 0.021883 0.004141 -0.007247 0.000000 -0.011426 0.000000
# 2 0.004141 0.011883 -0.004684 0.000000 -0.002073 0.000000
# 3 -0.007247 -0.004684 0.010471 0.000000 0.004571 0.000000
# 4 0.000000 0.000000 0.000000 -0.003812 0.000000 -0.014488
# 5 -0.011426 -0.002073 0.004571 0.000000 0.042859 0.000000
# 6 0.000000 0.000000 0.000000 -0.014488 0.000000 0.054631
#
#
# Mechanical properties :
#
#
# Convention : Reuss Voigt Hill
#
# Bulk Modulus (GPa) = 34.89638 50.82631 42.86135
# Shear Modulus (GPa) = 30.66571 -3.07420 13.79575
#
# Velocity S-wave (km/s) = 3.72573 -1.17964 2.49895
# Velocity P-wave (km/s) = 5.85698 4.59908 5.26573
#
# Compressibility (1/GPa) = 0.02865627
#
# Stress axis : x y z
#
# Youngs Moduli (GPa) = 45.69686 84.15162 95.50481
#
# Poissons Ratio (x) = -0.34848 0.69215
# Poissons Ratio (y) = -0.18923 0.44738
# Poissons Ratio (z) = 0.33118 0.39420
#
# Static dielectric constant tensor:
#      x y z
#    x 1.928550 0.000000 0.026680 
#    y 0.000000 1.818700 0.000000 
#    z 0.026680 0.000000 1.886800 
# 
# From -- ./inp_files/300879.got.cif
#   From: 2010.05.17/outbox.cif.g08.bks.cpg/sg12_151_cif.got.tgz:300879.got - 2010.06.03 13:09:07.
