data_PCOD9214174
_publ_section_title
;
Structure prediction by ZEFSAII (Michael W. Deem and Ramdas Pophale) SiO2 
 PCOD9214174
Probable space group: C 2/M
;
_chemical_formula_sum "Si O2"
_cell_formula_units_Z 48
_cell_length_a 13.824799
_cell_length_b 22.023666
_cell_length_c 7.223844
_cell_angle_alpha 90.000000
_cell_angle_beta 117.214358
_cell_angle_gamma 90.000000
_cell_volume 1955.987016
_symmetry_space_group_name_H-M "C 2/M"
_symmetry_group_IT_number 12
_symmetry_cell_setting 'monoclinic'
loop_
_space_group_symop_operation_xyz
x,y,z
-x,y,-z
-x,-y,-z
x,-y,z
1/2+x,1/2+y,z
1/2-x,1/2+y,-z
1/2-x,1/2-y,-z
1/2+x,1/2-y,z
loop_
_atom_site_type_symbol
_atom_site_label
_atom_site_fract_x
_atom_site_fract_y
_atom_site_fract_z
Si Si1 0.457359 0.332313 0.145318
Si Si2 0.228693 0.632668 0.783769
Si Si3 0.526254 0.929250 0.744853
Si Si4 0.199903 0.618422 0.348476
Si Si5 0.096318 0.935430 0.437568
Si Si6 0.303249 0.266254 0.245426
O O1 0.552678 0.378155 0.281886
O O2 0.418706 0.292756 0.284022
O O3 0.500000 0.296923 0.000000
O O4 0.345217 0.364299 0.982947
O O5 0.229352 0.598879 0.588886
O O6 0.191741 0.698893 0.671520
O O7 0.139093 0.607625 0.847644
O O8 0.500000 0.927144 0.500000
O O9 0.426229 0.898767 0.767815
O O10 0.537779 0.000000 0.806078
O O11 0.294739 0.576693 0.347246
O O12 0.234034 0.685161 0.302245
O O13 0.000000 0.939583 0.500000
O O14 0.102308 0.000000 0.341301
O O15 0.250000 0.250000 0.000000
#
# Coordination Sequence:
#
# PCOD9214174 Si02
#       6
#     8   8   8   8   8   8
#     4  11  22  41  61  92 131 165 210 265 330 382
#     4  10  22  39  63  96 126 171 215 262 328 381
#     4   9  20  39  63  93 129 169 216 267 317 387
#     4  11  20  41  65  94 126 169 218 264 321 391
#     4  11  23  40  65  95 127 168 212 267 327 390
#     4  10  23  40  62  90 128 166 211 273 321 388
#
# _framework density 24.540040000000001
#
# number of rings (size 3 to 8) (size 9 to 14) (size 15 to 20)
#    0.000    1.667    3.333    1.000    0.000    4.333 
#    9.000    2.500    0.000    4.000    0.000    0.000 
#    0.000    0.000    0.000    0.000    0.000    0.000 
#
# Total GULP energy -133787.768380 kJ/mol
# GULP energy per Si atom -5574.490349 kJ/mol
# Density = 2.448419 g / cm^3
# Si number density = 24.540040 Si / 1000 Ang^3
#
#
#
# Elastic Constant Matrix: (Units=GPa)
#
#
# Indices 1 2 3 4 5 6 
#
# 1 189.5864 46.5082 33.5570 0.0000 15.1911 0.0000
# 2 46.5082 90.3686 -5.5135 0.0000 -1.4586 0.0000
# 3 33.5570 -5.5135 78.5565 0.0000 10.1526 0.0000
# 4 0.0000 0.0000 0.0000 20.3373 0.0000 7.1529
# 5 15.1911 -1.4586 10.1526 0.0000 44.6458 0.0000
# 6 0.0000 0.0000 0.0000 7.1529 0.0000 0.8938
#
#
#
# Elastic Compliance Matrix: (Units=1/GPa)
#
#
# Indices 1 2 3 4 5 6 
#
# 1 0.006859 -0.003740 -0.002962 0.000000 -0.001782 0.000000
# 2 -0.003740 0.013154 0.002370 0.000000 0.001163 0.000000
# 3 -0.002962 0.002370 0.014446 0.000000 -0.002200 0.000000
# 4 0.000000 0.000000 0.000000 -0.027097 0.000000 0.216845
# 5 -0.001782 0.001163 -0.002200 0.000000 0.023543 0.000000
# 6 0.000000 0.000000 0.000000 0.216845 0.000000 -0.616536
#
#
# Mechanical properties :
#
#
# Convention : Reuss Voigt Hill
#
# Bulk Modulus (GPa) = 38.76600 56.40167 47.58384
# Shear Modulus (GPa) = -8.79708 32.10603 11.65448
#
# Velocity S-wave (km/s) = -1.89541 3.62098 2.18162
# Velocity P-wave (km/s) = 3.32284 6.36518 5.07724
#
# Compressibility (1/GPa) = 0.02579580
#
# Stress axis : x y z
#
# Youngs Moduli (GPa) = 145.79129 76.02402 69.22496
#
# Poissons Ratio (x) = 0.28429 0.20505
# Poissons Ratio (y) = 0.54519 -0.16408
# Poissons Ratio (z) = 0.43185 -0.18020
#
# Static dielectric constant tensor:
#      x y z
#    x 2.118620 0.000000 -0.021410 
#    y 0.000000 2.061470 0.000000 
#    z -0.021410 0.000000 2.146330 
# 
# From -- ./inp_files/51427.got.cif
#   From: 2010.05.17/outbox.cif.g08.bks.cpg/sg12_26_cif.got.tgz:51427.got - 2010.06.03 13:09:07.
