data_PCOD9214551
_publ_section_title
;
Structure prediction by ZEFSAII (Michael W. Deem and Ramdas Pophale) SiO2 
 PCOD9214551
Probable space group: C 2/M
;
_chemical_formula_sum "Si O2"
_cell_formula_units_Z 48
_cell_length_a 19.993811
_cell_length_b 8.654040
_cell_length_c 17.976243
_cell_angle_alpha 90.000000
_cell_angle_beta 53.664451
_cell_angle_gamma 90.000000
_cell_volume 2505.600016
_symmetry_space_group_name_H-M "C 2/M"
_symmetry_group_IT_number 12
_symmetry_cell_setting 'monoclinic'
loop_
_space_group_symop_operation_xyz
x,y,z
-x,y,-z
-x,-y,-z
x,-y,z
1/2+x,1/2+y,z
1/2-x,1/2+y,-z
1/2-x,1/2-y,-z
1/2+x,1/2-y,z
loop_
_atom_site_type_symbol
_atom_site_label
_atom_site_fract_x
_atom_site_fract_y
_atom_site_fract_z
Si Si1 0.658343 0.682125 0.065327
Si Si2 0.614828 0.815231 0.779833
Si Si3 0.540933 0.186165 0.395747
Si Si4 0.870783 0.681098 0.066629
Si Si5 0.009517 0.185368 0.260133
Si Si6 0.766652 0.684230 0.749103
O O1 0.666313 0.500000 0.067605
O O2 0.599435 0.741041 0.170209
O O3 0.750000 0.750000 0.000000
O O4 0.612833 0.723077 0.017699
O O5 0.582205 0.785009 0.886434
O O6 0.557410 0.750942 0.753434
O O7 0.704915 0.733459 0.722855
O O8 0.623709 0.000000 0.768109
O O9 0.500000 0.237118 0.500000
O O10 0.498503 0.256600 0.350930
O O11 0.638672 0.226033 0.328054
O O12 0.534732 0.000000 0.395869
O O13 0.878667 0.500000 0.044932
O O14 0.776205 0.723288 0.154685
O O15 0.007748 0.000000 0.258902
O O16 0.760267 0.500000 0.766494
#
# Coordination Sequence:
#
# PCOD9214551 Si02
#       6
#     8   8   8   8   8   8
#     4  11  23  36  54  83 118 155 193 236 280 334
#     4   9  20  37  59  85 117 155 192 235 283 338
#     4  10  22  40  62  87 114 148 189 235 291 350
#     4   9  19  34  55  82 114 152 192 228 274 334
#     4  11  24  39  58  86 118 149 192 243 285 336
#     4   9  17  34  60  85 114 151 188 231 282 337
#
# _framework density 19.157088000000002
#
# number of rings (size 3 to 8) (size 9 to 14) (size 15 to 20)
#    1.000    1.167    0.000    3.000    0.000    7.667 
#    0.000    4.167    0.000    0.000    0.000    0.000 
#    0.000    0.000    0.000    0.000    0.000    0.000 
#
# Total GULP energy -133822.666274 kJ/mol
# GULP energy per Si atom -5575.944428 kJ/mol
# Density = 1.911349 g / cm^3
# Si number density = 19.157088 Si / 1000 Ang^3
#
#
#
# Elastic Constant Matrix: (Units=GPa)
#
#
# Indices 1 2 3 4 5 6 
#
# 1 85.4715 6.9972 18.8916 0.0000 18.8950 0.0001
# 2 6.9972 19.4752 6.3547 -0.0001 7.8402 0.0003
# 3 18.8916 6.3547 81.0275 0.0000 25.3998 0.0001
# 4 0.0000 -0.0001 0.0000 23.1913 0.0000 7.5598
# 5 18.8950 7.8402 25.3998 0.0000 24.2162 0.0000
# 6 0.0001 0.0003 0.0001 7.5598 0.0000 27.2927
#
#
#
# Elastic Compliance Matrix: (Units=1/GPa)
#
#
# Indices 1 2 3 4 5 6 
#
# 1 0.014150 -0.000711 0.000217 0.000000 -0.011038 0.000000
# 2 -0.000711 0.059303 0.002025 0.000001 -0.020769 -0.000001
# 3 0.000217 0.002025 0.018460 0.000000 -0.020187 0.000000
# 4 0.000000 0.000001 0.000000 0.047399 0.000000 -0.013129
# 5 -0.011038 -0.020769 -0.020187 0.000000 0.077805 0.000000
# 6 0.000000 -0.000001 0.000000 -0.013129 0.000000 0.040277
#
#
# Mechanical properties :
#
#
# Convention : Reuss Voigt Hill
#
# Bulk Modulus (GPa) = 10.52898 27.82899 19.17898
# Shear Modulus (GPa) = 17.48303 25.18875 21.33589
#
# Velocity S-wave (km/s) = 3.02423 3.63002 3.34089
# Velocity P-wave (km/s) = 4.20745 5.66813 4.99151
#
# Compressibility (1/GPa) = 0.09497599
#
# Stress axis : x y z
#
# Youngs Moduli (GPa) = 70.67005 16.86247 54.17042
#
# Poissons Ratio (x) = 0.01199 -0.01174
# Poissons Ratio (y) = 0.05026 -0.10972
# Poissons Ratio (z) = -0.01532 -0.03415
#
# Static dielectric constant tensor:
#      x y z
#    x 1.715800 0.000000 -0.007200 
#    y 0.000000 1.636080 0.000000 
#    z -0.007200 0.000000 1.680310 
# 
# From -- ./inp_files/287277.got.cif
#   From: 2010.05.17/outbox.cif.g08.bks.cpg/sg12_144_cif.got.tgz:287277.got - 2010.06.03 13:09:07.
