data_PCOD9214877
_publ_section_title
;
Structure prediction by ZEFSAII (Michael W. Deem and Ramdas Pophale) SiO2 
 PCOD9214877
Probable space group: C 2/M
;
_chemical_formula_sum "Si O2"
_cell_formula_units_Z 48
_cell_length_a 15.003744
_cell_length_b 16.349315
_cell_length_c 19.491633
_cell_angle_alpha 90.000000
_cell_angle_beta 30.413369
_cell_angle_gamma 90.000000
_cell_volume 2420.469438
_symmetry_space_group_name_H-M "C 2/M"
_symmetry_group_IT_number 12
_symmetry_cell_setting 'monoclinic'
loop_
_space_group_symop_operation_xyz
x,y,z
-x,y,-z
-x,-y,-z
x,-y,z
1/2+x,1/2+y,z
1/2-x,1/2+y,-z
1/2-x,1/2-y,-z
1/2+x,1/2-y,z
loop_
_atom_site_type_symbol
_atom_site_label
_atom_site_fract_x
_atom_site_fract_y
_atom_site_fract_z
Si Si1 0.961733 0.092688 0.101723
Si Si2 0.206934 0.099089 0.373616
Si Si3 0.018185 0.598139 0.063954
Si Si4 0.954693 0.406879 0.606898
Si Si5 0.899048 0.699241 0.364826
Si Si6 0.136813 0.183069 0.112986
O O1 0.753999 0.087915 0.248485
O O2 0.029284 0.139470 0.123754
O O3 0.038075 0.000000 0.051047
O O4 0.000000 0.127907 0.000000
O O5 0.346258 0.124361 0.221605
O O6 0.299878 0.139154 0.377682
O O7 0.000000 0.123078 0.500000
O O8 0.207878 0.000000 0.378150
O O9 0.009789 0.500000 0.068742
O O10 0.213391 0.622345 0.958362
O O11 0.000000 0.632162 0.000000
O O12 0.029040 0.500000 0.562147
O O13 0.000000 0.375188 0.500000
O O14 0.012550 0.353128 0.633188
O O15 0.750000 0.750000 0.500000
O O16 0.022704 0.765494 0.243687
O O17 0.250000 0.250000 0.000000
#
# Coordination Sequence:
#
# PCOD9214877 Si02
#       6
#     8   8   8   8   8   8
#     4  10  22  40  65  93 124 166 214 260 309 374
#     4  10  23  45  69  93 125 172 224 267 315 381
#     4  10  23  44  68  94 127 171 221 269 315 377
#     4  10  22  44  68  91 122 167 218 263 311 376
#     4  12  26  41  63  98 135 170 208 263 332 390
#     4  12  24  41  62  98 132 167 209 260 333 387
#
# _framework density 19.830864999999999
#
# number of rings (size 3 to 8) (size 9 to 14) (size 15 to 20)
#    0.000    1.333    1.667    3.000    2.333    4.000 
#    0.000    1.667    0.000    0.000    0.000    0.000 
#    0.000    0.000    0.000    0.000    0.000    0.000 
#
# Total GULP energy -133832.123225 kJ/mol
# GULP energy per Si atom -5576.338468 kJ/mol
# Density = 1.978573 g / cm^3
# Si number density = 19.830865 Si / 1000 Ang^3
#
#
#
# Elastic Constant Matrix: (Units=GPa)
#
#
# Indices 1 2 3 4 5 6 
#
# 1 181.1345 60.4940 82.2398 0.0055 8.7414 -0.0198
# 2 60.4940 50.9109 39.6788 -0.0322 4.6954 0.1001
# 3 82.2398 39.6788 173.3090 -0.0957 16.4119 0.3026
# 4 0.0055 -0.0322 -0.0957 359.8137 0.0071-1009.9109
# 5 8.7414 4.6954 16.4119 0.0071 38.5085 -0.0204
# 6 -0.0198 0.1001 0.3026-1009.9109 -0.0204 3153.7587
#
#
#
# Elastic Compliance Matrix: (Units=1/GPa)
#
#
# Indices 1 2 3 4 5 6 
#
# 1 0.009940 -0.009901 -0.002449 0.000000 -0.000005 0.000001
# 2 -0.009901 0.033785 -0.002980 0.000000 -0.000602 -0.000001
# 3 -0.002449 -0.002980 0.007844 0.000000 -0.002424 -0.000001
# 4 0.000000 0.000000 0.000000 0.027461 0.000000 0.008794
# 5 -0.000005 -0.000602 -0.002424 0.000000 0.027076 0.000000
# 6 0.000001 -0.000001 -0.000001 0.008794 0.000000 0.003133
#
#
# Mechanical properties :
#
#
# Convention : Reuss Voigt Hill
#
# Bulk Modulus (GPa) = 47.82785 85.57553 66.70169
# Shear Modulus (GPa) = 34.04399 725.27895 379.66147
#
# Velocity S-wave (km/s) = 4.14782 19.14488 13.85155
# Velocity P-wave (km/s) = 6.86364 23.06400 17.01555
#
# Compressibility (1/GPa) = 0.02090832
#
# Stress axis : x y z
#
# Youngs Moduli (GPa) = 100.60473 29.59887 127.48602
#
# Poissons Ratio (x) = 0.29307 0.31226
# Poissons Ratio (y) = 0.99613 0.37985
# Poissons Ratio (z) = 0.24641 0.08819
#
# Static dielectric constant tensor:
#      x y z
#    x 1.656820 0.000030 0.057240 
#    y 0.000030 1.635050 0.000040 
#    z 0.057240 0.000040 1.604300 
# 
# From -- ./inp_files/271626.got.cif
#   From: 2010.05.17/outbox.cif.g08.bks.cpg/sg12_136_cif.got.tgz:271626.got - 2010.06.03 13:09:07.
