data_PCOD9214377
_publ_section_title
;
Structure prediction by ZEFSAII (Michael W. Deem and Ramdas Pophale) SiO2 
 PCOD9214377
Probable space group: C 2/M
;
_chemical_formula_sum "Si O2"
_cell_formula_units_Z 48
_cell_length_a 15.712568
_cell_length_b 22.806031
_cell_length_c 11.952049
_cell_angle_alpha 90.000000
_cell_angle_beta 144.445861
_cell_angle_gamma 90.000000
_cell_volume 2490.393764
_symmetry_space_group_name_H-M "C 2/M"
_symmetry_group_IT_number 12
_symmetry_cell_setting 'monoclinic'
loop_
_space_group_symop_operation_xyz
x,y,z
-x,y,-z
-x,-y,-z
x,-y,z
1/2+x,1/2+y,z
1/2-x,1/2+y,-z
1/2-x,1/2-y,-z
1/2+x,1/2-y,z
loop_
_atom_site_type_symbol
_atom_site_label
_atom_site_fract_x
_atom_site_fract_y
_atom_site_fract_z
Si Si1 0.942785 0.377273 0.192986
Si Si2 0.352830 0.626015 0.770463
Si Si3 0.662126 0.184086 0.125236
Si Si4 0.173829 0.000000 0.195377
Si Si5 0.746615 0.681893 0.533259
Si Si6 0.841981 0.293263 0.281376
Si Si7 0.583852 0.000000 0.710764
O O1 0.868373 0.335189 0.204753
O O2 0.945707 0.441923 0.248688
O O3 0.103847 0.350801 0.343133
O O4 0.860821 0.368628 0.986406
O O5 0.288479 0.560429 0.703003
O O6 0.377162 0.650385 0.672402
O O7 0.240180 0.668850 0.711927
O O8 0.500000 0.626614 0.000000
O O9 0.759075 0.174705 0.339853
O O10 0.737973 0.238508 0.144854
O O11 0.500000 0.200260 0.000000
O O12 0.248912 0.000000 0.154505
O O13 0.000000 0.000000 0.000000
O O14 0.750000 0.750000 0.500000
O O15 0.000000 0.275377 0.500000
O O16 0.500000 0.000000 0.500000
#
# Coordination Sequence:
#
# PCOD9214377 Si02
#       7
#     8   8   8   4   8   8   4
#     4  11  23  38  62  92 123 162 207 254 319 366
#     4  11  22  37  63  89 117 160 200 252 315 362
#     4  10  23  40  58  84 125 167 201 244 307 384
#     4  10  22  40  59  93 121 153 208 248 308 372
#     4  11  21  39  59  86 124 160 208 251 303 384
#     4  12  20  37  58  93 122 152 201 258 316 365
#     4  12  22  40  66  93 131 159 208 273 307 363
#
# _framework density 19.274061
#
# number of rings (size 3 to 8) (size 9 to 14) (size 15 to 20)
#    0.000    1.000    5.000    2.500    2.333    0.000 
#    3.000    4.583    0.000    0.000    0.000    2.917 
#    0.000    0.000    0.000    0.000    0.000    0.000 
#
# Total GULP energy -133982.041598 kJ/mol
# GULP energy per Si atom -5582.585067 kJ/mol
# Density = 1.923019 g / cm^3
# Si number density = 19.274061 Si / 1000 Ang^3
#
#
#
# Elastic Constant Matrix: (Units=GPa)
#
#
# Indices 1 2 3 4 5 6 
#
# 1 73.0798 45.0548 32.6824 0.0000 -9.8173 0.0000
# 2 45.0548 151.3664 48.9240 0.0000 -16.4970 0.0000
# 3 32.6824 48.9240 102.0432 0.0000 -29.1631 0.0000
# 4 0.0000 0.0000 0.0000 10.8920 0.0000 -8.5957
# 5 -9.8173 -16.4970 -29.1631 0.0000 45.3308 0.0000
# 6 0.0000 0.0000 0.0000 -8.5957 0.0000 33.4470
#
#
#
# Elastic Compliance Matrix: (Units=1/GPa)
#
#
# Indices 1 2 3 4 5 6 
#
# 1 0.017902 -0.004114 -0.003775 0.000000 -0.000049 0.000000
# 2 -0.004114 0.008774 -0.002734 0.000000 0.000543 0.000000
# 3 -0.003775 -0.002734 0.014460 0.000000 0.007490 0.000000
# 4 0.000000 0.000000 0.000000 0.115168 0.000000 0.029598
# 5 -0.000049 0.000543 0.007490 0.000000 0.027066 0.000000
# 6 0.000000 0.000000 0.000000 0.029598 0.000000 0.037504
#
#
# Mechanical properties :
#
#
# Convention : Reuss Voigt Hill
#
# Bulk Modulus (GPa) = 50.27536 64.42354 57.34945
# Shear Modulus (GPa) = 20.10053 31.25584 25.67819
#
# Velocity S-wave (km/s) = 3.23287 4.03134 3.65398
# Velocity P-wave (km/s) = 6.33059 7.42742 6.90083
#
# Compressibility (1/GPa) = 0.01989046
#
# Stress axis : x y z
#
# Youngs Moduli (GPa) = 55.86115 113.97692 69.15517
#
# Poissons Ratio (x) = 0.46885 0.26108
# Poissons Ratio (y) = 0.22979 0.18905
# Poissons Ratio (z) = 0.21089 0.31158
#
# Static dielectric constant tensor:
#      x y z
#    x 1.692160 0.000000 0.006660 
#    y 0.000000 1.679200 0.000000 
#    z 0.006660 0.000000 1.777240 
# 
# From -- ./inp_files/148045.got.cif
#   From: 2010.05.17/outbox.cif.g08.bks.cpg/sg12_75_cif.got.tgz:148045.got - 2010.06.03 13:09:07.
