data_PCOD9214308
_publ_section_title
;
Structure prediction by ZEFSAII (Michael W. Deem and Ramdas Pophale) SiO2 
 PCOD9214308
Probable space group: C 2/M
;
_chemical_formula_sum "Si O2"
_cell_formula_units_Z 32
_cell_length_a 10.623804
_cell_length_b 22.736609
_cell_length_c 5.520319
_cell_angle_alpha 90.000000
_cell_angle_beta 87.411006
_cell_angle_gamma 90.000000
_cell_volume 1332.067989
_symmetry_space_group_name_H-M "C 2/M"
_symmetry_group_IT_number 12
_symmetry_cell_setting 'monoclinic'
loop_
_space_group_symop_operation_xyz
x,y,z
-x,y,-z
-x,-y,-z
x,-y,z
1/2+x,1/2+y,z
1/2-x,1/2+y,-z
1/2-x,1/2-y,-z
1/2+x,1/2-y,z
loop_
_atom_site_type_symbol
_atom_site_label
_atom_site_fract_x
_atom_site_fract_y
_atom_site_fract_z
Si Si1 0.384492 0.816955 0.329053
Si Si2 0.000000 0.404729 0.000000
Si Si3 0.629302 0.366700 0.343114
Si Si4 0.000000 0.214926 0.000000
Si Si5 0.211503 0.000000 0.252162
Si Si6 0.636517 0.000000 0.263975
O O1 0.500000 0.827776 0.500000
O O2 0.391041 0.864174 0.111378
O O3 0.249821 0.833788 0.454752
O O4 0.424340 0.756274 0.196408
O O5 0.050446 0.444356 0.211844
O O6 0.500000 0.360970 0.500000
O O7 0.645497 0.436342 0.289734
O O8 0.602813 0.327074 0.111465
O O9 0.305632 0.000000 0.476231
O O10 0.267404 0.000000 0.974595
#
# Coordination Sequence:
#
# PCOD9214308 Si02
#       6
#     8   4   8   4   4   4
#     4  11  24  48  77 111 146 196 262 322 386 452
#     4  10  22  39  76 109 154 194 254 326 382 456
#     4  12  28  48  74 110 154 204 248 320 389 472
#     4  11  28  46  76 106 148 203 264 318 380 453
#     4  12  27  48  77 113 160 205 256 313 394 474
#     4  11  24  44  75 115 154 204 261 318 387 456
#
# _framework density 24.022796
#
# number of rings (size 3 to 8) (size 9 to 14) (size 15 to 20)
#    0.000    0.750    2.500    3.375    3.500    9.500 
#    0.000    0.000    0.000    0.000    0.000    0.000 
#    0.000    0.000    0.000    0.000    0.000    0.000 
#
# Total GULP energy -89407.287861 kJ/mol
# GULP energy per Si atom -5587.955491 kJ/mol
# Density = 2.396812 g / cm^3
# Si number density = 24.022796 Si / 1000 Ang^3
#
#
#
# Elastic Constant Matrix: (Units=GPa)
#
#
# Indices 1 2 3 4 5 6 
#
# 1 167.8534 73.8353 47.1996 0.0000 -9.5862 0.0000
# 2 73.8353 199.3539 49.2391 0.0000 7.8477 0.0000
# 3 47.1996 49.2391 72.9344 0.0000 -10.6872 0.0000
# 4 0.0000 0.0000 0.0000 28.0974 0.0000 17.9579
# 5 -9.5862 7.8477 -10.6872 0.0000 39.0167 0.0000
# 6 0.0000 0.0000 0.0000 17.9579 0.0000 -53.9158
#
#
#
# Elastic Compliance Matrix: (Units=1/GPa)
#
#
# Indices 1 2 3 4 5 6 
#
# 1 0.007965 -0.002142 -0.003499 0.000000 0.001429 0.000000
# 2 -0.002142 0.006824 -0.003645 0.000000 -0.002897 0.000000
# 3 -0.003499 -0.003645 0.019188 0.000000 0.005129 0.000000
# 4 0.000000 0.000000 0.000000 0.029344 0.000000 0.009774
# 5 0.001429 -0.002897 0.005129 0.000000 0.027969 0.000000
# 6 0.000000 0.000000 0.000000 0.009774 0.000000 -0.015292
#
#
# Mechanical properties :
#
#
# Convention : Reuss Voigt Hill
#
# Bulk Modulus (GPa) = 64.91697 86.74329 75.83013
# Shear Modulus (GPa) = 50.14735 20.63085 35.38910
#
# Velocity S-wave (km/s) = 4.57386 2.93371 3.84232
# Velocity P-wave (km/s) = 7.41454 6.90382 7.16373
#
# Compressibility (1/GPa) = 0.01540429
#
# Stress axis : x y z
#
# Youngs Moduli (GPa) = 125.54165 146.54126 52.11589
#
# Poissons Ratio (x) = 0.31392 0.18236
# Poissons Ratio (y) = 0.26893 0.18997
# Poissons Ratio (z) = 0.43929 0.53418
#
# Static dielectric constant tensor:
#      x y z
#    x 2.030310 0.000000 -0.034280 
#    y 0.000000 1.911510 0.000000 
#    z -0.034280 0.000000 1.962020 
# 
# From -- ./inp_files/6697.got.cif
#   From: 2010.05.17/outbox.cif.g08.bks.cpg/sg12_4_cif.got.tgz:6697.got - 2010.06.03 13:09:07.
