data_PCOD9214735
_publ_section_title
;
Structure prediction by ZEFSAII (Michael W. Deem and Ramdas Pophale) SiO2 
 PCOD9214735
Probable space group: C 2/M
;
_chemical_formula_sum "Si O2"
_cell_formula_units_Z 46
_cell_length_a 9.050662
_cell_length_b 30.749003
_cell_length_c 14.735359
_cell_angle_alpha 90.000000
_cell_angle_beta 144.386197
_cell_angle_gamma 90.000000
_cell_volume 2387.992422
_symmetry_space_group_name_H-M "C 2/M"
_symmetry_group_IT_number 12
_symmetry_cell_setting 'monoclinic'
loop_
_space_group_symop_operation_xyz
x,y,z
-x,y,-z
-x,-y,-z
x,-y,z
1/2+x,1/2+y,z
1/2-x,1/2+y,-z
1/2-x,1/2-y,-z
1/2+x,1/2-y,z
loop_
_atom_site_type_symbol
_atom_site_label
_atom_site_fract_x
_atom_site_fract_y
_atom_site_fract_z
Si Si1 0.143426 0.278142 0.661357
Si Si2 0.699561 0.566735 0.949939
Si Si3 0.119892 0.307038 0.285300
Si Si4 0.702962 0.549458 0.741280
Si Si5 0.500000 0.384346 0.500000
Si Si6 0.000000 0.000000 0.000000
Si Si7 0.104443 0.164443 0.950046
O O1 0.198116 0.227260 0.673171
O O2 0.409625 0.303378 0.803884
O O3 0.000000 0.294192 0.500000
O O4 0.984686 0.286491 0.673345
O O5 0.658539 0.551338 0.826631
O O6 0.624957 0.617168 0.916861
O O7 0.550336 0.537879 0.947448
O O8 0.999173 0.561131 0.122619
O O9 0.260426 0.351885 0.379381
O O10 0.883254 0.315793 0.101223
O O11 0.662572 0.500000 0.688950
O O12 0.533010 0.583861 0.602304
O O13 0.000000 0.158636 0.000000
#
# Coordination Sequence:
#
# PCOD9214735 Si02
#       7
#     8   8   8   8   4   2   8
#     4  11  24  41  65  89 130 165 220 272 327 390
#     4  11  21  39  68  96 128 169 217 263 325 386
#     4  11  24  43  62  93 125 178 214 269 336 384
#     4  11  23  42  63  97 129 170 217 267 323 388
#     4  12  25  40  70  92 134 174 222 271 326 390
#     4  12  20  38  76  94 128 170 216 274 322 388
#     4  10  22  40  63  95 128 168 216 265 325 394
#
# _framework density 19.263043
#
# number of rings (size 3 to 8) (size 9 to 14) (size 15 to 20)
#    0.000    1.043    5.217    1.826    2.435    0.000 
#    0.000    0.000    0.000    1.043    0.000    0.000 
#    0.000    0.000    0.000    0.000    0.000    0.000 
#
# Total GULP energy -128260.645894 kJ/mol
# GULP energy per Si atom -5576.549821 kJ/mol
# Density = 1.921920 g / cm^3
# Si number density = 19.263043 Si / 1000 Ang^3
#
#
#
# Elastic Constant Matrix: (Units=GPa)
#
#
# Indices 1 2 3 4 5 6 
#
# 1 45.1186 30.8075 20.2767 0.0000 -8.3149 0.0000
# 2 30.8075 136.9107 45.4306 0.0000 -7.5279 0.0000
# 3 20.2767 45.4306 107.5295 0.0000 -5.0463 0.0000
# 4 0.0000 0.0000 0.0000 21.5199 0.0000 -12.9121
# 5 -8.3149 -7.5279 -5.0463 0.0000 18.9285 0.0000
# 6 0.0000 0.0000 0.0000 -12.9121 0.0000 26.3160
#
#
#
# Elastic Compliance Matrix: (Units=1/GPa)
#
#
# Indices 1 2 3 4 5 6 
#
# 1 0.028644 -0.004960 -0.002843 0.000000 0.009852 0.000000
# 2 -0.004960 0.009468 -0.003028 0.000000 0.000779 0.000000
# 3 -0.002843 -0.003028 0.011140 0.000000 0.000516 0.000000
# 4 0.000000 0.000000 0.000000 0.065856 0.000000 0.032313
# 5 0.009852 0.000779 0.000516 0.000000 0.057606 0.000000
# 6 0.000000 0.000000 0.000000 0.032313 0.000000 0.053854
#
#
# Mechanical properties :
#
#
# Convention : Reuss Voigt Hill
#
# Bulk Modulus (GPa) = 36.24767 53.62093 44.93430
# Shear Modulus (GPa) = 19.42294 26.22249 22.82272
#
# Velocity S-wave (km/s) = 3.17882 3.69356 3.44582
# Velocity P-wave (km/s) = 5.68606 6.78870 6.26170
#
# Compressibility (1/GPa) = 0.02758798
#
# Stress axis : x y z
#
# Youngs Moduli (GPa) = 34.91106 105.62049 89.77005
#
# Poissons Ratio (x) = 0.52391 0.25525
# Poissons Ratio (y) = 0.17317 0.27184
# Poissons Ratio (z) = 0.09926 0.31984
#
# Static dielectric constant tensor:
#      x y z
#    x 1.659570 0.000000 0.028520 
#    y 0.000000 1.656120 0.000000 
#    z 0.028520 0.000000 1.686220 
# 
# From -- ./inp_files/200254.got.cif
#   From: 2010.05.17/outbox.cif.g08.bks.cpg/sg12_101_cif.got.tgz:200254.got - 2010.06.03 13:09:07.
