data_PCOD9214640
_publ_section_title
;
Structure prediction by ZEFSAII (Michael W. Deem and Ramdas Pophale) SiO2 
 PCOD9214640
Probable space group: C 2/M
;
_chemical_formula_sum "Si O2"
_cell_formula_units_Z 36
_cell_length_a 13.469979
_cell_length_b 21.215270
_cell_length_c 7.776722
_cell_angle_alpha 90.000000
_cell_angle_beta 44.230372
_cell_angle_gamma 90.000000
_cell_volume 1550.187772
_symmetry_space_group_name_H-M "C 2/M"
_symmetry_group_IT_number 12
_symmetry_cell_setting 'monoclinic'
loop_
_space_group_symop_operation_xyz
x,y,z
-x,y,-z
-x,-y,-z
x,-y,z
1/2+x,1/2+y,z
1/2-x,1/2+y,-z
1/2-x,1/2-y,-z
1/2+x,1/2-y,z
loop_
_atom_site_type_symbol
_atom_site_label
_atom_site_fract_x
_atom_site_fract_y
_atom_site_fract_z
Si Si1 0.500000 0.616333 0.000000
Si Si2 0.663985 0.678230 0.482986
Si Si3 0.630453 0.890120 0.973139
Si Si4 0.924363 0.690962 0.395968
Si Si5 0.300452 0.931842 0.742067
O O1 0.437111 0.657369 0.235613
O O2 0.367083 0.577791 0.087872
O O3 0.713518 0.620704 0.302174
O O4 0.819023 0.693980 0.365974
O O5 0.606513 0.742883 0.476643
O O6 0.500000 0.908546 0.000000
O O7 0.576896 0.824364 0.127318
O O8 0.656743 0.931184 0.110721
O O9 0.872556 0.629033 0.562990
O O10 0.342515 0.000000 0.614857
#
# Coordination Sequence:
#
# PCOD9214640 Si02
#       5
#     4   8   8   8   8
#     4  10  23  44  68  96 125 172 212 266 322 378
#     4   9  20  38  65  97 131 160 209 268 325 377
#     4  10  22  40  62  97 129 165 214 264 321 372
#     4   9  20  37  64  96 126 168 206 264 323 377
#     4  11  24  43  65  92 130 176 216 255 313 384
#
# _framework density 23.222992999999999
#
# number of rings (size 3 to 8) (size 9 to 14) (size 15 to 20)
#    0.000    2.222    0.000    1.000   10.889    4.000 
#    4.000   11.111    0.000    0.000    0.000    0.000 
#    0.000    0.000    0.000    0.000    0.000    0.000 
#
# Total GULP energy -100207.900216 kJ/mol
# GULP energy per Si atom -5567.105568 kJ/mol
# Density = 2.317014 g / cm^3
# Si number density = 23.222993 Si / 1000 Ang^3
#
#
#
# Elastic Constant Matrix: (Units=GPa)
#
#
# Indices 1 2 3 4 5 6 
#
# 1 135.3357 39.0265 17.6707 0.0000 -5.6588 0.0000
# 2 39.0265 130.3432 53.9989 0.0000 7.7801 0.0000
# 3 17.6707 53.9989 136.4975 0.0000 -6.1904 0.0000
# 4 0.0000 0.0000 0.0000 19.5332 0.0000 3.8435
# 5 -5.6588 7.7801 -6.1904 0.0000 30.6958 0.0000
# 6 0.0000 0.0000 0.0000 3.8435 0.0000 5.1632
#
#
#
# Elastic Compliance Matrix: (Units=1/GPa)
#
#
# Indices 1 2 3 4 5 6 
#
# 1 0.008228 -0.002625 0.000073 0.000000 0.002197 0.000000
# 2 -0.002625 0.010312 -0.003916 0.000000 -0.003887 0.000000
# 3 0.000073 -0.003916 0.008994 0.000000 0.002820 0.000000
# 4 0.000000 0.000000 0.000000 0.059980 0.000000 -0.044650
# 5 0.002197 -0.003887 0.002820 0.000000 0.034537 0.000000
# 6 0.000000 0.000000 0.000000 -0.044650 0.000000 0.226917
#
#
# Mechanical properties :
#
#
# Convention : Reuss Voigt Hill
#
# Bulk Modulus (GPa) = 68.50201 69.28540 68.89370
# Shear Modulus (GPa) = 13.63247 30.51046 22.07146
#
# Velocity S-wave (km/s) = 2.42549 3.62858 3.08622
# Velocity P-wave (km/s) = 6.11600 6.88876 6.51385
#
# Compressibility (1/GPa) = 0.01459811
#
# Stress axis : x y z
#
# Youngs Moduli (GPa) = 121.53109 96.97037 111.18749
#
# Poissons Ratio (x) = 0.25455 -0.00810
# Poissons Ratio (y) = 0.31902 0.43542
# Poissons Ratio (z) = -0.00886 0.37975
#
# Static dielectric constant tensor:
#      x y z
#    x 1.938380 0.000000 0.054020 
#    y 0.000000 1.907520 0.000000 
#    z 0.054020 0.000000 1.957710 
# 
# From -- ./inp_files/63986.got.cif
#   From: 2010.05.17/outbox.cif.g08.bks.cpg/sg12_32_cif.got.tgz:63986.got - 2010.06.03 13:09:07.
