data_PCOD9214965
_publ_section_title
;
Structure prediction by ZEFSAII (Michael W. Deem and Ramdas Pophale) SiO2 
 PCOD9214965
Probable space group: C 2/M
;
_chemical_formula_sum "Si O2"
_cell_formula_units_Z 44
_cell_length_a 8.805351
_cell_length_b 11.384021
_cell_length_c 24.002360
_cell_angle_alpha 90.000000
_cell_angle_beta 53.718952
_cell_angle_gamma 90.000000
_cell_volume 1939.537541
_symmetry_space_group_name_H-M "C 2/M"
_symmetry_group_IT_number 12
_symmetry_cell_setting 'monoclinic'
loop_
_space_group_symop_operation_xyz
x,y,z
-x,y,-z
-x,-y,-z
x,-y,z
1/2+x,1/2+y,z
1/2-x,1/2+y,-z
1/2-x,1/2-y,-z
1/2+x,1/2-y,z
loop_
_atom_site_type_symbol
_atom_site_label
_atom_site_fract_x
_atom_site_fract_y
_atom_site_fract_z
Si Si1 0.253399 0.500000 0.134846
Si Si2 0.214617 0.133512 0.156727
Si Si3 0.642741 0.198556 0.075996
Si Si4 0.179536 0.138164 0.552439
Si Si5 0.864035 0.319542 0.742515
Si Si6 0.273608 0.252678 0.645246
O O1 0.259217 0.601958 0.084768
O O2 0.213365 0.400012 0.191821
O O3 0.441047 0.146919 0.101967
O O4 0.114668 0.199381 0.127621
O O5 0.166443 0.188810 0.226576
O O6 0.160405 0.000000 0.166069
O O7 0.750000 0.250000 0.000000
O O8 0.250000 0.250000 0.500000
O O9 0.268126 0.166571 0.593564
O O10 0.956354 0.164609 0.604754
O O11 0.213202 0.000000 0.528978
O O12 0.773029 0.323421 0.701923
O O13 0.087072 0.332332 0.686018
#
# Coordination Sequence:
#
# PCOD9214965 Si02
#       6
#     4   8   8   8   8   8
#     4  10  22  40  66  96 140 174 220 312 344 412
#     4  11  24  45  68  94 139 180 222 303 357 421
#     4  11  24  43  67  97 127 182 238 277 365 430
#     4  11  26  48  73 110 152 196 245 294 356 423
#     4  10  22  43  67 105 136 180 239 288 367 425
#     4  10  24  43  70 107 138 191 238 293 353 438
#
# _framework density 22.68582
#
# number of rings (size 3 to 8) (size 9 to 14) (size 15 to 20)
#    0.000    1.455    0.909    3.273    3.818    6.545 
#   16.364    3.636    0.000    0.000    0.000    0.000 
#    0.000    0.000    0.000    0.000    0.000    0.000 
#
# Total GULP energy -122474.233081 kJ/mol
# GULP energy per Si atom -5567.010595 kJ/mol
# Density = 2.263419 g / cm^3
# Si number density = 22.685820 Si / 1000 Ang^3
#
#
#
# Elastic Constant Matrix: (Units=GPa)
#
#
# Indices 1 2 3 4 5 6 
#
# 1 75.2318 20.7122 34.2067 0.0000 19.9628 0.0000
# 2 20.7122 176.1679 53.1610 0.0000 26.8170 0.0000
# 3 34.2067 53.1610 114.1386 0.0000 34.9586 0.0000
# 4 0.0000 0.0000 0.0000 19.3878 0.0000 1.6584
# 5 19.9628 26.8170 34.9586 0.0000 39.8054 0.0000
# 6 0.0000 0.0000 0.0000 1.6584 0.0000 13.8541
#
#
#
# Elastic Compliance Matrix: (Units=1/GPa)
#
#
# Indices 1 2 3 4 5 6 
#
# 1 0.016161 -0.000147 -0.003178 0.000000 -0.005215 0.000000
# 2 -0.000147 0.006777 -0.002375 0.000000 -0.002405 0.000000
# 3 -0.003178 -0.002375 0.013463 0.000000 -0.008630 0.000000
# 4 0.000000 0.000000 0.000000 0.052113 0.000000 -0.006238
# 5 -0.005215 -0.002405 -0.008630 0.000000 0.036937 0.000000
# 6 0.000000 0.000000 0.000000 -0.006238 0.000000 0.072928
#
#
# Mechanical properties :
#
#
# Convention : Reuss Voigt Hill
#
# Bulk Modulus (GPa) = 39.99898 64.63312 52.31605
# Shear Modulus (GPa) = 22.92390 31.77334 27.34862
#
# Velocity S-wave (km/s) = 3.18228 3.74649 3.47585
# Velocity P-wave (km/s) = 5.58323 6.87512 6.26258
#
# Compressibility (1/GPa) = 0.02500064
#
# Stress axis : x y z
#
# Youngs Moduli (GPa) = 61.87558 147.56441 74.27694
#
# Poissons Ratio (x) = 0.02175 0.23602
# Poissons Ratio (y) = 0.00912 0.17644
# Poissons Ratio (z) = 0.19661 0.35053
#
# Static dielectric constant tensor:
#      x y z
#    x 1.888810 0.000000 -0.051520 
#    y 0.000000 1.861860 0.000000 
#    z -0.051520 0.000000 1.836830 
# 
# From -- ./inp_files/332173.got.cif
#   From: 2010.05.17/outbox.cif.g08.bks.cpg/sg12_167_cif.got.tgz:332173.got - 2010.06.03 13:09:07.
