data_PCOD9214057
_publ_section_title
;
Structure prediction by ZEFSAII (Michael W. Deem and Ramdas Pophale) SiO2 
 PCOD9214057
Probable space group: C 2/M
;
_chemical_formula_sum "Si O2"
_cell_formula_units_Z 42
_cell_length_a 7.420006
_cell_length_b 20.966127
_cell_length_c 13.420105
_cell_angle_alpha 90.000000
_cell_angle_beta 73.951831
_cell_angle_gamma 90.000000
_cell_volume 2006.389093
_symmetry_space_group_name_H-M "C 2/M"
_symmetry_group_IT_number 12
_symmetry_cell_setting 'monoclinic'
loop_
_space_group_symop_operation_xyz
x,y,z
-x,y,-z
-x,-y,-z
x,-y,z
1/2+x,1/2+y,z
1/2-x,1/2+y,-z
1/2-x,1/2-y,-z
1/2+x,1/2-y,z
loop_
_atom_site_type_symbol
_atom_site_label
_atom_site_fract_x
_atom_site_fract_y
_atom_site_fract_z
Si Si1 0.000000 0.000000 0.000000
Si Si2 0.324095 0.676722 0.780337
Si Si3 0.604427 0.823277 0.219664
Si Si4 0.720639 0.880905 0.000001
Si Si5 0.473902 0.071697 0.620549
Si Si6 0.594449 0.571697 0.379451
O O1 0.840100 0.055656 0.000002
O O2 0.372753 0.750000 0.754500
O O3 0.321040 0.658483 0.896619
O O4 0.438675 0.625574 0.697658
O O5 0.110712 0.669472 0.778580
O O6 0.636330 0.874426 0.302343
O O7 0.717656 0.841516 0.103383
O O8 0.500000 0.892374 0.000000
O O9 0.500000 0.086242 0.500000
O O10 0.683590 0.068998 0.632823
O O11 0.393413 0.000000 0.642578
O O12 0.500000 0.586242 0.500000
O O13 0.535988 0.500000 0.357423
#
# Coordination Sequence:
#
# PCOD9214057 Si02
#       6
#     2   8   8   8   8   8
#     4  12  26  40  68 102 120 164 220 244 304 400
#     4  10  22  39  62  86 122 165 203 251 312 369
#     4  10  22  39  62  86 122 165 203 251 312 369
#     4  10  24  44  63  94 133 162 198 263 313 358
#     4   9  19  37  58  84 115 156 201 253 314 365
#     4   9  19  37  58  84 115 156 201 253 314 365
#
# _framework density 20.933126999999999
#
# number of rings (size 3 to 8) (size 9 to 14) (size 15 to 20)
#    0.000    2.286    0.000    0.857    5.333    2.286 
#    0.000    3.810    0.000    0.000    0.000    0.000 
#    0.000    0.000    0.000    0.000    0.000    0.000 
#
# Total GULP energy -116961.064060 kJ/mol
# GULP energy per Si atom -5569.574479 kJ/mol
# Density = 2.088548 g / cm^3
# Si number density = 20.933127 Si / 1000 Ang^3
#
#
#
# Elastic Constant Matrix: (Units=GPa)
#
#
# Indices 1 2 3 4 5 6 
#
# 1 81.0877 12.2999 9.1739 0.0000 0.6012 0.0000
# 2 12.2999 198.7208 141.4245 0.0000 -1.9003 0.0000
# 3 9.1739 141.4245 165.6675 0.0000 -1.8484 0.0000
# 4 0.0000 0.0000 0.0000 43.2241 0.0000 -0.1319
# 5 0.6012 -1.9003 -1.8484 0.0000 15.4939 0.0000
# 6 0.0000 0.0000 0.0000 -0.1319 0.0000 34.2241
#
#
#
# Elastic Compliance Matrix: (Units=1/GPa)
#
#
# Indices 1 2 3 4 5 6 
#
# 1 0.012455 -0.000716 -0.000085 0.000000 -0.000581 0.000000
# 2 -0.000716 0.012864 -0.010939 0.000000 0.000301 0.000000
# 3 -0.000085 -0.010939 0.015384 0.000000 0.000497 0.000000
# 4 0.000000 0.000000 0.000000 0.023136 0.000000 0.000089
# 5 -0.000581 0.000301 0.000497 0.000000 0.064660 0.000000
# 6 0.000000 0.000000 0.000000 0.000089 0.000000 0.029220
#
#
# Mechanical properties :
#
#
# Convention : Reuss Voigt Hill
#
# Bulk Modulus (GPa) = 58.05800 85.69694 71.87747
# Shear Modulus (GPa) = 26.74666 37.42694 32.08680
#
# Velocity S-wave (km/s) = 3.57840 4.23298 3.91938
# Velocity P-wave (km/s) = 6.69839 8.05718 7.40900
#
# Compressibility (1/GPa) = 0.01722416
#
# Stress axis : x y z
#
# Youngs Moduli (GPa) = 80.28997 77.73555 65.00105
#
# Poissons Ratio (x) = 0.05566 0.00552
# Poissons Ratio (y) = 0.05749 0.71102
# Poissons Ratio (z) = 0.00682 0.85032
#
# Static dielectric constant tensor:
#      x y z
#    x 1.809520 0.000000 0.001040 
#    y 0.000000 1.745670 0.000000 
#    z 0.001040 0.000000 1.738820 
# 
# From -- ./inp_files/120608.got.cif
#   From: 2010.05.17/outbox.cif.g08.bks.cpg/sg12_61_cif.got.tgz:120608.got - 2010.06.03 13:09:07.
