data_PCOD9214391
_publ_section_title
;
Structure prediction by ZEFSAII (Michael W. Deem and Ramdas Pophale) SiO2 
 PCOD9214391
Probable space group: C 2/M
;
_chemical_formula_sum "Si O2"
_cell_formula_units_Z 40
_cell_length_a 28.023915
_cell_length_b 8.516099
_cell_length_c 19.094469
_cell_angle_alpha 90.000000
_cell_angle_beta 27.018777
_cell_angle_gamma 90.000000
_cell_volume 2070.156024
_symmetry_space_group_name_H-M "C 2/M"
_symmetry_group_IT_number 12
_symmetry_cell_setting 'monoclinic'
loop_
_space_group_symop_operation_xyz
x,y,z
-x,y,-z
-x,-y,-z
x,-y,z
1/2+x,1/2+y,z
1/2-x,1/2+y,-z
1/2-x,1/2-y,-z
1/2+x,1/2-y,z
loop_
_atom_site_type_symbol
_atom_site_label
_atom_site_fract_x
_atom_site_fract_y
_atom_site_fract_z
Si Si1 0.583789 0.691470 0.832247
Si Si2 0.117825 0.810070 0.367135
Si Si3 0.514551 0.688519 0.767685
Si Si4 0.284276 0.188298 0.030892
Si Si5 0.180399 0.311595 0.437837
O O1 0.583311 0.500000 0.833333
O O2 0.549872 0.741615 0.798986
O O3 0.701569 0.741788 0.697318
O O4 0.500000 0.743810 0.000000
O O5 0.200399 0.760930 0.199514
O O6 0.149997 0.743052 0.400025
O O7 0.000000 0.761927 0.500000
O O8 0.119244 0.000000 0.369485
O O9 0.511533 0.500000 0.771058
O O10 0.597888 0.745495 0.601483
O O11 0.399471 0.751343 0.899880
O O12 0.284925 0.000000 0.028365
O O13 0.250000 0.250000 0.000000
O O14 0.177985 0.500000 0.443881
#
# Coordination Sequence:
#
# PCOD9214391 Si02
#       5
#     8   8   8   8   8
#     4   9  19  36  58  85 116 152 194 240 290 345
#     4  10  22  40  60  84 116 152 189 234 292 351
#     4  11  22  38  60  84 118 159 195 238 292 344
#     4  11  23  39  61  89 120 153 193 239 287 346
#     4  11  22  37  60  88 117 151 197 245 288 345
#
# _framework density 19.322216000000001
#
# number of rings (size 3 to 8) (size 9 to 14) (size 15 to 20)
#    0.000    1.600    0.000    4.800    0.000    5.200 
#    0.000    3.000    0.000    7.200    0.000    0.000 
#    0.000    0.000    0.000    0.000    0.000    0.000 
#
# Total GULP energy -111842.313832 kJ/mol
# GULP energy per Si atom -5592.115692 kJ/mol
# Density = 1.927824 g / cm^3
# Si number density = 19.322216 Si / 1000 Ang^3
#
#
#
# Elastic Constant Matrix: (Units=GPa)
#
#
# Indices 1 2 3 4 5 6 
#
# 1 239.5759 45.2275 147.3227 -0.0001 -0.0760 -0.0001
# 2 45.2275 33.9463 45.2465 -0.0018 1.3908 0.0011
# 3 147.3227 45.2465 242.7725 -0.0036 -0.0355 0.0002
# 4 -0.0001 -0.0018 -0.0036 6.9372 0.0004 5.1389
# 5 -0.0760 1.3908 -0.0355 0.0004 46.9712 0.0000
# 6 -0.0001 0.0011 0.0002 5.1389 0.0000 21.6582
#
#
#
# Elastic Compliance Matrix: (Units=1/GPa)
#
#
# Indices 1 2 3 4 5 6 
#
# 1 0.007258 -0.005064 -0.003461 -0.000004 0.000159 0.000001
# 2 -0.005064 0.042792 -0.004902 0.000012 -0.001279 -0.000005
# 3 -0.003461 -0.004902 0.007133 0.000003 0.000145 0.000000
# 4 -0.000004 0.000012 0.000003 0.174889 -0.000002 -0.041496
# 5 0.000159 -0.001279 0.000145 -0.000002 0.021328 0.000000
# 6 0.000001 -0.000005 0.000000 -0.041496 0.000000 0.056018
#
#
# Mechanical properties :
#
#
# Convention : Reuss Voigt Hill
#
# Bulk Modulus (GPa) = 32.97208 110.20981 71.59094
# Shear Modulus (GPa) = 14.43492 33.67986 24.05739
#
# Velocity S-wave (km/s) = 2.73621 4.17953 3.53237
# Velocity P-wave (km/s) = 5.20422 8.96956 7.33270
#
# Compressibility (1/GPa) = 0.03032869
#
# Stress axis : x y z
#
# Youngs Moduli (GPa) = 137.77570 23.36879 140.19641
#
# Poissons Ratio (x) = 0.11834 0.48517
# Poissons Ratio (y) = 0.69771 0.68731
# Poissons Ratio (z) = 0.47680 0.11456
#
# Static dielectric constant tensor:
#      x y z
#    x 1.634920 0.000000 -0.001830 
#    y 0.000000 1.661400 0.000000 
#    z -0.001830 0.000000 1.644140 
# 
# From -- ./inp_files/151691.got.cif
#   From: 2010.05.17/outbox.cif.g08.bks.cpg/sg12_76_cif.got.tgz:151691.got - 2010.06.03 13:09:07.
