data_PCOD9214936
_publ_section_title
;
Structure prediction by ZEFSAII (Michael W. Deem and Ramdas Pophale) SiO2 
 PCOD9214936
Probable space group: C 2/M
;
_chemical_formula_sum "Si O2"
_cell_formula_units_Z 26
_cell_length_a 13.744639
_cell_length_b 14.818399
_cell_length_c 9.038740
_cell_angle_alpha 90.000000
_cell_angle_beta 136.114614
_cell_angle_gamma 90.000000
_cell_volume 1276.181251
_symmetry_space_group_name_H-M "C 2/M"
_symmetry_group_IT_number 12
_symmetry_cell_setting 'monoclinic'
loop_
_space_group_symop_operation_xyz
x,y,z
-x,y,-z
-x,-y,-z
x,-y,z
1/2+x,1/2+y,z
1/2-x,1/2+y,-z
1/2-x,1/2-y,-z
1/2+x,1/2-y,z
loop_
_atom_site_type_symbol
_atom_site_label
_atom_site_fract_x
_atom_site_fract_y
_atom_site_fract_z
Si Si1 0.000000 0.000000 0.500000
Si Si2 0.371536 0.640690 0.150778
Si Si3 0.338468 0.500000 0.866042
Si Si4 0.432336 0.168561 0.086527
Si Si5 0.563355 0.000000 0.403600
O O1 0.018720 0.078003 0.647827
O O2 0.432770 0.737481 0.176068
O O3 0.317092 0.588505 0.944519
O O4 0.233654 0.646107 0.103245
O O5 0.230134 0.500000 0.612749
O O6 0.500000 0.500000 0.000000
O O7 0.509667 0.087845 0.257381
O O8 0.500000 0.179037 0.000000
O O9 0.500000 0.000000 0.500000
#
# Coordination Sequence:
#
# PCOD9214936 Si02
#       5
#     2   8   4   8   4
#     4  10  22  40  66  90 124 178 200 272 332 388
#     4  10  23  42  64  93 137 167 219 275 331 382
#     4  11  23  42  65  97 131 174 218 278 328 388
#     4  11  24  42  67  96 131 176 222 271 326 396
#     4  12  23  43  71  96 130 180 224 268 327 392
#
# _framework density 20.373283000000001
#
# number of rings (size 3 to 8) (size 9 to 14) (size 15 to 20)
#    0.000    1.231    3.077    2.308    2.154    4.923 
#    0.000    4.615    0.000    0.000    0.000    0.000 
#    0.000    0.000    0.000    0.000    0.000    0.000 
#
# Total GULP energy -72381.435676 kJ/mol
# GULP energy per Si atom -5567.802744 kJ/mol
# Density = 2.032691 g / cm^3
# Si number density = 20.373283 Si / 1000 Ang^3
#
#
#
# Elastic Constant Matrix: (Units=GPa)
#
#
# Indices 1 2 3 4 5 6 
#
# 1 148.0388 25.2725 27.8503 0.0000 11.6898 0.0000
# 2 25.2725 156.4928 64.1225 0.0000 8.6898 0.0000
# 3 27.8503 64.1225 97.0761 0.0000 -0.4686 0.0000
# 4 0.0000 0.0000 0.0000 -8.7610 0.0000 -1.2644
# 5 11.6898 8.6898 -0.4686 0.0000 18.1326 0.0000
# 6 0.0000 0.0000 0.0000 -1.2644 0.0000 -11.7639
#
#
#
# Elastic Compliance Matrix: (Units=1/GPa)
#
#
# Indices 1 2 3 4 5 6 
#
# 1 0.007557 -0.000069 -0.002146 0.000000 -0.004894 0.000000
# 2 -0.000069 0.009119 -0.006025 0.000000 -0.004481 0.000000
# 3 -0.002146 -0.006025 0.014919 0.000000 0.004656 0.000000
# 4 0.000000 0.000000 0.000000 -0.115941 0.000000 0.012461
# 5 -0.004894 -0.004481 0.004656 0.000000 0.060572 0.000000
# 6 0.000000 0.000000 0.000000 0.012461 0.000000 -0.086345
#
#
# Mechanical properties :
#
#
# Convention : Reuss Voigt Hill
#
# Bulk Modulus (GPa) = 66.16231 70.67758 68.41995
# Shear Modulus (GPa) = -56.43323 18.47904 -18.97709
#
# Velocity S-wave (km/s) = -5.26875 3.01495 -3.05531
# Velocity P-wave (km/s) = 2.11364 6.84737 4.60538
#
# Compressibility (1/GPa) = 0.01511434
#
# Stress axis : x y z
#
# Youngs Moduli (GPa) = 132.32795 109.66288 67.02825
#
# Poissons Ratio (x) = 0.00761 0.14383
# Poissons Ratio (y) = 0.00918 0.40385
# Poissons Ratio (z) = 0.28395 0.66073
#
# Static dielectric constant tensor:
#      x y z
#    x 1.756180 0.000000 0.042450 
#    y 0.000000 1.701920 0.000000 
#    z 0.042450 0.000000 1.726500 
# 
# From -- ./inp_files/44784.got.cif
#   From: 2010.05.17/outbox.cif.g08.bks.cpg/sg12_23_cif.got.tgz:44784.got - 2010.06.03 13:09:07.
