data_PCOD9214890
_publ_section_title
;
Structure prediction by ZEFSAII (Michael W. Deem and Ramdas Pophale) SiO2 
 PCOD9214890
Probable space group: C 2/M
;
_chemical_formula_sum "Si O2"
_cell_formula_units_Z 40
_cell_length_a 27.432809
_cell_length_b 7.588240
_cell_length_c 9.959165
_cell_angle_alpha 90.000000
_cell_angle_beta 106.254868
_cell_angle_gamma 90.000000
_cell_volume 1990.294281
_symmetry_space_group_name_H-M "C 2/M"
_symmetry_group_IT_number 12
_symmetry_cell_setting 'monoclinic'
loop_
_space_group_symop_operation_xyz
x,y,z
-x,y,-z
-x,-y,-z
x,-y,z
1/2+x,1/2+y,z
1/2-x,1/2+y,-z
1/2-x,1/2-y,-z
1/2+x,1/2-y,z
loop_
_atom_site_type_symbol
_atom_site_label
_atom_site_fract_x
_atom_site_fract_y
_atom_site_fract_z
Si Si1 0.947740 0.710570 0.379107
Si Si2 0.157228 0.707808 0.577174
Si Si3 0.248539 0.208063 0.841472
Si Si4 0.160565 0.714860 0.280184
Si Si5 0.922774 0.000000 0.843761
Si Si6 0.035188 0.000000 0.824618
O O1 0.943280 0.500000 0.348736
O O2 0.898733 0.772839 0.426295
O O3 0.949740 0.827369 0.247720
O O4 0.000000 0.738422 0.500000
O O5 0.151246 0.500000 0.558268
O O6 0.197207 0.738021 0.726191
O O7 0.175783 0.766802 0.444688
O O8 0.296711 0.274142 0.793180
O O9 0.250959 0.000000 0.831974
O O10 0.250000 0.250000 0.000000
O O11 0.154073 0.500000 0.266411
O O12 0.109953 0.825346 0.212237
O O13 0.974758 0.000000 0.800659
O O14 0.937967 0.000000 0.011315
#
# Coordination Sequence:
#
# PCOD9214890 Si02
#       6
#     8   8   8   8   4   4
#     4  10  22  40  66  95 130 169 216 268 320 380
#     4  10  22  40  65  94 126 168 213 265 320 379
#     4  11  25  40  63  94 128 169 212 263 325 383
#     4  10  24  44  65  92 128 170 217 262 320 387
#     4  11  26  42  68  92 130 179 209 271 325 374
#     4  11  25  42  62 100 131 166 225 264 324 382
#
# _framework density 20.097529999999999
#
# number of rings (size 3 to 8) (size 9 to 14) (size 15 to 20)
#    0.000    1.600    0.000    2.700    8.400    3.200 
#    0.000    2.000    0.000    0.000    0.000    0.000 
#    0.000    0.000    0.000    0.000    0.000    0.000 
#
# Total GULP energy -111700.460636 kJ/mol
# GULP energy per Si atom -5585.023032 kJ/mol
# Density = 2.005179 g / cm^3
# Si number density = 20.097530 Si / 1000 Ang^3
#
#
#
# Elastic Constant Matrix: (Units=GPa)
#
#
# Indices 1 2 3 4 5 6 
#
# 1 119.9015 17.0472 85.8430 0.0000 -10.4592 0.0000
# 2 17.0472 52.8951 12.6679 0.0000 -8.3863 0.0000
# 3 85.8430 12.6679 128.8299 0.0000 -24.5371 0.0000
# 4 0.0000 0.0000 0.0000 38.9532 0.0000 -12.4838
# 5 -10.4592 -8.3863 -24.5371 0.0000 34.3103 0.0000
# 6 0.0000 0.0000 0.0000 -12.4838 0.0000 47.6652
#
#
#
# Elastic Compliance Matrix: (Units=1/GPa)
#
#
# Indices 1 2 3 4 5 6 
#
# 1 0.016770 -0.003256 -0.011614 0.000000 -0.003989 0.000000
# 2 -0.003256 0.020455 0.001067 0.000000 0.004770 0.000000
# 3 -0.011614 0.001067 0.017101 0.000000 0.008950 0.000000
# 4 0.000000 0.000000 0.000000 0.028024 0.000000 0.007340
# 5 -0.003989 0.004770 0.008950 0.000000 0.035496 0.000000
# 6 0.000000 0.000000 0.000000 0.007340 0.000000 0.022902
#
#
# Mechanical properties :
#
#
# Convention : Reuss Voigt Hill
#
# Bulk Modulus (GPa) = 37.42565 59.19360 48.30962
# Shear Modulus (GPa) = 28.20688 36.59030 32.39859
#
# Velocity S-wave (km/s) = 3.75040 4.27152 4.01941
# Velocity P-wave (km/s) = 6.11689 7.33791 6.75505
#
# Compressibility (1/GPa) = 0.02671965
#
# Stress axis : x y z
#
# Youngs Moduli (GPa) = 59.62976 48.88666 58.47704
#
# Poissons Ratio (x) = 0.15916 0.67916
# Poissons Ratio (y) = 0.19414 -0.06237
# Poissons Ratio (z) = 0.69255 -0.05214
#
# Static dielectric constant tensor:
#      x y z
#    x 1.725240 0.000000 -0.038880 
#    y 0.000000 1.725290 0.000000 
#    z -0.038880 0.000000 1.670130 
# 
# From -- ./inp_files/93052.got.cif
#   From: 2010.05.17/outbox.cif.g08.bks.cpg/sg12_47_cif.got.tgz:93052.got - 2010.06.03 13:09:07.
