data_PCOD9214495
_publ_section_title
;
Structure prediction by ZEFSAII (Michael W. Deem and Ramdas Pophale) SiO2 
 PCOD9214495
Probable space group: C 2/M
;
_chemical_formula_sum "Si O2"
_cell_formula_units_Z 40
_cell_length_a 8.719078
_cell_length_b 18.796203
_cell_length_c 11.946759
_cell_angle_alpha 90.000000
_cell_angle_beta 97.485605
_cell_angle_gamma 90.000000
_cell_volume 1941.215318
_symmetry_space_group_name_H-M "C 2/M"
_symmetry_group_IT_number 12
_symmetry_cell_setting 'monoclinic'
loop_
_space_group_symop_operation_xyz
x,y,z
-x,y,-z
-x,-y,-z
x,-y,z
1/2+x,1/2+y,z
1/2-x,1/2+y,-z
1/2-x,1/2-y,-z
1/2+x,1/2-y,z
loop_
_atom_site_type_symbol
_atom_site_label
_atom_site_fract_x
_atom_site_fract_y
_atom_site_fract_z
Si Si1 0.431403 0.810966 0.219724
Si Si2 0.592673 0.676275 0.123646
Si Si3 0.274902 0.825709 0.446710
Si Si4 0.515742 0.581762 0.313140
Si Si5 0.155368 0.417253 0.336491
O O1 0.528386 0.742316 0.191854
O O2 0.277908 0.817276 0.129388
O O3 0.363519 0.809506 0.339458
O O4 0.545916 0.878063 0.236673
O O5 0.556480 0.605686 0.191470
O O6 0.500000 0.676845 0.000000
O O7 0.250000 0.750000 0.500000
O O8 0.353050 0.876590 0.545988
O O9 0.116952 0.866019 0.399032
O O10 0.559583 0.500000 0.339938
O O11 0.333847 0.589395 0.316336
O O12 0.115429 0.500000 0.344371
#
# Coordination Sequence:
#
# PCOD9214495 Si02
#       5
#     8   8   8   8   8
#     4  11  24  38  60  90 120 152 199 253 292 352
#     4  11  23  42  66  87 114 154 201 254 307 353
#     4  11  22  37  61  91 124 161 198 239 291 356
#     4  10  22  40  61  88 122 159 202 246 292 352
#     4  11  23  39  60  89 127 164 195 236 293 355
#
# _framework density 20.605647999999999
#
# number of rings (size 3 to 8) (size 9 to 14) (size 15 to 20)
#    0.000    1.200    0.000    7.200    0.000   10.000 
#    0.000    0.000    0.000    3.000    0.000    0.000 
#    0.000    0.000    0.000    0.000    0.000    0.000 
#
# Total GULP energy -111852.596114 kJ/mol
# GULP energy per Si atom -5592.629806 kJ/mol
# Density = 2.055875 g / cm^3
# Si number density = 20.605648 Si / 1000 Ang^3
#
#
#
# Elastic Constant Matrix: (Units=GPa)
#
#
# Indices 1 2 3 4 5 6 
#
# 1 107.1398 70.4907 37.4670 0.0000 33.1117 0.0000
# 2 70.4907 149.9430 43.2464 0.0000 21.6196 0.0000
# 3 37.4670 43.2464 65.2032 0.0000 35.2722 0.0000
# 4 0.0000 0.0000 0.0000 19.4420 0.0000 -0.6884
# 5 33.1117 21.6196 35.2722 0.0000 36.2446 0.0000
# 6 0.0000 0.0000 0.0000 -0.6884 0.0000 31.9985
#
#
#
# Elastic Compliance Matrix: (Units=1/GPa)
#
#
# Indices 1 2 3 4 5 6 
#
# 1 0.017307 -0.006714 0.001890 0.000000 -0.013645 0.000000
# 2 -0.006714 0.010864 -0.006673 0.000000 0.006147 0.000000
# 3 0.001890 -0.006673 0.036865 0.000000 -0.033621 0.000000
# 4 0.000000 0.000000 0.000000 0.051474 0.000000 0.001107
# 5 -0.013645 0.006147 -0.033621 0.000000 0.069108 0.000000
# 6 0.000000 0.000000 0.000000 0.001107 0.000000 0.031275
#
#
# Mechanical properties :
#
#
# Convention : Reuss Voigt Hill
#
# Bulk Modulus (GPa) = 23.78648 69.41047 46.59848
# Shear Modulus (GPa) = 19.69263 28.94247 24.31755
#
# Velocity S-wave (km/s) = 3.09478 3.75185 3.43904
# Velocity P-wave (km/s) = 4.93345 7.24754 6.19943
#
# Compressibility (1/GPa) = 0.04204068
#
# Stress axis : x y z
#
# Youngs Moduli (GPa) = 57.77931 92.04890 27.12631
#
# Poissons Ratio (x) = 0.61801 -0.05126
# Poissons Ratio (y) = 0.38793 0.18101
# Poissons Ratio (z) = -0.10917 0.61424
#
# Static dielectric constant tensor:
#      x y z
#    x 1.792270 0.000000 0.021980 
#    y 0.000000 1.707820 0.000000 
#    z 0.021980 0.000000 1.745480 
# 
# From -- ./inp_files/118933.got.cif
#   From: 2010.05.17/outbox.cif.g08.bks.cpg/sg12_60_cif.got.tgz:118933.got - 2010.06.03 13:09:07.
