data_PCOD9214117
_publ_section_title
;
Structure prediction by ZEFSAII (Michael W. Deem and Ramdas Pophale) SiO2 
 PCOD9214117
Probable space group: C 2/M
;
_chemical_formula_sum "Si O2"
_cell_formula_units_Z 40
_cell_length_a 11.542286
_cell_length_b 17.422398
_cell_length_c 16.972198
_cell_angle_alpha 90.000000
_cell_angle_beta 36.524977
_cell_angle_gamma 90.000000
_cell_volume 2031.333294
_symmetry_space_group_name_H-M "C 2/M"
_symmetry_group_IT_number 12
_symmetry_cell_setting 'monoclinic'
loop_
_space_group_symop_operation_xyz
x,y,z
-x,y,-z
-x,-y,-z
x,-y,z
1/2+x,1/2+y,z
1/2-x,1/2+y,-z
1/2-x,1/2-y,-z
1/2+x,1/2-y,z
loop_
_atom_site_type_symbol
_atom_site_label
_atom_site_fract_x
_atom_site_fract_y
_atom_site_fract_z
Si Si1 0.720243 0.801309 0.368630
Si Si2 0.169184 0.085337 0.566691
Si Si3 0.085679 0.653705 0.696717
Si Si4 0.293067 0.742952 0.149504
Si Si5 0.736413 0.912081 0.772458
O O1 0.500000 0.827196 0.500000
O O2 0.847681 0.858298 0.350521
O O3 0.746570 0.718430 0.393557
O O4 0.776432 0.788721 0.247793
O O5 0.354971 0.104523 0.411334
O O6 0.968274 0.089356 0.627385
O O7 0.187909 0.000000 0.587528
O O8 0.110334 0.605728 0.763288
O O9 0.885313 0.701403 0.798331
O O10 0.288013 0.836506 0.158917
O O11 0.500000 0.721716 0.000000
O O12 0.695897 0.000000 0.822974
#
# Coordination Sequence:
#
# PCOD9214117 Si02
#       5
#     8   8   8   8   8
#     4  11  21  37  63  92 119 157 207 258 307 364
#     4  11  21  37  63  95 126 157 202 260 316 366
#     4  11  20  38  63  91 125 160 207 252 307 366
#     4  11  24  41  65  89 124 167 212 251 303 368
#     4  10  22  39  62  95 127 158 202 258 315 365
#
# _framework density 19.691500000000001
#
# number of rings (size 3 to 8) (size 9 to 14) (size 15 to 20)
#    0.000    1.200    4.000    4.200    0.000    5.600 
#    0.000    0.000    0.000    4.200    0.000    0.000 
#    0.000    0.000    0.000    0.000    0.000    0.000 
#
# Total GULP energy -111493.624911 kJ/mol
# GULP energy per Si atom -5574.681246 kJ/mol
# Density = 1.964668 g / cm^3
# Si number density = 19.691500 Si / 1000 Ang^3
#
#
#
# Elastic Constant Matrix: (Units=GPa)
#
#
# Indices 1 2 3 4 5 6 
#
# 1 77.4397 35.7249 27.8056 0.0008 -15.3185 0.0001
# 2 35.7249 89.1708 27.7617 0.0019 -4.5435 -0.0001
# 3 27.8056 27.7617 89.9439 0.0036 -8.4859 -0.0019
# 4 0.0008 0.0019 0.0036 3.5695 -0.0003 -7.9567
# 5 -15.3185 -4.5435 -8.4859 -0.0003 15.9382 0.0003
# 6 0.0001 -0.0001 -0.0019 -7.9567 0.0003 27.1326
#
#
#
# Elastic Compliance Matrix: (Units=1/GPa)
#
#
# Indices 1 2 3 4 5 6 
#
# 1 0.019965 -0.006343 -0.002711 0.000005 0.015938 0.000001
# 2 -0.006343 0.014459 -0.002831 -0.000012 -0.003481 -0.000004
# 3 -0.002711 -0.002831 0.013169 -0.000025 0.003599 -0.000007
# 4 0.000005 -0.000012 -0.000025 0.808960 -0.000001 0.237230
# 5 0.015938 -0.003481 0.003599 -0.000001 0.078984 -0.000001
# 6 0.000001 -0.000004 -0.000007 0.237230 -0.000001 0.106424
#
#
# Mechanical properties :
#
#
# Convention : Reuss Voigt Hill
#
# Bulk Modulus (GPa) = 41.97129 48.79319 45.38224
# Shear Modulus (GPa) = 4.65691 20.34554 12.50122
#
# Velocity S-wave (km/s) = 1.53950 3.21785 2.52236
# Velocity P-wave (km/s) = 4.95185 6.21600 5.61959
#
# Compressibility (1/GPa) = 0.02382581
#
# Stress axis : x y z
#
# Youngs Moduli (GPa) = 50.08684 69.15901 75.93401
#
# Poissons Ratio (x) = 0.43866 0.20584
# Poissons Ratio (y) = 0.31769 0.21494
# Poissons Ratio (z) = 0.13577 0.19576
#
# Static dielectric constant tensor:
#      x y z
#    x 1.744150 0.000000 -0.007890 
#    y 0.000000 1.698000 0.000000 
#    z -0.007890 0.000000 1.651040 
# 
# From -- ./inp_files/46928.got.cif
#   From: 2010.05.17/outbox.cif.g08.bks.cpg/sg12_24_cif.got.tgz:46928.got - 2010.06.03 13:09:07.
