data_PCOD9214053
_publ_section_title
;
Structure prediction by ZEFSAII (Michael W. Deem and Ramdas Pophale) SiO2 
 PCOD9214053
Probable space group: C 2/M
;
_chemical_formula_sum "Si O2"
_cell_formula_units_Z 28
_cell_length_a 14.853725
_cell_length_b 18.497938
_cell_length_c 4.989110
_cell_angle_alpha 90.000000
_cell_angle_beta 108.237563
_cell_angle_gamma 90.000000
_cell_volume 1301.963745
_symmetry_space_group_name_H-M "C 2/M"
_symmetry_group_IT_number 12
_symmetry_cell_setting 'monoclinic'
loop_
_space_group_symop_operation_xyz
x,y,z
-x,y,-z
-x,-y,-z
x,-y,z
1/2+x,1/2+y,z
1/2-x,1/2+y,-z
1/2-x,1/2-y,-z
1/2+x,1/2-y,z
loop_
_atom_site_type_symbol
_atom_site_label
_atom_site_fract_x
_atom_site_fract_y
_atom_site_fract_z
Si Si1 0.753974 0.916066 0.899438
Si Si2 0.372584 0.083626 0.720487
Si Si3 0.436519 0.324349 0.206198
Si Si4 0.500000 0.185448 0.500000
O O1 0.665450 0.904292 0.016937
O O2 0.839543 0.864279 0.055664
O O3 0.782808 0.000000 0.962021
O O4 0.716984 0.906962 0.563246
O O5 0.451194 0.136670 0.678303
O O6 0.404076 0.000000 0.724265
O O7 0.500000 0.360757 0.500000
O O8 0.424954 0.242435 0.303845
O O9 0.500000 0.321538 0.000000
#
# Coordination Sequence:
#
# PCOD9214053 Si02
#       4
#     8   8   8   4
#     4  10  22  40  61  86 113 150 196 236 282 335
#     4  10  22  39  62  85 113 152 192 238 282 335
#     4  10  23  39  56  90 115 153 189 230 293 335
#     4  10  25  38  59  86 122 148 192 230 291 342
#
# _framework density 21.505973999999998
#
# number of rings (size 3 to 8) (size 9 to 14) (size 15 to 20)
#    0.857    1.143    0.000    2.143    4.000    3.429 
#    0.000    4.286    0.000    0.000    0.000    0.000 
#    0.000    0.000    0.000    0.000    0.000    0.000 
#
# Total GULP energy -78259.070921 kJ/mol
# GULP energy per Si atom -5589.933637 kJ/mol
# Density = 2.145703 g / cm^3
# Si number density = 21.505974 Si / 1000 Ang^3
#
#
#
# Elastic Constant Matrix: (Units=GPa)
#
#
# Indices 1 2 3 4 5 6 
#
# 1 54.9766 39.6494 -1.5506 0.0000 4.7702 0.0000
# 2 39.6494 96.5160 7.4698 0.0000 22.6305 0.0000
# 3 -1.5506 7.4698 83.5386 0.0000 1.6257 0.0000
# 4 0.0000 0.0000 0.0000 24.0518 0.0000 13.3992
# 5 4.7702 22.6305 1.6257 0.0000 42.6174 0.0000
# 6 0.0000 0.0000 0.0000 13.3992 0.0000 13.1138
#
#
#
# Elastic Compliance Matrix: (Units=1/GPa)
#
#
# Indices 1 2 3 4 5 6 
#
# 1 0.026399 -0.011711 0.001475 0.000000 0.003208 0.000000
# 2 -0.011711 0.017103 -0.001597 0.000000 -0.007710 0.000000
# 3 0.001475 -0.001597 0.012136 0.000000 0.000220 0.000000
# 4 0.000000 0.000000 0.000000 0.096516 0.000000 -0.098616
# 5 0.003208 -0.007710 0.000220 0.000000 0.027192 0.000000
# 6 0.000000 0.000000 0.000000 -0.098616 0.000000 0.177018
#
#
# Mechanical properties :
#
#
# Convention : Reuss Voigt Hill
#
# Bulk Modulus (GPa) = 31.27664 36.24093 33.75879
# Shear Modulus (GPa) = 12.79796 28.58743 20.69269
#
# Velocity S-wave (km/s) = 2.44209 3.64988 3.10527
# Velocity P-wave (km/s) = 4.74621 5.88645 5.34682
#
# Compressibility (1/GPa) = 0.03197274
#
# Stress axis : x y z
#
# Youngs Moduli (GPa) = 37.88024 58.46766 82.39689
#
# Poissons Ratio (x) = 0.68472 -0.12152
# Poissons Ratio (y) = 0.44362 0.13156
# Poissons Ratio (z) = -0.05586 0.09335
#
# Static dielectric constant tensor:
#      x y z
#    x 1.727380 0.000000 0.031760 
#    y 0.000000 1.764970 0.000000 
#    z 0.031760 0.000000 1.820660 
# 
# From -- ./inp_files/6141.got.cif
#   From: 2010.05.17/outbox.cif.g08.bks.cpg/sg12_4_cif.got.tgz:6141.got - 2010.06.03 13:09:07.
