data_PCOD9214320
_publ_section_title
;
Structure prediction by ZEFSAII (Michael W. Deem and Ramdas Pophale) SiO2 
 PCOD9214320
Probable space group: C 2/M
;
_chemical_formula_sum "Si O2"
_cell_formula_units_Z 56
_cell_length_a 8.329613
_cell_length_b 31.233544
_cell_length_c 11.941298
_cell_angle_alpha 90.000000
_cell_angle_beta 55.940770
_cell_angle_gamma 90.000000
_cell_volume 2573.763736
_symmetry_space_group_name_H-M "C 2/M"
_symmetry_group_IT_number 12
_symmetry_cell_setting 'monoclinic'
loop_
_space_group_symop_operation_xyz
x,y,z
-x,y,-z
-x,-y,-z
x,-y,z
1/2+x,1/2+y,z
1/2-x,1/2+y,-z
1/2-x,1/2-y,-z
1/2+x,1/2-y,z
loop_
_atom_site_type_symbol
_atom_site_label
_atom_site_fract_x
_atom_site_fract_y
_atom_site_fract_z
Si Si1 0.254098 0.500000 0.286602
Si Si2 0.135358 0.705161 0.057172
Si Si3 0.797302 0.594898 0.431175
Si Si4 0.483344 0.332716 0.825958
Si Si5 0.750777 0.323226 0.304428
Si Si6 0.714510 0.000000 0.563126
Si Si7 0.300753 0.768486 0.601732
Si Si8 0.251419 0.091296 0.718562
O O1 0.289195 0.500000 0.406358
O O2 0.325492 0.545004 0.214875
O O3 0.020205 0.500000 0.359136
O O4 0.979024 0.690899 0.210571
O O5 0.250000 0.750000 0.000000
O O6 0.321438 0.675433 0.981862
O O7 0.000000 0.702837 0.000000
O O8 0.722417 0.639250 0.406380
O O9 0.733882 0.547482 0.409256
O O10 0.758062 0.593784 0.579495
O O11 0.029187 0.596377 0.326616
O O12 0.349350 0.341115 0.768543
O O13 0.634407 0.294692 0.731256
O O14 0.613748 0.371640 0.808335
O O15 0.657106 0.275965 0.350764
O O16 0.500000 0.794323 0.500000
O O17 0.250000 0.750000 0.500000
#
# Coordination Sequence:
#
# PCOD9214320 Si02
#       8
#     4   8   8   8   8   4   8   8
#     4   7  12  28  49  76 109 136 170 210 256 313
#     4  10  22  40  57  72  98 142 188 225 259 300
#     4   9  18  31  55  81 111 139 173 212 265 319
#     4  11  23  37  54  77 106 139 180 221 261 313
#     4  11  23  38  53  76 107 142 178 221 261 310
#     4   7  12  28  49  78 107 140 169 207 257 317
#     4  12  24  35  52  77 108 137 167 213 270 315
#     4   9  18  31  54  82 108 140 173 213 263 318
#
# _framework density 21.758018
#
# number of rings (size 3 to 8) (size 9 to 14) (size 15 to 20)
#    0.000    2.143    2.857    2.571    4.000    1.143 
#    0.000    0.714    0.000    3.429    0.000    6.000 
#    0.000    0.000    0.000    0.000    0.000    0.000 
#
# Total GULP energy -156001.248799 kJ/mol
# GULP energy per Si atom -5571.473171 kJ/mol
# Density = 2.170850 g / cm^3
# Si number density = 21.758018 Si / 1000 Ang^3
#
#
#
# Elastic Constant Matrix: (Units=GPa)
#
#
# Indices 1 2 3 4 5 6 
#
# 1 55.4370 38.0453 25.4198 0.0000 -23.8118 0.0000
# 2 38.0453 147.5702 25.5300 0.0000 -21.8765 0.0000
# 3 25.4198 25.5300 69.9950 0.0000 -41.0391 0.0000
# 4 0.0000 0.0000 0.0000 7.7124 0.0000 -9.8512
# 5 -23.8118 -21.8765 -41.0391 0.0000 35.6459 0.0000
# 6 0.0000 0.0000 0.0000 -9.8512 0.0000 -8.4615
#
#
#
# Elastic Compliance Matrix: (Units=1/GPa)
#
#
# Indices 1 2 3 4 5 6 
#
# 1 0.028367 -0.004962 0.002563 0.000000 0.018855 0.000000
# 2 -0.004962 0.008323 -0.000561 0.000000 0.001148 0.000000
# 3 0.002563 -0.000561 0.044195 0.000000 0.052250 0.000000
# 4 0.000000 0.000000 0.000000 0.052134 0.000000 -0.060696
# 5 0.018855 0.001148 0.052250 0.000000 0.101508 0.000000
# 6 0.000000 0.000000 0.000000 -0.060696 0.000000 -0.047518
#
#
# Mechanical properties :
#
#
# Convention : Reuss Voigt Hill
#
# Bulk Modulus (GPa) = 13.33946 50.11027 31.72487
# Shear Modulus (GPa) = 22.94451 19.24651 21.09551
#
# Velocity S-wave (km/s) = 3.25088 2.97740 3.11714
# Velocity P-wave (km/s) = 4.49834 5.90767 5.25051
#
# Compressibility (1/GPa) = 0.07496556
#
# Stress axis : x y z
#
# Youngs Moduli (GPa) = 35.25194 120.15239 22.62684
#
# Poissons Ratio (x) = 0.59615 -0.05798
# Poissons Ratio (y) = 0.17491 0.01269
# Poissons Ratio (z) = -0.09034 0.06739
#
# Static dielectric constant tensor:
#      x y z
#    x 1.861700 0.000000 0.033400 
#    y 0.000000 1.876310 0.000000 
#    z 0.033400 0.000000 1.889830 
# 
# From -- ./inp_files/200865.got.cif
#   From: 2010.05.17/outbox.cif.g08.bks.cpg/sg12_101_cif.got.tgz:200865.got - 2010.06.03 13:09:07.
