data_PCOD9214826
_publ_section_title
;
Structure prediction by ZEFSAII (Michael W. Deem and Ramdas Pophale) SiO2 
 PCOD9214826
Probable space group: C 2/M
;
_chemical_formula_sum "Si O2"
_cell_formula_units_Z 64
_cell_length_a 17.942647
_cell_length_b 16.140558
_cell_length_c 14.958542
_cell_angle_alpha 90.000000
_cell_angle_beta 49.593569
_cell_angle_gamma 90.000000
_cell_volume 3298.713414
_symmetry_space_group_name_H-M "C 2/M"
_symmetry_group_IT_number 12
_symmetry_cell_setting 'monoclinic'
loop_
_space_group_symop_operation_xyz
x,y,z
-x,y,-z
-x,-y,-z
x,-y,z
1/2+x,1/2+y,z
1/2-x,1/2+y,-z
1/2-x,1/2-y,-z
1/2+x,1/2-y,z
loop_
_atom_site_type_symbol
_atom_site_label
_atom_site_fract_x
_atom_site_fract_y
_atom_site_fract_z
Si Si1 0.761446 0.302617 0.813080
Si Si2 0.990363 0.900182 0.265581
Si Si3 0.141382 0.646923 0.941480
Si Si4 0.707997 0.404646 0.027188
Si Si5 0.551100 0.906801 0.832681
Si Si6 0.709819 0.402656 0.676879
Si Si7 0.606311 0.098047 0.590679
Si Si8 0.481217 0.745654 0.619391
O O1 0.675725 0.235954 0.883615
O O2 0.752633 0.351979 0.912263
O O3 0.744982 0.356596 0.737860
O O4 0.866225 0.258907 0.725644
O O5 0.984865 0.835202 0.351556
O O6 0.898620 0.881228 0.272689
O O7 0.985972 0.000000 0.291974
O O8 0.094834 0.885387 0.136652
O O9 0.116798 0.598110 0.869954
O O10 0.227083 0.609507 0.935115
O O11 0.042608 0.650233 0.076762
O O12 0.713269 0.500000 0.996659
O O13 0.606281 0.890055 0.697711
O O14 0.510026 0.000000 0.858081
O O15 0.709775 0.500000 0.696649
O O16 0.788641 0.388593 0.536731
O O17 0.534353 0.168446 0.607865
O O18 0.578699 0.000000 0.595324
O O19 0.500000 0.733612 0.500000
#
# Coordination Sequence:
#
# PCOD9214826 Si02
#       8
#     8   8   8   8   8   8   8   8
#     4  12  25  40  63 101 126 169 215 267 330 394
#     4  10  25  45  67  93 131 179 227 269 315 387
#     4  11  22  37  62  93 131 164 208 266 321 386
#     4  11  23  42  65  90 130 175 212 268 327 387
#     4  10  22  40  64  96 128 167 212 262 331 392
#     4  10  23  46  68  94 130 171 222 273 321 389
#     4  10  23  42  69  99 131 169 213 272 335 391
#     4  12  25  43  67  98 133 171 218 269 333 395
#
# _framework density 19.401503999999999
#
# number of rings (size 3 to 8) (size 9 to 14) (size 15 to 20)
#    0.000    1.250    2.500    3.000    3.500    5.500 
#    0.000    1.875    0.000    0.000    0.000    0.000 
#    0.000    0.000    0.000    0.000    0.000    0.000 
#
# Total GULP energy -178712.190476 kJ/mol
# GULP energy per Si atom -5584.755952 kJ/mol
# Density = 1.935734 g / cm^3
# Si number density = 19.401504 Si / 1000 Ang^3
#
#
#
# Elastic Constant Matrix: (Units=GPa)
#
#
# Indices 1 2 3 4 5 6 
#
# 1 95.2425 24.5702 27.1113 0.0000 -9.2919 0.0000
# 2 24.5702 46.5130 30.0371 0.0000 1.4917 0.0000
# 3 27.1113 30.0371 74.2046 0.0000 -5.0185 0.0000
# 4 0.0000 0.0000 0.0000 34.5611 0.0000 2.0211
# 5 -9.2919 1.4917 -5.0185 0.0000 20.9635 0.0000
# 6 0.0000 0.0000 0.0000 2.0211 0.0000 36.6881
#
#
#
# Elastic Compliance Matrix: (Units=1/GPa)
#
#
# Indices 1 2 3 4 5 6 
#
# 1 0.013143 -0.005790 -0.002070 0.000000 0.005742 0.000000
# 2 -0.005790 0.032178 -0.011423 0.000000 -0.007591 0.000000
# 3 -0.002070 -0.011423 0.019160 0.000000 0.004482 0.000000
# 4 0.000000 0.000000 0.000000 0.029028 0.000000 -0.001599
# 5 0.005742 -0.007591 0.004482 0.000000 0.051860 0.000000
# 6 0.000000 0.000000 0.000000 -0.001599 0.000000 0.027345
#
#
# Mechanical properties :
#
#
# Convention : Reuss Voigt Hill
#
# Bulk Modulus (GPa) = 38.58866 42.15525 40.37196
# Shear Modulus (GPa) = 22.73583 27.39198 25.06391
#
# Velocity S-wave (km/s) = 3.42696 3.76153 3.59814
# Velocity P-wave (km/s) = 5.96585 6.37499 6.17381
#
# Compressibility (1/GPa) = 0.02591435
#
# Stress axis : x y z
#
# Youngs Moduli (GPa) = 76.08883 31.07689 52.19334
#
# Poissons Ratio (x) = 0.17994 0.10802
# Poissons Ratio (y) = 0.44056 0.59622
# Poissons Ratio (z) = 0.15748 0.35500
#
# Static dielectric constant tensor:
#      x y z
#    x 1.668420 0.000000 0.002560 
#    y 0.000000 1.718600 0.000000 
#    z 0.002560 0.000000 1.656020 
# 
# From -- ./inp_files/225663.got.cif
#   From: 2010.05.17/outbox.cif.g08.bks.cpg/sg12_113_cif.got.tgz:225663.got - 2010.06.03 13:09:07.
