data_PCOD9214973
_publ_section_title
;
Structure prediction by ZEFSAII (Michael W. Deem and Ramdas Pophale) SiO2 
 PCOD9214973
Probable space group: C 2/M
;
_chemical_formula_sum "Si O2"
_cell_formula_units_Z 48
_cell_length_a 8.746407
_cell_length_b 22.077970
_cell_length_c 10.255013
_cell_angle_alpha 90.000000
_cell_angle_beta 77.159860
_cell_angle_gamma 90.000000
_cell_volume 1930.753972
_symmetry_space_group_name_H-M "C 2/M"
_symmetry_group_IT_number 12
_symmetry_cell_setting 'monoclinic'
loop_
_space_group_symop_operation_xyz
x,y,z
-x,y,-z
-x,-y,-z
x,-y,z
1/2+x,1/2+y,z
1/2-x,1/2+y,-z
1/2-x,1/2-y,-z
1/2+x,1/2-y,z
loop_
_atom_site_type_symbol
_atom_site_label
_atom_site_fract_x
_atom_site_fract_y
_atom_site_fract_z
Si Si1 0.416574 0.741834 0.702858
Si Si2 0.847706 0.067807 0.440134
Si Si3 0.676415 0.838597 0.621251
Si Si4 0.623119 0.696344 0.879120
Si Si5 0.204016 0.065652 0.845136
Si Si6 0.444977 0.068862 0.158500
O O1 0.521466 0.798599 0.642456
O O2 0.322434 0.706887 0.610017
O O3 0.532566 0.697537 0.758379
O O4 0.280704 0.766868 0.824402
O O5 0.715428 0.116384 0.497887
O O6 0.876624 0.066611 0.280676
O O7 0.000000 0.080474 0.500000
O O8 0.793645 0.000000 0.486789
O O9 0.662309 0.880846 0.753768
O O10 0.659991 0.628590 0.920661
O O11 0.500000 0.726285 0.000000
O O12 0.391954 0.067945 0.792193
O O13 0.171934 0.000000 0.915259
O O14 0.379700 0.000000 0.171169
O O15 0.500000 0.082564 0.000000
#
# Coordination Sequence:
#
# PCOD9214973 Si02
#       6
#     8   8   8   8   8   8
#     4  10  24  40  61  96 129 171 228 265 318 389
#     4  10  22  43  71  99 130 169 218 273 330 395
#     4  11  22  43  68  94 130 178 217 271 330 387
#     4  11  22  40  63  91 129 175 216 268 325 387
#     4  10  22  42  65  98 132 164 215 270 328 395
#     4  10  22  40  66  98 130 166 219 275 326 390
#
# _framework density 24.860754
#
# number of rings (size 3 to 8) (size 9 to 14) (size 15 to 20)
#    0.000    1.667    1.667    2.000    2.333    3.667 
#    0.000   12.500    0.000    0.000    0.000    0.000 
#    0.000    0.000    0.000    0.000    0.000    0.000 
#
# Total GULP energy -134302.489612 kJ/mol
# GULP energy per Si atom -5595.937067 kJ/mol
# Density = 2.480417 g / cm^3
# Si number density = 24.860754 Si / 1000 Ang^3
#
#
#
# Elastic Constant Matrix: (Units=GPa)
#
#
# Indices 1 2 3 4 5 6 
#
# 1 100.3847 36.0028 4.1457 0.0000 0.0219 0.0000
# 2 36.0028 145.3379 15.9205 0.0000 -24.8593 0.0000
# 3 4.1457 15.9205 39.8575 0.0000 0.9381 0.0000
# 4 0.0000 0.0000 0.0000 -29.6726 0.0000 11.0561
# 5 0.0219 -24.8593 0.9381 0.0000 39.8450 0.0000
# 6 0.0000 0.0000 0.0000 11.0561 0.0000 15.1915
#
#
#
# Elastic Compliance Matrix: (Units=1/GPa)
#
#
# Indices 1 2 3 4 5 6 
#
# 1 0.011063 -0.003085 0.000127 0.000000 -0.001934 0.000000
# 2 -0.003085 0.008991 -0.003404 0.000000 0.005691 0.000000
# 3 0.000127 -0.003404 0.026501 0.000000 -0.002748 0.000000
# 4 0.000000 0.000000 0.000000 -0.026512 0.000000 0.019295
# 5 -0.001934 0.005691 -0.002748 0.000000 0.028714 0.000000
# 6 0.000000 0.000000 0.000000 0.019295 0.000000 0.051784
#
#
# Mechanical properties :
#
#
# Convention : Reuss Voigt Hill
#
# Bulk Modulus (GPa) = 29.55949 44.19091 36.87520
# Shear Modulus (GPa) = 40.14671 20.37352 30.26011
#
# Velocity S-wave (km/s) = 4.02290 2.86581 3.49260
# Velocity P-wave (km/s) = 5.78741 5.36325 5.57936
#
# Compressibility (1/GPa) = 0.03383008
#
# Stress axis : x y z
#
# Youngs Moduli (GPa) = 90.38812 111.21935 37.73487
#
# Poissons Ratio (x) = 0.34315 -0.00480
# Poissons Ratio (y) = 0.27888 0.12847
# Poissons Ratio (z) = -0.01150 0.37864
#
# Static dielectric constant tensor:
#      x y z
#    x 1.951180 0.000000 0.027350 
#    y 0.000000 1.949100 0.000000 
#    z 0.027350 0.000000 1.993600 
# 
# From -- ./inp_files/122413.got.cif
#   From: 2010.05.17/outbox.cif.g08.bks.cpg/sg12_62_cif.got.tgz:122413.got - 2010.06.03 13:09:07.
