data_PCOD9214992
_publ_section_title
;
Structure prediction by ZEFSAII (Michael W. Deem and Ramdas Pophale) SiO2 
 PCOD9214992
Probable space group: C 2/M
;
_chemical_formula_sum "Si O2"
_cell_formula_units_Z 52
_cell_length_a 24.917031
_cell_length_b 12.651155
_cell_length_c 11.837019
_cell_angle_alpha 90.000000
_cell_angle_beta 136.025363
_cell_angle_gamma 90.000000
_cell_volume 2590.841948
_symmetry_space_group_name_H-M "C 2/M"
_symmetry_group_IT_number 12
_symmetry_cell_setting 'monoclinic'
loop_
_space_group_symop_operation_xyz
x,y,z
-x,y,-z
-x,-y,-z
x,-y,z
1/2+x,1/2+y,z
1/2-x,1/2+y,-z
1/2-x,1/2-y,-z
1/2+x,1/2-y,z
loop_
_atom_site_type_symbol
_atom_site_label
_atom_site_fract_x
_atom_site_fract_y
_atom_site_fract_z
Si Si1 0.219425 0.231638 0.078554
Si Si2 0.891094 0.377442 0.950946
Si Si3 0.857765 0.620196 0.412931
Si Si4 0.666280 0.803594 0.376454
Si Si5 0.500000 0.221451 0.500000
Si Si6 0.075098 0.884994 0.783093
Si Si7 0.514096 0.314353 0.144301
O O1 0.172892 0.330973 0.059762
O O2 0.290739 0.195471 0.262622
O O3 0.250000 0.250000 0.000000
O O4 0.155322 0.140721 0.966829
O O5 0.910972 0.500000 0.002206
O O6 0.854621 0.364265 0.770762
O O7 0.964015 0.296462 0.069490
O O8 0.844148 0.500000 0.355482
O O9 0.849588 0.628736 0.535495
O O10 0.941063 0.656260 0.490157
O O11 0.750000 0.750000 0.500000
O O12 0.603476 0.710815 0.288624
O O13 0.552734 0.295332 0.659713
O O14 0.013445 0.878810 0.790310
O O15 0.076806 0.000000 0.731545
O O16 0.500000 0.363095 0.000000
#
# Coordination Sequence:
#
# PCOD9214992 Si02
#       7
#     8   8   8   8   4   8   8
#     4  11  23  44  61  92 133 162 212 259 310 385
#     4  10  22  40  67  94 124 168 213 264 325 376
#     4  12  25  43  68  94 128 172 212 264 327 376
#     4  11  21  41  64  92 135 164 208 270 319 375
#     4  12  24  46  64  96 130 162 218 272 308 376
#     4  11  23  42  66  89 122 169 209 254 316 376
#     4   9  21  40  62  90 128 160 207 265 306 376
#
# _framework density 20.070696999999999
#
# number of rings (size 3 to 8) (size 9 to 14) (size 15 to 20)
#    0.000    1.231    4.615    1.385    0.000    4.923 
#    0.000    3.077    0.000    0.000    0.000    0.000 
#    0.000    0.000    0.000    0.000    0.000    0.000 
#
# Total GULP energy -145196.359333 kJ/mol
# GULP energy per Si atom -5584.475359 kJ/mol
# Density = 2.002501 g / cm^3
# Si number density = 20.070697 Si / 1000 Ang^3
#
#
#
# Elastic Constant Matrix: (Units=GPa)
#
#
# Indices 1 2 3 4 5 6 
#
# 1 129.2008 20.9950 24.4129 0.0000 0.5839 0.0000
# 2 20.9950 73.7021 4.7885 0.0000 2.3630 0.0000
# 3 24.4129 4.7885 68.8373 0.0000 9.3960 0.0000
# 4 0.0000 0.0000 0.0000 12.1667 0.0000 5.2896
# 5 0.5839 2.3630 9.3960 0.0000 47.2856 0.0000
# 6 0.0000 0.0000 0.0000 5.2896 0.0000 3.4974
#
#
#
# Elastic Compliance Matrix: (Units=1/GPa)
#
#
# Indices 1 2 3 4 5 6 
#
# 1 0.008677 -0.002296 -0.003000 0.000000 0.000604 0.000000
# 2 -0.002296 0.014249 -0.000086 0.000000 -0.000667 0.000000
# 3 -0.003000 -0.000086 0.016026 0.000000 -0.003143 0.000000
# 4 0.000000 0.000000 0.000000 0.240011 0.000000 -0.363000
# 5 0.000604 -0.000667 -0.003143 0.000000 0.021799 0.000000
# 6 0.000000 0.000000 0.000000 -0.363000 0.000000 0.834935
#
#
# Mechanical properties :
#
#
# Convention : Reuss Voigt Hill
#
# Bulk Modulus (GPa) = 35.47596 41.34812 38.41204
# Shear Modulus (GPa) = 4.32579 27.35952 15.84266
#
# Velocity S-wave (km/s) = 1.46968 3.69610 2.81257
# Velocity P-wave (km/s) = 4.53804 6.23385 5.45228
#
# Compressibility (1/GPa) = 0.02818810
#
# Stress axis : x y z
#
# Youngs Moduli (GPa) = 115.24507 70.17932 62.39883
#
# Poissons Ratio (x) = 0.16115 0.18720
# Poissons Ratio (y) = 0.26463 0.00536
# Poissons Ratio (z) = 0.34574 0.00603
#
# Static dielectric constant tensor:
#      x y z
#    x 1.816660 0.000000 -0.000700 
#    y 0.000000 1.711000 0.000000 
#    z -0.000700 0.000000 1.715290 
# 
# From -- ./inp_files/175352.got.cif
#   From: 2010.05.17/outbox.cif.g08.bks.cpg/sg12_88_cif.got.tgz:175352.got - 2010.06.03 13:09:07.
