data_PCOD9214200
_publ_section_title
;
Structure prediction by ZEFSAII (Michael W. Deem and Ramdas Pophale) SiO2 
 PCOD9214200
Probable space group: C 2/M
;
_chemical_formula_sum "Si O2"
_cell_formula_units_Z 32
_cell_length_a 9.590806
_cell_length_b 8.059313
_cell_length_c 18.395973
_cell_angle_alpha 90.000000
_cell_angle_beta 58.401989
_cell_angle_gamma 90.000000
_cell_volume 1211.115461
_symmetry_space_group_name_H-M "C 2/M"
_symmetry_group_IT_number 12
_symmetry_cell_setting 'monoclinic'
loop_
_space_group_symop_operation_xyz
x,y,z
-x,y,-z
-x,-y,-z
x,-y,z
1/2+x,1/2+y,z
1/2-x,1/2+y,-z
1/2-x,1/2-y,-z
1/2+x,1/2-y,z
loop_
_atom_site_type_symbol
_atom_site_label
_atom_site_fract_x
_atom_site_fract_y
_atom_site_fract_z
Si Si1 0.659473 0.500000 0.008894
Si Si2 0.834446 0.696041 0.578336
Si Si3 0.027129 0.813274 0.832163
Si Si4 0.025286 0.500000 0.906440
Si Si5 0.979133 0.800203 0.679278
O O1 0.629096 0.349185 0.073145
O O2 0.500000 0.500000 0.000000
O O3 0.838381 0.500000 0.926479
O O4 0.833236 0.500000 0.563351
O O5 0.658480 0.762889 0.603206
O O6 0.000000 0.771765 0.500000
O O7 0.848431 0.722203 0.661247
O O8 0.977668 0.762871 0.764844
O O9 0.112709 0.662535 0.850721
O O10 0.102725 0.000000 0.809132
O O11 0.000000 0.500000 0.000000
O O12 0.971599 0.000000 0.674038
#
# Coordination Sequence:
#
# PCOD9214200 Si02
#       5
#     4   8   8   4   8
#     4  10  22  42  62  84 125 164 197 258 314 356
#     4  10  22  39  64  92 124 162 205 252 308 370
#     4   9  23  42  60  92 127 162 202 264 308 365
#     4  12  24  38  66  94 115 164 217 248 312 378
#     4  10  22  41  60  91 126 162 204 255 310 369
#
# _framework density 26.421921999999999
#
# number of rings (size 3 to 8) (size 9 to 14) (size 15 to 20)
#    0.750    1.250    0.000    2.250    1.750    5.500 
#    0.000    0.000    0.000    0.000    0.000    0.000 
#    0.000    0.000    0.000    0.000    0.000    0.000 
#
# Total GULP energy -89434.629116 kJ/mol
# GULP energy per Si atom -5589.664320 kJ/mol
# Density = 2.636178 g / cm^3
# Si number density = 26.421922 Si / 1000 Ang^3
#
#
#
# Elastic Constant Matrix: (Units=GPa)
#
#
# Indices 1 2 3 4 5 6 
#
# 1 140.2724 -6.8994 20.2621 0.0000 2.6785 0.0000
# 2 -6.8994 99.8592 15.5687 0.0000 2.2902 0.0000
# 3 20.2621 15.5687 100.6075 0.0000 10.3236 0.0000
# 4 0.0000 0.0000 0.0000 35.8283 0.0000 4.6659
# 5 2.6785 2.2902 10.3236 0.0000 41.3739 0.0000
# 6 0.0000 0.0000 0.0000 4.6659 0.0000 13.6755
#
#
#
# Elastic Compliance Matrix: (Units=1/GPa)
#
#
# Indices 1 2 3 4 5 6 
#
# 1 0.007399 0.000763 -0.001596 0.000000 -0.000123 0.000000
# 2 0.000763 0.010342 -0.001735 0.000000 -0.000189 0.000000
# 3 -0.001596 -0.001735 0.010785 0.000000 -0.002492 0.000000
# 4 0.000000 0.000000 0.000000 0.029209 0.000000 -0.009966
# 5 -0.000123 -0.000189 -0.002492 0.000000 0.024810 0.000000
# 6 0.000000 0.000000 0.000000 -0.009966 0.000000 0.076524
#
#
# Mechanical properties :
#
#
# Convention : Reuss Voigt Hill
#
# Bulk Modulus (GPa) = 42.75099 44.28910 43.52005
# Shear Modulus (GPa) = 29.06969 38.96272 34.01621
#
# Velocity S-wave (km/s) = 3.32054 3.84427 3.59196
# Velocity P-wave (km/s) = 5.56027 6.04178 5.80602
#
# Compressibility (1/GPa) = 0.02339127
#
# Stress axis : x y z
#
# Youngs Moduli (GPa) = 135.14716 96.69710 92.72068
#
# Poissons Ratio (x) = -0.07376 0.14795
# Poissons Ratio (y) = -0.10309 0.16083
# Poissons Ratio (z) = 0.21564 0.16773
#
# Static dielectric constant tensor:
#      x y z
#    x 2.059840 0.000000 -0.056670 
#    y 0.000000 2.167630 0.000000 
#    z -0.056670 0.000000 2.096260 
# 
# From -- ./inp_files/202064.got.cif
#   From: 2010.05.17/outbox.cif.g08.bks.cpg/sg12_102_cif.got.tgz:202064.got - 2010.06.03 13:09:07.
