data_PCOD9214658
_publ_section_title
;
Structure prediction by ZEFSAII (Michael W. Deem and Ramdas Pophale) SiO2 
 PCOD9214658
Probable space group: C 2/M
;
_chemical_formula_sum "Si O2"
_cell_formula_units_Z 40
_cell_length_a 20.998156
_cell_length_b 12.652468
_cell_length_c 6.772800
_cell_angle_alpha 90.000000
_cell_angle_beta 78.657981
_cell_angle_gamma 90.000000
_cell_volume 1764.246538
_symmetry_space_group_name_H-M "C 2/M"
_symmetry_group_IT_number 12
_symmetry_cell_setting 'monoclinic'
loop_
_space_group_symop_operation_xyz
x,y,z
-x,y,-z
-x,-y,-z
x,-y,z
1/2+x,1/2+y,z
1/2-x,1/2+y,-z
1/2-x,1/2-y,-z
1/2+x,1/2-y,z
loop_
_atom_site_type_symbol
_atom_site_label
_atom_site_fract_x
_atom_site_fract_y
_atom_site_fract_z
Si Si1 0.019835 0.323361 0.206376
Si Si2 0.906774 0.122450 0.900837
Si Si3 0.678539 0.283870 0.700216
Si Si4 0.107567 0.617531 0.473732
Si Si5 0.280631 0.383342 0.700397
O O1 0.033640 0.197283 0.199922
O O2 0.086654 0.367497 0.258665
O O3 0.960108 0.363963 0.370733
O O4 0.000000 0.355285 0.000000
O O5 0.848916 0.126424 0.774173
O O6 0.924598 0.000000 0.917529
O O7 0.875272 0.172657 0.118038
O O8 0.651584 0.204063 0.549614
O O9 0.707459 0.374768 0.543120
O O10 0.732125 0.212852 0.778666
O O11 0.132439 0.500000 0.489779
O O12 0.254277 0.500000 0.766897
#
# Coordination Sequence:
#
# PCOD9214658 Si02
#       5
#     8   8   8   8   8
#     4  11  22  42  61  88 125 158 202 249 295 359
#     4  11  23  41  63  91 123 160 202 246 299 356
#     4  11  21  41  64  90 124 155 203 249 298 361
#     4  11  24  41  62  91 122 158 202 249 303 359
#     4  10  22  40  63  89 122 161 198 248 303 355
#
# _framework density 22.672567000000001
#
# number of rings (size 3 to 8) (size 9 to 14) (size 15 to 20)
#    0.000    1.200    4.000    3.000    0.000    2.000 
#    0.000    2.000    0.000    0.000    0.000    0.000 
#    0.000    0.000    0.000    0.000    0.000    0.000 
#
# Total GULP energy -111667.277528 kJ/mol
# GULP energy per Si atom -5583.363876 kJ/mol
# Density = 2.262096 g / cm^3
# Si number density = 22.672567 Si / 1000 Ang^3
#
#
#
# Elastic Constant Matrix: (Units=GPa)
#
#
# Indices 1 2 3 4 5 6 
#
# 1 46.4356 5.5653 9.7575 0.0000 23.9099 0.0000
# 2 5.5653 131.5661 21.4099 0.0000 5.4338 0.0000
# 3 9.7575 21.4099 70.9067 0.0000 27.7526 0.0000
# 4 0.0000 0.0000 0.0000 28.3842 0.0000 0.1633
# 5 23.9099 5.4338 27.7526 0.0000 31.3935 0.0000
# 6 0.0000 0.0000 0.0000 0.1633 0.0000 24.7334
#
#
#
# Elastic Compliance Matrix: (Units=1/GPa)
#
#
# Indices 1 2 3 4 5 6 
#
# 1 0.039698 -0.001752 0.010369 0.000000 -0.039098 0.000000
# 2 -0.001752 0.008098 -0.003330 0.000000 0.002876 0.000000
# 3 0.010369 -0.003330 0.025301 0.000000 -0.029688 0.000000
# 4 0.000000 0.000000 0.000000 0.035232 0.000000 -0.000233
# 5 -0.039098 0.002876 -0.029688 0.000000 0.087379 0.000000
# 6 0.000000 0.000000 0.000000 -0.000233 0.000000 0.040433
#
#
# Mechanical properties :
#
#
# Convention : Reuss Voigt Hill
#
# Bulk Modulus (GPa) = 11.95142 35.81932 23.88537
# Shear Modulus (GPa) = 19.72721 31.04726 25.38724
#
# Velocity S-wave (km/s) = 2.95293 3.70452 3.34987
# Velocity P-wave (km/s) = 4.11208 5.84216 5.05173
#
# Compressibility (1/GPa) = 0.08367203
#
# Stress axis : x y z
#
# Youngs Moduli (GPa) = 25.19005 123.48855 39.52371
#
# Poissons Ratio (x) = 0.21633 -0.40982
# Poissons Ratio (y) = 0.04413 0.13161
# Poissons Ratio (z) = -0.26119 0.41119
#
# Static dielectric constant tensor:
#      x y z
#    x 1.899110 0.000000 0.043100 
#    y 0.000000 1.853880 0.000000 
#    z 0.043100 0.000000 1.891650 
# 
# From -- ./inp_files/27415.got.cif
#   From: 2010.05.17/outbox.cif.g08.bks.cpg/sg12_14_cif.got.tgz:27415.got - 2010.06.03 13:09:07.
