data_PCOD9214816
_publ_section_title
;
Structure prediction by ZEFSAII (Michael W. Deem and Ramdas Pophale) SiO2 
 PCOD9214816
Probable space group: C 2/M
;
_chemical_formula_sum "Si O2"
_cell_formula_units_Z 64
_cell_length_a 8.911157
_cell_length_b 28.415943
_cell_length_c 14.142928
_cell_angle_alpha 90.000000
_cell_angle_beta 46.154757
_cell_angle_gamma 90.000000
_cell_volume 2582.850813
_symmetry_space_group_name_H-M "C 2/M"
_symmetry_group_IT_number 12
_symmetry_cell_setting 'monoclinic'
loop_
_space_group_symop_operation_xyz
x,y,z
-x,y,-z
-x,-y,-z
x,-y,z
1/2+x,1/2+y,z
1/2-x,1/2+y,-z
1/2-x,1/2-y,-z
1/2+x,1/2-y,z
loop_
_atom_site_type_symbol
_atom_site_label
_atom_site_fract_x
_atom_site_fract_y
_atom_site_fract_z
Si Si1 0.681264 0.684199 0.178669
Si Si2 0.888592 0.772893 0.144946
Si Si3 0.639510 0.446109 0.326377
Si Si4 0.401962 0.943956 0.822108
Si Si5 0.345898 0.371544 0.428247
Si Si6 0.568773 0.790549 0.578675
Si Si7 0.206599 0.445110 0.346693
Si Si8 0.727476 0.082213 0.928873
O O1 0.860063 0.716755 0.143781
O O2 0.533852 0.712378 0.169160
O O3 0.535730 0.664029 0.325585
O O4 0.761174 0.637699 0.092390
O O5 0.645855 0.786045 0.269112
O O6 0.000000 0.790491 0.000000
O O7 0.626010 0.500000 0.359393
O O8 0.433459 0.417285 0.441891
O O9 0.637586 0.441881 0.211687
O O10 0.863373 0.425652 0.259236
O O11 0.332964 0.935178 0.746104
O O12 0.418372 0.000000 0.826198
O O13 0.245563 0.927806 0.972877
O O14 0.174361 0.340674 0.553432
O O15 0.283245 0.394396 0.355189
O O16 0.500000 0.791806 0.500000
O O17 0.750000 0.750000 0.500000
O O18 0.290356 0.500000 0.313994
O O19 0.000000 0.449753 0.500000
O O20 0.500000 0.064105 0.000000
#
# Coordination Sequence:
#
# PCOD9214816 Si02
#       8
#     8   8   8   8   8   8   8   8
#     4  11  24  42  68  98 137 182 232 296 360 428
#     4  12  25  45  70  99 134 183 233 302 370 428
#     4   9  18  35  65 102 141 184 233 290 349 423
#     4   9  18  37  65 100 143 191 236 284 350 428
#     4  11  22  41  67  95 141 184 238 287 358 427
#     4  12  24  48  74 100 137 189 237 301 360 436
#     4  10  22  40  64  94 137 186 233 293 354 418
#     4   9  18  35  62 101 145 184 234 288 353 436
#
# _framework density 24.778822999999999
#
# number of rings (size 3 to 8) (size 9 to 14) (size 15 to 20)
#    0.000    1.625    2.500    1.875    0.000    2.500 
#    0.000    7.500    0.000    9.750    0.000    0.000 
#    0.000    2.000    0.000    0.000    0.000    1.750 
#
# Total GULP energy -178666.530246 kJ/mol
# GULP energy per Si atom -5583.329070 kJ/mol
# Density = 2.472243 g / cm^3
# Si number density = 24.778823 Si / 1000 Ang^3
#
#
#
# Elastic Constant Matrix: (Units=GPa)
#
#
# Indices 1 2 3 4 5 6 
#
# 1 44.8163 31.5671 15.4994 0.0000 10.8503 0.0000
# 2 31.5671 97.5142 12.6735 0.0000 -1.2928 0.0000
# 3 15.4994 12.6735 125.9112 0.0000 7.3258 0.0000
# 4 0.0000 0.0000 0.0000 46.6947 0.0000 -13.7618
# 5 10.8503 -1.2928 7.3258 0.0000 30.6342 0.0000
# 6 0.0000 0.0000 0.0000 -13.7618 0.0000 35.7524
#
#
#
# Elastic Compliance Matrix: (Units=1/GPa)
#
#
# Indices 1 2 3 4 5 6 
#
# 1 0.033512 -0.010697 -0.002365 0.000000 -0.011756 0.000000
# 2 -0.010697 0.013820 -0.000333 0.000000 0.004452 0.000000
# 3 -0.002365 -0.000333 0.008335 0.000000 -0.001170 0.000000
# 4 0.000000 0.000000 0.000000 0.024156 0.000000 0.009298
# 5 -0.011756 0.004452 -0.001170 0.000000 0.037275 0.000000
# 6 0.000000 0.000000 0.000000 0.009298 0.000000 0.031549
#
#
# Mechanical properties :
#
#
# Convention : Reuss Voigt Hill
#
# Bulk Modulus (GPa) = 34.62958 43.08019 38.85488
# Shear Modulus (GPa) = 27.01806 36.51637 31.76722
#
# Velocity S-wave (km/s) = 3.30566 3.84304 3.58443
# Velocity P-wave (km/s) = 5.34562 6.09225 5.73111
#
# Compressibility (1/GPa) = 0.02887705
#
# Stress axis : x y z
#
# Youngs Moduli (GPa) = 29.84031 72.35880 119.97915
#
# Poissons Ratio (x) = 0.77401 0.28370
# Poissons Ratio (y) = 0.31920 0.03999
# Poissons Ratio (z) = 0.07056 0.02412
#
# Static dielectric constant tensor:
#      x y z
#    x 1.988820 0.000000 -0.068010 
#    y 0.000000 1.987420 0.000000 
#    z -0.068010 0.000000 2.065100 
# 
# From -- ./inp_files/201280.got.cif
#   From: 2010.05.17/outbox.cif.g08.bks.cpg/sg12_101_cif.got.tgz:201280.got - 2010.06.03 13:09:07.
