data_PCOD9214754
_publ_section_title
;
Structure prediction by ZEFSAII (Michael W. Deem and Ramdas Pophale) SiO2 
 PCOD9214754
Probable space group: C 2/M
;
_chemical_formula_sum "Si O2"
_cell_formula_units_Z 56
_cell_length_a 13.584441
_cell_length_b 26.290507
_cell_length_c 14.256927
_cell_angle_alpha 90.000000
_cell_angle_beta 41.693410
_cell_angle_gamma 90.000000
_cell_volume 3386.746155
_symmetry_space_group_name_H-M "C 2/M"
_symmetry_group_IT_number 12
_symmetry_cell_setting 'monoclinic'
loop_
_space_group_symop_operation_xyz
x,y,z
-x,y,-z
-x,-y,-z
x,-y,z
1/2+x,1/2+y,z
1/2-x,1/2+y,-z
1/2-x,1/2-y,-z
1/2+x,1/2-y,z
loop_
_atom_site_type_symbol
_atom_site_label
_atom_site_fract_x
_atom_site_fract_y
_atom_site_fract_z
Si Si1 0.661990 0.823252 0.642634
Si Si2 0.854008 0.207357 0.795346
Si Si3 0.326468 0.853347 0.922612
Si Si4 0.326901 0.693155 0.133261
Si Si5 0.651527 0.383753 0.346131
Si Si6 0.320170 0.292289 0.345892
Si Si7 0.344425 0.940178 0.059266
O O1 0.488786 0.834096 0.778080
O O2 0.742304 0.867002 0.644526
O O3 0.711184 0.767789 0.647061
O O4 0.714218 0.817831 0.498075
O O5 0.782228 0.259883 0.812726
O O6 0.871712 0.167608 0.698112
O O7 0.013871 0.209793 0.730445
O O8 0.740647 0.184942 0.952377
O O9 0.220018 0.849710 0.908034
O O10 0.332763 0.906650 0.973418
O O11 0.309010 0.679969 0.254866
O O12 0.500000 0.707934 0.000000
O O13 0.500000 0.401744 0.500000
O O14 0.722602 0.422633 0.221852
O O15 0.336329 0.000000 0.046093
O O16 0.500000 0.928444 0.000000
#
# Coordination Sequence:
#
# PCOD9214754 Si02
#       7
#     8   8   8   8   8   8   8
#     4  11  21  34  50  80 117 153 187 222 266 314
#     4  11  21  33  51  78 111 152 190 223 264 315
#     4  11  22  36  56  79 108 144 185 235 281 321
#     4  12  22  33  53  79 112 155 198 226 260 320
#     4  11  21  34  56  81 118 148 175 224 281 332
#     4  11  22  34  49  75 119 157 191 218 255 318
#     4  10  22  40  64  88 105 131 180 238 293 344
#
# _framework density 16.535046000000001
#
# number of rings (size 3 to 8) (size 9 to 14) (size 15 to 20)
#    0.000    1.000    7.143    1.286    0.000    0.857 
#    0.000    0.000    0.000    0.429    0.000    3.000 
#    0.000    0.000    0.000    0.000    0.000    0.000 
#
# Total GULP energy -156236.434212 kJ/mol
# GULP energy per Si atom -5579.872650 kJ/mol
# Density = 1.649741 g / cm^3
# Si number density = 16.535046 Si / 1000 Ang^3
#
#
#
# Elastic Constant Matrix: (Units=GPa)
#
#
# Indices 1 2 3 4 5 6 
#
# 1 70.7795 20.6349 54.6683 0.0000 9.7998 0.0000
# 2 20.6349 42.6966 33.1887 0.0000 6.4932 0.0000
# 3 54.6683 33.1887 131.4424 0.0000 1.6055 0.0000
# 4 0.0000 0.0000 0.0000 4.3006 0.0000 -0.6475
# 5 9.7998 6.4932 1.6055 0.0000 30.4883 0.0000
# 6 0.0000 0.0000 0.0000 -0.6475 0.0000 17.9938
#
#
#
# Elastic Compliance Matrix: (Units=1/GPa)
#
#
# Indices 1 2 3 4 5 6 
#
# 1 0.022448 -0.003395 -0.008405 0.000000 -0.006050 0.000000
# 2 -0.003395 0.030725 -0.006283 0.000000 -0.005121 0.000000
# 3 -0.008405 -0.006283 0.012649 0.000000 0.003374 0.000000
# 4 0.000000 0.000000 0.000000 0.233790 0.000000 0.008413
# 5 -0.006050 -0.005121 0.003374 0.000000 0.035657 0.000000
# 6 0.000000 0.000000 0.000000 0.008413 0.000000 0.055878
#
#
# Mechanical properties :
#
#
# Convention : Reuss Voigt Hill
#
# Bulk Modulus (GPa) = 33.72199 51.32248 42.52224
# Shear Modulus (GPa) = 11.43645 19.65165 15.54405
#
# Velocity S-wave (km/s) = 2.63278 3.45118 3.06938
# Velocity P-wave (km/s) = 5.44798 6.85470 6.19142
#
# Compressibility (1/GPa) = 0.02965424
#
# Stress axis : x y z
#
# Youngs Moduli (GPa) = 44.54795 32.54691 79.05827
#
# Poissons Ratio (x) = 0.11051 0.66449
# Poissons Ratio (y) = 0.15126 0.49674
# Poissons Ratio (z) = 0.37443 0.20450
#
# Static dielectric constant tensor:
#      x y z
#    x 1.573060 0.000000 -0.004020 
#    y 0.000000 1.536260 0.000000 
#    z -0.004020 0.000000 1.579560 
# 
# From -- ./inp_files/136909.got.cif
#   From: 2010.05.17/outbox.cif.g08.bks.cpg/sg12_69_cif.got.tgz:136909.got - 2010.06.03 13:09:07.
