data_PCOD9214588
_publ_section_title
;
Structure prediction by ZEFSAII (Michael W. Deem and Ramdas Pophale) SiO2 
 PCOD9214588
Probable space group: C 2/M
;
_chemical_formula_sum "Si O2"
_cell_formula_units_Z 24
_cell_length_a 9.051921
_cell_length_b 19.343786
_cell_length_c 5.111712
_cell_angle_alpha 90.000000
_cell_angle_beta 85.128357
_cell_angle_gamma 90.000000
_cell_volume 891.819285
_symmetry_space_group_name_H-M "C 2/M"
_symmetry_group_IT_number 12
_symmetry_cell_setting 'monoclinic'
loop_
_space_group_symop_operation_xyz
x,y,z
-x,y,-z
-x,-y,-z
x,-y,z
1/2+x,1/2+y,z
1/2-x,1/2+y,-z
1/2-x,1/2-y,-z
1/2+x,1/2-y,z
loop_
_atom_site_type_symbol
_atom_site_label
_atom_site_fract_x
_atom_site_fract_y
_atom_site_fract_z
Si Si1 0.105140 0.131814 0.727664
Si Si2 0.604446 0.789287 0.729195
Si Si3 0.322516 0.925712 0.058064
O O1 0.163800 0.211193 0.692771
O O2 0.242811 0.084815 0.791580
O O3 0.000000 0.114219 0.500000
O O4 0.000000 0.127914 0.000000
O O5 0.500000 0.803734 0.500000
O O6 0.500000 0.783781 0.000000
O O7 0.706289 0.855442 0.774771
O O8 0.274603 0.000000 0.175807
O O9 0.500000 0.927870 0.000000
#
# Coordination Sequence:
#
# PCOD9214588 Si02
#       3
#     8   8   8
#     4  10  22  41  65  90 118 157 204 251 296 349
#     4   9  19  37  61  88 118 154 199 247 295 350
#     4  10  22  40  62  90 125 161 198 245 302 361
#
# _framework density 26.911280000000001
#
# number of rings (size 3 to 8) (size 9 to 14) (size 15 to 20)
#    0.000    2.333    0.000    1.000    0.000    7.333 
#    0.000   26.667    0.000    0.000    0.000    0.000 
#    0.000    0.000    0.000    0.000    0.000    0.000 
#
# Total GULP energy -67234.583393 kJ/mol
# GULP energy per Si atom -5602.881949 kJ/mol
# Density = 2.685003 g / cm^3
# Si number density = 26.911280 Si / 1000 Ang^3
#
#
#
# Elastic Constant Matrix: (Units=GPa)
#
#
# Indices 1 2 3 4 5 6 
#
# 1 114.9412 33.4980 61.0842 0.0000 39.8012 0.0000
# 2 33.4980 171.1702 65.6021 0.0000 31.7516 0.0000
# 3 61.0842 65.6021 229.0032 0.0000 41.0014 0.0000
# 4 0.0000 0.0000 0.0000 -33.7337 0.0000 -74.8547
# 5 39.8012 31.7516 41.0014 0.0000 55.0518 0.0000
# 6 0.0000 0.0000 0.0000 -74.8547 0.0000 -64.3911
#
#
#
# Elastic Compliance Matrix: (Units=1/GPa)
#
#
# Indices 1 2 3 4 5 6 
#
# 1 0.012334 -0.000334 -0.001883 0.000000 -0.007322 0.000000
# 2 -0.000334 0.006954 -0.001417 0.000000 -0.002714 0.000000
# 3 -0.001883 -0.001417 0.005637 0.000000 -0.002019 0.000000
# 4 0.000000 0.000000 0.000000 0.018767 0.000000 -0.021817
# 5 -0.007322 -0.002714 -0.002019 0.000000 0.026527 0.000000
# 6 0.000000 0.000000 0.000000 -0.021817 0.000000 0.009832
#
#
# Mechanical properties :
#
#
# Convention : Reuss Voigt Hill
#
# Bulk Modulus (GPa) = 56.63881 92.83146 74.73513
# Shear Modulus (GPa) = 53.64578 15.04743 34.34660
#
# Velocity S-wave (km/s) = 4.46963 2.36720 3.57640
# Velocity P-wave (km/s) = 6.90861 6.48396 6.69965
#
# Compressibility (1/GPa) = 0.01765574
#
# Stress axis : x y z
#
# Youngs Moduli (GPa) = 81.07952 143.80144 177.41266
#
# Poissons Ratio (x) = 0.04799 0.33413
# Poissons Ratio (y) = 0.02706 0.25142
# Poissons Ratio (z) = 0.15270 0.20379
#
# Static dielectric constant tensor:
#      x y z
#    x 2.233430 0.000000 -0.167390 
#    y 0.000000 2.102590 0.000000 
#    z -0.167390 0.000000 2.137160 
# 
# From -- ./inp_files/2758.got.cif
#   From: 2010.05.17/outbox.cif.g08.bks.cpg/sg12_2_cif.got.tgz:2758.got - 2010.06.03 13:09:07.
