data_PCOD9214920
_publ_section_title
;
Structure prediction by ZEFSAII (Michael W. Deem and Ramdas Pophale) SiO2 
 PCOD9214920
Probable space group: C 2/M
;
_chemical_formula_sum "Si O2"
_cell_formula_units_Z 44
_cell_length_a 12.977869
_cell_length_b 17.566610
_cell_length_c 10.731860
_cell_angle_alpha 90.000000
_cell_angle_beta 56.794358
_cell_angle_gamma 90.000000
_cell_volume 2047.111538
_symmetry_space_group_name_H-M "C 2/M"
_symmetry_group_IT_number 12
_symmetry_cell_setting 'monoclinic'
loop_
_space_group_symop_operation_xyz
x,y,z
-x,y,-z
-x,-y,-z
x,-y,z
1/2+x,1/2+y,z
1/2-x,1/2+y,-z
1/2-x,1/2-y,-z
1/2+x,1/2-y,z
loop_
_atom_site_type_symbol
_atom_site_label
_atom_site_fract_x
_atom_site_fract_y
_atom_site_fract_z
Si Si1 0.748401 0.085852 0.459130
Si Si2 0.747200 0.338896 0.046325
Si Si3 0.503716 0.358328 0.639105
Si Si4 0.000000 0.315110 0.000000
Si Si5 0.571145 0.199204 0.683842
Si Si6 0.850151 0.588469 0.751977
O O1 0.693841 0.149810 0.587052
O O2 0.692599 0.102302 0.360234
O O3 0.895051 0.092413 0.356420
O O4 0.712927 0.000000 0.519708
O O5 0.629385 0.354350 0.209164
O O6 0.875286 0.356283 0.034900
O O7 0.750000 0.250000 0.000000
O O8 0.747510 0.388624 0.920901
O O9 0.500000 0.385388 0.500000
O O10 0.558505 0.272768 0.607603
O O11 0.953855 0.274565 0.157068
O O12 0.464637 0.141360 0.711417
O O13 0.882574 0.500000 0.741896
#
# Coordination Sequence:
#
# PCOD9214920 Si02
#       6
#     8   8   8   4   8   8
#     4  11  25  42  65  95 132 175 214 269 330 385
#     4  11  23  41  64  96 132 167 212 266 320 377
#     4  12  25  41  65  97 129 172 220 265 328 385
#     4  10  22  40  65  98 123 172 214 262 328 374
#     4  11  22  40  67  95 132 166 224 270 318 383
#     4  10  22  41  67  96 127 171 220 269 325 381
#
# _framework density 21.493698999999999
#
# number of rings (size 3 to 8) (size 9 to 14) (size 15 to 20)
#    0.000    1.091    3.636    3.818    2.545    3.273 
#    0.000   16.818    0.000    0.000    0.000    0.000 
#    0.000    0.000    0.000    0.000    0.000    0.000 
#
# Total GULP energy -122875.298647 kJ/mol
# GULP energy per Si atom -5585.240848 kJ/mol
# Density = 2.144478 g / cm^3
# Si number density = 21.493699 Si / 1000 Ang^3
#
#
#
# Elastic Constant Matrix: (Units=GPa)
#
#
# Indices 1 2 3 4 5 6 
#
# 1 81.3664 21.1261 39.4331 0.0000 -9.3748 0.0000
# 2 21.1261 59.0678 13.8343 0.0000 1.5900 0.0000
# 3 39.4331 13.8343 103.3432 0.0000 -22.9634 0.0000
# 4 0.0000 0.0000 0.0000 44.8365 0.0000 -6.6405
# 5 -9.3748 1.5900 -22.9634 0.0000 39.6405 0.0000
# 6 0.0000 0.0000 0.0000 -6.6405 0.0000 22.6589
#
#
#
# Elastic Compliance Matrix: (Units=1/GPa)
#
#
# Indices 1 2 3 4 5 6 
#
# 1 0.016175 -0.004554 -0.005362 0.000000 0.000902 0.000000
# 2 -0.004554 0.018954 -0.001387 0.000000 -0.002640 0.000000
# 3 -0.005362 -0.001387 0.013358 0.000000 0.006526 0.000000
# 4 0.000000 0.000000 0.000000 0.023315 0.000000 0.006833
# 5 0.000902 -0.002640 0.006526 0.000000 0.029326 0.000000
# 6 0.000000 0.000000 0.000000 0.006833 0.000000 0.046135
#
#
# Mechanical properties :
#
#
# Convention : Reuss Voigt Hill
#
# Bulk Modulus (GPa) = 38.63524 43.61825 41.12675
# Shear Modulus (GPa) = 28.01190 32.71945 30.36568
#
# Velocity S-wave (km/s) = 3.61399 3.90587 3.76276
# Velocity P-wave (km/s) = 5.95220 6.37799 6.16877
#
# Compressibility (1/GPa) = 0.02588310
#
# Stress axis : x y z
#
# Youngs Moduli (GPa) = 61.82428 52.75902 74.86070
#
# Poissons Ratio (x) = 0.24024 0.40140
# Poissons Ratio (y) = 0.28152 0.10380
# Poissons Ratio (z) = 0.33150 0.07315
#
# Static dielectric constant tensor:
#      x y z
#    x 1.793230 0.000000 -0.031270 
#    y 0.000000 1.765610 0.000000 
#    z -0.031270 0.000000 1.825180 
# 
# From -- ./inp_files/145349.got.cif
#   From: 2010.05.17/outbox.cif.g08.bks.cpg/sg12_73_cif.got.tgz:145349.got - 2010.06.03 13:09:07.
