data_PCOD9214218
_publ_section_title
;
Structure prediction by ZEFSAII (Michael W. Deem and Ramdas Pophale) SiO2 
 PCOD9214218
Probable space group: C 2/M
;
_chemical_formula_sum "Si O2"
_cell_formula_units_Z 52
_cell_length_a 14.720818
_cell_length_b 19.071683
_cell_length_c 13.386938
_cell_angle_alpha 90.000000
_cell_angle_beta 41.446672
_cell_angle_gamma 90.000000
_cell_volume 2487.765674
_symmetry_space_group_name_H-M "C 2/M"
_symmetry_group_IT_number 12
_symmetry_cell_setting 'monoclinic'
loop_
_space_group_symop_operation_xyz
x,y,z
-x,y,-z
-x,-y,-z
x,-y,z
1/2+x,1/2+y,z
1/2-x,1/2+y,-z
1/2-x,1/2-y,-z
1/2+x,1/2-y,z
loop_
_atom_site_type_symbol
_atom_site_label
_atom_site_fract_x
_atom_site_fract_y
_atom_site_fract_z
Si Si1 0.777188 0.500000 0.463587
Si Si2 0.077343 0.150439 0.244173
Si Si3 0.985718 0.500000 0.891187
Si Si4 0.530901 0.500000 0.358411
Si Si5 0.723408 0.355743 0.609619
Si Si6 0.992156 0.289515 0.394168
Si Si7 0.662701 0.576683 0.855942
Si Si8 0.825115 0.622900 0.910723
O O1 0.616666 0.500000 0.571893
O O2 0.795696 0.426727 0.506868
O O3 0.869240 0.500000 0.287884
O O4 0.100567 0.072544 0.268773
O O5 0.054530 0.211573 0.342805
O O6 0.931415 0.149961 0.305064
O O7 0.210996 0.165205 0.067339
O O8 0.905802 0.568638 0.915155
O O9 0.000000 0.500000 0.000000
O O10 0.500000 0.500000 0.500000
O O11 0.708772 0.365377 0.740282
O O12 0.831368 0.294469 0.500845
O O13 0.073058 0.330661 0.240546
O O14 0.000000 0.319813 0.500000
O O15 0.693805 0.500000 0.786314
O O16 0.734726 0.582107 0.902713
O O17 0.500000 0.581563 0.000000
#
# Coordination Sequence:
#
# PCOD9214218 Si02
#       8
#     4   8   4   4   8   8   8   8
#     4  10  22  39  64  96 133 164 222 274 325 400
#     4  11  25  43  65  96 131 178 227 271 340 401
#     4  12  27  45  67  99 138 182 223 271 340 404
#     4  10  23  42  69  92 121 167 232 287 322 389
#     4  11  21  41  66  97 138 173 211 281 335 392
#     4  12  25  42  66  97 135 179 223 278 341 404
#     4  11  21  35  69 108 135 166 215 274 337 395
#     4  12  24  43  69  96 137 177 219 282 330 401
#
# _framework density 20.902290000000001
#
# number of rings (size 3 to 8) (size 9 to 14) (size 15 to 20)
#    0.000    0.769    6.154    1.846    2.154    0.000 
#    0.000    2.308    0.000    0.000    0.000    0.000 
#    0.000    0.000    0.000    0.000    0.000    0.000 
#
# Total GULP energy -145104.461154 kJ/mol
# GULP energy per Si atom -5580.940814 kJ/mol
# Density = 2.085472 g / cm^3
# Si number density = 20.902290 Si / 1000 Ang^3
#
#
#
# Elastic Constant Matrix: (Units=GPa)
#
#
# Indices 1 2 3 4 5 6 
#
# 1 72.7039 11.1977 22.3121 -0.0001 18.9043 0.0002
# 2 11.1977 61.2536 24.3734 -0.0002 4.4930 0.0002
# 3 22.3121 24.3734 115.8930 -0.0001 12.6282 0.0003
# 4 -0.0001 -0.0002 -0.0001 32.6694 0.0002 -1.8060
# 5 18.9043 4.4930 12.6282 0.0002 30.1410 -0.0002
# 6 0.0002 0.0002 0.0003 -1.8060 -0.0002 35.3523
#
#
#
# Elastic Compliance Matrix: (Units=1/GPa)
#
#
# Indices 1 2 3 4 5 6 
#
# 1 0.017111 -0.001666 -0.001888 0.000000 -0.009692 0.000000
# 2 -0.001666 0.018016 -0.003447 0.000000 -0.000197 0.000000
# 3 -0.001888 -0.003447 0.009988 0.000000 -0.002487 0.000000
# 4 0.000000 0.000000 0.000000 0.030696 0.000000 0.001568
# 5 -0.009692 -0.000197 -0.002487 0.000000 0.040328 0.000000
# 6 0.000000 0.000000 0.000000 0.001568 0.000000 0.028367
#
#
# Mechanical properties :
#
#
# Convention : Reuss Voigt Hill
#
# Bulk Modulus (GPa) = 32.14011 40.62412 36.38212
# Shear Modulus (GPa) = 29.60725 32.43034 31.01880
#
# Velocity S-wave (km/s) = 3.76767 3.94321 3.85644
# Velocity P-wave (km/s) = 5.85977 6.34108 6.10517
#
# Compressibility (1/GPa) = 0.03111377
#
# Stress axis : x y z
#
# Youngs Moduli (GPa) = 58.44354 55.50602 100.12053
#
# Poissons Ratio (x) = 0.09247 0.18900
# Poissons Ratio (y) = 0.09736 0.34510
# Poissons Ratio (z) = 0.11032 0.19132
#
# Static dielectric constant tensor:
#      x y z
#    x 1.670730 0.000000 -0.011380 
#    y 0.000000 1.789280 0.000000 
#    z -0.011380 0.000000 1.739670 
# 
# From -- ./inp_files/216757.got.cif
#   From: 2010.05.17/outbox.cif.g08.bks.cpg/sg12_109_cif.got.tgz:216757.got - 2010.06.03 13:09:07.
