data_PCOD9214756
_publ_section_title
;
Structure prediction by ZEFSAII (Michael W. Deem and Ramdas Pophale) SiO2 
 PCOD9214756
Probable space group: C 2/M
;
_chemical_formula_sum "Si O2"
_cell_formula_units_Z 48
_cell_length_a 14.426383
_cell_length_b 20.794656
_cell_length_c 14.993146
_cell_angle_alpha 90.000000
_cell_angle_beta 30.362965
_cell_angle_gamma 90.000000
_cell_volume 2273.540174
_symmetry_space_group_name_H-M "C 2/M"
_symmetry_group_IT_number 12
_symmetry_cell_setting 'monoclinic'
loop_
_space_group_symop_operation_xyz
x,y,z
-x,y,-z
-x,-y,-z
x,-y,z
1/2+x,1/2+y,z
1/2-x,1/2+y,-z
1/2-x,1/2-y,-z
1/2+x,1/2-y,z
loop_
_atom_site_type_symbol
_atom_site_label
_atom_site_fract_x
_atom_site_fract_y
_atom_site_fract_z
Si Si1 0.868286 0.845054 0.840115
Si Si2 0.283982 0.573729 0.520377
Si Si3 0.562906 0.329384 0.855912
Si Si4 0.135019 0.744184 0.312124
Si Si5 0.422143 0.890900 0.477051
Si Si6 0.507474 0.922692 0.099008
O O1 0.850800 0.786013 0.787019
O O2 0.041419 0.885500 0.656611
O O3 0.913406 0.822495 0.903372
O O4 0.684721 0.887098 0.990718
O O5 0.343168 0.500000 0.483081
O O6 0.123319 0.576178 0.578126
O O7 0.180269 0.597167 0.695342
O O8 0.668919 0.266593 0.803932
O O9 0.723454 0.368343 0.675335
O O10 0.500000 0.362235 0.000000
O O11 0.000000 0.771767 0.500000
O O12 0.046828 0.673602 0.362538
O O13 0.500000 0.926233 0.500000
O O14 0.524693 0.000000 0.097063
O O15 0.500000 0.909554 0.000000
#
# Coordination Sequence:
#
# PCOD9214756 Si02
#       6
#     8   8   8   8   8   8
#     4  11  23  40  67  88 122 167 203 246 310 368
#     4  10  22  40  64  89 119 162 207 251 302 359
#     4   9  20  37  56  88 123 158 196 250 299 359
#     4   9  21  38  57  90 123 160 199 246 306 365
#     4   8  18  37  59  83 126 159 193 249 305 361
#     4  10  24  43  62  93 125 156 207 259 298 353
#
# _framework density 21.112448000000001
#
# number of rings (size 3 to 8) (size 9 to 14) (size 15 to 20)
#    0.000    2.833    0.000    0.500    7.000    7.667 
#    3.000    2.500    0.000    2.500    0.000    0.000 
#    0.000    0.000    0.000    0.000    0.000    0.000 
#
# Total GULP energy -133825.199629 kJ/mol
# GULP energy per Si atom -5576.049985 kJ/mol
# Density = 2.106439 g / cm^3
# Si number density = 21.112448 Si / 1000 Ang^3
#
#
#
# Elastic Constant Matrix: (Units=GPa)
#
#
# Indices 1 2 3 4 5 6 
#
# 1 119.0100 36.4810 34.4182 1.5034 5.0434 0.1639
# 2 36.4810 60.9808 37.8397 -0.7850 1.5115 -0.0972
# 3 34.4182 37.8397 115.0791 -0.0339 7.0444 -0.0110
# 4 1.5034 -0.7850 -0.0339-1087.8341 -0.1508 -123.7003
# 5 5.0434 1.5115 7.0444 -0.1508 33.5190 -0.0139
# 6 0.1639 -0.0972 -0.0110 -123.7003 -0.0139 -7.9127
#
#
#
# Elastic Compliance Matrix: (Units=1/GPa)
#
#
# Indices 1 2 3 4 5 6 
#
# 1 0.010489 -0.005455 -0.001278 0.000018 -0.001064 0.000004
# 2 -0.005455 0.023448 -0.006143 -0.000026 0.001054 0.000016
# 3 -0.001278 -0.006143 0.011207 0.000002 -0.001886 0.000005
# 4 0.000018 -0.000026 0.000002 0.001182 -0.000004 -0.018479
# 5 -0.001064 0.001054 -0.001886 -0.000004 0.030343 -0.000018
# 6 0.000004 0.000016 0.000005 -0.018479 -0.000018 0.162506
#
#
# Mechanical properties :
#
#
# Convention : Reuss Voigt Hill
#
# Bulk Modulus (GPa) = 51.56963 56.94974 54.25969
# Shear Modulus (GPa) = 18.42352 -200.02348 -90.79998
#
# Velocity S-wave (km/s) = 2.95725 -9.74411 -6.56515
# Velocity P-wave (km/s) = 6.01162 9.97817 5.63135
#
# Compressibility (1/GPa) = 0.01939126
#
# Stress axis : x y z
#
# Youngs Moduli (GPa) = 95.33379 42.64841 89.22753
#
# Poissons Ratio (x) = 0.23266 0.11406
# Poissons Ratio (y) = 0.52008 0.54811
# Poissons Ratio (z) = 0.12187 0.26198
#
# Static dielectric constant tensor:
#      x y z
#    x 1.807460 -0.000010 0.015690 
#    y -0.000010 1.763980 0.000020 
#    z 0.015690 0.000020 1.797040 
# 
# From -- ./inp_files/218406.got.cif
#   From: 2010.05.17/outbox.cif.g08.bks.cpg/sg12_110_cif.got.tgz:218406.got - 2010.06.03 13:09:07.
