data_PCOD9214123
_publ_section_title
;
Structure prediction by ZEFSAII (Michael W. Deem and Ramdas Pophale) SiO2 
 PCOD9214123
Probable space group: C 2/M
;
_chemical_formula_sum "Si O2"
_cell_formula_units_Z 40
_cell_length_a 10.246037
_cell_length_b 22.598188
_cell_length_c 8.552956
_cell_angle_alpha 90.000000
_cell_angle_beta 89.438125
_cell_angle_gamma 90.000000
_cell_volume 1980.272206
_symmetry_space_group_name_H-M "C 2/M"
_symmetry_group_IT_number 12
_symmetry_cell_setting 'monoclinic'
loop_
_space_group_symop_operation_xyz
x,y,z
-x,y,-z
-x,-y,-z
x,-y,z
1/2+x,1/2+y,z
1/2-x,1/2+y,-z
1/2-x,1/2-y,-z
1/2+x,1/2-y,z
loop_
_atom_site_type_symbol
_atom_site_label
_atom_site_fract_x
_atom_site_fract_y
_atom_site_fract_z
Si Si1 0.509322 0.353746 0.816639
Si Si2 0.737037 0.430728 0.874629
Si Si3 0.511634 0.930405 0.329907
Si Si4 0.212595 0.641028 0.821399
Si Si5 0.622494 0.752131 0.612610
O O1 0.591856 0.414256 0.821794
O O2 0.361580 0.362684 0.759698
O O3 0.583640 0.308152 0.703275
O O4 0.500000 0.332395 0.000000
O O5 0.744633 0.500000 0.927668
O O6 0.845581 0.422038 0.741567
O O7 0.770898 0.379132 0.999103
O O8 0.500000 0.902980 0.500000
O O9 0.393957 0.905545 0.232467
O O10 0.491286 0.000000 0.339299
O O11 0.154594 0.701900 0.753228
O O12 0.500000 0.766834 0.500000
O O13 0.750000 0.750000 0.500000
#
# Coordination Sequence:
#
# PCOD9214123 Si02
#       5
#     8   8   8   8   8
#     4  10  25  43  65  97 130 169 219 263 326 393
#     4  10  23  43  68  97 133 172 217 269 323 390
#     4  10  22  39  62  96 131 169 218 269 325 384
#     4  11  23  40  65  95 127 173 214 266 325 385
#     4  12  26  46  68  96 133 171 218 273 328 386
#
# _framework density 20.199244
#
# number of rings (size 3 to 8) (size 9 to 14) (size 15 to 20)
#    0.000    1.400    2.000    1.800    5.600   10.800 
#    0.000    0.000    0.000    4.200    0.000    0.000 
#    0.000    0.000    0.000    0.000    0.000    0.000 
#
# Total GULP energy -111415.777869 kJ/mol
# GULP energy per Si atom -5570.788893 kJ/mol
# Density = 2.015327 g / cm^3
# Si number density = 20.199244 Si / 1000 Ang^3
#
#
#
# Elastic Constant Matrix: (Units=GPa)
#
#
# Indices 1 2 3 4 5 6 
#
# 1 -157.3941 -28.8184 -304.1695 0.0000 18.7383 0.0000
# 2 -28.8184 61.1078 -27.4175 0.0000 -15.8922 0.0000
# 3 -304.1695 -27.4175 -334.7737 0.0000 6.8796 0.0000
# 4 0.0000 0.0000 0.0000 34.1935 0.0000 -3.6134
# 5 18.7383 -15.8922 6.8796 0.0000 34.5024 0.0000
# 6 0.0000 0.0000 0.0000 -3.6134 0.0000 30.2584
#
#
#
# Elastic Compliance Matrix: (Units=1/GPa)
#
#
# Indices 1 2 3 4 5 6 
#
# 1 0.008742 -0.000319 -0.007984 0.000000 -0.003302 0.000000
# 2 -0.000319 0.018018 -0.001008 0.000000 0.008673 0.000000
# 3 -0.007984 -0.001008 0.004411 0.000000 0.002992 0.000000
# 4 0.000000 0.000000 0.000000 0.029619 0.000000 0.003537
# 5 -0.003302 0.008673 0.002992 0.000000 0.034175 0.000000
# 6 0.000000 0.000000 0.000000 0.003537 0.000000 0.033471
#
#
# Mechanical properties :
#
#
# Convention : Reuss Voigt Hill
#
# Bulk Modulus (GPa) = 79.68736 -127.98561 -24.14912
# Shear Modulus (GPa) = 33.05983 15.08054 24.07019
#
# Velocity S-wave (km/s) = 4.04999 2.73534 3.45576
# Velocity P-wave (km/s) = 7.83621 7.31594 1.98534
#
# Compressibility (1/GPa) = 0.01254904
#
# Stress axis : x y z
#
# Youngs Moduli (GPa) = 114.39392 55.50113 226.68633
#
# Poissons Ratio (x) = 0.01768 1.80994
# Poissons Ratio (y) = 0.03645 0.22848
# Poissons Ratio (z) = 0.91336 0.05594
#
# Static dielectric constant tensor:
#      x y z
#    x 2.020840 0.000000 0.456310 
#    y 0.000000 1.732930 0.000000 
#    z 0.456310 0.000000 2.428160 
# 
# From -- ./inp_files/39324.got.cif
#   From: 2010.05.17/outbox.cif.g08.bks.cpg/sg12_20_cif.got.tgz:39324.got - 2010.06.03 13:09:07.
