data_PCOD9214466
_publ_section_title
;
Structure prediction by ZEFSAII (Michael W. Deem and Ramdas Pophale) SiO2 
 PCOD9214466
Probable space group: C 2/M
;
_chemical_formula_sum "Si O2"
_cell_formula_units_Z 64
_cell_length_a 9.757616
_cell_length_b 14.044527
_cell_length_c 24.321480
_cell_angle_alpha 90.000000
_cell_angle_beta 95.018538
_cell_angle_gamma 90.000000
_cell_volume 3320.265011
_symmetry_space_group_name_H-M "C 2/M"
_symmetry_group_IT_number 12
_symmetry_cell_setting 'monoclinic'
loop_
_space_group_symop_operation_xyz
x,y,z
-x,y,-z
-x,-y,-z
x,-y,z
1/2+x,1/2+y,z
1/2-x,1/2+y,-z
1/2-x,1/2-y,-z
1/2+x,1/2-y,z
loop_
_atom_site_type_symbol
_atom_site_label
_atom_site_fract_x
_atom_site_fract_y
_atom_site_fract_z
Si Si1 0.616106 0.240323 0.958682
Si Si2 0.715898 0.267866 0.303854
Si Si3 0.494931 0.112450 0.136665
Si Si4 0.181381 0.888397 0.871207
Si Si5 0.046607 0.769189 0.772315
Si Si6 0.363179 0.885922 0.613736
Si Si7 0.672463 0.885373 0.592158
Si Si8 0.657776 0.384166 0.509298
O O1 0.600435 0.152020 0.915983
O O2 0.612363 0.331163 0.918469
O O3 0.500000 0.234914 0.000000
O O4 0.750000 0.250000 0.000000
O O5 0.854811 0.249405 0.275603
O O6 0.600916 0.298957 0.256308
O O7 0.660755 0.172411 0.331587
O O8 0.746794 0.341817 0.353468
O O9 0.654185 0.130297 0.124962
O O10 0.467310 0.175339 0.189912
O O11 0.476952 0.000000 0.145072
O O12 0.115427 0.848408 0.813177
O O13 0.160697 0.000000 0.875979
O O14 0.510803 0.860025 0.591969
O O15 0.238046 0.861713 0.568194
O O16 0.363375 0.000000 0.622684
O O17 0.747272 0.854229 0.538683
O O18 0.678752 0.000000 0.594042
O O19 0.500000 0.349710 0.500000
O O20 0.652208 0.500000 0.506933
#
# Coordination Sequence:
#
# PCOD9214466 Si02
#       8
#     8   8   8   8   8   8   8   8
#     4  11  22  39  63  98 136 163 197 255 302 345
#     4  12  24  40  61  90 121 152 202 257 310 357
#     4  10  22  41  67  91 120 170 214 241 295 369
#     4  10  22  41  65  92 123 167 211 246 299 360
#     4  11  24  42  61  88 123 158 199 263 306 346
#     4  10  22  40  62  86 116 158 200 241 302 376
#     4  10  22  40  61  86 118 157 199 244 302 372
#     4   9  19  36  59  88 121 152 190 247 307 366
#
# _framework density 19.275569999999998
#
# number of rings (size 3 to 8) (size 9 to 14) (size 15 to 20)
#    0.000    1.625    3.750    0.375    1.750    5.000 
#    0.000    1.250    0.000    0.000    0.000    0.000 
#    0.000    0.000    0.000    0.000    0.000    0.000 
#
# Total GULP energy -178747.269959 kJ/mol
# GULP energy per Si atom -5585.852186 kJ/mol
# Density = 1.923170 g / cm^3
# Si number density = 19.275570 Si / 1000 Ang^3
#
#
#
# Elastic Constant Matrix: (Units=GPa)
#
#
# Indices 1 2 3 4 5 6 
#
# 1 77.1652 3.9425 8.8644 0.0000 15.0433 0.0000
# 2 3.9425 48.5268 8.2654 0.0000 2.1320 0.0000
# 3 8.8644 8.2654 79.8415 0.0000 5.6416 0.0000
# 4 0.0000 0.0000 0.0000 11.5748 0.0000 0.0273
# 5 15.0433 2.1320 5.6416 0.0000 46.9572 0.0000
# 6 0.0000 0.0000 0.0000 0.0273 0.0000 22.0047
#
#
#
# Elastic Compliance Matrix: (Units=1/GPa)
#
#
# Indices 1 2 3 4 5 6 
#
# 1 0.013970 -0.000747 -0.001170 0.000000 -0.004301 0.000000
# 2 -0.000747 0.021040 -0.002062 0.000000 -0.000468 0.000000
# 3 -0.001170 -0.002062 0.012945 0.000000 -0.001087 0.000000
# 4 0.000000 0.000000 0.000000 0.086395 0.000000 -0.000107
# 5 -0.004301 -0.000468 -0.001087 0.000000 0.022826 0.000000
# 6 0.000000 0.000000 0.000000 -0.000107 0.000000 0.045445
#
#
# Mechanical properties :
#
#
# Convention : Reuss Voigt Hill
#
# Bulk Modulus (GPa) = 25.00158 27.51979 26.26068
# Shear Modulus (GPa) = 22.33038 28.40475 25.36756
#
# Velocity S-wave (km/s) = 3.40734 3.84293 3.63167
# Velocity P-wave (km/s) = 5.33654 5.83085 5.58917
#
# Compressibility (1/GPa) = 0.03999748
#
# Stress axis : x y z
#
# Youngs Moduli (GPa) = 71.58069 47.52929 77.25015
#
# Poissons Ratio (x) = 0.03549 0.09037
# Poissons Ratio (y) = 0.05346 0.15930
# Poissons Ratio (z) = 0.08374 0.09801
#
# Static dielectric constant tensor:
#      x y z
#    x 1.658740 0.000000 0.018840 
#    y 0.000000 1.665160 0.000000 
#    z 0.018840 0.000000 1.778380 
# 
# From -- ./inp_files/332941.got.cif
#   From: 2010.05.17/outbox.cif.g08.bks.cpg/sg12_167_cif.got.tgz:332941.got - 2010.06.03 13:09:07.
