data_PCOD9214439
_publ_section_title
;
Structure prediction by ZEFSAII (Michael W. Deem and Ramdas Pophale) SiO2 
 PCOD9214439
Probable space group: C 2/M
;
_chemical_formula_sum "Si O2"
_cell_formula_units_Z 34
_cell_length_a 10.150017
_cell_length_b 7.920271
_cell_length_c 18.230760
_cell_angle_alpha 90.000000
_cell_angle_beta 98.486298
_cell_angle_gamma 90.000000
_cell_volume 1449.540493
_symmetry_space_group_name_H-M "C 2/M"
_symmetry_group_IT_number 12
_symmetry_cell_setting 'monoclinic'
loop_
_space_group_symop_operation_xyz
x,y,z
-x,y,-z
-x,-y,-z
x,-y,z
1/2+x,1/2+y,z
1/2-x,1/2+y,-z
1/2-x,1/2-y,-z
1/2+x,1/2-y,z
loop_
_atom_site_type_symbol
_atom_site_label
_atom_site_fract_x
_atom_site_fract_y
_atom_site_fract_z
Si Si1 0.396483 0.187182 0.576752
Si Si2 0.656064 0.698225 0.831859
Si Si3 0.427674 0.295169 0.918962
Si Si4 0.811620 0.310749 0.329750
Si Si5 0.500000 0.500000 0.500000
O O1 0.282621 0.196397 0.628867
O O2 0.537060 0.205579 0.631063
O O3 0.399757 0.347421 0.523147
O O4 0.391699 0.000000 0.542113
O O5 0.638420 0.500000 0.817446
O O6 0.521593 0.761995 0.859349
O O7 0.779850 0.726526 0.896449
O O8 0.690451 0.778308 0.756900
O O9 0.421432 0.500000 0.917604
O O10 0.500000 0.244234 0.000000
O O11 0.763530 0.500000 0.338993
#
# Coordination Sequence:
#
# PCOD9214439 Si02
#       5
#     8   8   8   8   2
#     4  11  26  46  70 102 134 176 222 275 328 401
#     4  11  23  37  63  94 125 171 218 272 329 388
#     4  10  22  40  60  90 130 172 217 269 330 394
#     4  11  24  45  68  97 132 173 225 276 328 390
#     4  12  26  48  72 100 140 180 208 274 344 390
#
# _framework density 23.45571
#
# number of rings (size 3 to 8) (size 9 to 14) (size 15 to 20)
#    0.000    1.176    1.176    3.882    3.294    7.059 
#    0.000    0.000    0.000    0.000    0.000    0.000 
#    0.000    0.000    0.000    0.000    0.000    0.000 
#
# Total GULP energy -94950.703544 kJ/mol
# GULP energy per Si atom -5585.335503 kJ/mol
# Density = 2.340232 g / cm^3
# Si number density = 23.455710 Si / 1000 Ang^3
#
#
#
# Elastic Constant Matrix: (Units=GPa)
#
#
# Indices 1 2 3 4 5 6 
#
# 1 68.7508 22.9937 -11.1481 0.0000 -19.1819 0.0000
# 2 22.9937 112.5805 21.8166 0.0000 -4.4734 0.0000
# 3 -11.1481 21.8166 67.4443 0.0000 -11.4885 0.0000
# 4 0.0000 0.0000 0.0000 28.1038 0.0000 -1.8604
# 5 -19.1819 -4.4734 -11.4885 0.0000 40.6740 0.0000
# 6 0.0000 0.0000 0.0000 -1.8604 0.0000 20.1223
#
#
#
# Elastic Compliance Matrix: (Units=1/GPa)
#
#
# Indices 1 2 3 4 5 6 
#
# 1 0.020437 -0.005073 0.006898 0.000000 0.011029 0.000000
# 2 -0.005073 0.010737 -0.004746 0.000000 -0.002552 0.000000
# 3 0.006898 -0.004746 0.018876 0.000000 0.008062 0.000000
# 4 0.000000 0.000000 0.000000 0.035802 0.000000 0.003310
# 5 0.011029 -0.002552 0.008062 0.000000 0.031783 0.000000
# 6 0.000000 0.000000 0.000000 0.003310 0.000000 0.050002
#
#
# Mechanical properties :
#
#
# Convention : Reuss Voigt Hill
#
# Bulk Modulus (GPa) = 22.62057 35.12223 28.87140
# Shear Modulus (GPa) = 26.56528 32.12092 29.34310
#
# Velocity S-wave (km/s) = 3.36902 3.70459 3.54079
# Velocity P-wave (km/s) = 4.97982 5.77105 5.38998
#
# Compressibility (1/GPa) = 0.04420755
#
# Stress axis : x y z
#
# Youngs Moduli (GPa) = 48.93000 93.13634 52.97777
#
# Poissons Ratio (x) = 0.47245 -0.36542
# Poissons Ratio (y) = 0.24820 0.25145
# Poissons Ratio (z) = -0.33750 0.44205
#
# Static dielectric constant tensor:
#      x y z
#    x 1.877690 0.000000 0.016420 
#    y 0.000000 1.904250 0.000000 
#    z 0.016420 0.000000 1.870200 
# 
# From -- ./inp_files/298743.got.cif
#   From: 2010.05.17/outbox.cif.g08.bks.cpg/sg12_150_cif.got.tgz:298743.got - 2010.06.03 13:09:07.
