data_PCOD9214115
_publ_section_title
;
Structure prediction by ZEFSAII (Michael W. Deem and Ramdas Pophale) SiO2 
 PCOD9214115
Probable space group: C 2/M
;
_chemical_formula_sum "Si O2"
_cell_formula_units_Z 48
_cell_length_a 15.890133
_cell_length_b 18.557237
_cell_length_c 13.814451
_cell_angle_alpha 90.000000
_cell_angle_beta 31.912836
_cell_angle_gamma 90.000000
_cell_volume 2153.401764
_symmetry_space_group_name_H-M "C 2/M"
_symmetry_group_IT_number 12
_symmetry_cell_setting 'monoclinic'
loop_
_space_group_symop_operation_xyz
x,y,z
-x,y,-z
-x,-y,-z
x,-y,z
1/2+x,1/2+y,z
1/2-x,1/2+y,-z
1/2-x,1/2-y,-z
1/2+x,1/2-y,z
loop_
_atom_site_type_symbol
_atom_site_label
_atom_site_fract_x
_atom_site_fract_y
_atom_site_fract_z
Si Si1 0.670620 0.581779 0.695185
Si Si2 0.678740 0.172307 0.604803
Si Si3 0.847327 0.834455 0.978148
Si Si4 0.813391 0.085861 0.654139
Si Si5 0.827875 0.316502 0.041280
Si Si6 0.136599 0.581112 0.305629
O O1 0.649046 0.500000 0.682582
O O2 0.809131 0.620230 0.499476
O O3 0.512912 0.626535 0.829800
O O4 0.716363 0.579487 0.762939
O O5 0.750000 0.250000 0.500000
O O6 0.780618 0.132087 0.589118
O O7 0.500572 0.176263 0.821722
O O8 0.833511 0.767417 0.065460
O O9 0.814966 0.816095 0.898099
O O10 0.701367 0.885409 0.146490
O O11 0.000000 0.090285 0.500000
O O12 0.774134 0.000000 0.682351
O O13 0.710640 0.125516 0.838919
O O14 0.081042 0.500000 0.339039
O O15 0.000000 0.619779 0.500000
#
# Coordination Sequence:
#
# PCOD9214115 Si02
#       6
#     8   8   8   8   8   8
#     4  11  23  41  67  96 134 181 225 279 349 416
#     4  12  25  44  69 102 138 181 228 293 350 417
#     4  11  23  41  64  97 136 177 227 284 342 421
#     4  11  27  49  74 104 142 189 240 292 352 426
#     4  11  26  43  68 100 135 180 230 287 353 409
#     4  10  22  39  62  94 130 173 221 275 338 406
#
# _framework density 22.290313000000001
#
# number of rings (size 3 to 8) (size 9 to 14) (size 15 to 20)
#    0.000    1.000    1.667    4.000    4.667    8.000 
#    0.000    0.000    0.000    0.000    0.000    0.000 
#    0.000    0.000    0.000    0.000    0.000    0.000 
#
# Total GULP energy -134040.504026 kJ/mol
# GULP energy per Si atom -5585.021001 kJ/mol
# Density = 2.223958 g / cm^3
# Si number density = 22.290313 Si / 1000 Ang^3
#
#
#
# Elastic Constant Matrix: (Units=GPa)
#
#
# Indices 1 2 3 4 5 6 
#
# 1 73.3777 27.4460 -3.1911 0.0001 -2.8428 0.0006
# 2 27.4460 144.4651 39.2228 0.0019 9.2655 -0.0013
# 3 -3.1911 39.2228 101.6524 0.0022 -2.9917 -0.0019
# 4 0.0001 0.0019 0.0022 39.8831 -0.0010 5.2786
# 5 -2.8428 9.2655 -2.9917 -0.0010 36.6979 0.0006
# 6 0.0006 -0.0013 -0.0019 5.2786 0.0006 39.8184
#
#
#
# Elastic Compliance Matrix: (Units=1/GPa)
#
#
# Indices 1 2 3 4 5 6 
#
# 1 0.015117 -0.003531 0.001902 0.000000 0.002218 0.000000
# 2 -0.003531 0.008738 -0.003564 0.000000 -0.002770 0.000000
# 3 0.001902 -0.003564 0.011330 0.000000 0.001971 0.000000
# 4 0.000000 0.000000 0.000000 0.025521 0.000001 -0.003383
# 5 0.002218 -0.002770 0.001971 0.000001 0.028281 -0.000001
# 6 0.000000 0.000000 0.000000 -0.003383 -0.000001 0.025563
#
#
# Mechanical properties :
#
#
# Convention : Reuss Voigt Hill
#
# Bulk Modulus (GPa) = 40.32133 49.60561 44.96347
# Shear Modulus (GPa) = 37.53671 40.34772 38.94221
#
# Velocity S-wave (km/s) = 4.10810 4.25914 4.18430
# Velocity P-wave (km/s) = 6.37420 6.81834 6.60000
#
# Compressibility (1/GPa) = 0.02480077
#
# Stress axis : x y z
#
# Youngs Moduli (GPa) = 66.14901 114.44028 88.25860
#
# Poissons Ratio (x) = 0.40406 -0.16788
# Poissons Ratio (y) = 0.23355 0.31455
# Poissons Ratio (z) = -0.12583 0.40787
#
# Static dielectric constant tensor:
#      x y z
#    x 1.838100 0.000000 -0.003110 
#    y 0.000000 1.862490 0.000000 
#    z -0.003110 0.000000 1.835440 
# 
# From -- ./inp_files/112931.got.cif
#   From: 2010.05.17/outbox.cif.g08.bks.cpg/sg12_57_cif.got.tgz:112931.got - 2010.06.03 13:09:07.
