data_PCOD9214448
_publ_section_title
;
Structure prediction by ZEFSAII (Michael W. Deem and Ramdas Pophale) SiO2 
 PCOD9214448
Probable space group: C 2/M
;
_chemical_formula_sum "Si O2"
_cell_formula_units_Z 56
_cell_length_a 20.885959
_cell_length_b 33.018562
_cell_length_c 8.987570
_cell_angle_alpha 90.000000
_cell_angle_beta 151.499094
_cell_angle_gamma 90.000000
_cell_volume 2957.538534
_symmetry_space_group_name_H-M "C 2/M"
_symmetry_group_IT_number 12
_symmetry_cell_setting 'monoclinic'
loop_
_space_group_symop_operation_xyz
x,y,z
-x,y,-z
-x,-y,-z
x,-y,z
1/2+x,1/2+y,z
1/2-x,1/2+y,-z
1/2-x,1/2-y,-z
1/2+x,1/2-y,z
loop_
_atom_site_type_symbol
_atom_site_label
_atom_site_fract_x
_atom_site_fract_y
_atom_site_fract_z
Si Si1 0.218237 0.413318 0.077691
Si Si2 0.714304 0.635151 0.083160
Si Si3 0.495937 0.873701 0.821549
Si Si4 0.470629 0.779275 0.109684
Si Si5 0.494097 0.587987 0.819662
Si Si6 0.778276 0.000000 0.093317
Si Si7 0.254233 0.729392 0.848521
Si Si8 0.053256 0.000000 0.849166
O O1 0.344105 0.412128 0.448029
O O2 0.205479 0.458695 0.988103
O O3 0.253373 0.384152 0.011104
O O4 0.086748 0.399400 0.895840
O O5 0.694924 0.683288 0.033326
O O6 0.844313 0.627910 0.452508
O O7 0.587641 0.613445 0.899540
O O8 0.553209 0.827684 0.937666
O O9 0.500000 0.888415 0.000000
O O10 0.604419 0.771910 0.477837
O O11 0.500000 0.767169 0.000000
O O12 0.349366 0.754772 0.933688
O O13 0.549015 0.541769 0.929902
O O14 0.500000 0.603797 0.000000
O O15 0.823340 0.000000 0.013831
O O16 0.917765 0.000000 0.472213
O O17 0.250000 0.750000 0.000000
#
# Coordination Sequence:
#
# PCOD9214448 Si02
#       8
#     8   8   8   8   8   4   8   4
#     4  11  21  38  61  84 114 152 194 232 280 342
#     4  11  23  38  58  86 116 151 189 237 286 337
#     4  10  22  41  60  82 116 153 188 233 288 341
#     4  10  22  40  61  83 114 154 188 230 290 343
#     4  11  22  36  59  89 116 149 191 237 284 333
#     4   9  18  34  59  85 112 150 190 232 279 335
#     4  11  23  38  59  86 115 147 194 239 282 334
#     4   9  17  36  57  82 119 149 184 232 286 335
#
# _framework density 18.934664999999999
#
# number of rings (size 3 to 8) (size 9 to 14) (size 15 to 20)
#    0.000    1.571    1.429    3.643    0.000    6.286 
#    0.000    2.500    0.000    0.000    0.000    0.000 
#    0.000    0.000    0.000    0.000    0.000    0.000 
#
# Total GULP energy -156501.362771 kJ/mol
# GULP energy per Si atom -5589.334385 kJ/mol
# Density = 1.889157 g / cm^3
# Si number density = 18.934665 Si / 1000 Ang^3
#
#
#
# Elastic Constant Matrix: (Units=GPa)
#
#
# Indices 1 2 3 4 5 6 
#
# 1 89.9973 7.5713 -8.6483 0.0000 -4.2091 0.0000
# 2 7.5713 49.0534 -4.8545 0.0000 11.2748 0.0000
# 3 -8.6483 -4.8545 17.6868 0.0000 -8.0760 0.0000
# 4 0.0000 0.0000 0.0000 23.4302 0.0000 1.9979
# 5 -4.2091 11.2748 -8.0760 0.0000 38.1710 0.0000
# 6 0.0000 0.0000 0.0000 1.9979 0.0000 22.0873
#
#
#
# Elastic Compliance Matrix: (Units=1/GPa)
#
#
# Indices 1 2 3 4 5 6 
#
# 1 0.012099 -0.001959 0.006920 0.000000 0.003377 0.000000
# 2 -0.001959 0.022372 0.002288 0.000000 -0.006340 0.000000
# 3 0.006920 0.002288 0.067071 0.000000 0.014278 0.000000
# 4 0.000000 0.000000 0.000000 0.043012 0.000000 -0.003891
# 5 0.003377 -0.006340 0.014278 0.000000 0.031464 0.000000
# 6 0.000000 0.000000 0.000000 -0.003891 0.000000 0.045627
#
#
# Mechanical properties :
#
#
# Convention : Reuss Voigt Hill
#
# Bulk Modulus (GPa) = 8.61770 16.09717 12.35744
# Shear Modulus (GPa) = 20.33964 27.58232 23.96098
#
# Velocity S-wave (km/s) = 3.28106 3.82083 3.56118
# Velocity P-wave (km/s) = 4.34913 5.29007 4.84251
#
# Compressibility (1/GPa) = 0.11604025
#
# Stress axis : x y z
#
# Youngs Moduli (GPa) = 82.65024 44.69890 14.90968
#
# Poissons Ratio (x) = 0.08756 -0.10318
# Poissons Ratio (y) = 0.16189 -0.03411
# Poissons Ratio (z) = -0.57197 -0.10226
#
# Static dielectric constant tensor:
#      x y z
#    x 1.651240 0.000000 -0.027310 
#    y 0.000000 1.651600 0.000000 
#    z -0.027310 0.000000 1.647510 
# 
# From -- ./inp_files/91579.got.cif
#   From: 2010.05.17/outbox.cif.g08.bks.cpg/sg12_46_cif.got.tgz:91579.got - 2010.06.03 13:09:07.
