data_PCOD9214154
_publ_section_title
;
Structure prediction by ZEFSAII (Michael W. Deem and Ramdas Pophale) SiO2 
 PCOD9214154
Probable space group: C 2/M
;
_chemical_formula_sum "Si O2"
_cell_formula_units_Z 40
_cell_length_a 11.726684
_cell_length_b 10.092253
_cell_length_c 22.854484
_cell_angle_alpha 90.000000
_cell_angle_beta 141.878678
_cell_angle_gamma 90.000000
_cell_volume 1669.749135
_symmetry_space_group_name_H-M "C 2/M"
_symmetry_group_IT_number 12
_symmetry_cell_setting 'monoclinic'
loop_
_space_group_symop_operation_xyz
x,y,z
-x,y,-z
-x,-y,-z
x,-y,z
1/2+x,1/2+y,z
1/2-x,1/2+y,-z
1/2-x,1/2-y,-z
1/2+x,1/2-y,z
loop_
_atom_site_type_symbol
_atom_site_label
_atom_site_fract_x
_atom_site_fract_y
_atom_site_fract_z
Si Si1 0.772754 0.500000 0.861829
Si Si2 0.166871 0.799078 0.140333
Si Si3 0.880780 0.500000 0.144260
Si Si4 0.680236 0.500000 0.691761
Si Si5 0.514957 0.232927 0.642708
Si Si6 0.321712 0.851712 0.455302
Si Si7 0.861998 0.000000 0.059524
O O1 0.864141 0.646807 0.891562
O O2 0.662260 0.500000 0.755743
O O3 0.673829 0.500000 0.885370
O O4 0.301551 0.813798 0.251388
O O5 0.280045 0.876090 0.135390
O O6 0.981960 0.874637 0.084871
O O7 0.103539 0.500000 0.238156
O O8 0.824770 0.500000 0.053713
O O9 0.574512 0.366743 0.632930
O O10 0.389441 0.144073 0.549986
O O11 0.365720 0.275874 0.630811
O O12 0.500000 0.787811 0.500000
O O13 0.300944 0.000000 0.423704
#
# Coordination Sequence:
#
# PCOD9214154 Si02
#       7
#     4   8   4   4   8   8   4
#     4  10  25  44  72 102 135 187 232 291 355 411
#     4  10  24  46  73 102 140 188 239 292 347 430
#     4  11  26  47  70 102 143 185 237 304 351 420
#     4  10  23  44  64  99 138 178 232 288 344 424
#     4  10  22  41  61  96 132 170 229 276 348 416
#     4  10  22  39  63  92 131 173 217 285 338 413
#     4  11  26  51  70 104 146 185 242 297 358 413
#
# _framework density 23.955694999999999
#
# number of rings (size 3 to 8) (size 9 to 14) (size 15 to 20)
#    0.000    1.800    1.000    1.200   11.200    2.800 
#    7.200    0.500    0.000    0.000    0.000    0.000 
#    0.000    0.000    0.000    0.000    0.000    0.000 
#
# Total GULP energy -111526.345811 kJ/mol
# GULP energy per Si atom -5576.317291 kJ/mol
# Density = 2.390117 g / cm^3
# Si number density = 23.955695 Si / 1000 Ang^3
#
#
#
# Elastic Constant Matrix: (Units=GPa)
#
#
# Indices 1 2 3 4 5 6 
#
# 1 109.3033 50.1051 -4.2701 0.0000 6.9713 0.0000
# 2 50.1051 139.4438 17.1938 0.0000 8.4920 0.0000
# 3 -4.2701 17.1938 54.8289 0.0000 7.7802 0.0000
# 4 0.0000 0.0000 0.0000 94.1210 0.0000 -25.0141
# 5 6.9713 8.4920 7.7802 0.0000 38.3498 0.0000
# 6 0.0000 0.0000 0.0000 -25.0141 0.0000 3.2434
#
#
#
# Elastic Compliance Matrix: (Units=1/GPa)
#
#
# Indices 1 2 3 4 5 6 
#
# 1 0.011302 -0.004265 0.002445 0.000000 -0.001606 0.000000
# 2 -0.004265 0.009124 -0.003106 0.000000 -0.000615 0.000000
# 3 0.002445 -0.003106 0.019943 0.000000 -0.003803 0.000000
# 4 0.000000 0.000000 0.000000 -0.010122 0.000000 -0.078063
# 5 -0.001606 -0.000615 -0.003803 0.000000 0.027275 0.000000
# 6 0.000000 0.000000 0.000000 -0.078063 0.000000 -0.293728
#
#
# Mechanical properties :
#
#
# Convention : Reuss Voigt Hill
#
# Bulk Modulus (GPa) = 32.76762 47.73708 40.25235
# Shear Modulus (GPa) = -23.12862 43.17931 10.02534
#
# Velocity S-wave (km/s) = -3.11058 4.25015 2.04793
# Velocity P-wave (km/s) = 0.89843 6.63743 4.73618
#
# Compressibility (1/GPa) = 0.03051793
#
# Stress axis : x y z
#
# Youngs Moduli (GPa) = 88.48158 109.59881 50.14383
#
# Poissons Ratio (x) = 0.46740 -0.12263
# Poissons Ratio (y) = 0.37735 0.15575
# Poissons Ratio (z) = -0.21638 0.34043
#
# Static dielectric constant tensor:
#      x y z
#    x 1.981620 0.000000 -0.055510 
#    y 0.000000 1.965580 0.000000 
#    z -0.055510 0.000000 1.895570 
# 
# From -- ./inp_files/335428.got.cif
#   From: 2010.05.17/outbox.cif.g08.bks.cpg/sg12_168_cif.got.tgz:335428.got - 2010.06.03 13:09:07.
