data_PCOD9214613
_publ_section_title
;
Structure prediction by ZEFSAII (Michael W. Deem and Ramdas Pophale) SiO2 
 PCOD9214613
Probable space group: C 2/M
;
_chemical_formula_sum "Si O2"
_cell_formula_units_Z 56
_cell_length_a 9.328944
_cell_length_b 27.366721
_cell_length_c 11.936240
_cell_angle_alpha 90.000000
_cell_angle_beta 57.927803
_cell_angle_gamma 90.000000
_cell_volume 2582.265192
_symmetry_space_group_name_H-M "C 2/M"
_symmetry_group_IT_number 12
_symmetry_cell_setting 'monoclinic'
loop_
_space_group_symop_operation_xyz
x,y,z
-x,y,-z
-x,-y,-z
x,-y,z
1/2+x,1/2+y,z
1/2-x,1/2+y,-z
1/2-x,1/2-y,-z
1/2+x,1/2-y,z
loop_
_atom_site_type_symbol
_atom_site_label
_atom_site_fract_x
_atom_site_fract_y
_atom_site_fract_z
Si Si1 0.659706 0.643805 0.373102
Si Si2 0.026133 0.943914 0.279360
Si Si3 0.228677 0.441926 0.233702
Si Si4 0.349717 0.055476 0.986757
Si Si5 0.997133 0.636286 0.628126
Si Si6 0.696184 0.681061 0.909543
Si Si7 0.193293 0.702302 0.894697
O O1 0.500000 0.668178 0.500000
O O2 0.580886 0.593808 0.353342
O O3 0.821148 0.638952 0.387811
O O4 0.728554 0.676132 0.243464
O O5 0.875739 0.925313 0.259215
O O6 0.189581 0.946703 0.132736
O O7 0.988104 0.000000 0.333247
O O8 0.245027 0.500000 0.226320
O O9 0.055455 0.420598 0.352972
O O10 0.219010 0.426743 0.105524
O O11 0.412392 0.000000 0.935548
O O12 0.500000 0.079011 0.000000
O O13 0.000000 0.655795 0.500000
O O14 0.840447 0.659252 0.766110
O O15 0.709080 0.739287 0.878206
O O16 0.500000 0.664447 0.000000
O O17 0.732887 0.678621 0.025268
O O18 0.000000 0.693762 0.000000
#
# Coordination Sequence:
#
# PCOD9214613 Si02
#       7
#     8   8   8   8   8   8   8
#     4  12  27  44  68  99 139 182 226 283 341 406
#     4  10  22  40  62  91 129 177 232 283 337 398
#     4  10  22  40  62  91 131 178 230 283 336 398
#     4   9  17  31  55  88 122 162 214 273 331 385
#     4  12  27  45  65 101 140 180 227 277 346 409
#     4  10  24  44  77 106 135 176 220 278 336 408
#     4  10  22  48  73 105 137 173 227 275 336 401
#
# _framework density 21.686387
#
# number of rings (size 3 to 8) (size 9 to 14) (size 15 to 20)
#    0.000    1.571    1.429    2.143    6.000    5.143 
#    0.000    1.429    0.000    0.000    0.000    0.000 
#    0.000    0.000    0.000    0.000    0.000    0.000 
#
# Total GULP energy -156023.204602 kJ/mol
# GULP energy per Si atom -5572.257307 kJ/mol
# Density = 2.163703 g / cm^3
# Si number density = 21.686387 Si / 1000 Ang^3
#
#
#
# Elastic Constant Matrix: (Units=GPa)
#
#
# Indices 1 2 3 4 5 6 
#
# 1 206.5434 24.5834 67.2188 0.0000 9.0461 0.0000
# 2 24.5834 54.2545 28.9862 0.0000 8.5117 0.0000
# 3 67.2188 28.9862 146.7909 0.0000 10.8795 0.0000
# 4 0.0000 0.0000 0.0000 12.4564 0.0000 -9.5024
# 5 9.0461 8.5117 10.8795 0.0000 36.2985 0.0000
# 6 0.0000 0.0000 0.0000 -9.5024 0.0000 20.5554
#
#
#
# Elastic Compliance Matrix: (Units=1/GPa)
#
#
# Indices 1 2 3 4 5 6 
#
# 1 0.005783 -0.001291 -0.002361 0.000000 -0.000431 0.000000
# 2 -0.001291 0.021390 -0.003359 0.000000 -0.003687 0.000000
# 3 -0.002361 -0.003359 0.008647 0.000000 -0.001216 0.000000
# 4 0.000000 0.000000 0.000000 0.124014 0.000000 0.057329
# 5 -0.000431 -0.003687 -0.001216 0.000000 0.028886 0.000000
# 6 0.000000 0.000000 0.000000 0.057329 0.000000 0.075151
#
#
# Mechanical properties :
#
#
# Convention : Reuss Voigt Hill
#
# Bulk Modulus (GPa) = 45.87893 72.12951 59.00422
# Shear Modulus (GPa) = 17.53410 32.98210 25.25810
#
# Velocity S-wave (km/s) = 2.84655 3.90406 3.41647
# Velocity P-wave (km/s) = 5.65733 7.32494 6.54447
#
# Compressibility (1/GPa) = 0.02179650
#
# Stress axis : x y z
#
# Youngs Moduli (GPa) = 172.93446 46.75110 115.64659
#
# Poissons Ratio (x) = 0.06036 0.27305
# Poissons Ratio (y) = 0.22328 0.38849
# Poissons Ratio (z) = 0.40831 0.15705
#
# Static dielectric constant tensor:
#      x y z
#    x 1.864140 0.000000 0.069950 
#    y 0.000000 1.915540 0.000000 
#    z 0.069950 0.000000 1.784340 
# 
# From -- ./inp_files/125594.got.cif
#   From: 2010.05.17/outbox.cif.g08.bks.cpg/sg12_63_cif.got.tgz:125594.got - 2010.06.03 13:09:07.
