data_PCOD9214760
_publ_section_title
;
Structure prediction by ZEFSAII (Michael W. Deem and Ramdas Pophale) SiO2 
 PCOD9214760
Probable space group: C 2/M
;
_chemical_formula_sum "Si O2"
_cell_formula_units_Z 56
_cell_length_a 25.350123
_cell_length_b 15.083276
_cell_length_c 17.120030
_cell_angle_alpha 90.000000
_cell_angle_beta 21.265497
_cell_angle_gamma 90.000000
_cell_volume 2374.192790
_symmetry_space_group_name_H-M "C 2/M"
_symmetry_group_IT_number 12
_symmetry_cell_setting 'monoclinic'
loop_
_space_group_symop_operation_xyz
x,y,z
-x,y,-z
-x,-y,-z
x,-y,z
1/2+x,1/2+y,z
1/2-x,1/2+y,-z
1/2-x,1/2-y,-z
1/2+x,1/2-y,z
loop_
_atom_site_type_symbol
_atom_site_label
_atom_site_fract_x
_atom_site_fract_y
_atom_site_fract_z
Si Si1 0.699105 0.818440 0.939882
Si Si2 0.963520 0.130249 0.961310
Si Si3 0.943918 0.095318 0.666526
Si Si4 0.424724 0.746477 0.409552
Si Si5 0.149649 0.351484 0.337434
Si Si6 0.979486 0.345244 0.940463
Si Si7 0.778913 0.900342 0.513987
O O1 0.773427 0.884119 0.897150
O O2 0.805793 0.736225 0.774118
O O3 0.550285 0.780266 0.179306
O O4 0.665038 0.870067 0.906687
O O5 0.809490 0.103296 0.132389
O O6 0.000000 0.101525 0.000000
O O7 0.965867 0.238243 0.961208
O O8 0.095488 0.102746 0.723614
O O9 0.009400 0.171085 0.627122
O O10 0.000000 0.098228 0.500000
O O11 0.974616 0.000000 0.658041
O O12 0.382236 0.822329 0.529122
O O13 0.302555 0.689674 0.532814
O O14 0.000000 0.385624 0.500000
O O15 0.117931 0.383209 0.703608
O O16 0.000000 0.378140 0.000000
O O17 0.781563 0.000000 0.545574
#
# Coordination Sequence:
#
# PCOD9214760 Si02
#       7
#     8   8   8   8   8   8   8
#     4  11  21  38  64  90 119 159 208 257 298 370
#     4  10  22  41  66  91 122 166 210 263 303 366
#     4  11  23  38  58  88 127 159 193 248 318 376
#     4  12  21  38  64  89 118 161 208 249 303 369
#     4  11  21  38  64  98 121 156 217 260 307 360
#     4  10  22  40  64  90 119 158 206 254 305 365
#     4  12  25  39  61  93 128 162 203 255 318 378
#
# _framework density 23.586963999999998
#
# number of rings (size 3 to 8) (size 9 to 14) (size 15 to 20)
#    0.000    1.000    5.714    3.857    2.000    1.143 
#    0.000    0.000    0.000    0.429    0.000    0.000 
#    0.000    0.000    0.000    0.000    0.000    0.000 
#
# Total GULP energy -156228.356176 kJ/mol
# GULP energy per Si atom -5579.584149 kJ/mol
# Density = 2.353328 g / cm^3
# Si number density = 23.586964 Si / 1000 Ang^3
#
#
#
# Elastic Constant Matrix: (Units=GPa)
#
#
# Indices 1 2 3 4 5 6 
#
# 1 73.7420 6.0254 31.8212 0.0000 -21.8181 -0.0001
# 2 6.0254 41.1965 15.6155 0.0000 -3.7725 -0.0001
# 3 31.8212 15.6155 105.4551 0.0000 -16.1226 0.0000
# 4 0.0000 0.0000 0.0000 -29.4471 0.0000 28.6103
# 5 -21.8181 -3.7725 -16.1226 0.0000 43.6441 0.0000
# 6 -0.0001 -0.0001 0.0000 28.6103 0.0000 -7.1483
#
#
#
# Elastic Compliance Matrix: (Units=1/GPa)
#
#
# Indices 1 2 3 4 5 6 
#
# 1 0.017499 -0.000335 -0.004131 0.000000 0.007193 0.000000
# 2 -0.000335 0.025755 -0.003601 0.000000 0.000728 0.000000
# 3 -0.004131 -0.003601 0.011552 0.000000 0.001891 0.000000
# 4 0.000000 0.000000 0.000000 0.011756 0.000000 0.047053
# 5 0.007193 0.000728 0.001891 0.000000 0.027270 0.000000
# 6 0.000000 0.000000 0.000000 0.047053 0.000000 0.048429
#
#
# Mechanical properties :
#
#
# Convention : Reuss Voigt Hill
#
# Bulk Modulus (GPa) = 25.85929 36.36865 31.11397
# Shear Modulus (GPa) = 29.19114 12.53849 20.86482
#
# Velocity S-wave (km/s) = 3.52177 2.30812 2.97743
# Velocity P-wave (km/s) = 5.24636 4.74928 5.00399
#
# Compressibility (1/GPa) = 0.03867082
#
# Stress axis : x y z
#
# Youngs Moduli (GPa) = 57.14624 38.82798 86.56808
#
# Poissons Ratio (x) = 0.01300 0.35762
# Poissons Ratio (y) = 0.01914 0.31175
# Poissons Ratio (z) = 0.23607 0.13983
#
# Static dielectric constant tensor:
#      x y z
#    x 1.967380 0.000000 0.023620 
#    y 0.000000 1.872490 0.000000 
#    z 0.023620 0.000000 1.974160 
# 
# From -- ./inp_files/293863.got.cif
#   From: 2010.05.17/outbox.cif.g08.bks.cpg/sg12_147_cif.got.tgz:293863.got - 2010.06.03 13:09:07.
