data_PCOD9214957
_publ_section_title
;
Structure prediction by ZEFSAII (Michael W. Deem and Ramdas Pophale) SiO2 
 PCOD9214957
Probable space group: C 2/M
;
_chemical_formula_sum "Si O2"
_cell_formula_units_Z 56
_cell_length_a 28.905625
_cell_length_b 19.888837
_cell_length_c 9.257049
_cell_angle_alpha 90.000000
_cell_angle_beta 149.401923
_cell_angle_gamma 90.000000
_cell_volume 2708.898830
_symmetry_space_group_name_H-M "C 2/M"
_symmetry_group_IT_number 12
_symmetry_cell_setting 'monoclinic'
loop_
_space_group_symop_operation_xyz
x,y,z
-x,y,-z
-x,-y,-z
x,-y,z
1/2+x,1/2+y,z
1/2-x,1/2+y,-z
1/2-x,1/2-y,-z
1/2+x,1/2-y,z
loop_
_atom_site_type_symbol
_atom_site_label
_atom_site_fract_x
_atom_site_fract_y
_atom_site_fract_z
Si Si1 0.108003 0.077882 0.288754
Si Si2 0.092395 0.674240 0.325340
Si Si3 0.240918 0.574108 0.084167
Si Si4 0.405488 0.316924 0.173384
Si Si5 0.844347 0.213950 0.711933
Si Si6 0.098409 0.687040 0.686718
Si Si7 0.754319 0.924036 0.773858
O O1 0.158876 0.083048 0.579637
O O2 0.159065 0.135270 0.335557
O O3 0.117845 0.000000 0.266205
O O4 0.000000 0.092521 0.000000
O O5 0.117531 0.745749 0.322128
O O6 0.087461 0.679417 0.485250
O O7 0.170595 0.620912 0.495956
O O8 0.000000 0.652421 0.000000
O O9 0.208857 0.500000 0.046709
O O10 0.169512 0.631544 0.933277
O O11 0.245906 0.573549 0.925117
O O12 0.500000 0.334941 0.500000
O O13 0.363516 0.260486 0.166769
O O14 0.409840 0.282118 0.027869
O O15 0.344681 0.381913 0.990237
O O16 0.750000 0.250000 0.500000
O O17 0.000000 0.681238 0.500000
O O18 0.754931 0.000000 0.719888
#
# Coordination Sequence:
#
# PCOD9214957 Si02
#       7
#     8   8   8   8   8   8   8
#     4  10  23  40  62  92 129 173 219 269 325 387
#     4  11  23  41  68  95 128 170 210 269 326 375
#     4   9  20  38  62  90 124 166 213 261 318 383
#     4  11  24  40  63  93 129 168 214 262 318 379
#     4  12  24  42  63  98 134 169 217 271 323 390
#     4  10  22  40  66  95 127 163 218 262 322 385
#     4  10  23  41  62  91 126 171 217 258 320 387
#
# _framework density 20.672606999999999
#
# number of rings (size 3 to 8) (size 9 to 14) (size 15 to 20)
#    0.000    1.571    1.429    3.000    4.000    2.571 
#    0.000    0.000    0.000    0.000    0.000    0.000 
#    0.000    0.000    0.000    0.000    0.000    0.000 
#
# Total GULP energy -156342.187047 kJ/mol
# GULP energy per Si atom -5583.649537 kJ/mol
# Density = 2.062556 g / cm^3
# Si number density = 20.672607 Si / 1000 Ang^3
#
#
#
# Elastic Constant Matrix: (Units=GPa)
#
#
# Indices 1 2 3 4 5 6 
#
# 1 59.2134 32.9918 25.9655 0.0000 0.1296 0.0000
# 2 32.9918 146.0162 49.8685 0.0000 11.0444 0.0000
# 3 25.9655 49.8685 118.7440 0.0000 -4.2300 0.0000
# 4 0.0000 0.0000 0.0000 27.5988 0.0000 26.9371
# 5 0.1296 11.0444 -4.2300 0.0000 26.8403 0.0000
# 6 0.0000 0.0000 0.0000 26.9371 0.0000 79.8160
#
#
#
# Elastic Compliance Matrix: (Units=1/GPa)
#
#
# Indices 1 2 3 4 5 6 
#
# 1 0.020170 -0.003661 -0.002839 0.000000 0.000961 0.000000
# 2 -0.003661 0.009074 -0.003160 0.000000 -0.004214 0.000000
# 3 -0.002839 -0.003160 0.010475 0.000000 0.002965 0.000000
# 4 0.000000 0.000000 0.000000 0.054031 0.000000 -0.018235
# 5 0.000961 -0.004214 0.002965 0.000000 0.039454 0.000000
# 6 0.000000 0.000000 0.000000 -0.018235 0.000000 0.018683
#
#
# Mechanical properties :
#
#
# Convention : Reuss Voigt Hill
#
# Bulk Modulus (GPa) = 49.02099 60.18058 54.60079
# Shear Modulus (GPa) = 28.08875 41.19421 34.64148
#
# Velocity S-wave (km/s) = 3.69011 4.46880 4.09800
# Velocity P-wave (km/s) = 6.47460 7.47003 6.99006
#
# Compressibility (1/GPa) = 0.02039942
#
# Stress axis : x y z
#
# Youngs Moduli (GPa) = 49.57752 110.20838 95.46398
#
# Poissons Ratio (x) = 0.40342 0.27103
# Poissons Ratio (y) = 0.18148 0.30170
# Poissons Ratio (z) = 0.14075 0.34830
#
# Static dielectric constant tensor:
#      x y z
#    x 1.759990 0.000000 -0.005650 
#    y 0.000000 1.757450 0.000000 
#    z -0.005650 0.000000 1.732050 
# 
# From -- ./inp_files/113400.got.cif
#   From: 2010.05.17/outbox.cif.g08.bks.cpg/sg12_57_cif.got.tgz:113400.got - 2010.06.03 13:09:07.
