data_PCOD9214978
_publ_section_title
;
Structure prediction by ZEFSAII (Michael W. Deem and Ramdas Pophale) SiO2 
 PCOD9214978
Probable space group: C 2/M
;
_chemical_formula_sum "Si O2"
_cell_formula_units_Z 28
_cell_length_a 5.065366
_cell_length_b 20.492856
_cell_length_c 11.748228
_cell_angle_alpha 90.000000
_cell_angle_beta 78.447316
_cell_angle_gamma 90.000000
_cell_volume 1194.804790
_symmetry_space_group_name_H-M "C 2/M"
_symmetry_group_IT_number 12
_symmetry_cell_setting 'monoclinic'
loop_
_space_group_symop_operation_xyz
x,y,z
-x,y,-z
-x,-y,-z
x,-y,z
1/2+x,1/2+y,z
1/2-x,1/2+y,-z
1/2-x,1/2-y,-z
1/2+x,1/2-y,z
loop_
_atom_site_type_symbol
_atom_site_label
_atom_site_fract_x
_atom_site_fract_y
_atom_site_fract_z
Si Si1 0.283895 0.500000 0.910592
Si Si2 0.833159 0.209728 0.116963
Si Si3 0.500000 0.700633 0.500000
Si Si4 0.475650 0.387500 0.720894
Si Si5 0.778729 0.000000 0.420877
O O1 0.307291 0.435823 0.822601
O O2 0.500000 0.500000 0.000000
O O3 0.000000 0.500000 0.000000
O O4 0.524343 0.226539 0.120006
O O5 0.872817 0.166296 0.220342
O O6 0.000000 0.177098 0.000000
O O7 0.750000 0.750000 0.500000
O O8 0.604106 0.652919 0.387096
O O9 0.693227 0.437615 0.657764
O O10 0.500000 0.000000 0.500000
O O11 0.000000 0.000000 0.500000
#
# Coordination Sequence:
#
# PCOD9214978 Si02
#       5
#     4   8   4   8   4
#     4  11  28  48  75 112 140 193 249 303 376 438
#     4  10  22  40  66  98 135 181 228 282 351 411
#     4  12  28  45  74 111 148 198 250 294 372 444
#     4  11  25  47  75 101 152 182 243 302 360 431
#     4  11  26  45  68 100 134 187 229 283 359 417
#
# _framework density 23.434788000000001
#
# number of rings (size 3 to 8) (size 9 to 14) (size 15 to 20)
#    0.000    1.143    1.429    2.571    2.000   14.857 
#    0.000    0.000    0.000    0.000    0.000    0.000 
#    0.000    0.000    0.000    0.000    0.000    0.000 
#
# Total GULP energy -77996.988939 kJ/mol
# GULP energy per Si atom -5571.213496 kJ/mol
# Density = 2.338145 g / cm^3
# Si number density = 23.434788 Si / 1000 Ang^3
#
#
#
# Elastic Constant Matrix: (Units=GPa)
#
#
# Indices 1 2 3 4 5 6 
#
# 1 109.9413 32.1921 45.2440 0.0000 -15.1657 0.0000
# 2 32.1921 123.0093 72.3247 0.0000 4.0520 0.0000
# 3 45.2440 72.3247 174.7585 0.0000 -0.8308 0.0000
# 4 0.0000 0.0000 0.0000 55.1468 0.0000 12.6459
# 5 -15.1657 4.0520 -0.8308 0.0000 41.3418 0.0000
# 6 0.0000 0.0000 0.0000 12.6459 0.0000 -22.5462
#
#
#
# Elastic Compliance Matrix: (Units=1/GPa)
#
#
# Indices 1 2 3 4 5 6 
#
# 1 0.011065 -0.001799 -0.002100 0.000000 0.004193 0.000000
# 2 -0.001799 0.011091 -0.004133 0.000000 -0.001830 0.000000
# 3 -0.002100 -0.004133 0.007975 0.000000 -0.000205 0.000000
# 4 0.000000 0.000000 0.000000 0.016067 0.000000 0.009012
# 5 0.004193 -0.001830 -0.000205 0.000000 0.025902 0.000000
# 6 0.000000 0.000000 0.000000 0.009012 0.000000 -0.039299
#
#
# Mechanical properties :
#
#
# Convention : Reuss Voigt Hill
#
# Bulk Modulus (GPa) = 71.08908 78.58121 74.83515
# Shear Modulus (GPa) = 93.36267 31.98503 62.67385
#
# Velocity S-wave (km/s) = 6.31869 3.69840 5.17706
# Velocity P-wave (km/s) = 9.14523 7.20015 8.23035
#
# Compressibility (1/GPa) = 0.01406686
#
# Stress axis : x y z
#
# Youngs Moduli (GPa) = 90.37252 90.16724 125.38682
#
# Poissons Ratio (x) = 0.16222 0.26334
# Poissons Ratio (y) = 0.16259 0.51820
# Poissons Ratio (z) = 0.18980 0.37264
#
# Static dielectric constant tensor:
#      x y z
#    x 1.845550 0.000000 0.049360 
#    y 0.000000 1.881470 0.000000 
#    z 0.049360 0.000000 1.956040 
# 
# From -- ./inp_files/114500.got.cif
#   From: 2010.05.17/outbox.cif.g08.bks.cpg/sg12_58_cif.got.tgz:114500.got - 2010.06.03 13:09:07.
