data_PCOD9214169
_publ_section_title
;
Structure prediction by ZEFSAII (Michael W. Deem and Ramdas Pophale) SiO2 
 PCOD9214169
Probable space group: C 2/M
;
_chemical_formula_sum "Si O2"
_cell_formula_units_Z 60
_cell_length_a 13.377832
_cell_length_b 14.374061
_cell_length_c 25.604021
_cell_angle_alpha 90.000000
_cell_angle_beta 147.075000
_cell_angle_gamma 90.000000
_cell_volume 2676.119524
_symmetry_space_group_name_H-M "C 2/M"
_symmetry_group_IT_number 12
_symmetry_cell_setting 'monoclinic'
loop_
_space_group_symop_operation_xyz
x,y,z
-x,y,-z
-x,-y,-z
x,-y,z
1/2+x,1/2+y,z
1/2-x,1/2+y,-z
1/2-x,1/2-y,-z
1/2+x,1/2-y,z
loop_
_atom_site_type_symbol
_atom_site_label
_atom_site_fract_x
_atom_site_fract_y
_atom_site_fract_z
Si Si1 0.259161 0.000000 0.037235
Si Si2 0.460279 0.644745 0.110282
Si Si3 0.065551 0.646064 0.137295
Si Si4 0.916607 0.732509 0.519543
Si Si5 0.680139 0.611104 0.657410
Si Si6 0.374133 0.893191 0.305842
Si Si7 0.318763 0.392986 0.156206
Si Si8 0.061541 0.728398 0.308311
O O1 0.420293 0.920703 0.101122
O O2 0.099637 0.918731 0.963838
O O3 0.485681 0.750917 0.106579
O O4 0.656548 0.613299 0.219951
O O5 0.311277 0.622693 0.090518
O O6 0.248542 0.635110 0.253406
O O7 0.134848 0.621084 0.109739
O O8 0.700049 0.735583 0.414200
O O9 0.000000 0.707145 0.500000
O O10 0.987627 0.836891 0.563349
O O11 0.008081 0.660563 0.599195
O O12 0.676112 0.500000 0.647369
O O13 0.819739 0.666041 0.679892
O O14 0.412925 0.838983 0.269179
O O15 0.430443 0.000000 0.326960
O O16 0.377255 0.500000 0.190161
O O17 0.462940 0.315322 0.238512
#
# Coordination Sequence:
#
# PCOD9214169 Si02
#       8
#     4   8   8   8   8   8   8   8
#     4  12  26  45  72 103 130 172 242 271 340 421
#     4  12  24  44  68  98 135 174 217 285 350 398
#     4  12  24  44  70  99 131 177 222 283 339 404
#     4  10  22  39  63  95 131 178 237 285 321 404
#     4  11  21  41  68  95 136 181 228 280 342 400
#     4  12  23  41  65  93 137 184 220 277 354 403
#     4  12  23  42  74  99 136 182 226 278 342 407
#     4  11  23  40  67  99 138 179 233 277 334 408
#
# _framework density 22.420524
#
# number of rings (size 3 to 8) (size 9 to 14) (size 15 to 20)
#    0.000    0.533    6.667    2.000    0.000    4.800 
#    0.000    0.000    0.000    4.000    0.000    0.000 
#    0.000    0.000    0.000    0.000    0.000    0.000 
#
# Total GULP energy -167296.929399 kJ/mol
# GULP energy per Si atom -5576.564313 kJ/mol
# Density = 2.236949 g / cm^3
# Si number density = 22.420524 Si / 1000 Ang^3
#
#
#
# Elastic Constant Matrix: (Units=GPa)
#
#
# Indices 1 2 3 4 5 6 
#
# 1 73.0970 4.4445 -13.1476 0.0000 2.7805 0.0000
# 2 4.4445 195.1896 -1.7491 0.0000 4.8641 0.0000
# 3 -13.1476 -1.7491 47.1341 0.0004 4.8246 -0.0001
# 4 0.0000 0.0000 0.0004 -0.1256 0.0000 33.5038
# 5 2.7805 4.8641 4.8246 0.0000 22.4757 0.0000
# 6 0.0000 0.0000 -0.0001 33.5038 0.0000 11.7988
#
#
#
# Elastic Compliance Matrix: (Units=1/GPa)
#
#
# Indices 1 2 3 4 5 6 
#
# 1 0.014575 -0.000226 0.004332 0.000000 -0.002684 0.000000
# 2 -0.000226 0.005159 0.000245 0.000000 -0.001141 0.000000
# 3 0.004332 0.000245 0.022999 0.000000 -0.005526 0.000000
# 4 0.000000 0.000000 0.000000 -0.010497 0.000000 0.029808
# 5 -0.002684 -0.001141 -0.005526 0.000000 0.046258 0.000000
# 6 0.000000 0.000000 0.000000 0.029808 0.000000 0.000112
#
#
# Mechanical properties :
#
#
# Convention : Reuss Voigt Hill
#
# Bulk Modulus (GPa) = 19.44176 32.72404 26.08290
# Shear Modulus (GPa) = 57.43885 28.55462 42.99674
#
# Velocity S-wave (km/s) = 5.06700 3.57262 4.38395
# Velocity P-wave (km/s) = 6.55156 5.62542 6.10607
#
# Compressibility (1/GPa) = 0.05143567
#
# Stress axis : x y z
#
# Youngs Moduli (GPa) = 68.60831 193.83572 43.47989
#
# Poissons Ratio (x) = 0.04384 -0.18836
# Poissons Ratio (y) = 0.01552 -0.01066
# Poissons Ratio (z) = -0.29721 -0.04752
#
# Static dielectric constant tensor:
#      x y z
#    x 1.938880 0.000000 0.000250 
#    y 0.000000 1.766750 0.000000 
#    z 0.000250 0.000000 1.867410 
# 
# From -- ./inp_files/376507.got.cif
#   From: 2010.05.17/outbox.cif.g08.bks.cpg/sg12_189_cif.got.tgz:376507.got - 2010.06.03 13:09:07.
