data_PCOD9214027
_publ_section_title
;
Structure prediction by ZEFSAII (Michael W. Deem and Ramdas Pophale) SiO2 
 PCOD9214027
Probable space group: C 2/M
;
_chemical_formula_sum "Si O2"
_cell_formula_units_Z 40
_cell_length_a 28.971250
_cell_length_b 7.427500
_cell_length_c 9.581012
_cell_angle_alpha 90.000000
_cell_angle_beta 80.859042
_cell_angle_gamma 90.000000
_cell_volume 2035.497780
_symmetry_space_group_name_H-M "C 2/M"
_symmetry_group_IT_number 12
_symmetry_cell_setting 'monoclinic'
loop_
_space_group_symop_operation_xyz
x,y,z
-x,y,-z
-x,-y,-z
x,-y,z
1/2+x,1/2+y,z
1/2-x,1/2+y,-z
1/2-x,1/2-y,-z
1/2+x,1/2-y,z
loop_
_atom_site_type_symbol
_atom_site_label
_atom_site_fract_x
_atom_site_fract_y
_atom_site_fract_z
Si Si1 0.384923 0.215503 0.022483
Si Si2 0.111276 0.716754 0.649025
Si Si3 0.204375 0.285212 0.113858
Si Si4 0.460396 0.500000 0.904812
Si Si5 0.031404 0.000000 0.620924
Si Si6 0.296657 0.215102 0.567030
O O1 0.340045 0.275585 0.954846
O O2 0.428273 0.325800 0.942113
O O3 0.390773 0.000000 0.005205
O O4 0.379928 0.253158 0.190431
O O5 0.104809 0.500000 0.636880
O O6 0.156721 0.774526 0.537555
O O7 0.066036 0.828936 0.622878
O O8 0.199916 0.500000 0.127452
O O9 0.206640 0.214777 0.271958
O O10 0.250000 0.250000 0.000000
O O11 0.490636 0.500000 0.753336
O O12 0.500000 0.500000 0.000000
O O13 0.000000 0.000000 0.500000
O O14 0.250000 0.250000 0.500000
O O15 0.300719 0.000000 0.573827
#
# Coordination Sequence:
#
# PCOD9214027 Si02
#       6
#     8   8   8   4   4   8
#     4  10  22  41  67  93 127 165 209 265 320 376
#     4  10  22  43  66  91 128 167 209 262 321 378
#     4  10  22  39  61  93 125 163 208 256 315 378
#     4  12  24  44  66  98 126 166 220 266 318 374
#     4  12  28  44  64  98 128 168 222 264 318 380
#     4  10  22  39  61  91 126 167 206 252 316 381
#
# _framework density 19.651212000000001
#
# number of rings (size 3 to 8) (size 9 to 14) (size 15 to 20)
#    0.000    1.600    2.000    1.200    5.600    4.000 
#    0.000    0.000    0.000    0.000    0.000    0.000 
#    0.000    0.000    0.000    0.000    0.000    0.000 
#
# Total GULP energy -111678.296299 kJ/mol
# GULP energy per Si atom -5583.914815 kJ/mol
# Density = 1.960649 g / cm^3
# Si number density = 19.651212 Si / 1000 Ang^3
#
#
#
# Elastic Constant Matrix: (Units=GPa)
#
#
# Indices 1 2 3 4 5 6 
#
# 1 211.0227 54.1229 138.1248 0.0000 2.3226 0.0000
# 2 54.1229 79.9769 49.4570 0.0000 -0.3999 0.0000
# 3 138.1248 49.4570 223.1784 0.0000 -1.9437 0.0000
# 4 0.0000 0.0000 0.0000 17.0108 0.0000 -6.3650
# 5 2.3226 -0.3999 -1.9437 0.0000 48.5828 0.0000
# 6 0.0000 0.0000 0.0000 -6.3650 0.0000 42.8007
#
#
#
# Elastic Compliance Matrix: (Units=1/GPa)
#
#
# Indices 1 2 3 4 5 6 
#
# 1 0.008527 -0.002905 -0.004639 0.000000 -0.000617 0.000000
# 2 -0.002905 0.015479 -0.001631 0.000000 0.000201 0.000000
# 3 -0.004639 -0.001631 0.007718 0.000000 0.000517 0.000000
# 4 0.000000 0.000000 0.000000 0.062250 0.000000 0.009257
# 5 -0.000617 0.000201 0.000517 0.000000 0.020635 0.000000
# 6 0.000000 0.000000 0.000000 0.009257 0.000000 0.024741
#
#
# Mechanical properties :
#
#
# Convention : Reuss Voigt Hill
#
# Bulk Modulus (GPa) = 74.76895 110.84303 92.80599
# Shear Modulus (GPa) = 30.83429 39.84374 35.33902
#
# Velocity S-wave (km/s) = 3.96546 4.50771 4.24525
# Velocity P-wave (km/s) = 7.68746 9.14441 8.44741
#
# Compressibility (1/GPa) = 0.01337454
#
# Stress axis : x y z
#
# Youngs Moduli (GPa) = 117.27181 64.60450 129.57245
#
# Poissons Ratio (x) = 0.18767 0.60110
# Poissons Ratio (y) = 0.34067 0.21127
# Poissons Ratio (z) = 0.54404 0.10534
#
# Static dielectric constant tensor:
#      x y z
#    x 1.612220 0.000000 0.018390 
#    y 0.000000 1.712320 0.000000 
#    z 0.018390 0.000000 1.692850 
# 
# From -- ./inp_files/92876.got.cif
#   From: 2010.05.17/outbox.cif.g08.bks.cpg/sg12_47_cif.got.tgz:92876.got - 2010.06.03 13:09:07.
