data_PCOD9214108
_publ_section_title
;
Structure prediction by ZEFSAII (Michael W. Deem and Ramdas Pophale) SiO2 
 PCOD9214108
Probable space group: C 2/M
;
_chemical_formula_sum "Si O2"
_cell_formula_units_Z 56
_cell_length_a 9.791786
_cell_length_b 13.374887
_cell_length_c 21.816913
_cell_angle_alpha 90.000000
_cell_angle_beta 96.796671
_cell_angle_gamma 90.000000
_cell_volume 2837.151361
_symmetry_space_group_name_H-M "C 2/M"
_symmetry_group_IT_number 12
_symmetry_cell_setting 'monoclinic'
loop_
_space_group_symop_operation_xyz
x,y,z
-x,y,-z
-x,-y,-z
x,-y,z
1/2+x,1/2+y,z
1/2-x,1/2+y,-z
1/2-x,1/2-y,-z
1/2+x,1/2-y,z
loop_
_atom_site_type_symbol
_atom_site_label
_atom_site_fract_x
_atom_site_fract_y
_atom_site_fract_z
Si Si1 0.571732 0.880985 0.138837
Si Si2 0.495559 0.119412 0.426234
Si Si3 0.772202 0.619732 0.162143
Si Si4 0.131617 0.227278 0.042343
Si Si5 0.106339 0.882833 0.271956
Si Si6 0.297050 0.381772 0.252530
Si Si7 0.232402 0.257090 0.370753
O O1 0.428311 0.847162 0.160674
O O2 0.589417 0.828779 0.074776
O O3 0.693063 0.855946 0.192457
O O4 0.569167 0.000000 0.131331
O O5 0.500000 0.117531 0.500000
O O6 0.364483 0.191241 0.400840
O O7 0.636972 0.172668 0.409318
O O8 0.484014 0.000000 0.405266
O O9 0.769190 0.500000 0.160257
O O10 0.684253 0.659191 0.100657
O O11 0.713695 0.647396 0.225315
O O12 0.250000 0.250000 0.000000
O O13 0.000000 0.185066 0.000000
O O14 0.130101 0.823582 0.335224
O O15 0.953091 0.866106 0.239696
O O16 0.123728 0.000000 0.284750
O O17 0.277587 0.500000 0.263385
O O18 0.275729 0.325162 0.315170
#
# Coordination Sequence:
#
# PCOD9214108 Si02
#       7
#     8   8   8   8   8   8   8
#     4  10  23  42  63  87 122 162 201 255 323 386
#     4  11  26  46  68 100 140 182 232 279 323 391
#     4  10  23  42  62  88 123 160 203 259 324 385
#     4  12  25  40  60  85 115 157 209 259 308 375
#     4  10  22  39  62  94 127 159 207 268 328 394
#     4  10  22  39  62  94 126 160 207 263 327 397
#     4  12  22  42  70  97 132 180 220 274 336 388
#
# _framework density 19.738108
#
# number of rings (size 3 to 8) (size 9 to 14) (size 15 to 20)
#    0.000    1.286    2.857    2.143    4.000    3.429 
#    0.000    0.000    0.000    3.429    0.000    0.000 
#    0.000    0.000    0.000    0.000    0.000    0.000 
#
# Total GULP energy -156303.270621 kJ/mol
# GULP energy per Si atom -5582.259665 kJ/mol
# Density = 1.969318 g / cm^3
# Si number density = 19.738108 Si / 1000 Ang^3
#
#
#
# Elastic Constant Matrix: (Units=GPa)
#
#
# Indices 1 2 3 4 5 6 
#
# 1 94.6910 23.2883 22.4354 0.0000 -6.4313 0.0000
# 2 23.2883 98.6121 24.7043 0.0000 -7.1188 0.0000
# 3 22.4354 24.7043 76.5573 0.0000 -12.2509 0.0000
# 4 0.0000 0.0000 0.0000 27.9903 0.0000 12.3151
# 5 -6.4313 -7.1188 -12.2509 0.0000 45.0187 0.0000
# 6 0.0000 0.0000 0.0000 12.3151 0.0000 11.3415
#
#
#
# Elastic Compliance Matrix: (Units=1/GPa)
#
#
# Indices 1 2 3 4 5 6 
#
# 1 0.011743 -0.002058 -0.002678 0.000000 0.000624 0.000000
# 2 -0.002058 0.011422 -0.002970 0.000000 0.000704 0.000000
# 3 -0.002678 -0.002970 0.015337 0.000000 0.003321 0.000000
# 4 0.000000 0.000000 0.000000 0.068408 0.000000 -0.074280
# 5 0.000624 0.000704 0.003321 0.000000 0.023317 0.000000
# 6 0.000000 0.000000 0.000000 -0.074280 0.000000 0.168829
#
#
# Mechanical properties :
#
#
# Convention : Reuss Voigt Hill
#
# Bulk Modulus (GPa) = 43.30651 45.63513 44.47082
# Shear Modulus (GPa) = 15.52007 30.16559 22.84283
#
# Velocity S-wave (km/s) = 2.80715 3.91358 3.40560
# Velocity P-wave (km/s) = 5.70043 6.60242 6.16794
#
# Compressibility (1/GPa) = 0.02309122
#
# Stress axis : x y z
#
# Youngs Moduli (GPa) = 85.15359 87.55410 65.20296
#
# Poissons Ratio (x) = 0.18014 0.17460
# Poissons Ratio (y) = 0.17520 0.19365
# Poissons Ratio (z) = 0.22802 0.26004
#
# Static dielectric constant tensor:
#      x y z
#    x 1.715380 0.000000 0.001710 
#    y 0.000000 1.742800 0.000000 
#    z 0.001710 0.000000 1.634120 
# 
# From -- ./inp_files/300127.got.cif
#   From: 2010.05.17/outbox.cif.g08.bks.cpg/sg12_151_cif.got.tgz:300127.got - 2010.06.03 13:09:07.
