data_PCOD9214164
_publ_section_title
;
Structure prediction by ZEFSAII (Michael W. Deem and Ramdas Pophale) SiO2 
 PCOD9214164
Probable space group: C 2/M
;
_chemical_formula_sum "Si O2"
_cell_formula_units_Z 42
_cell_length_a 18.898640
_cell_length_b 7.722555
_cell_length_c 14.046834
_cell_angle_alpha 90.000000
_cell_angle_beta 115.787327
_cell_angle_gamma 90.000000
_cell_volume 1845.919431
_symmetry_space_group_name_H-M "C 2/M"
_symmetry_group_IT_number 12
_symmetry_cell_setting 'monoclinic'
loop_
_space_group_symop_operation_xyz
x,y,z
-x,y,-z
-x,-y,-z
x,-y,z
1/2+x,1/2+y,z
1/2-x,1/2+y,-z
1/2-x,1/2-y,-z
1/2+x,1/2-y,z
loop_
_atom_site_type_symbol
_atom_site_label
_atom_site_fract_x
_atom_site_fract_y
_atom_site_fract_z
Si Si1 0.264247 0.210124 0.305407
Si Si2 0.000000 0.500000 0.000000
Si Si3 0.050891 0.813510 0.914234
Si Si4 0.578590 0.788968 0.492244
Si Si5 0.192415 0.293738 0.879829
Si Si6 0.594522 0.797055 0.281995
O O1 0.341864 0.265815 0.408353
O O2 0.274218 0.265768 0.201830
O O3 0.184669 0.277733 0.305591
O O4 0.260735 0.000000 0.306164
O O5 0.943000 0.653237 0.011205
O O6 0.109094 0.785866 0.859709
O O7 0.963285 0.804284 0.821046
O O8 0.068827 0.000000 0.968702
O O9 0.500000 0.729524 0.500000
O O10 0.581566 0.741781 0.383133
O O11 0.577789 0.000000 0.494074
O O12 0.182416 0.500000 0.867285
O O13 0.250000 0.250000 0.000000
O O14 0.571363 0.000000 0.256672
#
# Coordination Sequence:
#
# PCOD9214164 Si02
#       6
#     8   2   8   8   8   8
#     4  10  22  39  63  94 129 177 229 278 337 403
#     4  12  26  48  72  98 138 172 234 280 326 410
#     4  12  26  45  70 100 135 178 223 281 339 398
#     4   9  18  36  64  92 126 175 226 278 339 403
#     4  11  24  43  65  94 134 178 230 282 336 403
#     4  11  22  39  64  96 135 174 222 280 339 402
#
# _framework density 22.752890000000001
#
# number of rings (size 3 to 8) (size 9 to 14) (size 15 to 20)
#    0.000    1.333    1.905    3.143    2.667    4.571 
#    0.000    0.952    0.000    4.000    0.000    0.000 
#    0.000    0.000    0.000    0.000    0.000    0.000 
#
# Total GULP energy -117299.521521 kJ/mol
# GULP energy per Si atom -5585.691501 kJ/mol
# Density = 2.270110 g / cm^3
# Si number density = 22.752890 Si / 1000 Ang^3
#
#
#
# Elastic Constant Matrix: (Units=GPa)
#
#
# Indices 1 2 3 4 5 6 
#
# 1 170.9297 18.5836 35.4091 0.0000 -11.5587 0.0000
# 2 18.5836 119.3037 17.4464 0.0000 -13.6516 0.0000
# 3 35.4091 17.4464 72.1659 0.0000 -1.4565 0.0000
# 4 0.0000 0.0000 0.0000 7.9857 0.0000 7.5732
# 5 -11.5587 -13.6516 -1.4565 0.0000 46.7859 0.0000
# 6 0.0000 0.0000 0.0000 7.5732 0.0000 25.0185
#
#
#
# Elastic Compliance Matrix: (Units=1/GPa)
#
#
# Indices 1 2 3 4 5 6 
#
# 1 0.006640 -0.000414 -0.003129 0.000000 0.001422 0.000000
# 2 -0.000414 0.009010 -0.001925 0.000000 0.002467 0.000000
# 3 -0.003129 -0.001925 0.015841 0.000000 -0.000842 0.000000
# 4 0.000000 0.000000 0.000000 0.175646 0.000000 -0.053169
# 5 0.001422 0.002467 -0.000842 0.000000 0.022419 0.000000
# 6 0.000000 0.000000 0.000000 -0.053169 0.000000 0.056065
#
#
# Mechanical properties :
#
#
# Convention : Reuss Voigt Hill
#
# Bulk Modulus (GPa) = 48.65240 56.14195 52.39717
# Shear Modulus (GPa) = 16.47942 35.35536 25.91739
#
# Velocity S-wave (km/s) = 2.69416 3.94621 3.37869
# Velocity P-wave (km/s) = 5.57740 6.74475 6.18866
#
# Compressibility (1/GPa) = 0.02055397
#
# Stress axis : x y z
#
# Youngs Moduli (GPa) = 150.60813 110.98433 63.12827
#
# Poissons Ratio (x) = 0.04594 0.19753
# Poissons Ratio (y) = 0.06234 0.12155
# Poissons Ratio (z) = 0.47127 0.21369
#
# Static dielectric constant tensor:
#      x y z
#    x 1.819710 0.000000 -0.023100 
#    y 0.000000 1.868600 0.000000 
#    z -0.023100 0.000000 1.853710 
# 
# From -- ./inp_files/220731.got.cif
#   From: 2010.05.17/outbox.cif.g08.bks.cpg/sg12_111_cif.got.tgz:220731.got - 2010.06.03 13:09:07.
