data_PCOD9214181
_publ_section_title
;
Structure prediction by ZEFSAII (Michael W. Deem and Ramdas Pophale) SiO2 
 PCOD9214181
Probable space group: C 2/M
;
_chemical_formula_sum "Si O2"
_cell_formula_units_Z 56
_cell_length_a 18.051756
_cell_length_b 14.540861
_cell_length_c 12.619071
_cell_angle_alpha 90.000000
_cell_angle_beta 123.980638
_cell_angle_gamma 90.000000
_cell_volume 2746.693063
_symmetry_space_group_name_H-M "C 2/M"
_symmetry_group_IT_number 12
_symmetry_cell_setting 'monoclinic'
loop_
_space_group_symop_operation_xyz
x,y,z
-x,y,-z
-x,-y,-z
x,-y,z
1/2+x,1/2+y,z
1/2-x,1/2+y,-z
1/2-x,1/2-y,-z
1/2+x,1/2-y,z
loop_
_atom_site_type_symbol
_atom_site_label
_atom_site_fract_x
_atom_site_fract_y
_atom_site_fract_z
Si Si1 0.725480 0.735087 0.320988
Si Si2 0.788801 0.605181 0.544495
Si Si3 0.649094 0.715120 0.921750
Si Si4 0.893095 0.894433 0.920536
Si Si5 0.447287 0.896942 0.067691
Si Si6 0.082539 0.228457 0.634633
Si Si7 0.516058 0.903253 0.355741
O O1 0.723390 0.667006 0.421306
O O2 0.694664 0.834983 0.337046
O O3 0.661660 0.681653 0.189242
O O4 0.825272 0.754408 0.355176
O O5 0.761560 0.500000 0.542800
O O6 0.878558 0.602962 0.545958
O O7 0.603724 0.802515 0.945772
O O8 0.610959 0.692353 0.774123
O O9 0.750000 0.750000 0.000000
O O10 0.636266 0.625847 0.983257
O O11 0.872679 0.000000 0.872018
O O12 0.000000 0.881370 0.000000
O O13 0.506601 0.902515 0.221154
O O14 0.401806 0.000000 0.026348
O O15 0.500000 0.887342 0.000000
O O16 0.000000 0.183723 0.500000
O O17 0.038890 0.324481 0.634586
O O18 0.479552 0.000000 0.364792
#
# Coordination Sequence:
#
# PCOD9214181 Si02
#       7
#     8   8   8   8   8   8   8
#     4  11  23  41  67  94 130 173 215 267 322 388
#     4  10  22  39  63  99 131 162 212 267 326 385
#     4  11  23  39  61  92 128 166 212 268 316 382
#     4  11  26  45  67  91 124 176 227 266 312 380
#     4   9  19  34  56  86 119 158 198 249 320 383
#     4  11  22  39  62  94 128 169 207 260 337 395
#     4   9  19  33  55  92 125 156 197 257 324 387
#
# _framework density 20.388152999999999
#
# number of rings (size 3 to 8) (size 9 to 14) (size 15 to 20)
#    0.000    1.714    2.857    0.857    6.000    2.000 
#    0.000    0.714    0.000    1.286    0.000    0.000 
#    0.000    0.000    0.000    0.000    0.000    0.000 
#
# Total GULP energy -155898.137470 kJ/mol
# GULP energy per Si atom -5567.790624 kJ/mol
# Density = 2.034175 g / cm^3
# Si number density = 20.388153 Si / 1000 Ang^3
#
#
#
# Elastic Constant Matrix: (Units=GPa)
#
#
# Indices 1 2 3 4 5 6 
#
# 1 76.7092 24.7525 17.0571 0.0000 -3.1739 0.0000
# 2 24.7525 91.9603 34.6217 0.0000 -8.3141 0.0000
# 3 17.0571 34.6217 97.4690 0.0000 -6.4997 0.0000
# 4 0.0000 0.0000 0.0000 17.0559 0.0000 10.7243
# 5 -3.1739 -8.3141 -6.4997 0.0000 29.0256 0.0000
# 6 0.0000 0.0000 0.0000 10.7243 0.0000 -29.8280
#
#
#
# Elastic Compliance Matrix: (Units=1/GPa)
#
#
# Indices 1 2 3 4 5 6 
#
# 1 0.014425 -0.003361 -0.001309 0.000000 0.000322 0.000000
# 2 -0.003361 0.013538 -0.004047 0.000000 0.002604 0.000000
# 3 -0.001309 -0.004047 0.012019 0.000000 0.001389 0.000000
# 4 0.000000 0.000000 0.000000 0.047820 0.000000 0.017193
# 5 0.000322 0.002604 0.001389 0.000000 0.035544 0.000000
# 6 0.000000 0.000000 0.000000 0.017193 0.000000 -0.027344
#
#
# Mechanical properties :
#
#
# Convention : Reuss Voigt Hill
#
# Bulk Modulus (GPa) = 44.34969 46.55569 45.45269
# Shear Modulus (GPa) = 41.33858 15.89786 28.61822
#
# Velocity S-wave (km/s) = 4.50775 2.79545 3.75062
# Velocity P-wave (km/s) = 6.99235 5.77093 6.41079
#
# Compressibility (1/GPa) = 0.02254807
#
# Stress axis : x y z
#
# Youngs Moduli (GPa) = 69.32356 73.86650 83.20208
#
# Poissons Ratio (x) = 0.24825 0.10893
# Poissons Ratio (y) = 0.23298 0.33672
# Poissons Ratio (z) = 0.09076 0.29894
#
# Static dielectric constant tensor:
#      x y z
#    x 1.737310 0.000000 0.040960 
#    y 0.000000 1.745030 0.000000 
#    z 0.040960 0.000000 1.891790 
# 
# From -- ./inp_files/156763.got.cif
#   From: 2010.05.17/outbox.cif.g08.bks.cpg/sg12_79_cif.got.tgz:156763.got - 2010.06.03 13:09:07.
