data_PCOD9214309
_publ_section_title
;
Structure prediction by ZEFSAII (Michael W. Deem and Ramdas Pophale) SiO2 
 PCOD9214309
Probable space group: C 2/M
;
_chemical_formula_sum "Si O2"
_cell_formula_units_Z 44
_cell_length_a 10.465944
_cell_length_b 28.218345
_cell_length_c 8.632102
_cell_angle_alpha 90.000000
_cell_angle_beta 66.644091
_cell_angle_gamma 90.000000
_cell_volume 2340.440267
_symmetry_space_group_name_H-M "C 2/M"
_symmetry_group_IT_number 12
_symmetry_cell_setting 'monoclinic'
loop_
_space_group_symop_operation_xyz
x,y,z
-x,y,-z
-x,-y,-z
x,-y,z
1/2+x,1/2+y,z
1/2-x,1/2+y,-z
1/2-x,1/2-y,-z
1/2+x,1/2-y,z
loop_
_atom_site_type_symbol
_atom_site_label
_atom_site_fract_x
_atom_site_fract_y
_atom_site_fract_z
Si Si1 0.044381 0.644458 0.726406
Si Si2 0.767944 0.803202 0.429913
Si Si3 0.904685 0.553086 0.890498
Si Si4 0.738523 0.199159 0.084099
Si Si5 0.500000 0.361703 0.500000
Si Si6 0.290037 0.381961 0.845965
O O1 0.132126 0.665967 0.542916
O O2 0.157714 0.636703 0.808538
O O3 0.971880 0.592839 0.746517
O O4 0.921255 0.680161 0.833560
O O5 0.750000 0.750000 0.500000
O O6 0.786714 0.800715 0.237823
O O7 0.895078 0.828368 0.455486
O O8 0.894394 0.500000 0.832388
O O9 0.760918 0.574660 0.024610
O O10 0.000000 0.551043 0.000000
O O11 0.750000 0.250000 0.000000
O O12 0.824559 0.161507 0.941866
O O13 0.410712 0.391506 0.665603
#
# Coordination Sequence:
#
# PCOD9214309 Si02
#       6
#     8   8   8   8   4   8
#     4   9  19  36  54  79 112 141 179 225 276 319
#     4  11  24  36  53  74 110 150 183 226 266 326
#     4   8  14  29  57  86 108 135 177 227 275 321
#     4  11  21  34  54  78 104 143 187 225 269 322
#     4  10  22  40  49  74 110 148 183 220 276 314
#     4   9  19  35  53  78 110 144 176 225 269 327
#
# _framework density 18.799880000000002
#
# number of rings (size 3 to 8) (size 9 to 14) (size 15 to 20)
#    0.000    2.364    0.000    4.364    5.091    0.727 
#    0.000    0.455    0.000    9.818    0.000    5.091 
#    0.000    0.000    0.000    0.000    0.000    0.000 
#
# Total GULP energy -122730.843922 kJ/mol
# GULP energy per Si atom -5578.674724 kJ/mol
# Density = 1.875709 g / cm^3
# Si number density = 18.799880 Si / 1000 Ang^3
#
#
#
# Elastic Constant Matrix: (Units=GPa)
#
#
# Indices 1 2 3 4 5 6 
#
# 1 55.5484 21.2979 27.0442 0.0000 -11.4098 0.0000
# 2 21.2979 147.4898 57.2013 0.0000 -10.6870 0.0000
# 3 27.0442 57.2013 120.0794 0.0000 -5.9578 0.0000
# 4 0.0000 0.0000 0.0000 18.6363 0.0000 2.0969
# 5 -11.4098 -10.6870 -5.9578 0.0000 28.0924 0.0000
# 6 0.0000 0.0000 0.0000 2.0969 0.0000 10.8835
#
#
#
# Elastic Compliance Matrix: (Units=1/GPa)
#
#
# Indices 1 2 3 4 5 6 
#
# 1 0.021955 -0.001037 -0.004071 0.000000 0.007659 0.000000
# 2 -0.001037 0.008522 -0.003725 0.000000 0.002031 0.000000
# 3 -0.004071 -0.003725 0.010982 0.000000 -0.000741 0.000000
# 4 0.000000 0.000000 0.000000 0.054848 0.000000 -0.010567
# 5 0.007659 0.002031 -0.000741 0.000000 0.039323 0.000000
# 6 0.000000 0.000000 0.000000 -0.010567 0.000000 0.093918
#
#
# Mechanical properties :
#
#
# Convention : Reuss Voigt Hill
#
# Bulk Modulus (GPa) = 42.02777 59.35605 50.69191
# Shear Modulus (GPa) = 19.59673 26.02739 22.81206
#
# Velocity S-wave (km/s) = 3.23210 3.72485 3.48719
# Velocity P-wave (km/s) = 6.02765 7.08099 6.57545
#
# Compressibility (1/GPa) = 0.02379379
#
# Stress axis : x y z
#
# Youngs Moduli (GPa) = 45.54787 117.34723 91.05452
#
# Poissons Ratio (x) = 0.12163 0.37067
# Poissons Ratio (y) = 0.04721 0.33920
# Poissons Ratio (z) = 0.18542 0.43714
#
# Static dielectric constant tensor:
#      x y z
#    x 1.698120 0.000000 0.002570 
#    y 0.000000 1.631770 0.000000 
#    z 0.002570 0.000000 1.694950 
# 
# From -- ./inp_files/53707.got.cif
#   From: 2010.05.17/outbox.cif.g08.bks.cpg/sg12_27_cif.got.tgz:53707.got - 2010.06.03 13:09:07.
