data_PCOD9214434
_publ_section_title
;
Structure prediction by ZEFSAII (Michael W. Deem and Ramdas Pophale) SiO2 
 PCOD9214434
Probable space group: C 2/M
;
_chemical_formula_sum "Si O2"
_cell_formula_units_Z 64
_cell_length_a 10.139838
_cell_length_b 26.300169
_cell_length_c 11.754284
_cell_angle_alpha 90.000000
_cell_angle_beta 92.591189
_cell_angle_gamma 90.000000
_cell_volume 3131.420979
_symmetry_space_group_name_H-M "C 2/M"
_symmetry_group_IT_number 12
_symmetry_cell_setting 'monoclinic'
loop_
_space_group_symop_operation_xyz
x,y,z
-x,y,-z
-x,-y,-z
x,-y,z
1/2+x,1/2+y,z
1/2-x,1/2+y,-z
1/2-x,1/2-y,-z
1/2+x,1/2-y,z
loop_
_atom_site_type_symbol
_atom_site_label
_atom_site_fract_x
_atom_site_fract_y
_atom_site_fract_z
Si Si1 0.257591 0.398884 0.777720
Si Si2 0.264429 0.940796 0.763236
Si Si3 0.639689 0.224588 0.071863
Si Si4 0.426563 0.773972 0.378934
Si Si5 0.153184 0.386169 0.025161
Si Si6 0.010218 0.058034 0.870502
Si Si7 0.637806 0.707968 0.296100
Si Si8 0.500802 0.885975 0.361236
O O1 0.368267 0.440341 0.806338
O O2 0.332333 0.350679 0.725636
O O3 0.128910 0.412745 0.698773
O O4 0.214731 0.383144 0.903228
O O5 0.313112 0.933692 0.895226
O O6 0.365186 0.909172 0.687043
O O7 0.115159 0.920883 0.781784
O O8 0.265384 0.000000 0.727483
O O9 0.680819 0.166185 0.092770
O O10 0.638043 0.258709 0.182602
O O11 0.500000 0.225056 0.000000
O O12 0.750000 0.250000 0.000000
O O13 0.500000 0.780266 0.500000
O O14 0.494273 0.722521 0.337621
O O15 0.268173 0.773802 0.371399
O O16 0.474282 0.826923 0.320708
O O17 0.000000 0.388390 0.000000
O O18 0.053347 0.000000 0.890166
O O19 0.000000 0.080962 0.000000
O O20 0.500000 0.889474 0.500000
#
# Coordination Sequence:
#
# PCOD9214434 Si02
#       8
#     8   8   8   8   8   8   8   8
#     4  11  22  38  60  92 122 157 202 250 302 365
#     4  11  23  39  63  92 122 159 202 249 309 369
#     4  11  22  34  52  81 121 158 188 232 292 358
#     4  10  22  41  62  83 115 158 206 253 296 344
#     4  11  21  37  58  87 127 154 199 252 301 359
#     4  10  22  40  60  89 127 158 191 242 306 371
#     4  11  22  36  56  87 120 154 199 241 296 359
#     4  10  23  44  66  88 119 161 208 261 305 348
#
# _framework density 20.438005
#
# number of rings (size 3 to 8) (size 9 to 14) (size 15 to 20)
#    0.000    1.375    3.750    1.875    3.500    4.500 
#    0.000    0.625    0.000    1.500    0.000    0.000 
#    0.000    0.000    0.000    0.000    0.000    0.000 
#
# Total GULP energy -178180.658657 kJ/mol
# GULP energy per Si atom -5568.145583 kJ/mol
# Density = 2.039149 g / cm^3
# Si number density = 20.438005 Si / 1000 Ang^3
#
#
#
# Elastic Constant Matrix: (Units=GPa)
#
#
# Indices 1 2 3 4 5 6 
#
# 1 90.5181 24.8413 14.0957 0.0000 0.0503 0.0000
# 2 24.8413 40.5342 7.2915 0.0000 -4.0681 0.0000
# 3 14.0957 7.2915 64.6777 0.0000 10.2829 0.0000
# 4 0.0000 0.0000 0.0000 20.1060 0.0000 10.8689
# 5 0.0503 -4.0681 10.2829 0.0000 28.2075 0.0000
# 6 0.0000 0.0000 0.0000 10.8689 0.0000 61.8315
#
#
#
# Elastic Compliance Matrix: (Units=1/GPa)
#
#
# Indices 1 2 3 4 5 6 
#
# 1 0.013550 -0.007994 -0.001979 0.000000 -0.000455 0.000000
# 2 -0.007994 0.030566 -0.002555 0.000000 0.005354 0.000000
# 3 -0.001979 -0.002555 0.017238 0.000000 -0.006649 0.000000
# 4 0.000000 0.000000 0.000000 0.054959 0.000000 -0.009661
# 5 -0.000455 0.005354 -0.006649 0.000000 0.038648 0.000000
# 6 0.000000 0.000000 0.000000 -0.009661 0.000000 0.017871
#
#
# Mechanical properties :
#
#
# Convention : Reuss Voigt Hill
#
# Bulk Modulus (GPa) = 27.54988 32.02078 29.78533
# Shear Modulus (GPa) = 23.81092 31.99576 27.90334
#
# Velocity S-wave (km/s) = 3.41696 3.96094 3.69896
# Velocity P-wave (km/s) = 5.39226 6.05144 5.73134
#
# Compressibility (1/GPa) = 0.03629780
#
# Stress axis : x y z
#
# Youngs Moduli (GPa) = 73.80226 32.71573 58.01205
#
# Poissons Ratio (x) = 0.26152 0.11483
# Poissons Ratio (y) = 0.58994 0.14822
# Poissons Ratio (z) = 0.14609 0.08359
#
# Static dielectric constant tensor:
#      x y z
#    x 1.799700 0.000000 -0.166730 
#    y 0.000000 1.867140 0.000000 
#    z -0.166730 0.000000 2.283450 
# 
# From -- ./inp_files/125741.got.cif
#   From: 2010.05.17/outbox.cif.g08.bks.cpg/sg12_63_cif.got.tgz:125741.got - 2010.06.03 13:09:07.
