data_PCOD9214697
_publ_section_title
;
Structure prediction by ZEFSAII (Michael W. Deem and Ramdas Pophale) SiO2 
 PCOD9214697
Probable space group: C 2/M
;
_chemical_formula_sum "Si O2"
_cell_formula_units_Z 48
_cell_length_a 14.668541
_cell_length_b 15.094931
_cell_length_c 17.405795
_cell_angle_alpha 90.000000
_cell_angle_beta 28.421059
_cell_angle_gamma 90.000000
_cell_volume 1834.302496
_symmetry_space_group_name_H-M "C 2/M"
_symmetry_group_IT_number 12
_symmetry_cell_setting 'monoclinic'
loop_
_space_group_symop_operation_xyz
x,y,z
-x,y,-z
-x,-y,-z
x,-y,z
1/2+x,1/2+y,z
1/2-x,1/2+y,-z
1/2-x,1/2-y,-z
1/2+x,1/2-y,z
loop_
_atom_site_type_symbol
_atom_site_label
_atom_site_fract_x
_atom_site_fract_y
_atom_site_fract_z
Si Si1 0.687320 0.866463 0.696348
Si Si2 0.586281 0.661750 0.789806
Si Si3 0.904725 0.398495 0.647519
Si Si4 0.223619 0.600840 0.837698
Si Si5 0.385738 0.662057 0.399096
Si Si6 0.177571 0.398015 0.124425
O O1 0.663924 0.761435 0.728071
O O2 0.770365 0.903170 0.712732
O O3 0.810542 0.887924 0.529809
O O4 0.474815 0.896574 0.830917
O O5 0.683872 0.610867 0.787309
O O6 0.638747 0.621188 0.667466
O O7 0.360535 0.659163 0.968262
O O8 0.968313 0.500000 0.602472
O O9 0.919853 0.365922 0.723467
O O10 0.000000 0.356321 0.500000
O O11 0.230298 0.500000 0.864500
O O12 0.383030 0.662457 0.759613
O O13 0.000000 0.631382 0.000000
O O14 0.250000 0.750000 0.500000
O O15 0.237875 0.500000 0.092212
#
# Coordination Sequence:
#
# PCOD9214697 Si02
#       6
#     8   8   8   8   8   8
#     4  11  24  41  65  96 130 172 221 279 344 411
#     4  11  23  39  63  92 128 172 221 278 341 408
#     4  10  22  40  63  92 127 170 221 278 339 405
#     4  11  25  45  70 102 140 182 229 285 349 415
#     4  10  24  44  66  96 136 179 228 283 344 413
#     4  11  23  41  64  92 130 174 226 284 342 409
#
# _framework density 26.167984000000001
#
# number of rings (size 3 to 8) (size 9 to 14) (size 15 to 20)
#    0.000    1.333    0.000    4.500    0.000   14.000 
#    0.000    0.000    0.000    0.000    0.000    0.000 
#    0.000    0.667    0.000    0.000    0.000    0.000 
#
# Total GULP energy -134227.093032 kJ/mol
# GULP energy per Si atom -5592.795543 kJ/mol
# Density = 2.610842 g / cm^3
# Si number density = 26.167984 Si / 1000 Ang^3
#
#
#
# Elastic Constant Matrix: (Units=GPa)
#
#
# Indices 1 2 3 4 5 6 
#
# 1 149.2683 28.7593 19.6131 -0.0014 -8.2081 0.0004
# 2 28.7593 103.8169 35.0135 -0.0061 -11.5785 -0.0004
# 3 19.6131 35.0135 97.4127 -0.0111 -9.7035 0.0034
# 4 -0.0014 -0.0061 -0.0111 24.6224 0.0029 -5.4353
# 5 -8.2081 -11.5785 -9.7035 0.0029 63.1744 0.0005
# 6 0.0004 -0.0004 0.0034 -5.4353 0.0005 28.7526
#
#
#
# Elastic Compliance Matrix: (Units=1/GPa)
#
#
# Indices 1 2 3 4 5 6 
#
# 1 0.007151 -0.001657 -0.000794 0.000000 0.000503 0.000000
# 2 -0.001657 0.011473 -0.003658 0.000001 0.001326 0.000001
# 3 -0.000794 -0.003658 0.011844 0.000004 0.001046 -0.000001
# 4 0.000000 0.000001 0.000004 0.042382 -0.000001 0.008012
# 5 0.000503 0.001326 0.001046 -0.000001 0.016298 -0.000001
# 6 0.000000 0.000001 -0.000001 0.008012 -0.000001 0.036294
#
#
# Mechanical properties :
#
#
# Convention : Reuss Voigt Hill
#
# Bulk Modulus (GPa) = 54.79475 57.47442 56.13459
# Shear Modulus (GPa) = 34.78418 41.11736 37.95077
#
# Velocity S-wave (km/s) = 3.64986 3.96824 3.81238
# Velocity P-wave (km/s) = 6.22472 6.55799 6.39353
#
# Compressibility (1/GPa) = 0.01824992
#
# Stress axis : x y z
#
# Youngs Moduli (GPa) = 139.84858 87.16176 84.42751
#
# Poissons Ratio (x) = 0.14442 0.06704
# Poissons Ratio (y) = 0.23172 0.30885
# Poissons Ratio (z) = 0.11104 0.31885
#
# Static dielectric constant tensor:
#      x y z
#    x 2.015540 0.000000 0.000710 
#    y 0.000000 2.069740 0.000010 
#    z 0.000710 0.000010 2.140990 
# 
# From -- ./inp_files/271605.got.cif
#   From: 2010.05.17/outbox.cif.g08.bks.cpg/sg12_136_cif.got.tgz:271605.got - 2010.06.03 13:09:07.
