data_PCOD9214250
_publ_section_title
;
Structure prediction by ZEFSAII (Michael W. Deem and Ramdas Pophale) SiO2 
 PCOD9214250
Probable space group: C 2/M
;
_chemical_formula_sum "Si O2"
_cell_formula_units_Z 40
_cell_length_a 8.820731
_cell_length_b 14.888605
_cell_length_c 20.932972
_cell_angle_alpha 90.000000
_cell_angle_beta 44.060481
_cell_angle_gamma 90.000000
_cell_volume 1911.767072
_symmetry_space_group_name_H-M "C 2/M"
_symmetry_group_IT_number 12
_symmetry_cell_setting 'monoclinic'
loop_
_space_group_symop_operation_xyz
x,y,z
-x,y,-z
-x,-y,-z
x,-y,z
1/2+x,1/2+y,z
1/2-x,1/2+y,-z
1/2-x,1/2-y,-z
1/2+x,1/2-y,z
loop_
_atom_site_type_symbol
_atom_site_label
_atom_site_fract_x
_atom_site_fract_y
_atom_site_fract_z
Si Si1 0.570345 0.500000 0.840546
Si Si2 0.675553 0.500000 0.561130
Si Si3 0.142212 0.175255 0.895987
Si Si4 0.868946 0.845501 0.596613
Si Si5 0.136032 0.677169 0.788155
Si Si6 0.555675 0.000000 0.635894
Si Si7 0.116589 0.000000 0.239189
O O1 0.545673 0.586890 0.892033
O O2 0.412366 0.500000 0.827648
O O3 0.813487 0.500000 0.736369
O O4 0.546032 0.413335 0.573221
O O5 0.901041 0.500000 0.453775
O O6 0.617225 0.500000 0.653406
O O7 0.145609 0.251236 0.841250
O O8 0.388199 0.157668 0.844231
O O9 0.000000 0.202221 0.000000
O O10 0.762320 0.789659 0.685962
O O11 0.000000 0.796866 0.500000
O O12 0.682192 0.912227 0.625510
O O13 0.253374 0.586937 0.776138
#
# Coordination Sequence:
#
# PCOD9214250 Si02
#       7
#     4   4   8   8   8   4   4
#     4  12  23  40  64  91 123 160 214 254 309 360
#     4   7  14  27  55  90 124 157 202 234 297 361
#     4  12  26  44  65  90 121 162 210 262 312 362
#     4   8  14  30  60  92 121 158 197 240 303 366
#     4  11  22  43  66  91 126 163 202 255 310 363
#     4   9  14  30  59  90 120 163 199 249 293 361
#     4  10  22  39  65  95 127 164 198 250 304 373
#
# _framework density 20.923051000000001
#
# number of rings (size 3 to 8) (size 9 to 14) (size 15 to 20)
#    0.000    2.000    2.000    4.500    0.000    0.400 
#    0.000    2.500    4.400    0.000    0.000    0.000 
#    0.000    0.000    0.000    0.000    0.000    0.000 
#
# Total GULP energy -111693.200812 kJ/mol
# GULP energy per Si atom -5584.660041 kJ/mol
# Density = 2.087543 g / cm^3
# Si number density = 20.923051 Si / 1000 Ang^3
#
#
#
# Elastic Constant Matrix: (Units=GPa)
#
#
# Indices 1 2 3 4 5 6 
#
# 1 90.3185 17.8292 32.6334 0.0009 16.6332 -0.0007
# 2 17.8292 75.2958 38.6326 0.0003 26.9837 -0.0002
# 3 32.6334 38.6326 170.5328 0.0007 33.6668 -0.0012
# 4 0.0009 0.0003 0.0007 22.7298 -0.0006 19.6334
# 5 16.6332 26.9837 33.6668 -0.0006 31.4279 0.0005
# 6 -0.0007 -0.0002 -0.0012 19.6334 0.0005 9.6348
#
#
#
# Elastic Compliance Matrix: (Units=1/GPa)
#
#
# Indices 1 2 3 4 5 6 
#
# 1 0.012537 -0.000604 -0.001338 0.000002 -0.004684 -0.000003
# 2 -0.000604 0.019475 -0.001342 0.000002 -0.014964 -0.000003
# 3 -0.001338 -0.001342 0.007681 0.000002 -0.006368 -0.000002
# 4 0.000002 0.000002 0.000002 -0.057876 -0.000008 0.117938
# 5 -0.004684 -0.014964 -0.006368 -0.000008 0.053967 0.000011
# 6 -0.000003 -0.000003 -0.000002 0.117938 0.000011 -0.136537
#
#
# Mechanical properties :
#
#
# Convention : Reuss Voigt Hill
#
# Bulk Modulus (GPa) = 30.18756 57.14860 43.66808
# Shear Modulus (GPa) = -60.13678 29.22864 -15.45407
#
# Velocity S-wave (km/s) = -5.36696 3.74165 -2.72069
# Velocity P-wave (km/s) = 4.89351 6.78525 3.32363
#
# Compressibility (1/GPa) = 0.03312623
#
# Stress axis : x y z
#
# Youngs Moduli (GPa) = 79.76385 51.34750 130.18802
#
# Poissons Ratio (x) = 0.03100 0.17414
# Poissons Ratio (y) = 0.04816 0.17474
# Poissons Ratio (z) = 0.10669 0.06892
#
# Static dielectric constant tensor:
#      x y z
#    x 1.742510 0.000000 0.015520 
#    y 0.000000 1.674160 0.000000 
#    z 0.015520 0.000000 1.789150 
# 
# From -- ./inp_files/299719.got.cif
#   From: 2010.05.17/outbox.cif.g08.bks.cpg/sg12_150_cif.got.tgz:299719.got - 2010.06.03 13:09:07.
