data_PCOD9214537
_publ_section_title
;
Structure prediction by ZEFSAII (Michael W. Deem and Ramdas Pophale) SiO2 
 PCOD9214537
Probable space group: C 2/M
;
_chemical_formula_sum "Si O2"
_cell_formula_units_Z 56
_cell_length_a 11.567265
_cell_length_b 31.183861
_cell_length_c 8.413877
_cell_angle_alpha 90.000000
_cell_angle_beta 114.292841
_cell_angle_gamma 90.000000
_cell_volume 2766.252458
_symmetry_space_group_name_H-M "C 2/M"
_symmetry_group_IT_number 12
_symmetry_cell_setting 'monoclinic'
loop_
_space_group_symop_operation_xyz
x,y,z
-x,y,-z
-x,-y,-z
x,-y,z
1/2+x,1/2+y,z
1/2-x,1/2+y,-z
1/2-x,1/2-y,-z
1/2+x,1/2-y,z
loop_
_atom_site_type_symbol
_atom_site_label
_atom_site_fract_x
_atom_site_fract_y
_atom_site_fract_z
Si Si1 0.743959 0.861760 0.992548
Si Si2 0.503489 0.665480 0.309053
Si Si3 0.401623 0.244085 0.599424
Si Si4 0.383817 0.408419 0.817057
Si Si5 0.000283 0.344563 0.310182
Si Si6 0.296149 0.500000 0.309246
Si Si7 0.611575 0.920620 0.172915
Si Si8 0.050386 0.000000 0.281586
O O1 0.768912 0.896051 0.864901
O O2 0.635393 0.833679 0.847988
O O3 0.684501 0.887119 0.103961
O O4 0.870301 0.841090 0.139982
O O5 0.500000 0.663765 0.500000
O O6 0.553868 0.712339 0.289979
O O7 0.596529 0.626663 0.309381
O O8 0.500000 0.242592 0.500000
O O9 0.250000 0.250000 0.500000
O O10 0.416819 0.197222 0.684849
O O11 0.400008 0.456909 0.772281
O O12 0.500000 0.400362 0.000000
O O13 0.051274 0.389954 0.272696
O O14 0.000000 0.348234 0.500000
O O15 0.208382 0.458117 0.269375
O O16 0.396817 0.500000 0.218538
O O17 0.385029 0.500000 0.511477
O O18 0.500000 0.939513 0.000000
#
# Coordination Sequence:
#
# PCOD9214537 Si02
#       8
#     8   8   8   8   8   4   8   4
#     4  10  23  41  65  98 127 182 217 274 334 399
#     4  10  23  39  68  94 132 176 221 275 337 396
#     4  10  24  42  67 105 135 180 228 279 345 405
#     4  10  22  40  61  93 133 168 217 267 332 392
#     4  10  24  43  70  93 132 175 225 277 338 398
#     4  11  23  38  64  97 128 163 222 266 338 400
#     4  10  23  44  65  91 128 172 220 272 334 397
#     4  11  25  36  63 102 126 171 210 274 333 409
#
# _framework density 20.243994000000001
#
# number of rings (size 3 to 8) (size 9 to 14) (size 15 to 20)
#    0.000    1.857    0.000    2.143   14.000    1.143 
#    0.000    7.500    0.000    0.000    0.000    0.000 
#    0.000    0.000    0.000    0.000    0.000    0.000 
#
# Total GULP energy -155926.927380 kJ/mol
# GULP energy per Si atom -5568.818835 kJ/mol
# Density = 2.019792 g / cm^3
# Si number density = 20.243994 Si / 1000 Ang^3
#
#
#
# Elastic Constant Matrix: (Units=GPa)
#
#
# Indices 1 2 3 4 5 6 
#
# 1 89.5483 32.6585 45.9299 0.0000 17.5951 0.0000
# 2 32.6585 100.1120 50.0714 0.0000 0.7747 0.0000
# 3 45.9299 50.0714 93.9585 0.0000 7.3899 0.0000
# 4 0.0000 0.0000 0.0000 -70.3218 0.0000 305.7996
# 5 17.5951 0.7747 7.3899 0.0000 32.5994 0.0000
# 6 0.0000 0.0000 0.0000 305.7996 0.0000 -731.9037
#
#
#
# Elastic Compliance Matrix: (Units=1/GPa)
#
#
# Indices 1 2 3 4 5 6 
#
# 1 0.016739 -0.002190 -0.006424 0.000000 -0.007527 0.000000
# 2 -0.002190 0.013963 -0.006555 0.000000 0.002336 0.000000
# 3 -0.006424 -0.006555 0.017300 0.000000 -0.000299 0.000000
# 4 0.000000 0.000000 0.000000 0.017408 0.000000 0.007273
# 5 -0.007527 0.002336 -0.000299 0.000000 0.034750 0.000000
# 6 0.000000 0.000000 0.000000 0.007273 0.000000 0.001673
#
#
# Mechanical properties :
#
#
# Convention : Reuss Voigt Hill
#
# Bulk Modulus (GPa) = 56.60490 60.10427 58.35459
# Shear Modulus (GPa) = 36.21671 -143.59462 -53.68896
#
# Velocity S-wave (km/s) = 4.23426 -8.43125 -5.15543
# Velocity P-wave (km/s) = 7.20606 8.06392 2.55926
#
# Compressibility (1/GPa) = 0.01766631
#
# Stress axis : x y z
#
# Youngs Moduli (GPa) = 59.73900 71.61630 57.80432
#
# Poissons Ratio (x) = 0.15680 0.37134
# Poissons Ratio (y) = 0.13080 0.37888
# Poissons Ratio (z) = 0.38376 0.46942
#
# Static dielectric constant tensor:
#      x y z
#    x 1.865260 0.000000 -0.004080 
#    y 0.000000 1.710990 0.000000 
#    z -0.004080 0.000000 1.742620 
# 
# From -- ./inp_files/54838.got.cif
#   From: 2010.05.17/outbox.cif.g08.bks.cpg/sg12_28_cif.got.tgz:54838.got - 2010.06.03 13:09:07.
