data_PCOD9214863
_publ_section_title
;
Structure prediction by ZEFSAII (Michael W. Deem and Ramdas Pophale) SiO2 
 PCOD9214863
Probable space group: C 2/M
;
_chemical_formula_sum "Si O2"
_cell_formula_units_Z 64
_cell_length_a 15.568154
_cell_length_b 19.369070
_cell_length_c 9.612360
_cell_angle_alpha 90.000000
_cell_angle_beta 97.258929
_cell_angle_gamma 90.000000
_cell_volume 2875.286590
_symmetry_space_group_name_H-M "C 2/M"
_symmetry_group_IT_number 12
_symmetry_cell_setting 'monoclinic'
loop_
_space_group_symop_operation_xyz
x,y,z
-x,y,-z
-x,-y,-z
x,-y,z
1/2+x,1/2+y,z
1/2-x,1/2+y,-z
1/2-x,1/2-y,-z
1/2+x,1/2-y,z
loop_
_atom_site_type_symbol
_atom_site_label
_atom_site_fract_x
_atom_site_fract_y
_atom_site_fract_z
Si Si1 0.237447 0.831674 0.026649
Si Si2 0.949507 0.169505 0.132818
Si Si3 0.009375 0.296998 0.668954
Si Si4 0.055465 0.917645 0.370368
Si Si5 0.267801 0.663046 0.651185
Si Si6 0.309075 0.924270 0.829575
Si Si7 0.812626 0.680716 0.627421
Si Si8 0.507586 0.077414 0.841622
O O1 0.238169 0.850350 0.188092
O O2 0.250000 0.750000 0.000000
O O3 0.145576 0.850428 0.938558
O O4 0.308795 0.878943 0.967708
O O5 0.947175 0.233562 0.241157
O O6 0.000135 0.110010 0.227343
O O7 0.000000 0.188873 0.000000
O O8 0.908944 0.299967 0.695127
O O9 0.045803 0.368311 0.740641
O O10 0.000000 0.290183 0.500000
O O11 0.144412 0.873098 0.386625
O O12 0.000000 0.905067 0.500000
O O13 0.072634 0.000000 0.364295
O O14 0.190638 0.648495 0.527370
O O15 0.268362 0.746010 0.639032
O O16 0.263297 0.875172 0.709947
O O17 0.405360 0.931208 0.787342
O O18 0.272382 0.000000 0.842992
O O19 0.547004 0.000000 0.850165
O O20 0.500000 0.102142 0.000000
#
# Coordination Sequence:
#
# PCOD9214863 Si02
#       8
#     8   8   8   8   8   8   8   8
#     4  12  26  41  66  99 132 171 220 280 334 397
#     4  12  25  44  66  95 131 172 220 277 325 392
#     4  11  23  36  64  98 125 167 214 269 327 387
#     4  11  26  46  68  98 135 177 223 270 331 400
#     4  11  23  42  65  96 129 171 222 269 329 384
#     4  10  23  42  63  92 128 172 217 262 336 406
#     4  10  22  40  65  90 131 168 214 274 318 396
#     4   9  20  39  63  90 125 168 213 267 329 393
#
# _framework density 22.258651
#
# number of rings (size 3 to 8) (size 9 to 14) (size 15 to 20)
#    0.000    1.250    3.750    0.750    7.000    2.000 
#    0.000    0.000    0.000    0.000    0.000    0.000 
#    0.000    0.000    0.000    0.000    0.000    0.000 
#
# Total GULP energy -178481.704416 kJ/mol
# GULP energy per Si atom -5577.553263 kJ/mol
# Density = 2.220799 g / cm^3
# Si number density = 22.258651 Si / 1000 Ang^3
#
#
#
# Elastic Constant Matrix: (Units=GPa)
#
#
# Indices 1 2 3 4 5 6 
#
# 1 51.8612 3.0980 8.8616 0.0000 8.7715 0.0000
# 2 3.0980 128.7180 59.2012 0.0000 -16.8985 0.0000
# 3 8.8616 59.2012 149.0933 0.0000 -4.6721 0.0000
# 4 0.0000 0.0000 0.0000 20.9535 0.0000 -11.1524
# 5 8.7715 -16.8985 -4.6721 0.0000 37.1640 0.0000
# 6 0.0000 0.0000 0.0000 -11.1524 0.0000 1.2315
#
#
#
# Elastic Compliance Matrix: (Units=1/GPa)
#
#
# Indices 1 2 3 4 5 6 
#
# 1 0.020402 -0.000670 -0.001111 0.000000 -0.005260 0.000000
# 2 -0.000670 0.010113 -0.003842 0.000000 0.004274 0.000000
# 3 -0.001111 -0.003842 0.008285 0.000000 -0.000443 0.000000
# 4 0.000000 0.000000 0.000000 -0.012494 0.000000 -0.113141
# 5 -0.005260 0.004274 -0.000443 0.000000 0.030037 0.000000
# 6 0.000000 0.000000 0.000000 -0.113141 0.000000 -0.212574
#
#
# Mechanical properties :
#
#
# Convention : Reuss Voigt Hill
#
# Bulk Modulus (GPa) = 36.29419 52.44381 44.36900
# Shear Modulus (GPa) = -36.81884 29.10391 -3.85746
#
# Velocity S-wave (km/s) = -4.07152 3.61991 -1.31787
# Velocity P-wave (km/s) = 2.40041 6.40967 4.20249
#
# Compressibility (1/GPa) = 0.02755262
#
# Stress axis : x y z
#
# Youngs Moduli (GPa) = 49.01534 98.88139 120.70167
#
# Poissons Ratio (x) = 0.06630 0.13413
# Poissons Ratio (y) = 0.03286 0.46372
# Poissons Ratio (z) = 0.05447 0.37989
#
# Static dielectric constant tensor:
#      x y z
#    x 1.900170 0.000000 0.039960 
#    y 0.000000 1.892890 0.000000 
#    z 0.039960 0.000000 1.960950 
# 
# From -- ./inp_files/77540.got.cif
#   From: 2010.05.17/outbox.cif.g08.bks.cpg/sg12_39_cif.got.tgz:77540.got - 2010.06.03 13:09:07.
