data_PCOD9214276
_publ_section_title
;
Structure prediction by ZEFSAII (Michael W. Deem and Ramdas Pophale) SiO2 
 PCOD9214276
Probable space group: C 2/M
;
_chemical_formula_sum "Si O2"
_cell_formula_units_Z 42
_cell_length_a 5.680789
_cell_length_b 22.948889
_cell_length_c 14.329867
_cell_angle_alpha 90.000000
_cell_angle_beta 118.546247
_cell_angle_gamma 90.000000
_cell_volume 1641.044940
_symmetry_space_group_name_H-M "C 2/M"
_symmetry_group_IT_number 12
_symmetry_cell_setting 'monoclinic'
loop_
_space_group_symop_operation_xyz
x,y,z
-x,y,-z
-x,-y,-z
x,-y,z
1/2+x,1/2+y,z
1/2-x,1/2+y,-z
1/2-x,1/2-y,-z
1/2+x,1/2-y,z
loop_
_atom_site_type_symbol
_atom_site_label
_atom_site_fract_x
_atom_site_fract_y
_atom_site_fract_z
Si Si1 0.659639 0.381851 0.747514
Si Si2 0.000000 0.500000 0.000000
Si Si3 0.370991 0.178649 0.384194
Si Si4 0.295045 0.937644 0.600766
Si Si5 0.214939 0.884745 0.966805
Si Si6 0.867789 0.263342 0.819480
O O1 0.758843 0.434746 0.705642
O O2 0.582813 0.394382 0.839678
O O3 0.875718 0.330519 0.791576
O O4 0.411948 0.351871 0.648853
O O5 0.174421 0.447857 0.981408
O O6 0.500000 0.207469 0.500000
O O7 0.553940 0.122243 0.395130
O O8 0.297326 0.224936 0.289533
O O9 0.000000 0.937156 0.500000
O O10 0.425567 0.000000 0.599226
O O11 0.500000 0.852853 0.000000
O O12 0.000000 0.861609 0.000000
O O13 0.169660 0.240708 0.870672
#
# Coordination Sequence:
#
# PCOD9214276 Si02
#       6
#     8   2   8   8   8   8
#     4  11  24  42  67  98 135 181 228 282 354 402
#     4   8  22  44  70  96 130 170 234 300 336 404
#     4  11  23  40  65  97 138 183 231 283 333 408
#     4  11  24  41  60  95 142 182 228 276 339 422
#     4  10  24  43  68  98 136 169 231 291 343 408
#     4  10  22  39  66  96 133 173 227 285 327 397
#
# _framework density 25.593447999999999
#
# number of rings (size 3 to 8) (size 9 to 14) (size 15 to 20)
#    0.571    0.952    3.810    0.286    4.000    4.952 
#    0.000    0.000    0.000   13.714    0.000    0.000 
#    0.000    0.000    0.000    0.000    0.000    0.000 
#
# Total GULP energy -116960.256981 kJ/mol
# GULP energy per Si atom -5569.536047 kJ/mol
# Density = 2.553520 g / cm^3
# Si number density = 25.593448 Si / 1000 Ang^3
#
#
#
# Elastic Constant Matrix: (Units=GPa)
#
#
# Indices 1 2 3 4 5 6 
#
# 1 140.3787 24.6808 31.6998 0.0000 -16.2617 0.0000
# 2 24.6808 128.6611 26.7068 0.0000 0.7513 0.0000
# 3 31.6998 26.7068 105.4184 0.0000 -12.8928 0.0000
# 4 0.0000 0.0000 0.0000 -18.7858 0.0000 -10.9333
# 5 -16.2617 0.7513 -12.8928 0.0000 37.3938 0.0000
# 6 0.0000 0.0000 0.0000 -10.9333 0.0000 20.3925
#
#
#
# Elastic Compliance Matrix: (Units=1/GPa)
#
#
# Indices 1 2 3 4 5 6 
#
# 1 0.008072 -0.001199 -0.001766 0.000000 0.002926 0.000000
# 2 -0.001199 0.008412 -0.001937 0.000000 -0.001358 0.000000
# 3 -0.001766 -0.001937 0.010877 0.000000 0.003021 0.000000
# 4 0.000000 0.000000 0.000000 -0.040572 0.000000 -0.021752
# 5 0.002926 -0.001358 0.003021 0.000000 0.029084 0.000000
# 6 0.000000 0.000000 0.000000 -0.021752 0.000000 0.037375
#
#
# Mechanical properties :
#
#
# Convention : Reuss Voigt Hill
#
# Bulk Modulus (GPa) = 56.95240 60.07032 58.51136
# Shear Modulus (GPa) = 72.56440 27.22483 49.89462
#
# Velocity S-wave (km/s) = 5.33050 3.26504 4.42011
# Velocity P-wave (km/s) = 7.75801 6.14296 6.99724
#
# Compressibility (1/GPa) = 0.01755852
#
# Stress axis : x y z
#
# Youngs Moduli (GPa) = 123.88450 118.87336 91.93591
#
# Poissons Ratio (x) = 0.14253 0.16233
# Poissons Ratio (y) = 0.14854 0.17806
# Poissons Ratio (z) = 0.21875 0.23023
#
# Static dielectric constant tensor:
#      x y z
#    x 2.064590 0.000000 -0.044930 
#    y 0.000000 1.989070 0.000000 
#    z -0.044930 0.000000 2.174060 
# 
# From -- ./inp_files/191622.got.cif
#   From: 2010.05.17/outbox.cif.g08.bks.cpg/sg12_96_cif.got.tgz:191622.got - 2010.06.03 13:09:07.
