data_PCOD9214883
_publ_section_title
;
Structure prediction by ZEFSAII (Michael W. Deem and Ramdas Pophale) SiO2 
 PCOD9214883
Probable space group: C 2/M
;
_chemical_formula_sum "Si O2"
_cell_formula_units_Z 42
_cell_length_a 10.071705
_cell_length_b 7.671165
_cell_length_c 26.585105
_cell_angle_alpha 90.000000
_cell_angle_beta 58.106521
_cell_angle_gamma 90.000000
_cell_volume 1743.920451
_symmetry_space_group_name_H-M "C 2/M"
_symmetry_group_IT_number 12
_symmetry_cell_setting 'monoclinic'
loop_
_space_group_symop_operation_xyz
x,y,z
-x,y,-z
-x,-y,-z
x,-y,z
1/2+x,1/2+y,z
1/2-x,1/2+y,-z
1/2-x,1/2-y,-z
1/2+x,1/2-y,z
loop_
_atom_site_type_symbol
_atom_site_label
_atom_site_fract_x
_atom_site_fract_y
_atom_site_fract_z
Si Si1 0.568362 0.292334 0.538445
Si Si2 0.000000 0.500000 0.000000
Si Si3 0.395403 0.702079 0.263323
Si Si4 0.448605 0.204276 0.671373
Si Si5 0.452050 0.697080 0.928384
Si Si6 0.202693 0.790546 0.146823
O O1 0.500000 0.222793 0.500000
O O2 0.544293 0.500000 0.544573
O O3 0.750000 0.250000 0.500000
O O4 0.492118 0.221901 0.604496
O O5 0.945188 0.653363 0.970950
O O6 0.391133 0.500000 0.248446
O O7 0.425910 0.710193 0.316894
O O8 0.226033 0.778411 0.284707
O O9 0.551878 0.777060 0.207006
O O10 0.448645 0.000000 0.683683
O O11 0.422585 0.500000 0.952600
O O12 0.632623 0.705555 0.872878
O O13 0.339117 0.730309 0.903594
O O14 0.220968 0.000000 0.151145
#
# Coordination Sequence:
#
# PCOD9214883 Si02
#       6
#     8   2   8   8   8   8
#     4  11  24  41  62  88 122 166 212 262 318 380
#     4  12  26  48  68 100 136 176 218 270 326 382
#     4  10  22  40  65  93 129 166 207 267 316 375
#     4  11  23  39  60  95 128 164 215 261 315 379
#     4  11  25  45  69  99 133 174 219 271 323 396
#     4  10  22  44  67  98 133 170 218 268 329 388
#
# _framework density 24.083667999999999
#
# number of rings (size 3 to 8) (size 9 to 14) (size 15 to 20)
#    0.000    1.333    0.952    3.714    1.333    9.143 
#    0.000    0.000    0.000    0.000    0.000    0.000 
#    0.000    0.000    0.000    0.000    0.000    0.000 
#
# Total GULP energy -117344.759998 kJ/mol
# GULP energy per Si atom -5587.845714 kJ/mol
# Density = 2.402885 g / cm^3
# Si number density = 24.083668 Si / 1000 Ang^3
#
#
#
# Elastic Constant Matrix: (Units=GPa)
#
#
# Indices 1 2 3 4 5 6 
#
# 1 82.3618 -3.7046 0.2360 0.0000 -14.7778 0.0000
# 2 -3.7046 91.4711 10.7541 0.0000 10.3517 0.0000
# 3 0.2360 10.7541 80.3663 0.0000 -6.9349 0.0000
# 4 0.0000 0.0000 0.0000 30.4748 0.0000 4.4692
# 5 -14.7778 10.3517 -6.9349 0.0000 45.6979 0.0000
# 6 0.0000 0.0000 0.0000 4.4692 0.0000 9.8845
#
#
#
# Elastic Compliance Matrix: (Units=1/GPa)
#
#
# Indices 1 2 3 4 5 6 
#
# 1 0.012898 0.000007 0.000325 0.000000 0.004219 0.000000
# 2 0.000007 0.011466 -0.001782 0.000000 -0.002866 0.000000
# 3 0.000325 -0.001782 0.012893 0.000000 0.002465 0.000000
# 4 0.000000 0.000000 0.000000 0.035144 0.000000 -0.015890
# 5 0.004219 -0.002866 0.002465 0.000000 0.024270 0.000000
# 6 0.000000 0.000000 0.000000 -0.015890 0.000000 0.108353
#
#
# Mechanical properties :
#
#
# Convention : Reuss Voigt Hill
#
# Bulk Modulus (GPa) = 29.10519 29.86337 29.48428
# Shear Modulus (GPa) = 22.79180 33.67234 28.23207
#
# Velocity S-wave (km/s) = 3.07963 3.74323 3.42753
# Velocity P-wave (km/s) = 4.97562 5.57755 5.28516
#
# Compressibility (1/GPa) = 0.03435813
#
# Stress axis : x y z
#
# Youngs Moduli (GPa) = 77.53219 87.21087 77.56007
#
# Poissons Ratio (x) = -0.00058 -0.02523
# Poissons Ratio (y) = -0.00052 0.13819
# Poissons Ratio (z) = -0.02522 0.15538
#
# Static dielectric constant tensor:
#      x y z
#    x 1.853920 0.000000 -0.041580 
#    y 0.000000 1.987450 0.000000 
#    z -0.041580 0.000000 1.966140 
# 
# From -- ./inp_files/303688.got.cif
#   From: 2010.05.17/outbox.cif.g08.bks.cpg/sg12_152_cif.got.tgz:303688.got - 2010.06.03 13:09:07.
