data_PCOD9214047
_publ_section_title
;
Structure prediction by ZEFSAII (Michael W. Deem and Ramdas Pophale) SiO2 
 PCOD9214047
Probable space group: C 2/M
;
_chemical_formula_sum "Si O2"
_cell_formula_units_Z 56
_cell_length_a 19.476952
_cell_length_b 17.687226
_cell_length_c 16.481734
_cell_angle_alpha 90.000000
_cell_angle_beta 150.038775
_cell_angle_gamma 90.000000
_cell_volume 2835.594726
_symmetry_space_group_name_H-M "C 2/M"
_symmetry_group_IT_number 12
_symmetry_cell_setting 'monoclinic'
loop_
_space_group_symop_operation_xyz
x,y,z
-x,y,-z
-x,-y,-z
x,-y,z
1/2+x,1/2+y,z
1/2-x,1/2+y,-z
1/2-x,1/2-y,-z
1/2+x,1/2-y,z
loop_
_atom_site_type_symbol
_atom_site_label
_atom_site_fract_x
_atom_site_fract_y
_atom_site_fract_z
Si Si1 0.285018 0.588707 0.598719
Si Si2 0.114064 0.171956 0.686381
Si Si3 0.600137 0.090328 0.026251
Si Si4 0.190615 0.661292 0.827059
Si Si5 0.971347 0.662242 0.732399
Si Si6 0.657628 0.590393 0.166412
Si Si7 0.960066 0.162818 0.210342
O O1 0.253708 0.500000 0.562804
O O2 0.273777 0.617370 0.679757
O O3 0.441563 0.604264 0.733753
O O4 0.182451 0.632909 0.435406
O O5 0.249652 0.124771 0.803220
O O6 0.159217 0.257411 0.755230
O O7 0.000000 0.171176 0.500000
O O8 0.053286 0.142192 0.709243
O O9 0.608056 0.000000 0.021460
O O10 0.500000 0.104593 0.000000
O O11 0.540202 0.130173 0.884263
O O12 0.057890 0.635130 0.741801
O O13 0.251382 0.610933 0.817555
O O14 0.310599 0.667002 0.016845
O O15 0.978643 0.753004 0.737502
O O16 0.647896 0.500000 0.162691
O O17 0.500000 0.620054 0.000000
#
# Coordination Sequence:
#
# PCOD9214047 Si02
#       7
#     8   8   8   8   8   8   8
#     4  11  25  41  62  97 132 166 209 259 315 380
#     4  11  25  43  66  96 126 162 213 267 316 372
#     4  11  25  44  65  92 128 170 213 262 317 373
#     4  11  22  42  69  92 125 165 209 259 316 381
#     4  11  23  44  64  93 129 165 213 263 316 373
#     4  10  22  39  61  95 129 161 205 253 314 387
#     4  11  22  44  67  94 124 166 217 257 308 385
#
# _framework density 19.748944000000002
#
# number of rings (size 3 to 8) (size 9 to 14) (size 15 to 20)
#    0.000    1.143    4.286    1.714    6.000    3.714 
#    0.000    1.429    0.000    0.000    0.000    0.000 
#    0.000    0.000    0.000    0.000    0.000    0.000 
#
# Total GULP energy -156466.856417 kJ/mol
# GULP energy per Si atom -5588.102015 kJ/mol
# Density = 1.970399 g / cm^3
# Si number density = 19.748944 Si / 1000 Ang^3
#
#
#
# Elastic Constant Matrix: (Units=GPa)
#
#
# Indices 1 2 3 4 5 6 
#
# 1 92.7365 13.6728 20.6509 -0.0001 -13.2475 0.0000
# 2 13.6728 21.1959 13.2144 0.0011 0.2001 0.0003
# 3 20.6509 13.2144 94.1530 0.0001 -19.5688 -0.0001
# 4 -0.0001 0.0011 0.0001 -58.9937 0.0003 -13.1687
# 5 -13.2475 0.2001 -19.5688 0.0003 29.0572 0.0001
# 6 0.0000 0.0003 -0.0001 -13.1687 0.0001 22.5589
#
#
#
# Elastic Compliance Matrix: (Units=1/GPa)
#
#
# Indices 1 2 3 4 5 6 
#
# 1 0.012882 -0.008023 -0.000543 0.000000 0.005562 0.000000
# 2 -0.008023 0.057646 -0.008341 0.000001 -0.009672 0.000000
# 3 -0.000543 -0.008341 0.013803 0.000000 0.009106 0.000000
# 4 0.000000 0.000001 0.000000 -0.014997 0.000000 -0.008754
# 5 0.005562 -0.009672 0.009106 0.000000 0.043150 0.000000
# 6 0.000000 0.000000 0.000000 -0.008754 0.000000 0.039218
#
#
# Mechanical properties :
#
#
# Convention : Reuss Voigt Hill
#
# Bulk Modulus (GPa) = 19.79584 33.68462 26.74023
# Shear Modulus (GPa) = 24.70885 9.22762 16.96824
#
# Velocity S-wave (km/s) = 3.54099 2.16393 2.93439
# Velocity P-wave (km/s) = 5.17336 4.83083 5.00503
#
# Compressibility (1/GPa) = 0.05051566
#
# Stress axis : x y z
#
# Youngs Moduli (GPa) = 77.62928 17.34721 72.44591
#
# Poissons Ratio (x) = 0.13918 0.03935
# Poissons Ratio (y) = 0.62285 0.60428
# Poissons Ratio (z) = 0.04217 0.14470
#
# Static dielectric constant tensor:
#      x y z
#    x 1.698630 0.000000 -0.000610 
#    y 0.000000 1.669430 0.000000 
#    z -0.000610 0.000000 1.682140 
# 
# From -- ./inp_files/113351.got.cif
#   From: 2010.05.17/outbox.cif.g08.bks.cpg/sg12_57_cif.got.tgz:113351.got - 2010.06.03 13:09:07.
