data_PCOD9214492
_publ_section_title
;
Structure prediction by ZEFSAII (Michael W. Deem and Ramdas Pophale) SiO2 
 PCOD9214492
Probable space group: C 2/M
;
_chemical_formula_sum "Si O2"
_cell_formula_units_Z 50
_cell_length_a 24.924215
_cell_length_b 7.875466
_cell_length_c 27.568524
_cell_angle_alpha 90.000000
_cell_angle_beta 154.235359
_cell_angle_gamma 90.000000
_cell_volume 2352.211284
_symmetry_space_group_name_H-M "C 2/M"
_symmetry_group_IT_number 12
_symmetry_cell_setting 'monoclinic'
loop_
_space_group_symop_operation_xyz
x,y,z
-x,y,-z
-x,-y,-z
x,-y,z
1/2+x,1/2+y,z
1/2-x,1/2+y,-z
1/2-x,1/2-y,-z
1/2+x,1/2-y,z
loop_
_atom_site_type_symbol
_atom_site_label
_atom_site_fract_x
_atom_site_fract_y
_atom_site_fract_z
Si Si1 0.147457 0.301140 0.715452
Si Si2 0.429689 0.701172 0.809398
Si Si3 0.838855 0.184351 0.380408
Si Si4 0.000000 0.500000 0.500000
Si Si5 0.869396 0.703668 0.657872
Si Si6 0.089809 0.201105 0.418593
Si Si7 0.088295 0.794314 0.027977
O O1 0.152789 0.500000 0.701904
O O2 0.154797 0.192776 0.672763
O O3 0.269334 0.257072 0.845389
O O4 0.917481 0.347943 0.459213
O O5 0.412785 0.500000 0.803252
O O6 0.302121 0.791252 0.719361
O O7 0.448074 0.734396 0.767591
O O8 0.534222 0.760576 0.932191
O O9 0.025777 0.279777 0.647976
O O10 0.881824 0.000000 0.433344
O O11 0.867976 0.500000 0.656584
O O12 0.915941 0.764169 0.643594
O O13 0.726048 0.762808 0.545998
O O14 0.085456 0.000000 0.422991
O O15 0.081634 0.000000 0.023510
O O16 0.000000 0.733320 0.000000
#
# Coordination Sequence:
#
# PCOD9214492 Si02
#       7
#     8   8   8   2   8   8   8
#     4  11  21  39  63  91 125 167 210 260 320 377
#     4  11  21  39  63  91 125 167 210 260 320 377
#     4  12  25  40  60  93 128 167 214 260 317 388
#     4  12  26  44  56  88 132 176 206 256 334 372
#     4  10  22  40  61  88 120 161 208 261 318 383
#     4  10  22  40  61  88 120 161 208 261 318 383
#     4   9  18  36  63  88 123 168 215 257 310 380
#
# _framework density 21.256592000000001
#
# number of rings (size 3 to 8) (size 9 to 14) (size 15 to 20)
#    0.000    1.440    3.200    2.160    2.240    1.920 
#    0.000    4.800    0.000    0.000    0.000    0.000 
#    0.000    0.000    0.000    0.000    0.000    0.000 
#
# Total GULP energy -139575.830851 kJ/mol
# GULP energy per Si atom -5583.033234 kJ/mol
# Density = 2.120821 g / cm^3
# Si number density = 21.256592 Si / 1000 Ang^3
#
#
#
# Elastic Constant Matrix: (Units=GPa)
#
#
# Indices 1 2 3 4 5 6 
#
# 1 118.4501 9.0168 60.6880 0.0000 -17.3555 0.0000
# 2 9.0168 105.8813 24.3668 -0.0001 -0.1333 0.0000
# 3 60.6880 24.3668 98.8438 -0.0002 -27.9130 0.0000
# 4 0.0000 -0.0001 -0.0002 14.0001 -0.0001 -2.1163
# 5 -17.3555 -0.1333 -27.9130 -0.0001 37.5353 0.0000
# 6 0.0000 0.0000 0.0000 -2.1163 0.0000 24.2028
#
#
#
# Elastic Compliance Matrix: (Units=1/GPa)
#
#
# Indices 1 2 3 4 5 6 
#
# 1 0.012371 0.000742 -0.007800 0.000000 -0.000078 0.000000
# 2 0.000742 0.010213 -0.003628 0.000000 -0.002319 0.000000
# 3 -0.007800 -0.003628 0.018707 0.000000 0.010292 0.000000
# 4 0.000000 0.000000 0.000000 0.072385 0.000000 0.006329
# 5 -0.000078 -0.002319 0.010292 0.000000 0.034251 0.000000
# 6 0.000000 0.000000 0.000000 0.006329 0.000000 0.041871
#
#
# Mechanical properties :
#
#
# Convention : Reuss Voigt Hill
#
# Bulk Modulus (GPa) = 50.20616 56.81317 53.50967
# Shear Modulus (GPa) = 22.95574 30.42120 26.68847
#
# Velocity S-wave (km/s) = 3.28980 3.78715 3.54720
# Velocity P-wave (km/s) = 6.17258 6.77559 6.48110
#
# Compressibility (1/GPa) = 0.01991787
#
# Stress axis : x y z
#
# Youngs Moduli (GPa) = 80.83401 97.91094 53.45621
#
# Poissons Ratio (x) = -0.07260 0.41698
# Poissons Ratio (y) = -0.05994 0.19393
# Poissons Ratio (z) = 0.63054 0.35521
#
# Static dielectric constant tensor:
#      x y z
#    x 1.947450 0.000000 -0.451380 
#    y 0.000000 1.790460 0.000000 
#    z -0.451380 0.000000 2.716480 
# 
# From -- ./inp_files/384866.got.cif
#   From: 2010.05.17/outbox.cif.g08.bks.cpg/sg12_193_cif.got.tgz:384866.got - 2010.06.03 13:09:07.
