data_PCOD9214302
_publ_section_title
;
Structure prediction by ZEFSAII (Michael W. Deem and Ramdas Pophale) SiO2 
 PCOD9214302
Probable space group: C 2/M
;
_chemical_formula_sum "Si O2"
_cell_formula_units_Z 50
_cell_length_a 12.057049
_cell_length_b 14.313697
_cell_length_c 15.101747
_cell_angle_alpha 90.000000
_cell_angle_beta 112.278926
_cell_angle_gamma 90.000000
_cell_volume 2411.713424
_symmetry_space_group_name_H-M "C 2/M"
_symmetry_group_IT_number 12
_symmetry_cell_setting 'monoclinic'
loop_
_space_group_symop_operation_xyz
x,y,z
-x,y,-z
-x,-y,-z
x,-y,z
1/2+x,1/2+y,z
1/2-x,1/2+y,-z
1/2-x,1/2-y,-z
1/2+x,1/2-y,z
loop_
_atom_site_type_symbol
_atom_site_label
_atom_site_fract_x
_atom_site_fract_y
_atom_site_fract_z
Si Si1 0.273608 0.893977 0.528357
Si Si2 0.710596 0.108644 0.097765
Si Si3 0.528656 0.330902 0.385895
Si Si4 0.000000 0.000000 0.500000
Si Si5 0.964988 0.208212 0.176203
Si Si6 0.000000 0.261261 0.000000
Si Si7 0.585235 0.105967 0.250485
Si Si8 0.000000 0.332321 0.500000
O O1 0.165906 0.831510 0.461087
O O2 0.329874 0.870650 0.640448
O O3 0.384669 0.890191 0.494588
O O4 0.219606 0.000000 0.517423
O O5 0.834317 0.163890 0.130173
O O6 0.663481 0.108079 0.184846
O O7 0.718425 0.000000 0.071562
O O8 0.611525 0.169528 0.016467
O O9 0.468939 0.417542 0.416893
O O10 0.525099 0.339862 0.279646
O O11 0.471892 0.236752 0.408999
O O12 0.021818 0.202181 0.095423
O O13 0.981929 0.317534 0.206891
O O14 0.541354 0.000000 0.251046
#
# Coordination Sequence:
#
# PCOD9214302 Si02
#       8
#     8   8   8   2   8   4   8   4
#     4  11  22  39  57  87 133 174 209 254 308 377
#     4  10  22  39  70  95 122 162 214 268 322 381
#     4  11  24  38  64  92 130 166 221 256 313 369
#     4  10  24  40  62 100 126 182 206 260 302 388
#     4  11  23  40  67  96 128 164 213 268 324 378
#     4  10  23  46  65  90 124 162 211 270 329 384
#     4   9  21  38  61  94 128 171 220 260 305 373
#     4  11  23  35  59  86 122 166 215 251 311 363
#
# _framework density 20.732149
#
# number of rings (size 3 to 8) (size 9 to 14) (size 15 to 20)
#    0.000    1.600    2.400    1.440    5.600    1.920 
#    0.000    0.400    0.000    5.760    0.000    0.000 
#    0.000    0.000    0.000    0.000    0.000    0.000 
#
# Total GULP energy -139330.840451 kJ/mol
# GULP energy per Si atom -5573.233618 kJ/mol
# Density = 2.068496 g / cm^3
# Si number density = 20.732149 Si / 1000 Ang^3
#
#
#
# Elastic Constant Matrix: (Units=GPa)
#
#
# Indices 1 2 3 4 5 6 
#
# 1 52.0017 24.4041 11.2356 0.0000 3.6665 0.0000
# 2 24.4041 84.4635 21.4364 0.0000 -6.7090 0.0000
# 3 11.2356 21.4364 130.8375 0.0000 -18.9648 0.0000
# 4 0.0000 0.0000 0.0000 14.4265 0.0000 -0.9768
# 5 3.6665 -6.7090 -18.9648 0.0000 28.3057 0.0000
# 6 0.0000 0.0000 0.0000 -0.9768 0.0000 42.5135
#
#
#
# Elastic Compliance Matrix: (Units=1/GPa)
#
#
# Indices 1 2 3 4 5 6 
#
# 1 0.023156 -0.006710 -0.001722 0.000000 -0.005743 0.000000
# 2 -0.006710 0.014375 -0.001284 0.000000 0.003416 0.000000
# 3 -0.001722 -0.001284 0.008849 0.000000 0.005847 0.000000
# 4 0.000000 0.000000 0.000000 0.069425 0.000000 0.001595
# 5 -0.005743 0.003416 0.005847 0.000000 0.040800 0.000000
# 6 0.000000 0.000000 0.000000 0.001595 0.000000 0.023559
#
#
# Mechanical properties :
#
#
# Convention : Reuss Voigt Hill
#
# Bulk Modulus (GPa) = 37.10642 42.38388 39.74515
# Shear Modulus (GPa) = 23.97194 31.06424 27.51809
#
# Velocity S-wave (km/s) = 3.40408 3.87507 3.64719
# Velocity P-wave (km/s) = 5.77817 6.36470 6.07852
#
# Compressibility (1/GPa) = 0.02694951
#
# Stress axis : x y z
#
# Youngs Moduli (GPa) = 43.18551 69.56392 113.00902
#
# Poissons Ratio (x) = 0.46675 0.19456
# Poissons Ratio (y) = 0.28976 0.14509
# Poissons Ratio (z) = 0.07435 0.08931
#
# Static dielectric constant tensor:
#      x y z
#    x 1.471380 0.000000 0.023860 
#    y 0.000000 1.775230 0.000000 
#    z 0.023860 0.000000 1.750830 
# 
# From -- ./inp_files/205102.got.cif
#   From: 2010.05.17/outbox.cif.g08.bks.cpg/sg12_103_cif.got.tgz:205102.got - 2010.06.03 13:09:07.
