data_PCOD9214062
_publ_section_title
;
Structure prediction by ZEFSAII (Michael W. Deem and Ramdas Pophale) SiO2 
 PCOD9214062
Probable space group: C 2/M
;
_chemical_formula_sum "Si O2"
_cell_formula_units_Z 38
_cell_length_a 5.000414
_cell_length_b 12.542147
_cell_length_c 28.532408
_cell_angle_alpha 90.000000
_cell_angle_beta 79.320867
_cell_angle_gamma 90.000000
_cell_volume 1758.444019
_symmetry_space_group_name_H-M "C 2/M"
_symmetry_group_IT_number 12
_symmetry_cell_setting 'monoclinic'
loop_
_space_group_symop_operation_xyz
x,y,z
-x,y,-z
-x,-y,-z
x,-y,z
1/2+x,1/2+y,z
1/2-x,1/2+y,-z
1/2-x,1/2-y,-z
1/2+x,1/2-y,z
loop_
_atom_site_type_symbol
_atom_site_label
_atom_site_fract_x
_atom_site_fract_y
_atom_site_fract_z
Si Si1 0.287270 0.500000 0.465195
Si Si2 0.070534 0.000000 0.791231
Si Si3 0.991169 0.180080 0.717666
Si Si4 0.314179 0.824281 0.932345
Si Si5 0.500000 0.000000 0.000000
Si Si6 0.994877 0.500000 0.146429
Si Si7 0.285709 0.679896 0.388152
O O1 0.500000 0.500000 0.500000
O O2 0.314229 0.600895 0.430208
O O3 0.000000 0.500000 0.500000
O O4 0.030755 0.898832 0.759146
O O5 0.357022 0.000000 0.808332
O O6 0.829266 0.000000 0.837281
O O7 0.181861 0.282963 0.720909
O O8 0.102826 0.134545 0.664755
O O9 0.018294 0.774884 0.933558
O O10 0.344882 0.906190 0.974103
O O11 0.410648 0.895292 0.884929
O O12 0.476630 0.782458 0.391346
#
# Coordination Sequence:
#
# PCOD9214062 Si02
#       7
#     4   4   8   8   2   4   8
#     4  12  25  38  59  88 115 152 194 234 292 357
#     4  12  23  40  62  89 124 157 199 253 288 345
#     4  10  22  39  62  88 114 153 199 243 296 348
#     4  11  24  43  65  90 126 164 200 250 301 351
#     4  10  24  42  68 100 118 154 216 252 300 356
#     4  11  26  39  59  92 124 163 203 236 296 363
#     4  10  22  41  61  84 117 152 192 243 293 348
#
# _framework density 21.610014
#
# number of rings (size 3 to 8) (size 9 to 14) (size 15 to 20)
#    0.000    1.263    0.000    5.053    0.000   10.947 
#    0.000    8.421    0.000    0.000    0.000    0.000 
#    0.000    0.000    0.000    0.000    0.000    0.000 
#
# Total GULP energy -106065.392075 kJ/mol
# GULP energy per Si atom -5582.389057 kJ/mol
# Density = 2.156083 g / cm^3
# Si number density = 21.610014 Si / 1000 Ang^3
#
#
#
# Elastic Constant Matrix: (Units=GPa)
#
#
# Indices 1 2 3 4 5 6 
#
# 1 72.1858 -9.0473 5.5215 0.0000 4.8191 0.0000
# 2 -9.0473 65.6156 33.5027 0.0000 -1.6735 0.0000
# 3 5.5215 33.5027 82.3494 0.0000 14.4635 0.0000
# 4 0.0000 0.0000 0.0000 44.0774 0.0000 17.4553
# 5 4.8191 -1.6735 14.4635 0.0000 37.6706 0.0000
# 6 0.0000 0.0000 0.0000 17.4553 0.0000 14.6477
#
#
#
# Elastic Compliance Matrix: (Units=1/GPa)
#
#
# Indices 1 2 3 4 5 6 
#
# 1 0.014447 0.003002 -0.002026 0.000000 -0.000937 0.000000
# 2 0.003002 0.020481 -0.009250 0.000000 0.004077 0.000000
# 3 -0.002026 -0.009250 0.017231 0.000000 -0.006768 0.000000
# 4 0.000000 0.000000 0.000000 0.042962 0.000000 -0.051197
# 5 -0.000937 0.004077 -0.006768 0.000000 0.029445 0.000000
# 6 0.000000 0.000000 0.000000 -0.051197 0.000000 0.129281
#
#
# Mechanical properties :
#
#
# Convention : Reuss Voigt Hill
#
# Bulk Modulus (GPa) = 28.07973 31.12273 29.60123
# Shear Modulus (GPa) = 17.71385 31.95739 24.83562
#
# Velocity S-wave (km/s) = 2.86616 3.84972 3.39376
# Velocity P-wave (km/s) = 4.89645 5.84754 5.39300
#
# Compressibility (1/GPa) = 0.03561287
#
# Stress axis : x y z
#
# Youngs Moduli (GPa) = 69.21888 48.82550 58.03499
#
# Poissons Ratio (x) = -0.14659 0.11755
# Poissons Ratio (y) = -0.20782 0.53681
# Poissons Ratio (z) = 0.14020 0.45163
#
# Static dielectric constant tensor:
#      x y z
#    x 1.722430 0.000000 -0.020260 
#    y 0.000000 1.754380 0.000000 
#    z -0.020260 0.000000 1.779860 
# 
# From -- ./inp_files/354697.got.cif
#   From: 2010.05.17/outbox.cif.g08.bks.cpg/sg12_178_cif.got.tgz:354697.got - 2010.06.03 13:09:07.
