data_PCOD9214093
_publ_section_title
;
Structure prediction by ZEFSAII (Michael W. Deem and Ramdas Pophale) SiO2 
 PCOD9214093
Probable space group: C 2/M
;
_chemical_formula_sum "Si O2"
_cell_formula_units_Z 58
_cell_length_a 24.164127
_cell_length_b 7.347552
_cell_length_c 14.738859
_cell_angle_alpha 90.000000
_cell_angle_beta 77.885576
_cell_angle_gamma 90.000000
_cell_volume 2558.566895
_symmetry_space_group_name_H-M "C 2/M"
_symmetry_group_IT_number 12
_symmetry_cell_setting 'monoclinic'
loop_
_space_group_symop_operation_xyz
x,y,z
-x,y,-z
-x,-y,-z
x,-y,z
1/2+x,1/2+y,z
1/2-x,1/2+y,-z
1/2-x,1/2-y,-z
1/2+x,1/2-y,z
loop_
_atom_site_type_symbol
_atom_site_label
_atom_site_fract_x
_atom_site_fract_y
_atom_site_fract_z
Si Si1 0.267540 0.714414 0.889482
Si Si2 0.316066 0.715728 0.489122
Si Si3 0.615655 0.277039 0.084873
Si Si4 0.352928 0.291090 0.125675
Si Si5 0.500000 0.000000 0.500000
Si Si6 0.089224 0.780591 0.418617
Si Si7 0.972257 0.779990 0.744534
Si Si8 0.898725 0.776030 0.301163
O O1 0.268213 0.500000 0.871263
O O2 0.332113 0.780209 0.867890
O O3 0.215539 0.789979 0.849959
O O4 0.250000 0.750000 0.000000
O O5 0.321477 0.500000 0.483635
O O6 0.250000 0.750000 0.500000
O O7 0.346981 0.766624 0.572934
O O8 0.354806 0.785531 0.393108
O O9 0.618107 0.500000 0.081911
O O10 0.557385 0.222444 0.151786
O O11 0.626900 0.212816 0.978291
O O12 0.372055 0.500000 0.116915
O O13 0.377527 0.214244 0.209573
O O14 0.451779 0.838702 0.505380
O O15 0.067976 0.728293 0.325581
O O16 0.080892 0.000000 0.431620
O O17 0.036275 0.717449 0.709224
O O18 0.973571 0.000000 0.745115
O O19 0.898654 0.000000 0.302854
#
# Coordination Sequence:
#
# PCOD9214093 Si02
#       8
#     8   8   8   8   2   8   8   8
#     4   9  16  28  48  73 102 136 182 227 274 328
#     4  10  22  40  61  86 119 156 198 248 311 372
#     4   8  15  27  48  78 107 140 182 230 272 330
#     4   9  17  30  49  77 110 144 185 224 274 338
#     4  12  22  36  68  90 124 154 206 246 308 368
#     4  10  22  39  62  92 121 156 200 255 310 362
#     4   9  17  33  56  81 113 147 188 238 292 345
#     4   9  18  32  52  79 110 147 187 234 288 352
#
# _framework density 22.668939000000002
#
# number of rings (size 3 to 8) (size 9 to 14) (size 15 to 20)
#    0.000    2.759    0.000    2.276    0.966    3.862 
#    0.000    4.828    9.103    0.000    0.000    3.862 
#    0.000    0.000    0.000    0.000    0.000    0.000 
#
# Total GULP energy -161478.585247 kJ/mol
# GULP energy per Si atom -5568.227077 kJ/mol
# Density = 2.261734 g / cm^3
# Si number density = 22.668939 Si / 1000 Ang^3
#
#
#
# Elastic Constant Matrix: (Units=GPa)
#
#
# Indices 1 2 3 4 5 6 
#
# 1 148.1576 -1.1474 72.1181 0.0000 -2.0412 0.0000
# 2 -1.1474 85.6752 2.1372 0.0000 3.2581 0.0000
# 3 72.1181 2.1372 107.3004 0.0000 6.7848 0.0000
# 4 0.0000 0.0000 0.0000 -11.4588 0.0000 2.5847
# 5 -2.0412 3.2581 6.7848 0.0000 37.9355 0.0000
# 6 0.0000 0.0000 0.0000 2.5847 0.0000 16.6967
#
#
#
# Elastic Compliance Matrix: (Units=1/GPa)
#
#
# Indices 1 2 3 4 5 6 
#
# 1 0.010155 0.000242 -0.006942 0.000000 0.001767 0.000000
# 2 0.000242 0.011719 -0.000337 0.000000 -0.000933 0.000000
# 3 -0.006942 -0.000337 0.014174 0.000000 -0.002880 0.000000
# 4 0.000000 0.000000 0.000000 -0.084325 0.000000 0.013054
# 5 0.001767 -0.000933 -0.002880 0.000000 0.027051 0.000000
# 6 0.000000 0.000000 0.000000 0.013054 0.000000 0.057871
#
#
# Mechanical properties :
#
#
# Convention : Reuss Voigt Hill
#
# Bulk Modulus (GPa) = 45.50760 54.14988 49.82874
# Shear Modulus (GPa) = 86.14237 26.50305 56.32271
#
# Velocity S-wave (km/s) = 6.17112 3.42297 4.98996
# Velocity P-wave (km/s) = 8.41994 6.28979 7.43158
#
# Compressibility (1/GPa) = 0.02197435
#
# Stress axis : x y z
#
# Youngs Moduli (GPa) = 98.47566 85.33063 70.55143
#
# Poissons Ratio (x) = -0.02065 0.48975
# Poissons Ratio (y) = -0.02383 0.02378
# Poissons Ratio (z) = 0.68359 0.02876
#
# Static dielectric constant tensor:
#      x y z
#    x 1.852650 0.000000 0.004780 
#    y 0.000000 1.891720 0.000000 
#    z 0.004780 0.000000 1.870620 
# 
# From -- ./inp_files/237593.got.cif
#   From: 2010.05.17/outbox.cif.g08.bks.cpg/sg12_119_cif.got.tgz:237593.got - 2010.06.03 13:09:07.
