data_PCOD9214864
_publ_section_title
;
Structure prediction by ZEFSAII (Michael W. Deem and Ramdas Pophale) SiO2 
 PCOD9214864
Probable space group: C 2/M
;
_chemical_formula_sum "Si O2"
_cell_formula_units_Z 48
_cell_length_a 18.473791
_cell_length_b 14.370159
_cell_length_c 18.321251
_cell_angle_alpha 90.000000
_cell_angle_beta 29.014304
_cell_angle_gamma 90.000000
_cell_volume 2359.062759
_symmetry_space_group_name_H-M "C 2/M"
_symmetry_group_IT_number 12
_symmetry_cell_setting 'monoclinic'
loop_
_space_group_symop_operation_xyz
x,y,z
-x,y,-z
-x,-y,-z
x,-y,z
1/2+x,1/2+y,z
1/2-x,1/2+y,-z
1/2-x,1/2-y,-z
1/2+x,1/2-y,z
loop_
_atom_site_type_symbol
_atom_site_label
_atom_site_fract_x
_atom_site_fract_y
_atom_site_fract_z
Si Si1 0.165443 0.393258 0.324950
Si Si2 0.093259 0.272375 0.102109
Si Si3 0.363674 0.608228 0.295930
Si Si4 0.833922 0.111474 0.619015
Si Si5 0.659178 0.765963 0.886151
Si Si6 0.319487 0.111681 0.397424
O O1 0.170193 0.500000 0.294376
O O2 0.271221 0.384398 0.302624
O O3 0.224013 0.318973 0.215281
O O4 0.000000 0.373855 0.500000
O O5 0.003217 0.176290 0.170530
O O6 0.977771 0.338503 0.246217
O O7 0.250000 0.250000 0.000000
O O8 0.131831 0.311828 0.988204
O O9 0.406216 0.500000 0.268142
O O10 0.259663 0.635256 0.456448
O O11 0.719912 0.162002 0.773350
O O12 0.788124 0.137016 0.576479
O O13 0.000000 0.137439 0.500000
O O14 0.822119 0.000000 0.635128
O O15 0.500000 0.728411 0.000000
O O16 0.339397 0.000000 0.378560
#
# Coordination Sequence:
#
# PCOD9214864 Si02
#       6
#     8   8   8   8   8   8
#     4  10  22  40  65  91 116 155 201 244 293 351
#     4  12  27  40  58  90 123 160 198 241 300 354
#     4  10  22  42  64  87 119 158 200 244 291 350
#     4  10  22  40  65  91 116 155 201 244 293 351
#     4  12  23  40  60  88 123 158 194 246 300 350
#     4  10  22  42  64  87 119 158 200 244 291 350
#
# _framework density 20.347062000000001
#
# number of rings (size 3 to 8) (size 9 to 14) (size 15 to 20)
#    0.000    1.333    3.333    1.000    4.667    2.667 
#    0.000    0.000    0.000    0.000    0.000    0.000 
#    0.000    0.000    0.000    0.000    0.000    0.000 
#
# Total GULP energy -134153.276506 kJ/mol
# GULP energy per Si atom -5589.719854 kJ/mol
# Density = 2.030075 g / cm^3
# Si number density = 20.347062 Si / 1000 Ang^3
#
#
#
# Elastic Constant Matrix: (Units=GPa)
#
#
# Indices 1 2 3 4 5 6 
#
# 1 36.8337 5.2410 19.6204 0.0001 -9.5752 0.0000
# 2 5.2410 47.1753 22.3649 -0.0010 -6.9769 0.0003
# 3 19.6204 22.3649 84.9796 -0.0011 -8.4819 0.0005
# 4 0.0001 -0.0010 -0.0011 -2.5155 0.0004 -5.1248
# 5 -9.5752 -6.9769 -8.4819 0.0004 47.4386 -0.0002
# 6 0.0000 0.0003 0.0005 -5.1248 -0.0002 17.6859
#
#
#
# Elastic Compliance Matrix: (Units=1/GPa)
#
#
# Indices 1 2 3 4 5 6 
#
# 1 0.032210 0.000551 -0.007051 0.000003 0.005322 0.000001
# 2 0.000551 0.024516 -0.006321 -0.000003 0.002587 -0.000001
# 3 -0.007051 -0.006321 0.015093 -0.000002 0.000346 -0.000001
# 4 0.000003 -0.000003 -0.000002 -0.249968 0.000002 -0.072432
# 5 0.005322 0.002587 0.000346 0.000002 0.022596 0.000001
# 6 0.000001 -0.000001 -0.000001 -0.072432 0.000001 0.035554
#
#
# Mechanical properties :
#
#
# Convention : Reuss Voigt Hill
#
# Bulk Modulus (GPa) = 21.65539 29.27124 25.46332
# Shear Modulus (GPa) = -63.31878 20.63930 -21.33974
#
# Velocity S-wave (km/s) = -5.58453 3.18836 -3.24201
# Velocity P-wave (km/s) = 5.56026 5.28880 1.21348
#
# Compressibility (1/GPa) = 0.04617787
#
# Stress axis : x y z
#
# Youngs Moduli (GPa) = 31.04656 40.79044 66.25372
#
# Poissons Ratio (x) = -0.02249 0.46713
# Poissons Ratio (y) = -0.01711 0.41880
# Poissons Ratio (z) = 0.21890 0.25784
#
# Static dielectric constant tensor:
#      x y z
#    x 1.764490 0.000000 -0.010410 
#    y 0.000000 1.726810 0.000000 
#    z -0.010410 0.000000 1.698600 
# 
# From -- ./inp_files/74493.got.cif
#   From: 2010.05.17/outbox.cif.g08.bks.cpg/sg12_38_cif.got.tgz:74493.got - 2010.06.03 13:09:07.
