data_PCOD9214339
_publ_section_title
;
Structure prediction by ZEFSAII (Michael W. Deem and Ramdas Pophale) SiO2 
 PCOD9214339
Probable space group: C 2/M
;
_chemical_formula_sum "Si O2"
_cell_formula_units_Z 56
_cell_length_a 9.545668
_cell_length_b 23.320379
_cell_length_c 15.126673
_cell_angle_alpha 90.000000
_cell_angle_beta 123.434932
_cell_angle_gamma 90.000000
_cell_volume 2810.075460
_symmetry_space_group_name_H-M "C 2/M"
_symmetry_group_IT_number 12
_symmetry_cell_setting 'monoclinic'
loop_
_space_group_symop_operation_xyz
x,y,z
-x,y,-z
-x,-y,-z
x,-y,z
1/2+x,1/2+y,z
1/2-x,1/2+y,-z
1/2-x,1/2-y,-z
1/2+x,1/2-y,z
loop_
_atom_site_type_symbol
_atom_site_label
_atom_site_fract_x
_atom_site_fract_y
_atom_site_fract_z
Si Si1 0.642422 0.890440 0.118987
Si Si2 0.005787 0.127361 0.273777
Si Si3 0.320791 0.068048 0.481617
Si Si4 0.910554 0.380031 0.694157
Si Si5 0.778619 0.679147 0.259116
Si Si6 0.318984 0.242479 0.927562
Si Si7 0.367021 0.710031 0.378051
O O1 0.588894 0.899302 0.203031
O O2 0.658031 0.822384 0.099395
O O3 0.840127 0.908371 0.186776
O O4 0.500000 0.912624 0.000000
O O5 0.159092 0.095069 0.376429
O O6 0.095492 0.157680 0.222320
O O7 0.938024 0.175289 0.318495
O O8 0.500000 0.087145 0.500000
O O9 0.320119 0.083311 0.586103
O O10 0.312465 0.000000 0.468374
O O11 0.811080 0.319372 0.661605
O O12 0.096898 0.371464 0.722236
O O13 0.781708 0.720555 0.176381
O O14 0.843597 0.722189 0.357371
O O15 0.500000 0.269708 0.000000
O O16 0.250000 0.250000 0.000000
O O17 0.500000 0.699132 0.500000
#
# Coordination Sequence:
#
# PCOD9214339 Si02
#       7
#     8   8   8   8   8   8   8
#     4  10  22  40  58  86 134 165 208 258 285 348
#     4  11  22  38  61  88 120 165 208 240 309 365
#     4  11  24  45  68  93 119 148 201 271 323 381
#     4  11  22  38  59  88 121 167 207 245 311 359
#     4  12  22  33  54  87 121 174 202 238 286 363
#     4  11  21  33  52  79 120 171 209 240 272 326
#     4  11  23  33  51  82 129 157 196 241 290 364
#
# _framework density 19.928290000000001
#
# number of rings (size 3 to 8) (size 9 to 14) (size 15 to 20)
#    0.000    1.000    5.714    3.429    2.000    1.143 
#    0.000    5.714    0.000    1.714    0.000    2.000 
#    0.000    0.000    0.000    0.000    0.000    0.000 
#
# Total GULP energy -156083.294336 kJ/mol
# GULP energy per Si atom -5574.403369 kJ/mol
# Density = 1.988293 g / cm^3
# Si number density = 19.928290 Si / 1000 Ang^3
#
#
#
# Elastic Constant Matrix: (Units=GPa)
#
#
# Indices 1 2 3 4 5 6 
#
# 1 118.6864 10.8006 47.9806 0.0000 4.3303 0.0000
# 2 10.8006 29.4950 11.3823 0.0000 0.4508 0.0000
# 3 47.9806 11.3823 143.5523 0.0000 5.8309 0.0000
# 4 0.0000 0.0000 0.0000 5.7722 0.0000 1.3838
# 5 4.3303 0.4508 5.8309 0.0000 40.8827 0.0000
# 6 0.0000 0.0000 0.0000 1.3838 0.0000 16.9864
#
#
#
# Elastic Compliance Matrix: (Units=1/GPa)
#
#
# Indices 1 2 3 4 5 6 
#
# 1 0.009921 -0.002428 -0.003100 0.000000 -0.000582 0.000000
# 2 -0.002428 0.035568 -0.002015 0.000000 0.000152 0.000000
# 3 -0.003100 -0.002015 0.008195 0.000000 -0.000818 0.000000
# 4 0.000000 0.000000 0.000000 0.176695 0.000000 -0.014394
# 5 -0.000582 0.000152 -0.000818 0.000000 0.024637 0.000000
# 6 0.000000 0.000000 0.000000 -0.014394 0.000000 0.060043
#
#
# Mechanical properties :
#
#
# Convention : Reuss Voigt Hill
#
# Bulk Modulus (GPa) = 25.90714 48.00673 36.95694
# Shear Modulus (GPa) = 14.57680 27.49959 21.03819
#
# Velocity S-wave (km/s) = 2.70749 3.71877 3.25267
# Velocity P-wave (km/s) = 4.77519 6.52541 5.71767
#
# Compressibility (1/GPa) = 0.03859939
#
# Stress axis : x y z
#
# Youngs Moduli (GPa) = 100.79769 28.11486 122.02298
#
# Poissons Ratio (x) = 0.06826 0.37825
# Poissons Ratio (y) = 0.24471 0.24587
# Poissons Ratio (z) = 0.31245 0.05665
#
# Static dielectric constant tensor:
#      x y z
#    x 1.725990 0.000000 -0.003460 
#    y 0.000000 3.180490 0.000000 
#    z -0.003460 0.000000 1.795570 
# 
# From -- ./inp_files/199923.got.cif
#   From: 2010.05.17/outbox.cif.g08.bks.cpg/sg12_100_cif.got.tgz:199923.got - 2010.06.03 13:09:07.
