data_PCOD9214948
_publ_section_title
;
Structure prediction by ZEFSAII (Michael W. Deem and Ramdas Pophale) SiO2 
 PCOD9214948
Probable space group: C 2/M
;
_chemical_formula_sum "Si O2"
_cell_formula_units_Z 48
_cell_length_a 11.781218
_cell_length_b 17.054294
_cell_length_c 10.684286
_cell_angle_alpha 90.000000
_cell_angle_beta 97.547501
_cell_angle_gamma 90.000000
_cell_volume 2128.092275
_symmetry_space_group_name_H-M "C 2/M"
_symmetry_group_IT_number 12
_symmetry_cell_setting 'monoclinic'
loop_
_space_group_symop_operation_xyz
x,y,z
-x,y,-z
-x,-y,-z
x,-y,z
1/2+x,1/2+y,z
1/2-x,1/2+y,-z
1/2-x,1/2-y,-z
1/2+x,1/2-y,z
loop_
_atom_site_type_symbol
_atom_site_label
_atom_site_fract_x
_atom_site_fract_y
_atom_site_fract_z
Si Si1 0.530969 0.090373 0.318846
Si Si2 0.360403 0.591741 0.743524
Si Si3 0.375470 0.361282 0.229200
Si Si4 0.247821 0.843657 0.524343
Si Si5 0.659068 0.915373 0.071004
Si Si6 0.836330 0.681004 0.165514
O O1 0.623742 0.127319 0.425668
O O2 0.591183 0.092352 0.190614
O O3 0.416718 0.139513 0.280653
O O4 0.507437 0.000000 0.346822
O O5 0.342281 0.500000 0.771129
O O6 0.494298 0.612195 0.761688
O O7 0.308220 0.611826 0.600027
O O8 0.290984 0.649330 0.825713
O O9 0.328746 0.362880 0.364622
O O10 0.290912 0.411596 0.131241
O O11 0.354916 0.272419 0.181858
O O12 0.250000 0.750000 0.500000
O O13 0.633502 0.000000 0.008290
O O14 0.632481 0.849078 0.967438
#
# Coordination Sequence:
#
# PCOD9214948 Si02
#       6
#     8   8   8   8   8   8
#     4  10  22  40  66  94 125 168 218 268 321 384
#     4  12  26  43  68 101 134 173 219 271 331 389
#     4  11  25  43  67  94 133 175 218 264 327 396
#     4  11  22  44  67  94 130 172 218 269 324 390
#     4  10  22  43  68  95 128 170 221 271 323 387
#     4  12  24  42  67  95 137 171 216 270 331 389
#
# _framework density 22.555412
#
# number of rings (size 3 to 8) (size 9 to 14) (size 15 to 20)
#    0.000    1.000    1.667    5.000    2.333    5.333 
#    3.000    3.333    0.000    0.000    0.000    0.000 
#    0.000    0.000    0.000    0.000    0.000    0.000 
#
# Total GULP energy -134451.814906 kJ/mol
# GULP energy per Si atom -5602.158954 kJ/mol
# Density = 2.250407 g / cm^3
# Si number density = 22.555412 Si / 1000 Ang^3
#
#
#
# Elastic Constant Matrix: (Units=GPa)
#
#
# Indices 1 2 3 4 5 6 
#
# 1 110.0380 9.2435 9.3290 0.0000 33.1537 0.0000
# 2 9.2435 118.2852 15.1567 0.0000 10.5050 0.0000
# 3 9.3290 15.1567 76.5656 0.0000 1.5993 0.0000
# 4 0.0000 0.0000 0.0000 -16.8748 0.0000 -32.3281
# 5 33.1537 10.5050 1.5993 0.0000 37.5873 0.0000
# 6 0.0000 0.0000 0.0000 -32.3281 0.0000 -16.3331
#
#
#
# Elastic Compliance Matrix: (Units=1/GPa)
#
#
# Indices 1 2 3 4 5 6 
#
# 1 0.012507 0.000172 -0.001328 0.000000 -0.011023 0.000000
# 2 0.000172 0.008890 -0.001727 0.000000 -0.002562 0.000000
# 3 -0.001328 -0.001727 0.013542 0.000000 0.001078 0.000000
# 4 0.000000 0.000000 0.000000 0.021226 0.000000 -0.042013
# 5 -0.011023 -0.002562 0.001078 0.000000 0.036998 0.000000
# 6 0.000000 0.000000 0.000000 -0.042013 0.000000 0.021930
#
#
# Mechanical properties :
#
#
# Convention : Reuss Voigt Hill
#
# Bulk Modulus (GPa) = 34.27887 41.37189 37.82538
# Shear Modulus (GPa) = 38.28975 18.95317 28.62146
#
# Velocity S-wave (km/s) = 4.12465 2.90193 3.56608
# Velocity P-wave (km/s) = 6.15745 5.44154 5.81053
#
# Compressibility (1/GPa) = 0.02917249
#
# Stress axis : x y z
#
# Youngs Moduli (GPa) = 79.95407 112.49081 73.84510
#
# Poissons Ratio (x) = -0.01932 0.09804
# Poissons Ratio (y) = -0.01373 0.12754
# Poissons Ratio (z) = 0.10615 0.19429
#
# Static dielectric constant tensor:
#      x y z
#    x 1.840430 0.000000 -0.025680 
#    y 0.000000 1.753470 0.000000 
#    z -0.025680 0.000000 1.821180 
# 
# From -- ./inp_files/131789.got.cif
#   From: 2010.05.17/outbox.cif.g08.bks.cpg/sg12_66_cif.got.tgz:131789.got - 2010.06.03 13:09:07.
