data_PCOD9214998
_publ_section_title
;
Structure prediction by ZEFSAII (Michael W. Deem and Ramdas Pophale) SiO2 
 PCOD9214998
Probable space group: C 2/M
;
_chemical_formula_sum "Si O2"
_cell_formula_units_Z 60
_cell_length_a 7.030944
_cell_length_b 21.552427
_cell_length_c 17.673687
_cell_angle_alpha 90.000000
_cell_angle_beta 55.284549
_cell_angle_gamma 90.000000
_cell_volume 2201.424400
_symmetry_space_group_name_H-M "C 2/M"
_symmetry_group_IT_number 12
_symmetry_cell_setting 'monoclinic'
loop_
_space_group_symop_operation_xyz
x,y,z
-x,y,-z
-x,-y,-z
x,-y,z
1/2+x,1/2+y,z
1/2-x,1/2+y,-z
1/2-x,1/2-y,-z
1/2+x,1/2-y,z
loop_
_atom_site_type_symbol
_atom_site_label
_atom_site_fract_x
_atom_site_fract_y
_atom_site_fract_z
Si Si1 0.638725 0.896932 0.368739
Si Si2 0.986728 0.259424 0.229616
Si Si3 0.264370 0.684375 0.950482
Si Si4 0.455770 0.622134 0.426265
Si Si5 0.518932 0.000000 0.290739
Si Si6 0.892363 0.605271 0.213695
Si Si7 0.532668 0.757507 0.370958
Si Si8 0.058355 0.925474 0.157302
O O1 0.523203 0.829573 0.395034
O O2 0.748538 0.908301 0.425877
O O3 0.857392 0.900530 0.260000
O O4 0.483643 0.947227 0.364797
O O5 0.115422 0.208062 0.152611
O O6 0.201941 0.255042 0.254224
O O7 0.018080 0.328523 0.188883
O O8 0.820116 0.256003 0.345722
O O9 0.401776 0.618290 0.925548
O O10 0.250000 0.750000 0.000000
O O11 0.000000 0.667554 0.000000
O O12 0.500000 0.599353 0.500000
O O13 0.673413 0.613144 0.320662
O O14 0.427094 0.696818 0.434233
O O15 0.541150 0.053616 0.220271
O O16 0.787366 0.582496 0.158431
O O17 0.013693 0.000000 0.157471
#
# Coordination Sequence:
#
# PCOD9214998 Si02
#       8
#     8   8   8   8   4   8   8   8
#     4  11  22  39  64  98 123 167 223 271 325 387
#     4  11  20  38  63  89 127 161 215 273 322 377
#     4  12  25  40  63 100 136 173 212 269 334 397
#     4  10  23  42  63  90 133 175 211 270 345 399
#     4  12  22  38  67  96 123 154 231 288 309 378
#     4  10  22  40  67  97 120 172 227 275 318 389
#     4  11  19  37  64  92 120 164 218 269 318 384
#     4  11  22  43  69  91 132 179 224 264 324 400
#
# _framework density 27.255078999999999
#
# number of rings (size 3 to 8) (size 9 to 14) (size 15 to 20)
#    0.000    1.067    5.333    3.200    0.000    0.800 
#    0.000    2.667    0.000    0.400    0.000    0.000 
#    0.000    0.000    0.000    0.000    0.000    0.000 
#
# Total GULP energy -167074.283508 kJ/mol
# GULP energy per Si atom -5569.142784 kJ/mol
# Density = 2.719305 g / cm^3
# Si number density = 27.255079 Si / 1000 Ang^3
#
#
#
# Elastic Constant Matrix: (Units=GPa)
#
#
# Indices 1 2 3 4 5 6 
#
# 1 137.9032 41.2910 36.8672 0.0000 7.3747 0.0000
# 2 41.2910 157.1507 44.4819 0.0000 -4.6512 0.0000
# 3 36.8672 44.4819 70.7881 0.0000 -8.7545 0.0000
# 4 0.0000 0.0000 0.0000 43.0189 0.0000 -13.2123
# 5 7.3747 -4.6512 -8.7545 0.0000 50.9662 0.0000
# 6 0.0000 0.0000 0.0000 -13.2123 0.0000 88.5320
#
#
#
# Elastic Compliance Matrix: (Units=1/GPa)
#
#
# Indices 1 2 3 4 5 6 
#
# 1 0.008821 -0.001224 -0.004084 0.000000 -0.002090 0.000000
# 2 -0.001224 0.007911 -0.004314 0.000000 0.000158 0.000000
# 3 -0.004084 -0.004314 0.019401 0.000000 0.003530 0.000000
# 4 0.000000 0.000000 0.000000 0.024362 0.000000 0.003636
# 5 -0.002090 0.000158 0.003530 0.000000 0.020544 0.000000
# 6 0.000000 0.000000 0.000000 0.003636 0.000000 0.011838
#
#
# Mechanical properties :
#
#
# Convention : Reuss Voigt Hill
#
# Bulk Modulus (GPa) = 59.20682 67.90247 63.55464
# Shear Modulus (GPa) = 42.46287 52.71687 47.58987
#
# Velocity S-wave (km/s) = 3.95141 4.40273 4.18316
# Velocity P-wave (km/s) = 6.52599 7.12833 6.83380
#
# Compressibility (1/GPa) = 0.01688995
#
# Stress axis : x y z
#
# Youngs Moduli (GPa) = 113.36113 126.41234 51.54401
#
# Poissons Ratio (x) = 0.15469 0.21049
# Poissons Ratio (y) = 0.13872 0.22236
# Poissons Ratio (z) = 0.46294 0.54535
#
# Static dielectric constant tensor:
#      x y z
#    x 2.697670 0.000000 -0.005880 
#    y 0.000000 2.061590 0.000000 
#    z -0.005880 0.000000 2.166100 
# 
# From -- ./inp_files/259188.got.cif
#   From: 2010.05.17/outbox.cif.g08.bks.cpg/sg12_130_cif.got.tgz:259188.got - 2010.06.03 13:09:07.
