data_PCOD9214882
_publ_section_title
;
Structure prediction by ZEFSAII (Michael W. Deem and Ramdas Pophale) SiO2 
 PCOD9214882
Probable space group: C 2/M
;
_chemical_formula_sum "Si O2"
_cell_formula_units_Z 42
_cell_length_a 10.344637
_cell_length_b 7.684809
_cell_length_c 28.037616
_cell_angle_alpha 90.000000
_cell_angle_beta 125.293353
_cell_angle_gamma 90.000000
_cell_volume 1819.233594
_symmetry_space_group_name_H-M "C 2/M"
_symmetry_group_IT_number 12
_symmetry_cell_setting 'monoclinic'
loop_
_space_group_symop_operation_xyz
x,y,z
-x,y,-z
-x,-y,-z
x,-y,z
1/2+x,1/2+y,z
1/2-x,1/2+y,-z
1/2-x,1/2-y,-z
1/2+x,1/2-y,z
loop_
_atom_site_type_symbol
_atom_site_label
_atom_site_fract_x
_atom_site_fract_y
_atom_site_fract_z
Si Si1 0.500000 0.000000 0.500000
Si Si2 0.234106 0.798143 0.567261
Si Si3 0.062512 0.796201 0.830819
Si Si4 0.712678 0.296217 0.767090
Si Si5 0.597558 0.290301 0.640573
Si Si6 0.679366 0.292460 0.036371
O O1 0.367109 0.845046 0.482098
O O2 0.420631 0.780563 0.599122
O O3 0.197670 0.745997 0.614944
O O4 0.187013 0.000000 0.549870
O O5 0.115562 0.720497 0.790881
O O6 0.206339 0.777086 0.898172
O O7 0.900177 0.716744 0.815385
O O8 0.029205 0.000000 0.818187
O O9 0.672126 0.500000 0.756954
O O10 0.672311 0.224944 0.706142
O O11 0.590391 0.500000 0.640296
O O12 0.674419 0.500000 0.041516
O O13 0.500000 0.224791 0.000000
O O14 0.750000 0.250000 0.000000
#
# Coordination Sequence:
#
# PCOD9214882 Si02
#       6
#     2   8   8   8   8   8
#     4  12  26  48  68  96 140 172 214 282 314 382
#     4  11  25  44  69  99 130 176 219 266 328 394
#     4  11  23  38  60  95 126 164 214 257 315 378
#     4  10  22  40  65  93 129 166 206 266 315 373
#     4  10  22  44  67  98 133 169 217 268 327 387
#     4  11  24  41  62  87 122 166 210 262 317 376
#
# _framework density 23.086645999999998
#
# number of rings (size 3 to 8) (size 9 to 14) (size 15 to 20)
#    0.000    1.333    0.952    3.714    1.333    7.619 
#    0.000    0.000    0.000    0.000    0.000    0.000 
#    0.000    0.000    0.000    0.000    0.000    0.000 
#
# Total GULP energy -117292.967605 kJ/mol
# GULP energy per Si atom -5585.379410 kJ/mol
# Density = 2.303410 g / cm^3
# Si number density = 23.086646 Si / 1000 Ang^3
#
#
#
# Elastic Constant Matrix: (Units=GPa)
#
#
# Indices 1 2 3 4 5 6 
#
# 1 62.9558 -5.1795 3.2146 0.0000 -21.2003 0.0000
# 2 -5.1795 65.1638 -4.0908 0.0000 -4.4922 0.0000
# 3 3.2146 -4.0908 77.9334 0.0000 -7.0252 0.0000
# 4 0.0000 0.0000 0.0000 4.8372 0.0000 7.6046
# 5 -21.2003 -4.4922 -7.0252 0.0000 40.8114 0.0000
# 6 0.0000 0.0000 0.0000 7.6046 0.0000 15.3887
#
#
#
# Elastic Compliance Matrix: (Units=1/GPa)
#
#
# Indices 1 2 3 4 5 6 
#
# 1 0.019586 0.002295 0.000256 0.000000 0.010471 0.000000
# 2 0.002295 0.015806 0.001015 0.000000 0.003107 0.000000
# 3 0.000256 0.001015 0.013100 0.000000 0.002500 0.000000
# 4 0.000000 0.000000 0.000000 0.926616 0.000000 -0.457905
# 5 0.010471 0.003107 0.002500 0.000000 0.030715 0.000000
# 6 0.000000 0.000000 0.000000 -0.457905 0.000000 0.291265
#
#
# Mechanical properties :
#
#
# Convention : Reuss Voigt Hill
#
# Bulk Modulus (GPa) = 17.97774 21.54904 19.76339
# Shear Modulus (GPa) = 3.82118 26.34804 15.08461
#
# Velocity S-wave (km/s) = 1.28792 3.38193 2.55892
# Velocity P-wave (km/s) = 3.16475 4.96026 4.16052
#
# Compressibility (1/GPa) = 0.05562435
#
# Stress axis : x y z
#
# Youngs Moduli (GPa) = 51.05687 63.26620 76.33865
#
# Poissons Ratio (x) = -0.14518 -0.01958
# Poissons Ratio (y) = -0.11716 -0.07749
# Poissons Ratio (z) = -0.01310 -0.06422
#
# Static dielectric constant tensor:
#      x y z
#    x 1.850680 0.000000 -0.038940 
#    y 0.000000 1.864410 0.000000 
#    z -0.038940 0.000000 1.881180 
# 
# From -- ./inp_files/371813.got.cif
#   From: 2010.05.17/outbox.cif.g08.bks.cpg/sg12_186_cif.got.tgz:371813.got - 2010.06.03 13:09:07.
