data_PCOD9214648
_publ_section_title
;
Structure prediction by ZEFSAII (Michael W. Deem and Ramdas Pophale) SiO2 
 PCOD9214648
Probable space group: C 2/M
;
_chemical_formula_sum "Si O2"
_cell_formula_units_Z 32
_cell_length_a 16.304489
_cell_length_b 12.172032
_cell_length_c 12.958352
_cell_angle_alpha 90.000000
_cell_angle_beta 35.616828
_cell_angle_gamma 90.000000
_cell_volume 1497.658851
_symmetry_space_group_name_H-M "C 2/M"
_symmetry_group_IT_number 12
_symmetry_cell_setting 'monoclinic'
loop_
_space_group_symop_operation_xyz
x,y,z
-x,y,-z
-x,-y,-z
x,-y,z
1/2+x,1/2+y,z
1/2-x,1/2+y,-z
1/2-x,1/2-y,-z
1/2+x,1/2-y,z
loop_
_atom_site_type_symbol
_atom_site_label
_atom_site_fract_x
_atom_site_fract_y
_atom_site_fract_z
Si Si1 0.914764 0.721255 0.827408
Si Si2 0.340179 0.500000 0.196409
Si Si3 0.833090 0.235641 0.306293
Si Si4 0.595767 0.379230 0.501703
Si Si5 0.909738 0.500000 0.698911
O O1 0.934609 0.607968 0.743187
O O2 0.006793 0.723954 0.839122
O O3 0.994868 0.817309 0.684383
O O4 0.750000 0.750000 0.000000
O O5 0.317294 0.611228 0.284409
O O6 0.246550 0.500000 0.188796
O O7 0.500000 0.500000 0.000000
O O8 0.750000 0.250000 0.500000
O O9 0.737291 0.312261 0.332348
O O10 0.500000 0.387244 0.500000
O O11 0.633965 0.500000 0.501842
O O12 0.000000 0.500000 0.500000
#
# Coordination Sequence:
#
# PCOD9214648 Si02
#       5
#     8   4   8   8   4
#     4  11  24  39  65  95 131 161 210 271 328 375
#     4  12  24  42  68  96 128 167 214 273 324 376
#     4  10  23  38  65  93 128 164 219 258 320 387
#     4  10  22  40  63  87 125 169 211 255 313 391
#     4  12  24  42  68  94 127 169 222 261 311 392
#
# _framework density 21.366682999999998
#
# number of rings (size 3 to 8) (size 9 to 14) (size 15 to 20)
#    0.000    1.250    0.000    6.750   10.500    0.000 
#    0.000    0.000    0.000    3.750    0.000    0.000 
#    0.000    0.000    0.000    0.000    0.000    0.000 
#
# Total GULP energy -89331.870101 kJ/mol
# GULP energy per Si atom -5583.241881 kJ/mol
# Density = 2.131805 g / cm^3
# Si number density = 21.366683 Si / 1000 Ang^3
#
#
#
# Elastic Constant Matrix: (Units=GPa)
#
#
# Indices 1 2 3 4 5 6 
#
# 1 113.2747 57.0777 20.6107 0.0000 -44.7848 0.0000
# 2 57.0777 217.6908 56.8953 0.0000 -12.6225 0.0000
# 3 20.6107 56.8953 85.6196 0.0000 -39.5595 0.0000
# 4 0.0000 0.0000 0.0000 12.2615 0.0000 -9.3011
# 5 -44.7848 -12.6225 -39.5595 0.0000 46.4460 0.0000
# 6 0.0000 0.0000 0.0000 -9.3011 0.0000 37.9724
#
#
#
# Elastic Compliance Matrix: (Units=1/GPa)
#
#
# Indices 1 2 3 4 5 6 
#
# 1 0.023227 -0.008109 0.015050 0.000000 0.033011 0.000000
# 2 -0.008109 0.008603 -0.010384 0.000000 -0.014325 0.000000
# 3 0.015050 -0.010384 0.033568 0.000000 0.040280 0.000000
# 4 0.000000 0.000000 0.000000 0.100168 0.000000 0.024536
# 5 0.033011 -0.014325 0.040280 0.000000 0.083776 0.000000
# 6 0.000000 0.000000 0.000000 0.024536 0.000000 0.032345
#
#
# Mechanical properties :
#
#
# Convention : Reuss Voigt Hill
#
# Bulk Modulus (GPa) = 17.09050 76.19470 46.64260
# Shear Modulus (GPa) = 16.22968 38.13609 27.18289
#
# Velocity S-wave (km/s) = 2.75904 4.22932 3.57067
# Velocity P-wave (km/s) = 4.26213 7.71929 6.23511
#
# Compressibility (1/GPa) = 0.05851205
#
# Stress axis : x y z
#
# Youngs Moduli (GPa) = 43.05252 116.23642 29.79037
#
# Poissons Ratio (x) = 0.94261 -0.44834
# Poissons Ratio (y) = 0.34913 0.30933
# Poissons Ratio (z) = -0.64794 1.20696
#
# Static dielectric constant tensor:
#      x y z
#    x 0.769260 0.000000 0.039540 
#    y 0.000000 2.109080 0.000000 
#    z 0.039540 0.000000 1.768510 
# 
# From -- ./inp_files/71034.got.cif
#   From: 2010.05.17/outbox.cif.g08.bks.cpg/sg12_36_cif.got.tgz:71034.got - 2010.06.03 13:09:07.
