data_PCOD9214257
_publ_section_title
;
Structure prediction by ZEFSAII (Michael W. Deem and Ramdas Pophale) SiO2 
 PCOD9214257
Probable space group: C 2/M
;
_chemical_formula_sum "Si O2"
_cell_formula_units_Z 32
_cell_length_a 16.341014
_cell_length_b 8.164296
_cell_length_c 21.618687
_cell_angle_alpha 90.000000
_cell_angle_beta 150.845129
_cell_angle_gamma 90.000000
_cell_volume 1405.106794
_symmetry_space_group_name_H-M "C 2/M"
_symmetry_group_IT_number 12
_symmetry_cell_setting 'monoclinic'
loop_
_space_group_symop_operation_xyz
x,y,z
-x,y,-z
-x,-y,-z
x,-y,z
1/2+x,1/2+y,z
1/2-x,1/2+y,-z
1/2-x,1/2-y,-z
1/2+x,1/2-y,z
loop_
_atom_site_type_symbol
_atom_site_label
_atom_site_fract_x
_atom_site_fract_y
_atom_site_fract_z
Si Si1 0.633589 0.680029 0.532184
Si Si2 0.017734 0.500000 0.585563
Si Si3 0.994728 0.691755 0.171674
Si Si4 0.303983 0.500000 0.857451
Si Si5 0.774867 0.682827 0.915370
O O1 0.500000 0.668161 0.500000
O O2 0.638606 0.500000 0.504887
O O3 0.573946 0.834425 0.452689
O O4 0.814169 0.713883 0.682217
O O5 0.000000 0.500000 0.500000
O O6 0.213172 0.500000 0.731746
O O7 0.951520 0.500000 0.155705
O O8 0.873016 0.804965 0.131535
O O9 0.946105 0.714977 0.067701
O O10 0.244186 0.331292 0.849347
O O11 0.500000 0.500000 0.000000
O O12 0.781773 0.500000 0.892948
#
# Coordination Sequence:
#
# PCOD9214257 Si02
#       5
#     8   4   8   4   8
#     4   9  19  35  61  92 125 162 213 264 307 380
#     4  10  24  42  62  94 120 171 218 254 327 386
#     4   9  18  37  66 100 129 170 217 258 316 392
#     4  12  28  44  64  98 135 163 216 281 314 383
#     4  10  22  39  65  97 132 170 211 264 327 380
#
# _framework density 22.774069999999998
#
# number of rings (size 3 to 8) (size 9 to 14) (size 15 to 20)
#    0.000    2.250    1.250    0.000   10.500    1.500 
#    0.000    1.250    0.000    0.000    0.000    0.000 
#    0.000    0.000    0.000    0.000    0.000    0.000 
#
# Total GULP energy -89308.615393 kJ/mol
# GULP energy per Si atom -5581.788462 kJ/mol
# Density = 2.272223 g / cm^3
# Si number density = 22.774070 Si / 1000 Ang^3
#
#
#
# Elastic Constant Matrix: (Units=GPa)
#
#
# Indices 1 2 3 4 5 6 
#
# 1 15.5801 16.8157 14.9044 0.0000 -5.8967 0.0000
# 2 16.8157 173.0421 51.5049 0.0000 -13.7063 0.0000
# 3 14.9044 51.5049 160.6651 0.0000 4.3293 0.0000
# 4 0.0000 0.0000 0.0000 24.1273 0.0000 11.0955
# 5 -5.8967 -13.7063 4.3293 0.0000 24.3995 0.0000
# 6 0.0000 0.0000 0.0000 11.0955 0.0000 5.9039
#
#
#
# Elastic Compliance Matrix: (Units=1/GPa)
#
#
# Indices 1 2 3 4 5 6 
#
# 1 0.082539 -0.004556 -0.006697 0.000000 0.018576 0.000000
# 2 -0.004556 0.007047 -0.001923 0.000000 0.003199 0.000000
# 3 -0.006697 -0.001923 0.007571 0.000000 -0.004042 0.000000
# 4 0.000000 0.000000 0.000000 0.305365 0.000000 -0.573892
# 5 0.018576 0.003199 -0.004042 0.000000 0.047988 0.000000
# 6 0.000000 0.000000 0.000000 -0.573892 0.000000 1.247934
#
#
# Mechanical properties :
#
#
# Convention : Reuss Voigt Hill
#
# Bulk Modulus (GPa) = 14.12317 57.30415 35.71366
# Shear Modulus (GPa) = 2.85976 28.62361 15.74169
#
# Velocity S-wave (km/s) = 1.12180 3.54906 2.63194
# Velocity P-wave (km/s) = 2.80941 6.48159 4.99519
#
# Compressibility (1/GPa) = 0.07080561
#
# Stress axis : x y z
#
# Youngs Moduli (GPa) = 12.11545 141.89709 132.08894
#
# Poissons Ratio (x) = 0.64652 0.88458
# Poissons Ratio (y) = 0.05520 0.25397
# Poissons Ratio (z) = 0.08114 0.27283
#
# Static dielectric constant tensor:
#      x y z
#    x 1.834140 0.000000 0.009370 
#    y 0.000000 2.093960 0.000000 
#    z 0.009370 0.000000 1.827210 
# 
# From -- ./inp_files/92224.got.cif
#   From: 2010.05.17/outbox.cif.g08.bks.cpg/sg12_47_cif.got.tgz:92224.got - 2010.06.03 13:09:07.
