data_PCOD9214525
_publ_section_title
;
Structure prediction by ZEFSAII (Michael W. Deem and Ramdas Pophale) SiO2 
 PCOD9214525
Probable space group: C 2/M
;
_chemical_formula_sum "Si O2"
_cell_formula_units_Z 56
_cell_length_a 24.222969
_cell_length_b 15.561034
_cell_length_c 8.861964
_cell_angle_alpha 90.000000
_cell_angle_beta 58.791790
_cell_angle_gamma 90.000000
_cell_volume 2856.993236
_symmetry_space_group_name_H-M "C 2/M"
_symmetry_group_IT_number 12
_symmetry_cell_setting 'monoclinic'
loop_
_space_group_symop_operation_xyz
x,y,z
-x,y,-z
-x,-y,-z
x,-y,z
1/2+x,1/2+y,z
1/2-x,1/2+y,-z
1/2-x,1/2-y,-z
1/2+x,1/2-y,z
loop_
_atom_site_type_symbol
_atom_site_label
_atom_site_fract_x
_atom_site_fract_y
_atom_site_fract_z
Si Si1 0.999870 0.902444 0.181721
Si Si2 0.562495 0.761588 0.572771
Si Si3 0.025312 0.398311 0.136513
Si Si4 0.158601 0.700913 0.929873
Si Si5 0.324220 0.276372 0.406838
Si Si6 0.210990 0.096839 0.315471
Si Si7 0.387259 0.331785 0.778573
O O1 0.068268 0.883828 0.167681
O O2 0.958310 0.823329 0.303951
O O3 0.979095 0.000000 0.252018
O O4 0.000000 0.897131 0.000000
O O5 0.517845 0.840119 0.689400
O O6 0.635552 0.778452 0.527818
O O7 0.568984 0.729263 0.391847
O O8 0.021608 0.500000 0.175768
O O9 0.098622 0.363642 0.036948
O O10 0.000000 0.385502 0.000000
O O11 0.145486 0.756520 0.797247
O O12 0.226377 0.653149 0.814300
O O13 0.158487 0.767631 0.065850
O O14 0.250000 0.250000 0.500000
O O15 0.319410 0.370930 0.483823
O O16 0.155680 0.110034 0.269231
O O17 0.232121 0.000000 0.295834
#
# Coordination Sequence:
#
# PCOD9214525 Si02
#       7
#     8   8   8   8   8   8   8
#     4  11  23  38  61  91 119 159 211 259 310 372
#     4  11  21  39  59  89 128 163 203 254 316 370
#     4  11  22  37  64  96 126 166 211 258 309 367
#     4  11  20  39  63  90 120 167 211 251 308 371
#     4   9  20  37  62  84 115 157 206 253 307 367
#     4  10  22  40  61  90 122 160 210 261 311 371
#     4  11  23  38  63  86 126 168 204 253 316 375
#
# _framework density 19.601026999999998
#
# number of rings (size 3 to 8) (size 9 to 14) (size 15 to 20)
#    0.000    1.429    2.857    3.000    0.000    3.429 
#    0.000    3.571    0.000    0.000    0.000    0.000 
#    0.000    0.000    0.000    0.000    0.000    0.000 
#
# Total GULP energy -156212.472626 kJ/mol
# GULP energy per Si atom -5579.016879 kJ/mol
# Density = 1.955641 g / cm^3
# Si number density = 19.601027 Si / 1000 Ang^3
#
#
#
# Elastic Constant Matrix: (Units=GPa)
#
#
# Indices 1 2 3 4 5 6 
#
# 1 94.3207 19.5430 11.1418 0.0000 0.5703 0.0000
# 2 19.5430 113.4747 51.4886 0.0000 5.7547 0.0000
# 3 11.1418 51.4886 78.2079 0.0000 10.0060 0.0000
# 4 0.0000 0.0000 0.0000 20.7466 0.0000 -0.1744
# 5 0.5703 5.7547 10.0060 0.0000 35.8326 0.0000
# 6 0.0000 0.0000 0.0000 -0.1744 0.0000 20.2443
#
#
#
# Elastic Compliance Matrix: (Units=1/GPa)
#
#
# Indices 1 2 3 4 5 6 
#
# 1 0.011008 -0.001686 -0.000488 0.000000 0.000232 0.000000
# 2 -0.001686 0.012828 -0.008239 0.000000 0.000267 0.000000
# 3 -0.000488 -0.008239 0.018781 0.000000 -0.003913 0.000000
# 4 0.000000 0.000000 0.000000 0.048204 0.000000 0.000415
# 5 0.000232 0.000267 -0.003913 0.000000 0.028954 0.000000
# 6 0.000000 0.000000 0.000000 0.000415 0.000000 0.049400
#
#
# Mechanical properties :
#
#
# Convention : Reuss Voigt Hill
#
# Bulk Modulus (GPa) = 45.89243 50.03891 47.96567
# Shear Modulus (GPa) = 25.34666 28.95336 27.15001
#
# Velocity S-wave (km/s) = 3.59991 3.84752 3.72577
# Velocity P-wave (km/s) = 6.38304 6.73216 6.55993
#
# Compressibility (1/GPa) = 0.02179009
#
# Stress axis : x y z
#
# Youngs Moduli (GPa) = 90.84531 77.95479 53.24525
#
# Poissons Ratio (x) = 0.13145 0.02597
# Poissons Ratio (y) = 0.15319 0.43871
# Poissons Ratio (z) = 0.04431 0.64230
#
# Static dielectric constant tensor:
#      x y z
#    x 1.766200 0.000000 -0.001080 
#    y 0.000000 1.659030 0.000000 
#    z -0.001080 0.000000 1.687490 
# 
# From -- ./inp_files/96758.got.cif
#   From: 2010.05.17/outbox.cif.g08.bks.cpg/sg12_49_cif.got.tgz:96758.got - 2010.06.03 13:09:07.
