data_PCOD9214472
_publ_section_title
;
Structure prediction by ZEFSAII (Michael W. Deem and Ramdas Pophale) SiO2 
 PCOD9214472
Probable space group: C 2/M
;
_chemical_formula_sum "Si O2"
_cell_formula_units_Z 40
_cell_length_a 14.535023
_cell_length_b 10.607855
_cell_length_c 13.793096
_cell_angle_alpha 90.000000
_cell_angle_beta 63.959407
_cell_angle_gamma 90.000000
_cell_volume 1910.799147
_symmetry_space_group_name_H-M "C 2/M"
_symmetry_group_IT_number 12
_symmetry_cell_setting 'monoclinic'
loop_
_space_group_symop_operation_xyz
x,y,z
-x,y,-z
-x,-y,-z
x,-y,z
1/2+x,1/2+y,z
1/2-x,1/2+y,-z
1/2-x,1/2-y,-z
1/2+x,1/2-y,z
loop_
_atom_site_type_symbol
_atom_site_label
_atom_site_fract_x
_atom_site_fract_y
_atom_site_fract_z
Si Si1 0.100089 0.217313 0.153496
Si Si2 0.381627 0.355675 0.167083
Si Si3 0.828218 0.364997 0.043576
Si Si4 0.978224 0.143253 0.615858
Si Si5 0.292674 0.639709 0.412645
O O1 0.205601 0.142420 0.088238
O O2 0.084463 0.221308 0.276278
O O3 0.997609 0.157480 0.154722
O O4 0.120151 0.344642 0.084943
O O5 0.368108 0.500000 0.139633
O O6 0.362498 0.251288 0.094668
O O7 0.303434 0.332476 0.293150
O O8 0.856822 0.500000 0.072899
O O9 0.000000 0.198320 0.500000
O O10 0.089950 0.128929 0.609146
O O11 0.933974 0.000000 0.625552
O O12 0.244736 0.500000 0.448660
O O13 0.250000 0.750000 0.500000
#
# Coordination Sequence:
#
# PCOD9214472 Si02
#       5
#     8   8   8   8   8
#     4  10  22  40  61  86 123 159 200 246 295 355
#     4  10  22  40  61  87 121 161 201 243 296 361
#     4  11  24  39  63  94 121 156 200 250 302 354
#     4   9  18  34  59  84 110 149 199 240 278 343
#     4   9  19  35  56  84 116 150 192 241 292 347
#
# _framework density 20.933648999999999
#
# number of rings (size 3 to 8) (size 9 to 14) (size 15 to 20)
#    0.000    2.200    0.000    3.600    2.800    8.000 
#    0.000    3.000    0.000    1.200    0.000    0.000 
#    0.000    0.000    0.000    0.000    0.000    0.000 
#
# Total GULP energy -111489.463511 kJ/mol
# GULP energy per Si atom -5574.473176 kJ/mol
# Density = 2.088600 g / cm^3
# Si number density = 20.933649 Si / 1000 Ang^3
#
#
#
# Elastic Constant Matrix: (Units=GPa)
#
#
# Indices 1 2 3 4 5 6 
#
# 1 58.4048 28.8343 24.2835 0.0000 2.3635 0.0000
# 2 28.8343 140.6958 87.7595 0.0000 3.4106 0.0000
# 3 24.2835 87.7595 167.5747 0.0000 5.9064 0.0000
# 4 0.0000 0.0000 0.0000 21.1071 0.0000 8.5834
# 5 2.3635 3.4106 5.9064 0.0000 30.9014 0.0000
# 6 0.0000 0.0000 0.0000 8.5834 0.0000 -0.0535
#
#
#
# Elastic Compliance Matrix: (Units=1/GPa)
#
#
# Indices 1 2 3 4 5 6 
#
# 1 0.019203 -0.003264 -0.001041 0.000000 -0.000909 0.000000
# 2 -0.003264 0.011111 -0.005347 0.000000 0.000045 0.000000
# 3 -0.001041 -0.005347 0.008956 0.000000 -0.001042 0.000000
# 4 0.000000 0.000000 0.000000 0.000715 0.000000 0.114745
# 5 -0.000909 0.000045 -0.001042 0.000000 0.032625 0.000000
# 6 0.000000 0.000000 0.000000 0.114745 0.000000 -0.282163
#
#
# Mechanical properties :
#
#
# Convention : Reuss Voigt Hill
#
# Bulk Modulus (GPa) = 50.08995 72.04779 61.06887
# Shear Modulus (GPa) = -27.23406 25.44418 -0.89494
#
# Velocity S-wave (km/s) = -3.61081 3.49014 -0.65455
# Velocity P-wave (km/s) = 2.56826 7.12273 5.35394
#
# Compressibility (1/GPa) = 0.01996409
#
# Stress axis : x y z
#
# Youngs Moduli (GPa) = 52.07514 90.00263 111.66232
#
# Poissons Ratio (x) = 0.29376 0.11628
# Poissons Ratio (y) = 0.16997 0.59710
# Poissons Ratio (z) = 0.05423 0.48128
#
# Static dielectric constant tensor:
#      x y z
#    x 1.771400 0.000000 0.027160 
#    y 0.000000 1.841290 0.000000 
#    z 0.027160 0.000000 1.814360 
# 
# From -- ./inp_files/220589.got.cif
#   From: 2010.05.17/outbox.cif.g08.bks.cpg/sg12_111_cif.got.tgz:220589.got - 2010.06.03 13:09:07.
