data_PCOD9214475
_publ_section_title
;
Structure prediction by ZEFSAII (Michael W. Deem and Ramdas Pophale) SiO2 
 PCOD9214475
Probable space group: C 2/M
;
_chemical_formula_sum "Si O2"
_cell_formula_units_Z 44
_cell_length_a 12.847053
_cell_length_b 25.265078
_cell_length_c 9.416535
_cell_angle_alpha 90.000000
_cell_angle_beta 132.443257
_cell_angle_gamma 90.000000
_cell_volume 2255.484750
_symmetry_space_group_name_H-M "C 2/M"
_symmetry_group_IT_number 12
_symmetry_cell_setting 'monoclinic'
loop_
_space_group_symop_operation_xyz
x,y,z
-x,y,-z
-x,-y,-z
x,-y,z
1/2+x,1/2+y,z
1/2-x,1/2+y,-z
1/2-x,1/2-y,-z
1/2+x,1/2-y,z
loop_
_atom_site_type_symbol
_atom_site_label
_atom_site_fract_x
_atom_site_fract_y
_atom_site_fract_z
Si Si1 0.628115 0.000000 0.221046
Si Si2 0.506891 0.390809 0.336480
Si Si3 0.901897 0.697974 0.539141
Si Si4 0.831298 0.000000 0.146550
Si Si5 0.685212 0.085403 0.497370
Si Si6 0.061873 0.211272 0.213475
Si Si7 0.663779 0.000000 0.701622
O O1 0.617573 0.951298 0.316906
O O2 0.764166 0.000000 0.243316
O O3 0.500000 0.000000 0.000000
O O4 0.500000 0.382828 0.500000
O O5 0.419653 0.444595 0.218007
O O6 0.666650 0.400611 0.436492
O O7 0.482146 0.335554 0.228689
O O8 0.913991 0.635269 0.570328
O O9 0.949981 0.733188 0.715675
O O10 0.732675 0.703868 0.360976
O O11 0.000000 0.715155 0.500000
O O12 0.716360 0.000000 0.912138
O O13 0.717786 0.052461 0.670029
O O14 0.000000 0.212294 0.000000
O O15 0.500000 0.000000 0.500000
#
# Coordination Sequence:
#
# PCOD9214475 Si02
#       7
#     4   8   8   4   8   8   4
#     4  11  22  39  56  92 130 169 214 260 308 394
#     4  11  22  40  64  92 128 162 207 270 321 376
#     4  10  22  43  68  90 127 175 212 267 328 379
#     4  12  23  36  68  97 125 176 215 255 335 380
#     4  10  22  40  61  86 129 166 208 266 316 374
#     4  10  24  43  65  97 129 164 220 272 320 383
#     4  11  24  40  58  91 133 167 209 261 314 389
#
# _framework density 19.508001
#
# number of rings (size 3 to 8) (size 9 to 14) (size 15 to 20)
#    0.000    1.455    1.818    3.545    5.091    2.182 
#    0.000    0.000    0.000    0.000    0.000    0.000 
#    0.000    0.000    0.000    0.000    0.000    0.000 
#
# Total GULP energy -122616.242631 kJ/mol
# GULP energy per Si atom -5573.465574 kJ/mol
# Density = 1.946360 g / cm^3
# Si number density = 19.508001 Si / 1000 Ang^3
#
#
#
# Elastic Constant Matrix: (Units=GPa)
#
#
# Indices 1 2 3 4 5 6 
#
# 1 93.1620 30.1850 24.3936 0.0000 -23.6137 0.0000
# 2 30.1850 134.1014 56.9468 0.0000 -25.9058 0.0000
# 3 24.3936 56.9468 117.9768 0.0000 -37.5704 0.0000
# 4 0.0000 0.0000 0.0000 -28.5349 0.0000 -19.9483
# 5 -23.6137 -25.9058 -37.5704 0.0000 33.0122 0.0000
# 6 0.0000 0.0000 0.0000 -19.9483 0.0000 46.3035
#
#
#
# Elastic Compliance Matrix: (Units=1/GPa)
#
#
# Indices 1 2 3 4 5 6 
#
# 1 0.013393 -0.001621 0.001034 0.000000 0.009484 0.000000
# 2 -0.001621 0.009835 -0.003645 0.000000 0.002411 0.000000
# 3 0.001034 -0.003645 0.014659 0.000000 0.014563 0.000000
# 4 0.000000 0.000000 0.000000 -0.026933 0.000000 -0.011603
# 5 0.009484 0.002411 0.014563 0.000000 0.055541 0.000000
# 6 0.000000 0.000000 0.000000 -0.011603 0.000000 0.016598
#
#
# Mechanical properties :
#
#
# Convention : Reuss Voigt Hill
#
# Bulk Modulus (GPa) = 33.98749 63.14344 48.56547
# Shear Modulus (GPa) = 49.32677 25.73715 37.53196
#
# Velocity S-wave (km/s) = 5.03391 3.63617 4.39102
# Velocity P-wave (km/s) = 7.15872 7.07582 7.11739
#
# Compressibility (1/GPa) = 0.02942259
#
# Stress axis : x y z
#
# Youngs Moduli (GPa) = 74.66864 101.67389 68.21580
#
# Poissons Ratio (x) = 0.16486 -0.07051
# Poissons Ratio (y) = 0.12107 0.24862
# Poissons Ratio (z) = -0.07718 0.37056
#
# Static dielectric constant tensor:
#      x y z
#    x 1.718270 0.000000 0.021330 
#    y 0.000000 1.791680 0.000000 
#    z 0.021330 0.000000 1.661970 
# 
# From -- ./inp_files/53462.got.cif
#   From: 2010.05.17/outbox.cif.g08.bks.cpg/sg12_27_cif.got.tgz:53462.got - 2010.06.03 13:09:07.
