data_PCOD9214336
_publ_section_title
;
Structure prediction by ZEFSAII (Michael W. Deem and Ramdas Pophale) SiO2 
 PCOD9214336
Probable space group: C 2/M
;
_chemical_formula_sum "Si O2"
_cell_formula_units_Z 48
_cell_length_a 24.922581
_cell_length_b 23.997917
_cell_length_c 11.153573
_cell_angle_alpha 90.000000
_cell_angle_beta 23.204012
_cell_angle_gamma 90.000000
_cell_volume 2628.353099
_symmetry_space_group_name_H-M "C 2/M"
_symmetry_group_IT_number 12
_symmetry_cell_setting 'monoclinic'
loop_
_space_group_symop_operation_xyz
x,y,z
-x,y,-z
-x,-y,-z
x,-y,z
1/2+x,1/2+y,z
1/2-x,1/2+y,-z
1/2-x,1/2-y,-z
1/2+x,1/2-y,z
loop_
_atom_site_type_symbol
_atom_site_label
_atom_site_fract_x
_atom_site_fract_y
_atom_site_fract_z
Si Si1 0.368028 0.269429 0.347987
Si Si2 0.797597 0.067715 0.299243
Si Si3 0.715833 0.142301 0.835664
Si Si4 0.155054 0.696861 0.208068
Si Si5 0.402577 0.565403 0.349441
Si Si6 0.407111 0.153444 0.403672
O O1 0.250000 0.250000 0.500000
O O2 0.304418 0.313406 0.573960
O O3 0.408143 0.212888 0.334547
O O4 0.500000 0.289564 0.000000
O O5 0.830902 0.080941 0.370200
O O6 0.679890 0.106502 0.487092
O O7 0.773669 0.000000 0.336350
O O8 0.943694 0.085100 0.943106
O O9 0.799787 0.085872 0.658784
O O10 0.698341 0.159065 0.008356
O O11 0.564782 0.136523 0.092468
O O12 0.154949 0.666591 0.336979
O O13 0.000000 0.714482 0.500000
O O14 0.250000 0.750000 0.000000
O O15 0.417302 0.500000 0.310752
#
# Coordination Sequence:
#
# PCOD9214336 Si02
#       6
#     8   8   8   8   8   8
#     4  12  24  35  54  87 118 147 186 237 288 346
#     4   9  20  38  61  87 117 151 189 238 291 345
#     4  11  23  38  59  85 116 154 194 237 287 340
#     4  10  22  40  58  81 115 157 199 237 278 336
#     4   9  20  38  60  87 116 150 191 237 291 345
#     4  11  23  39  58  84 118 154 195 235 286 345
#
# _framework density 18.262387
#
# number of rings (size 3 to 8) (size 9 to 14) (size 15 to 20)
#    0.000    1.667    3.333    2.000    4.667    2.000 
#    0.000    2.500    0.000    5.000    0.000    0.000 
#    0.000    0.000    0.000    0.000    0.000    0.000 
#
# Total GULP energy -133810.217626 kJ/mol
# GULP energy per Si atom -5575.425734 kJ/mol
# Density = 1.822082 g / cm^3
# Si number density = 18.262387 Si / 1000 Ang^3
#
#
#
# Elastic Constant Matrix: (Units=GPa)
#
#
# Indices 1 2 3 4 5 6 
#
# 1 40.4209 19.0622 32.7070 0.0029 -0.8847 -0.0081
# 2 19.0622 45.5087 27.9024 0.0013 -7.1632 -0.0030
# 3 32.7070 27.9024 115.8401 0.0037 11.0844 -0.0049
# 4 0.0029 0.0013 0.0037 32.9561 -0.0018 -4.3781
# 5 -0.8847 -7.1632 11.0844 -0.0018 20.4018 0.0044
# 6 -0.0081 -0.0030 -0.0049 -4.3781 0.0044 15.0551
#
#
#
# Elastic Compliance Matrix: (Units=1/GPa)
#
#
# Indices 1 2 3 4 5 6 
#
# 1 0.035870 -0.009706 -0.008030 0.000000 0.002510 0.000014
# 2 -0.009706 0.032222 -0.006396 0.000000 0.014367 -0.000005
# 3 -0.008030 -0.006396 0.013384 -0.000001 -0.009866 0.000001
# 4 0.000000 0.000000 -0.000001 0.031563 0.000001 0.009179
# 5 0.002510 0.014367 -0.009866 0.000001 0.059529 -0.000016
# 6 0.000014 -0.000005 0.000001 0.009179 -0.000016 0.069092
#
#
# Mechanical properties :
#
#
# Convention : Reuss Voigt Hill
#
# Bulk Modulus (GPa) = 30.10907 40.12365 35.11636
# Shear Modulus (GPa) = 16.61163 21.82244 19.21704
#
# Velocity S-wave (km/s) = 3.01924 3.46054 3.24740
# Velocity P-wave (km/s) = 5.35511 6.16323 5.77333
#
# Compressibility (1/GPa) = 0.03321259
#
# Stress axis : x y z
#
# Youngs Moduli (GPa) = 27.87884 31.03446 74.71436
#
# Poissons Ratio (x) = 0.30123 0.59995
# Poissons Ratio (y) = 0.27060 0.47784
# Poissons Ratio (z) = 0.22386 0.19848
#
# Static dielectric constant tensor:
#      x y z
#    x 1.609230 0.000000 0.016100 
#    y 0.000000 1.658560 0.000000 
#    z 0.016100 0.000000 1.647070 
# 
# From -- ./inp_files/121955.got.cif
#   From: 2010.05.17/outbox.cif.g08.bks.cpg/sg12_61_cif.got.tgz:121955.got - 2010.06.03 13:09:07.
