data_PCOD9214354
_publ_section_title
;
Structure prediction by ZEFSAII (Michael W. Deem and Ramdas Pophale) SiO2 
 PCOD9214354
Probable space group: C 2/M
;
_chemical_formula_sum "Si O2"
_cell_formula_units_Z 44
_cell_length_a 28.295377
_cell_length_b 17.406447
_cell_length_c 10.991626
_cell_angle_alpha 90.000000
_cell_angle_beta 159.768990
_cell_angle_gamma 90.000000
_cell_volume 1872.061844
_symmetry_space_group_name_H-M "C 2/M"
_symmetry_group_IT_number 12
_symmetry_cell_setting 'monoclinic'
loop_
_space_group_symop_operation_xyz
x,y,z
-x,y,-z
-x,-y,-z
x,-y,z
1/2+x,1/2+y,z
1/2-x,1/2+y,-z
1/2-x,1/2-y,-z
1/2+x,1/2-y,z
loop_
_atom_site_type_symbol
_atom_site_label
_atom_site_fract_x
_atom_site_fract_y
_atom_site_fract_z
Si Si1 0.626348 0.811587 0.067653
Si Si2 0.624668 0.909901 0.651489
Si Si3 0.500000 0.195420 0.000000
Si Si4 0.128717 0.091638 0.232726
Si Si5 0.656991 0.221864 0.886992
Si Si6 0.258391 0.909624 0.310888
O O1 0.567290 0.766276 0.042466
O O2 0.738951 0.868400 0.391621
O O3 0.501586 0.860933 0.709075
O O4 0.693322 0.766284 0.115932
O O5 0.657698 0.869795 0.858701
O O6 0.745817 0.898496 0.844407
O O7 0.595511 0.000000 0.591168
O O8 0.382636 0.140312 0.662829
O O9 0.130812 0.104541 0.091743
O O10 0.141042 0.000000 0.279201
O O11 0.000000 0.116947 0.000000
O O12 0.500000 0.249973 0.500000
O O13 0.750000 0.250000 0.000000
O O14 0.294408 0.000000 0.412673
#
# Coordination Sequence:
#
# PCOD9214354 Si02
#       6
#     8   8   4   8   8   8
#     4   9  17  30  53  80 110 139 185 225 281 328
#     4   9  17  31  56  85 107 135 186 243 280 320
#     4   8  13  24  46  74 100 130 163 224 268 322
#     4   9  16  26  43  74 116 149 174 215 278 342
#     4  10  22  40  59  82 110 153 192 231 285 341
#     4   8  13  23  41  69 103 134 166 212 273 323
#
# _framework density 23.503496999999999
#
# number of rings (size 3 to 8) (size 9 to 14) (size 15 to 20)
#    0.000    3.091    0.000    0.818    0.000    8.364 
#    3.273    0.000    0.000   18.000    2.364    0.000 
#    0.000    0.000    0.000    0.000    0.000    0.000 
#
# Total GULP energy -122728.682721 kJ/mol
# GULP energy per Si atom -5578.576487 kJ/mol
# Density = 2.345000 g / cm^3
# Si number density = 23.503497 Si / 1000 Ang^3
#
#
#
# Elastic Constant Matrix: (Units=GPa)
#
#
# Indices 1 2 3 4 5 6 
#
# 1 261.3984 50.3368 41.6407 0.0000 27.5146 0.0000
# 2 50.3368 80.4809 10.7697 0.0000 6.7106 0.0000
# 3 41.6407 10.7697 24.4196 0.0000 20.3355 0.0000
# 4 0.0000 0.0000 0.0000 -1.3886 0.0000 9.7338
# 5 27.5146 6.7106 20.3355 0.0000 38.6215 0.0000
# 6 0.0000 0.0000 0.0000 9.7338 0.0000 44.4329
#
#
#
# Elastic Compliance Matrix: (Units=1/GPa)
#
#
# Indices 1 2 3 4 5 6 
#
# 1 0.005711 -0.002362 -0.010062 0.000000 0.001640 0.000000
# 2 -0.002362 0.014223 -0.002828 0.000000 0.000701 0.000000
# 3 -0.010062 -0.002828 0.094345 0.000000 -0.042016 0.000000
# 4 0.000000 0.000000 0.000000 -0.284018 0.000000 0.062219
# 5 0.001640 0.000701 -0.042016 0.000000 0.046725 0.000000
# 6 0.000000 0.000000 0.000000 0.062219 0.000000 0.008876
#
#
# Mechanical properties :
#
#
# Convention : Reuss Voigt Hill
#
# Bulk Modulus (GPa) = 11.93693 63.53259 37.73476
# Shear Modulus (GPa) = -89.75186 33.90328 -27.92429
#
# Velocity S-wave (km/s) = -6.18623 3.80212 -3.45061
# Velocity P-wave (km/s) = 6.77762 6.80916 0.46283
#
# Compressibility (1/GPa) = 0.08377365
#
# Stress axis : x y z
#
# Youngs Moduli (GPa) = 175.11115 70.31020 10.59940
#
# Poissons Ratio (x) = 0.16607 0.10665
# Poissons Ratio (y) = 0.41362 0.02998
# Poissons Ratio (z) = 1.76195 0.19887
#
# Static dielectric constant tensor:
#      x y z
#    x 2.003580 0.000000 0.040730 
#    y 0.000000 1.929160 0.000000 
#    z 0.040730 0.000000 1.856790 
# 
# From -- ./inp_files/190120.got.cif
#   From: 2010.05.17/outbox.cif.g08.bks.cpg/sg12_96_cif.got.tgz:190120.got - 2010.06.03 13:09:07.
