data_PCOD9214959
_publ_section_title
;
Structure prediction by ZEFSAII (Michael W. Deem and Ramdas Pophale) SiO2 
 PCOD9214959
Probable space group: C 2/M
;
_chemical_formula_sum "Si O2"
_cell_formula_units_Z 44
_cell_length_a 19.367434
_cell_length_b 9.129609
_cell_length_c 13.546845
_cell_angle_alpha 90.000000
_cell_angle_beta 124.135648
_cell_angle_gamma 90.000000
_cell_volume 1982.628476
_symmetry_space_group_name_H-M "C 2/M"
_symmetry_group_IT_number 12
_symmetry_cell_setting 'monoclinic'
loop_
_space_group_symop_operation_xyz
x,y,z
-x,y,-z
-x,-y,-z
x,-y,z
1/2+x,1/2+y,z
1/2-x,1/2+y,-z
1/2-x,1/2-y,-z
1/2+x,1/2-y,z
loop_
_atom_site_type_symbol
_atom_site_label
_atom_site_fract_x
_atom_site_fract_y
_atom_site_fract_z
Si Si1 0.069540 0.165870 0.390440
Si Si2 0.286672 0.500000 0.175311
Si Si3 0.391364 0.000000 0.890110
Si Si4 0.140011 0.500000 0.915825
Si Si5 0.103072 0.283802 0.713059
Si Si6 0.298477 0.156842 0.402628
Si Si7 0.395213 0.328368 0.806915
O O1 0.159859 0.222029 0.495529
O O2 0.062577 0.170988 0.266692
O O3 0.995462 0.262226 0.375140
O O4 0.058626 0.000000 0.415896
O O5 0.210538 0.500000 0.192407
O O6 0.346817 0.634752 0.235370
O O7 0.235337 0.500000 0.031254
O O8 0.415089 0.166239 0.870861
O O9 0.588405 0.000000 0.976139
O O10 0.120920 0.366846 0.828962
O O11 0.144344 0.349647 0.649005
O O12 0.204251 0.177749 0.291643
O O13 0.302868 0.000000 0.459267
O O14 0.410254 0.500000 0.860277
#
# Coordination Sequence:
#
# PCOD9214959 Si02
#       7
#     8   4   4   4   8   8   8
#     4  11  26  40  62  94 132 170 208 259 325 381
#     4  10  22  40  66  96 115 167 215 260 324 378
#     4  10  22  43  72  94 117 174 219 268 322 373
#     4  10  24  41  66  98 122 164 216 268 322 383
#     4  12  22  42  63  95 132 158 212 270 316 385
#     4  11  23  39  64  93 128 175 211 258 312 383
#     4  10  23  44  65  96 133 169 218 264 311 387
#
# _framework density 22.192761999999998
#
# number of rings (size 3 to 8) (size 9 to 14) (size 15 to 20)
#    0.545    0.727    3.636    1.636    5.091    1.455 
#    1.636    1.818    0.000    2.182    0.000    0.000 
#    0.000    0.000    0.000    0.000    0.000    0.000 
#
# Total GULP energy -122604.773309 kJ/mol
# GULP energy per Si atom -5572.944241 kJ/mol
# Density = 2.214225 g / cm^3
# Si number density = 22.192762 Si / 1000 Ang^3
#
#
#
# Elastic Constant Matrix: (Units=GPa)
#
#
# Indices 1 2 3 4 5 6 
#
# 1 73.3726 12.4788 2.0342 0.0000 9.5598 0.0000
# 2 12.4788 156.6093 30.9293 0.0000 -10.6683 0.0000
# 3 2.0342 30.9293 50.6174 0.0000 -0.5595 0.0000
# 4 0.0000 0.0000 0.0000 -0.1576 0.0000 -5.6872
# 5 9.5598 -10.6683 -0.5595 0.0000 39.6078 0.0000
# 6 0.0000 0.0000 0.0000 -5.6872 0.0000 30.4522
#
#
#
# Elastic Compliance Matrix: (Units=1/GPa)
#
#
# Indices 1 2 3 4 5 6 
#
# 1 0.014373 -0.001462 0.000273 0.000000 -0.003859 0.000000
# 2 -0.001462 0.007555 -0.004532 0.000000 0.002324 0.000000
# 3 0.000273 -0.004532 0.022504 0.000000 -0.000969 0.000000
# 4 0.000000 0.000000 0.000000 -0.819859 0.000000 -0.153115
# 5 -0.003859 0.002324 -0.000969 0.000000 0.026791 0.000000
# 6 0.000000 0.000000 0.000000 -0.153115 0.000000 0.004243
#
#
# Mechanical properties :
#
#
# Convention : Reuss Voigt Hill
#
# Bulk Modulus (GPa) = 30.31248 41.27597 35.79422
# Shear Modulus (GPa) = -6.92564 29.65763 11.36599
#
# Velocity S-wave (km/s) = -1.76846 3.65960 2.26553
# Velocity P-wave (km/s) = 3.08520 6.04120 4.79659
#
# Compressibility (1/GPa) = 0.03298971
#
# Stress axis : x y z
#
# Youngs Moduli (GPa) = 69.57511 132.35972 44.43727
#
# Poissons Ratio (x) = 0.19352 -0.01214
# Poissons Ratio (y) = 0.10172 0.20139
# Poissons Ratio (z) = -0.01900 0.59986
#
# Static dielectric constant tensor:
#      x y z
#    x 1.811010 0.000000 -0.014810 
#    y 0.000000 1.430410 0.000000 
#    z -0.014810 0.000000 1.768510 
# 
# From -- ./inp_files/221863.got.cif
#   From: 2010.05.17/outbox.cif.g08.bks.cpg/sg12_111_cif.got.tgz:221863.got - 2010.06.03 13:09:07.
