data_PCOD9214671
_publ_section_title
;
Structure prediction by ZEFSAII (Michael W. Deem and Ramdas Pophale) SiO2 
 PCOD9214671
Probable space group: C 2/M
;
_chemical_formula_sum "Si O2"
_cell_formula_units_Z 48
_cell_length_a 7.576329
_cell_length_b 18.023798
_cell_length_c 22.908258
_cell_angle_alpha 90.000000
_cell_angle_beta 131.134113
_cell_angle_gamma 90.000000
_cell_volume 2356.086836
_symmetry_space_group_name_H-M "C 2/M"
_symmetry_group_IT_number 12
_symmetry_cell_setting 'monoclinic'
loop_
_space_group_symop_operation_xyz
x,y,z
-x,y,-z
-x,-y,-z
x,-y,z
1/2+x,1/2+y,z
1/2-x,1/2+y,-z
1/2-x,1/2-y,-z
1/2+x,1/2-y,z
loop_
_atom_site_type_symbol
_atom_site_label
_atom_site_fract_x
_atom_site_fract_y
_atom_site_fract_z
Si Si1 0.580019 0.083013 0.145948
Si Si2 0.261771 0.586905 0.411968
Si Si3 0.335039 0.659692 0.302690
Si Si4 0.294899 0.833045 0.322885
Si Si5 0.458404 0.416405 0.830618
Si Si6 0.686068 0.663711 0.989988
O O1 0.631486 0.133778 0.213301
O O2 0.828597 0.076857 0.168409
O O3 0.500406 0.000000 0.144714
O O4 0.409941 0.118419 0.060979
O O5 0.500000 0.597105 0.500000
O O6 0.196881 0.500000 0.398822
O O7 0.312672 0.612403 0.356730
O O8 0.049871 0.634691 0.393455
O O9 0.303752 0.745441 0.313126
O O10 0.586776 0.651337 0.324291
O O11 0.235491 0.873190 0.248393
O O12 0.389071 0.500000 0.833144
O O13 0.564097 0.369079 0.906329
O O14 0.500000 0.654812 0.000000
O O15 0.750000 0.750000 0.000000
#
# Coordination Sequence:
#
# PCOD9214671 Si02
#       6
#     8   8   8   8   8   8
#     4  10  22  40  63  90 126 167 212 265 325 384
#     4  11  26  46  70 101 136 174 217 273 338 400
#     4  11  23  43  69 101 133 176 221 273 330 395
#     4  11  23  43  69 101 133 176 221 273 330 395
#     4  10  22  40  63  90 126 167 212 265 325 384
#     4  12  25  38  57  87 121 169 217 268 320 375
#
# _framework density 20.372764
#
# number of rings (size 3 to 8) (size 9 to 14) (size 15 to 20)
#    0.000    1.167    1.667    4.000    2.333    8.667 
#    0.000    1.667    0.000    0.000    0.000    0.000 
#    0.000    0.000    0.000    0.000    0.000    0.000 
#
# Total GULP energy -134132.861900 kJ/mol
# GULP energy per Si atom -5588.869246 kJ/mol
# Density = 2.032640 g / cm^3
# Si number density = 20.372764 Si / 1000 Ang^3
#
#
#
# Elastic Constant Matrix: (Units=GPa)
#
#
# Indices 1 2 3 4 5 6 
#
# 1 56.2120 -18.7721 -14.1868 0.0000 -1.1303 0.0000
# 2 -18.7721 97.1061 7.2114 0.0000 8.8404 0.0001
# 3 -14.1868 7.2114 48.4905 0.0000 3.0287 0.0001
# 4 0.0000 0.0000 0.0000 27.2094 0.0000 -3.0162
# 5 -1.1303 8.8404 3.0287 0.0000 29.4686 0.0000
# 6 0.0000 0.0001 0.0001 -3.0162 0.0000 12.6507
#
#
#
# Elastic Compliance Matrix: (Units=1/GPa)
#
#
# Indices 1 2 3 4 5 6 
#
# 1 0.020359 0.003608 0.005474 0.000000 -0.000864 0.000000
# 2 0.003608 0.011320 -0.000427 0.000000 -0.003214 0.000000
# 3 0.005474 -0.000427 0.022410 0.000000 -0.001965 0.000000
# 4 0.000000 0.000000 0.000000 0.037750 0.000000 0.009000
# 5 -0.000864 -0.003214 -0.001965 0.000000 0.035067 0.000000
# 6 0.000000 0.000000 0.000000 0.009000 0.000000 0.081193
#
#
# Mechanical properties :
#
#
# Convention : Reuss Voigt Hill
#
# Bulk Modulus (GPa) = 14.00608 16.70150 15.35379
# Shear Modulus (GPa) = 23.30036 29.03614 26.16825
#
# Velocity S-wave (km/s) = 3.38553 3.77933 3.58784
# Velocity P-wave (km/s) = 4.70875 5.22113 4.97155
#
# Compressibility (1/GPa) = 0.07139758
#
# Stress axis : x y z
#
# Youngs Moduli (GPa) = 49.11895 88.34123 44.62228
#
# Poissons Ratio (x) = -0.31872 -0.24425
# Poissons Ratio (y) = -0.17721 0.01906
# Poissons Ratio (z) = -0.26886 0.03774
#
# Static dielectric constant tensor:
#      x y z
#    x 1.414740 0.000000 -1.224320 
#    y 0.000000 1.707680 0.000000 
#    z -1.224320 0.000000 -2.846290 
# 
# From -- ./inp_files/356351.got.cif
#   From: 2010.05.17/outbox.cif.g08.bks.cpg/sg12_179_cif.got.tgz:356351.got - 2010.06.03 13:09:07.
