data_PCOD9214207
_publ_section_title
;
Structure prediction by ZEFSAII (Michael W. Deem and Ramdas Pophale) SiO2 
 PCOD9214207
Probable space group: C 2/M
;
_chemical_formula_sum "Si O2"
_cell_formula_units_Z 48
_cell_length_a 17.392776
_cell_length_b 21.395120
_cell_length_c 8.670675
_cell_angle_alpha 90.000000
_cell_angle_beta 133.349179
_cell_angle_gamma 90.000000
_cell_volume 2346.284924
_symmetry_space_group_name_H-M "C 2/M"
_symmetry_group_IT_number 12
_symmetry_cell_setting 'monoclinic'
loop_
_space_group_symop_operation_xyz
x,y,z
-x,y,-z
-x,-y,-z
x,-y,z
1/2+x,1/2+y,z
1/2-x,1/2+y,-z
1/2-x,1/2-y,-z
1/2+x,1/2-y,z
loop_
_atom_site_type_symbol
_atom_site_label
_atom_site_fract_x
_atom_site_fract_y
_atom_site_fract_z
Si Si1 0.912853 0.235343 0.507959
Si Si2 0.440957 0.665599 0.066074
Si Si3 0.739398 0.570815 0.183321
Si Si4 0.373050 0.134683 0.632193
Si Si5 0.676440 0.202784 0.120996
Si Si6 0.072009 0.613595 0.749870
O O1 0.890808 0.297459 0.576852
O O2 0.800872 0.214667 0.286301
O O3 0.000000 0.247100 0.500000
O O4 0.967429 0.183286 0.688989
O O5 0.500000 0.638273 0.000000
O O6 0.352238 0.617477 0.997771
O O7 0.383593 0.731145 0.939467
O O8 0.703739 0.500000 0.157209
O O9 0.786203 0.599354 0.408394
O O10 0.833943 0.571521 0.187189
O O11 0.345825 0.154398 0.768904
O O12 0.483683 0.097635 0.757727
O O13 0.631724 0.173005 0.903498
O O14 0.000000 0.622677 0.500000
#
# Coordination Sequence:
#
# PCOD9214207 Si02
#       6
#     8   8   8   8   8   8
#     4  12  23  35  60 101 132 164 206 263 333 382
#     4  12  23  38  64  94 132 169 210 266 325 386
#     4  11  25  43  62  90 133 182 219 251 307 389
#     4  11  21  38  63  98 125 167 208 270 329 375
#     4  12  22  39  65  98 135 158 206 278 339 377
#     4  10  22  39  64  94 123 163 209 270 321 377
#
# _framework density 20.457874
#
# number of rings (size 3 to 8) (size 9 to 14) (size 15 to 20)
#    0.000    0.667    5.000    4.500    0.000    4.667 
#    0.000    0.833    0.000    9.500    0.000    0.000 
#    0.000    0.000    0.000    0.000    0.000    0.000 
#
# Total GULP energy -134008.681696 kJ/mol
# GULP energy per Si atom -5583.695071 kJ/mol
# Density = 2.041131 g / cm^3
# Si number density = 20.457874 Si / 1000 Ang^3
#
#
#
# Elastic Constant Matrix: (Units=GPa)
#
#
# Indices 1 2 3 4 5 6 
#
# 1 74.7095 9.8433 17.5076 0.0000 6.2985 0.0000
# 2 9.8433 75.7589 17.4257 0.0000 -1.3499 0.0000
# 3 17.5076 17.4257 82.3978 0.0000 20.8285 0.0000
# 4 0.0000 0.0000 0.0000 1.4276 0.0000 -4.0352
# 5 6.2985 -1.3499 20.8285 0.0000 35.1284 0.0000
# 6 0.0000 0.0000 0.0000 -4.0352 0.0000 10.2031
#
#
#
# Elastic Compliance Matrix: (Units=1/GPa)
#
#
# Indices 1 2 3 4 5 6 
#
# 1 0.014230 -0.001304 -0.002459 0.000000 -0.001144 0.000000
# 2 -0.001304 0.014211 -0.003441 0.000000 0.002820 0.000000
# 3 -0.002459 -0.003441 0.015655 0.000000 -0.008973 0.000000
# 4 0.000000 0.000000 0.000000 -5.942524 0.000000 -2.350214
# 5 -0.001144 0.002820 -0.008973 0.000000 0.034101 0.000000
# 6 0.000000 0.000000 0.000000 -2.350214 0.000000 -0.831479
#
#
# Mechanical properties :
#
#
# Convention : Reuss Voigt Hill
#
# Bulk Modulus (GPa) = 33.68361 35.82438 34.75399
# Shear Modulus (GPa) = -0.74946 21.89115 10.57085
#
# Velocity S-wave (km/s) = -0.60592 3.27473 2.27560
# Velocity P-wave (km/s) = 4.00139 5.64338 4.89177
#
# Compressibility (1/GPa) = 0.02968803
#
# Stress axis : x y z
#
# Youngs Moduli (GPa) = 70.27642 70.36823 63.87846
#
# Poissons Ratio (x) = 0.09174 0.15705
# Poissons Ratio (y) = 0.09162 0.21982
# Poissons Ratio (z) = 0.17278 0.24216
#
# Static dielectric constant tensor:
#      x y z
#    x 1.797650 0.000000 -0.022720 
#    y 0.000000 1.705120 0.000000 
#    z -0.022720 0.000000 1.758990 
# 
# From -- ./inp_files/77699.got.cif
#   From: 2010.05.17/outbox.cif.g08.bks.cpg/sg12_39_cif.got.tgz:77699.got - 2010.06.03 13:09:07.
