data_PCOD9214584
_publ_section_title
;
Structure prediction by ZEFSAII (Michael W. Deem and Ramdas Pophale) SiO2 
 PCOD9214584
Probable space group: C 2/M
;
_chemical_formula_sum "Si O2"
_cell_formula_units_Z 48
_cell_length_a 18.135759
_cell_length_b 8.804032
_cell_length_c 31.387540
_cell_angle_alpha 90.000000
_cell_angle_beta 30.037959
_cell_angle_gamma 90.000000
_cell_volume 2508.664614
_symmetry_space_group_name_H-M "C 2/M"
_symmetry_group_IT_number 12
_symmetry_cell_setting 'monoclinic'
loop_
_space_group_symop_operation_xyz
x,y,z
-x,y,-z
-x,-y,-z
x,-y,z
1/2+x,1/2+y,z
1/2-x,1/2+y,-z
1/2-x,1/2-y,-z
1/2+x,1/2-y,z
loop_
_atom_site_type_symbol
_atom_site_label
_atom_site_fract_x
_atom_site_fract_y
_atom_site_fract_z
Si Si1 0.416355 0.181263 0.250047
Si Si2 0.405350 0.317805 0.089123
Si Si3 0.581238 0.319210 0.248534
Si Si4 0.086749 0.182104 0.084078
Si Si5 0.590101 0.818437 0.411695
Si Si6 0.913114 0.181785 0.420898
O O1 0.499811 0.235442 0.250716
O O2 0.500987 0.249195 0.167067
O O3 0.250402 0.243723 0.333616
O O4 0.415863 0.000000 0.247800
O O5 0.379676 0.500000 0.101040
O O6 0.249555 0.234389 0.166924
O O7 0.497861 0.282294 0.085256
O O8 0.500000 0.278093 0.000000
O O9 0.573902 0.500000 0.244968
O O10 0.499463 0.285476 0.333879
O O11 0.094812 0.000000 0.084088
O O12 0.250000 0.250000 0.000000
O O13 0.500000 0.787002 0.500000
O O14 0.500598 0.753658 0.416499
O O15 0.605948 0.000000 0.399592
O O16 0.750000 0.250000 0.500000
O O17 0.905297 0.000000 0.429919
#
# Coordination Sequence:
#
# PCOD9214584 Si02
#       6
#     8   8   8   8   8   8
#     4  12  25  41  63  90 123 163 207 253 304 365
#     4  10  22  40  62  90 122 157 199 246 299 361
#     4  11  24  41  62  90 122 157 202 253 304 361
#     4  11  23  40  64  93 127 164 204 252 305 362
#     4  11  24  42  64  91 124 161 204 255 308 364
#     4  11  24  41  63  92 124 160 203 251 306 368
#
# _framework density 19.133685
#
# number of rings (size 3 to 8) (size 9 to 14) (size 15 to 20)
#    0.000    1.000    0.000    6.500    0.000   13.667 
#    0.000    0.000    0.000    0.000    0.000    0.000 
#    0.000    0.000    0.000    0.000    0.000    0.000 
#
# Total GULP energy -134360.877525 kJ/mol
# GULP energy per Si atom -5598.369897 kJ/mol
# Density = 1.909014 g / cm^3
# Si number density = 19.133685 Si / 1000 Ang^3
#
#
#
# Elastic Constant Matrix: (Units=GPa)
#
#
# Indices 1 2 3 4 5 6 
#
# 1 205.6982 108.4190 124.0579 -0.0003 -1.2621 -0.0038
# 2 108.4190 109.3391 109.8436 0.0016 5.8425 -0.0042
# 3 124.0579 109.8436 202.7163 -0.0010 -7.7130 0.0007
# 4 -0.0003 0.0016 -0.0010 35.6255 0.0000 -10.5719
# 5 -1.2621 5.8425 -7.7130 0.0000 42.3825 0.0000
# 6 -0.0038 -0.0042 0.0007 -10.5719 0.0000 30.9030
#
#
#
# Elastic Compliance Matrix: (Units=1/GPa)
#
#
# Indices 1 2 3 4 5 6 
#
# 1 0.010512 -0.008948 -0.001537 0.000001 0.001267 0.000000
# 2 -0.008948 0.028698 -0.010307 -0.000001 -0.006098 0.000003
# 3 -0.001537 -0.010307 0.011591 0.000000 0.003484 -0.000002
# 4 0.000001 -0.000001 0.000000 0.031241 0.000000 0.010688
# 5 0.001267 -0.006098 0.003484 0.000000 0.025107 -0.000001
# 6 0.000000 0.000003 -0.000002 0.010688 -0.000001 0.036015
#
#
# Mechanical properties :
#
#
# Convention : Reuss Voigt Hill
#
# Bulk Modulus (GPa) = 108.46884 133.59942 121.03413
# Shear Modulus (GPa) = 26.62120 33.47774 30.04947
#
# Velocity S-wave (km/s) = 3.73410 4.18745 3.96725
# Velocity P-wave (km/s) = 8.68357 9.66206 9.18585
#
# Compressibility (1/GPa) = 0.00921924
#
# Stress axis : x y z
#
# Youngs Moduli (GPa) = 95.12840 34.84524 86.27571
#
# Poissons Ratio (x) = 0.31178 0.13257
# Poissons Ratio (y) = 0.85117 0.88922
# Poissons Ratio (z) = 0.14618 0.35914
#
# Static dielectric constant tensor:
#      x y z
#    x 1.625800 0.000000 0.009900 
#    y 0.000000 1.638870 0.000000 
#    z 0.009900 0.000000 1.624140 
# 
# From -- ./inp_files/377906.got.cif
#   From: 2010.05.17/outbox.cif.g08.bks.cpg/sg12_189_cif.got.tgz:377906.got - 2010.06.03 13:09:07.
