data_PCOD9214433
_publ_section_title
;
Structure prediction by ZEFSAII (Michael W. Deem and Ramdas Pophale) SiO2 
 PCOD9214433
Probable space group: C 2/M
;
_chemical_formula_sum "Si O2"
_cell_formula_units_Z 34
_cell_length_a 19.357153
_cell_length_b 13.743137
_cell_length_c 9.403174
_cell_angle_alpha 90.000000
_cell_angle_beta 139.405296
_cell_angle_gamma 90.000000
_cell_volume 1627.741101
_symmetry_space_group_name_H-M "C 2/M"
_symmetry_group_IT_number 12
_symmetry_cell_setting 'monoclinic'
loop_
_space_group_symop_operation_xyz
x,y,z
-x,y,-z
-x,-y,-z
x,-y,z
1/2+x,1/2+y,z
1/2-x,1/2+y,-z
1/2-x,1/2-y,-z
1/2+x,1/2-y,z
loop_
_atom_site_type_symbol
_atom_site_label
_atom_site_fract_x
_atom_site_fract_y
_atom_site_fract_z
Si Si1 0.453660 0.605455 0.134546
Si Si2 0.656296 0.720081 0.458070
Si Si3 0.507983 0.111464 0.343482
Si Si4 0.197173 0.717058 0.064016
Si Si5 0.000000 0.000000 0.500000
O O1 0.425600 0.500000 0.029105
O O2 0.567370 0.646384 0.261521
O O3 0.470648 0.583441 0.330857
O O4 0.364726 0.687245 0.975633
O O5 0.750000 0.750000 0.500000
O O6 0.591256 0.815164 0.405008
O O7 0.714735 0.680015 0.689532
O O8 0.500000 0.128180 0.500000
O O9 0.537110 0.000000 0.363797
O O10 0.392505 0.136837 0.101707
O O11 0.250000 0.750000 0.000000
#
# Coordination Sequence:
#
# PCOD9214433 Si02
#       5
#     8   8   8   8   2
#     4   9  21  36  59  87 120 149 196 246 288 343
#     4  11  24  41  60  88 125 157 192 246 302 348
#     4  10  22  40  60  89 123 153 197 250 289 348
#     4  11  21  37  64  90 114 158 203 238 292 354
#     4   8  16  36  60  82 118 144 190 248 292 316
#
# _framework density 20.887841999999999
#
# number of rings (size 3 to 8) (size 9 to 14) (size 15 to 20)
#    0.706    1.176    2.353    1.412    3.294    7.529 
#    0.000    2.353    0.000    0.000    0.000    0.000 
#    0.000    0.000    0.000    0.000    0.000    0.000 
#
# Total GULP energy -94691.822654 kJ/mol
# GULP energy per Si atom -5570.107215 kJ/mol
# Density = 2.084030 g / cm^3
# Si number density = 20.887842 Si / 1000 Ang^3
#
#
#
# Elastic Constant Matrix: (Units=GPa)
#
#
# Indices 1 2 3 4 5 6 
#
# 1 71.2067 6.5585 9.7908 0.0000 13.9269 0.0000
# 2 6.5585 82.2642 -2.4789 0.0000 10.2344 0.0000
# 3 9.7908 -2.4789 65.7221 0.0000 16.0610 0.0000
# 4 0.0000 0.0000 0.0000 12.5160 0.0000 -9.2362
# 5 13.9269 10.2344 16.0610 0.0000 30.1533 0.0000
# 6 0.0000 0.0000 0.0000 -9.2362 0.0000 9.5063
#
#
#
# Elastic Compliance Matrix: (Units=1/GPa)
#
#
# Indices 1 2 3 4 5 6 
#
# 1 0.015476 -0.000430 -0.000702 0.000000 -0.006628 0.000000
# 2 -0.000430 0.012884 0.001805 0.000000 -0.005136 0.000000
# 3 -0.000702 0.001805 0.017772 0.000000 -0.009755 0.000000
# 4 0.000000 0.000000 0.000000 0.282303 0.000000 0.274280
# 5 -0.006628 -0.005136 -0.009755 0.000000 0.043164 0.000000
# 6 0.000000 0.000000 0.000000 0.274280 0.000000 0.371679
#
#
# Mechanical properties :
#
#
# Convention : Reuss Voigt Hill
#
# Bulk Modulus (GPa) = 21.06282 27.43707 24.24995
# Shear Modulus (GPa) = 6.59841 24.12330 15.36086
#
# Velocity S-wave (km/s) = 1.77928 3.40206 2.71476
# Velocity P-wave (km/s) = 3.78507 5.34752 4.63264
#
# Compressibility (1/GPa) = 0.04747701
#
# Stress axis : x y z
#
# Youngs Moduli (GPa) = 64.61572 77.61822 56.26804
#
# Poissons Ratio (x) = 0.03341 0.03950
# Poissons Ratio (y) = 0.02781 -0.10157
# Poissons Ratio (z) = 0.04536 -0.14011
#
# Static dielectric constant tensor:
#      x y z
#    x 1.751540 0.000000 -0.030450 
#    y 0.000000 1.725290 0.000000 
#    z -0.030450 0.000000 1.757170 
# 
# From -- ./inp_files/73405.got.cif
#   From: 2010.05.17/outbox.cif.g08.bks.cpg/sg12_37_cif.got.tgz:73405.got - 2010.06.03 13:09:07.
