data_PCOD9214892
_publ_section_title
;
Structure prediction by ZEFSAII (Michael W. Deem and Ramdas Pophale) SiO2 
 PCOD9214892
Probable space group: C 2/M
;
_chemical_formula_sum "Si O2"
_cell_formula_units_Z 50
_cell_length_a 20.278245
_cell_length_b 7.692298
_cell_length_c 18.382300
_cell_angle_alpha 90.000000
_cell_angle_beta 52.043568
_cell_angle_gamma 90.000000
_cell_volume 2260.873531
_symmetry_space_group_name_H-M "C 2/M"
_symmetry_group_IT_number 12
_symmetry_cell_setting 'monoclinic'
loop_
_space_group_symop_operation_xyz
x,y,z
-x,y,-z
-x,-y,-z
x,-y,z
1/2+x,1/2+y,z
1/2-x,1/2+y,-z
1/2-x,1/2-y,-z
1/2+x,1/2-y,z
loop_
_atom_site_type_symbol
_atom_site_label
_atom_site_fract_x
_atom_site_fract_y
_atom_site_fract_z
Si Si1 0.785702 0.707384 0.396509
Si Si2 0.621909 0.711056 0.420654
Si Si3 0.030831 0.703180 0.763014
Si Si4 0.500000 0.000000 0.500000
Si Si5 0.943511 0.289153 0.969801
Si Si6 0.403914 0.304123 0.726949
Si Si7 0.254025 0.300149 0.081628
O O1 0.793239 0.500000 0.389348
O O2 0.750000 0.750000 0.500000
O O3 0.714291 0.752190 0.386746
O O4 0.877883 0.780046 0.316666
O O5 0.607610 0.500000 0.438896
O O6 0.556725 0.843171 0.501086
O O7 0.612834 0.765632 0.342204
O O8 0.043273 0.500000 0.771428
O O9 0.983847 0.775160 0.866431
O O10 0.969864 0.714877 0.735252
O O11 0.939426 0.500000 0.970454
O O12 0.848833 0.225886 0.042209
O O13 0.000000 0.238502 0.000000
O O14 0.435145 0.500000 0.696365
O O15 0.314632 0.304644 0.827443
O O16 0.229037 0.500000 0.106246
O O17 0.250000 0.250000 0.000000
#
# Coordination Sequence:
#
# PCOD9214892 Si02
#       7
#     8   8   8   2   8   8   8
#     4  10  24  44  66  95 135 174 220 274 332 398
#     4  10  26  46  69 105 137 176 224 278 341 404
#     4  10  22  40  65  94 128 172 223 272 327 399
#     4  12  26  44  80  94 140 170 234 284 340 402
#     4  10  22  40  65  94 128 173 216 265 334 397
#     4  11  24  42  66  95 134 176 220 276 333 394
#     4  12  24  40  64  94 132 172 223 275 329 393
#
# _framework density 22.115345000000001
#
# number of rings (size 3 to 8) (size 9 to 14) (size 15 to 20)
#    0.000    1.440    1.600    2.160    7.840    0.960 
#    0.000    0.000    0.000    0.000    0.000    0.000 
#    0.000    0.000    0.000    0.000    0.000    0.000 
#
# Total GULP energy -139439.350998 kJ/mol
# GULP energy per Si atom -5577.574040 kJ/mol
# Density = 2.206501 g / cm^3
# Si number density = 22.115345 Si / 1000 Ang^3
#
#
#
# Elastic Constant Matrix: (Units=GPa)
#
#
# Indices 1 2 3 4 5 6 
#
# 1 155.6725 20.3961 58.4760 0.0001 -15.1529 -0.0007
# 2 20.3961 64.9450 -3.2925 -0.0002 -3.0516 -0.0005
# 3 58.4760 -3.2925 100.2682 0.0000 -5.3653 -0.0001
# 4 0.0001 -0.0002 0.0000 9.3592 0.0002 0.9021
# 5 -15.1529 -3.0516 -5.3653 0.0002 45.6335 -0.0001
# 6 -0.0007 -0.0005 -0.0001 0.9021 -0.0001 27.0379
#
#
#
# Elastic Compliance Matrix: (Units=1/GPa)
#
#
# Indices 1 2 3 4 5 6 
#
# 1 0.008989 -0.002986 -0.005224 0.000000 0.002171 0.000000
# 2 -0.002986 0.016470 0.002302 0.000000 0.000381 0.000000
# 3 -0.005224 0.002302 0.013093 0.000000 -0.000041 0.000000
# 4 0.000000 0.000000 0.000000 0.107191 0.000000 -0.003576
# 5 0.002171 0.000381 -0.000041 0.000000 0.022655 0.000000
# 6 0.000000 0.000000 0.000000 -0.003576 0.000000 0.037104
#
#
# Mechanical properties :
#
#
# Convention : Reuss Voigt Hill
#
# Bulk Modulus (GPa) = 37.40098 52.44941 44.92520
# Shear Modulus (GPa) = 22.10148 32.75986 27.43067
#
# Velocity S-wave (km/s) = 3.16472 3.85296 3.52567
# Velocity P-wave (km/s) = 5.50476 6.60012 6.07717
#
# Compressibility (1/GPa) = 0.02673727
#
# Stress axis : x y z
#
# Youngs Moduli (GPa) = 111.25290 60.71675 76.37531
#
# Poissons Ratio (x) = 0.18128 0.39898
# Poissons Ratio (y) = 0.33217 -0.17585
# Poissons Ratio (z) = 0.58118 -0.13980
#
# Static dielectric constant tensor:
#      x y z
#    x 1.758080 0.000000 0.008060 
#    y 0.000000 1.847060 0.000000 
#    z 0.008060 0.000000 1.857650 
# 
# From -- ./inp_files/274964.got.cif
#   From: 2010.05.17/outbox.cif.g08.bks.cpg/sg12_138_cif.got.tgz:274964.got - 2010.06.03 13:09:07.
