data_PCOD9214009
_publ_section_title
;
Structure prediction by ZEFSAII (Michael W. Deem and Ramdas Pophale) SiO2 
 PCOD9214009
Probable space group: C 2/M
;
_chemical_formula_sum "Si O2"
_cell_formula_units_Z 50
_cell_length_a 31.733059
_cell_length_b 8.891864
_cell_length_c 32.437451
_cell_angle_alpha 90.000000
_cell_angle_beta 163.398422
_cell_angle_gamma 90.000000
_cell_volume 2615.074992
_symmetry_space_group_name_H-M "C 2/M"
_symmetry_group_IT_number 12
_symmetry_cell_setting 'monoclinic'
loop_
_space_group_symop_operation_xyz
x,y,z
-x,y,-z
-x,-y,-z
x,-y,z
1/2+x,1/2+y,z
1/2-x,1/2+y,-z
1/2-x,1/2-y,-z
1/2+x,1/2-y,z
loop_
_atom_site_type_symbol
_atom_site_label
_atom_site_fract_x
_atom_site_fract_y
_atom_site_fract_z
Si Si1 0.922908 0.322040 0.557847
Si Si2 0.694537 0.178875 0.405708
Si Si3 0.483294 0.822291 0.031912
Si Si4 0.264058 0.319336 0.891433
Si Si5 0.140483 0.681630 0.931577
Si Si6 0.764195 0.335253 0.323938
Si Si7 0.000000 0.500000 0.500000
O O1 0.910479 0.500000 0.556235
O O2 0.808618 0.231315 0.478079
O O3 0.872810 0.304209 0.463720
O O4 0.092082 0.279127 0.723820
O O5 0.750000 0.250000 0.500000
O O6 0.527528 0.223718 0.237673
O O7 0.695816 0.000000 0.410755
O O8 0.639528 0.785100 0.199664
O O9 0.453449 0.000000 0.004333
O O10 0.500000 0.771784 0.000000
O O11 0.359100 0.738430 0.941896
O O12 0.274584 0.500000 0.904187
O O13 0.320822 0.245525 0.987042
O O14 0.152402 0.500000 0.942898
O O15 0.250000 0.750000 0.000000
O O16 0.691232 0.500000 0.264786
O O17 0.871459 0.371189 0.386516
#
# Coordination Sequence:
#
# PCOD9214009 Si02
#       7
#     8   8   8   8   8   8   2
#     4  10  22  39  61  90 121 153 199 252 299 356
#     4  11  24  40  61  88 120 160 200 245 299 356
#     4  11  25  41  59  88 126 164 204 252 307 364
#     4  11  24  40  64  93 121 160 206 252 305 362
#     4  11  24  42  64  92 128 161 202 251 302 363
#     4   9  20  38  64  87 117 154 201 248 299 354
#     4   8  20  36  68  92 116 152 208 252 304 352
#
# _framework density 19.119910999999998
#
# number of rings (size 3 to 8) (size 9 to 14) (size 15 to 20)
#    0.480    1.120    0.000    3.840    2.240   12.160 
#    0.000    0.400    0.000    0.000    0.000    0.000 
#    0.000    0.000    0.000    0.000    0.000    0.000 
#
# Total GULP energy -139289.295451 kJ/mol
# GULP energy per Si atom -5571.571818 kJ/mol
# Density = 1.907639 g / cm^3
# Si number density = 19.119911 Si / 1000 Ang^3
#
#
#
# Elastic Constant Matrix: (Units=GPa)
#
#
# Indices 1 2 3 4 5 6 
#
# 1 107.5997 47.3304 66.2411 0.0015 12.7565 0.0001
# 2 47.3304 50.6304 58.8662 0.0032 4.5445 0.0006
# 3 66.2411 58.8662 157.6359 0.0238 11.1773 0.0053
# 4 0.0015 0.0032 0.0238 28.9170 0.0057 -0.0511
# 5 12.7565 4.5445 11.1773 0.0057 39.1489 -0.0003
# 6 0.0001 0.0006 0.0053 -0.0511 -0.0003 27.2607
#
#
#
# Elastic Compliance Matrix: (Units=1/GPa)
#
#
# Indices 1 2 3 4 5 6 
#
# 1 0.016564 -0.013020 -0.001860 0.000003 -0.003355 0.000001
# 2 -0.013020 0.045146 -0.011551 0.000005 0.002300 0.000001
# 3 -0.001860 -0.011551 0.011534 -0.000008 -0.001346 -0.000002
# 4 0.000003 0.000005 -0.000008 0.034582 -0.000004 0.000065
# 5 -0.003355 0.002300 -0.001346 -0.000004 0.026754 0.000001
# 6 0.000001 0.000001 -0.000002 0.000065 0.000001 0.036683
#
#
# Mechanical properties :
#
#
# Convention : Reuss Voigt Hill
#
# Bulk Modulus (GPa) = 49.06410 73.41571 61.23991
# Shear Modulus (GPa) = 21.65262 28.62722 25.13992
#
# Velocity S-wave (km/s) = 3.36886 3.87362 3.63003
# Velocity P-wave (km/s) = 6.39134 7.64771 7.04758
#
# Compressibility (1/GPa) = 0.02038150
#
# Stress axis : x y z
#
# Youngs Moduli (GPa) = 60.37181 22.15055 86.69803
#
# Poissons Ratio (x) = 0.28841 0.16129
# Poissons Ratio (y) = 0.78606 1.00141
# Poissons Ratio (z) = 0.11232 0.25585
#
# Static dielectric constant tensor:
#      x y z
#    x 1.653060 0.000000 -0.016440 
#    y 0.000000 1.658080 0.000000 
#    z -0.016440 0.000000 1.643250 
# 
# From -- ./inp_files/384816.got.cif
#   From: 2010.05.17/outbox.cif.g08.bks.cpg/sg12_193_cif.got.tgz:384816.got - 2010.06.03 13:09:07.
