data_PCOD9214541
_publ_section_title
;
Structure prediction by ZEFSAII (Michael W. Deem and Ramdas Pophale) SiO2 
 PCOD9214541
Probable space group: C 2/M
;
_chemical_formula_sum "Si O2"
_cell_formula_units_Z 50
_cell_length_a 14.521169
_cell_length_b 14.951494
_cell_length_c 12.803528
_cell_angle_alpha 90.000000
_cell_angle_beta 115.260543
_cell_angle_gamma 90.000000
_cell_volume 2513.999350
_symmetry_space_group_name_H-M "C 2/M"
_symmetry_group_IT_number 12
_symmetry_cell_setting 'monoclinic'
loop_
_space_group_symop_operation_xyz
x,y,z
-x,y,-z
-x,-y,-z
x,-y,z
1/2+x,1/2+y,z
1/2-x,1/2+y,-z
1/2-x,1/2-y,-z
1/2+x,1/2-y,z
loop_
_atom_site_type_symbol
_atom_site_label
_atom_site_fract_x
_atom_site_fract_y
_atom_site_fract_z
Si Si1 0.357690 0.599922 0.689287
Si Si2 0.683439 0.261099 0.863845
Si Si3 0.467458 0.748728 0.863994
Si Si4 0.328344 0.311212 0.472268
Si Si5 0.139364 0.647804 0.649551
Si Si6 0.701428 0.104853 0.232048
Si Si7 0.500000 0.000000 0.500000
O O1 0.394949 0.500000 0.724191
O O2 0.393906 0.668516 0.794497
O O3 0.389798 0.636759 0.590896
O O4 0.234526 0.601768 0.635656
O O5 0.567295 0.267750 0.843856
O O6 0.679404 0.177363 0.782296
O O7 0.731839 0.344320 0.824133
O O8 0.750000 0.250000 0.000000
O O9 0.404396 0.839769 0.812649
O O10 0.500000 0.746863 0.000000
O O11 0.250000 0.250000 0.500000
O O12 0.382443 0.240964 0.421645
O O13 0.263213 0.378065 0.369038
O O14 0.047553 0.579127 0.599374
O O15 0.687581 0.000000 0.205738
#
# Coordination Sequence:
#
# PCOD9214541 Si02
#       7
#     8   8   8   8   8   8   2
#     4  11  21  40  65  94 130 177 227 269 331 411
#     4  11  23  47  68  91 137 188 225 283 354 413
#     4  12  24  44  71  96 134 182 228 284 353 406
#     4   9  18  39  65  90 130 182 202 268 346 403
#     4  10  22  40  61  94 139 173 211 281 348 409
#     4  11  23  44  71 103 138 176 231 289 345 413
#     4  12  24  36  64 108 134 164 230 282 352 418
#
# _framework density 19.888629000000002
#
# number of rings (size 3 to 8) (size 9 to 14) (size 15 to 20)
#    0.000    1.280    7.200    0.480    2.240    1.280 
#    8.640    0.000    0.000    2.880    0.000    0.000 
#    0.000    0.000    0.000    0.000    0.000    0.000 
#
# Total GULP energy -139191.650838 kJ/mol
# GULP energy per Si atom -5567.666034 kJ/mol
# Density = 1.984336 g / cm^3
# Si number density = 19.888629 Si / 1000 Ang^3
#
#
#
# Elastic Constant Matrix: (Units=GPa)
#
#
# Indices 1 2 3 4 5 6 
#
# 1 56.4103 -0.3289 -5.9190 0.0000 5.1937 0.0000
# 2 -0.3289 142.9628 53.7849 0.0000 16.2561 0.0000
# 3 -5.9190 53.7849 121.6485 0.0000 7.7995 0.0000
# 4 0.0000 0.0000 0.0000 11.7503 0.0000 -0.0313
# 5 5.1937 16.2561 7.7995 0.0000 22.3076 0.0000
# 6 0.0000 0.0000 0.0000 -0.0313 0.0000 10.5887
#
#
#
# Elastic Compliance Matrix: (Units=1/GPa)
#
#
# Indices 1 2 3 4 5 6 
#
# 1 0.018285 0.000161 0.001124 0.000000 -0.004768 0.000000
# 2 0.000161 0.008957 -0.003612 0.000000 -0.005302 0.000000
# 3 0.001124 -0.003612 0.009943 0.000000 -0.001106 0.000000
# 4 0.000000 0.000000 0.000000 0.085105 0.000000 0.000252
# 5 -0.004768 -0.005302 -0.001106 0.000000 0.050188 0.000000
# 6 0.000000 0.000000 0.000000 0.000252 0.000000 0.094441
#
#
# Mechanical properties :
#
#
# Convention : Reuss Voigt Hill
#
# Bulk Modulus (GPa) = 30.73971 46.23283 38.48627
# Shear Modulus (GPa) = 17.70430 27.16163 22.43297
#
# Velocity S-wave (km/s) = 2.98681 3.69953 3.36211
# Velocity P-wave (km/s) = 5.23299 6.44554 5.87066
#
# Compressibility (1/GPa) = 0.03253121
#
# Stress axis : x y z
#
# Youngs Moduli (GPa) = 54.68932 111.64282 100.57135
#
# Poissons Ratio (x) = -0.01801 -0.11305
# Poissons Ratio (y) = -0.00882 0.36331
# Poissons Ratio (z) = -0.06147 0.40331
#
# Static dielectric constant tensor:
#      x y z
#    x 1.771180 0.000000 -0.005700 
#    y 0.000000 1.671010 0.000000 
#    z -0.005700 0.000000 1.703570 
# 
# From -- ./inp_files/143808.got.cif
#   From: 2010.05.17/outbox.cif.g08.bks.cpg/sg12_72_cif.got.tgz:143808.got - 2010.06.03 13:09:07.
