data_PCOD9214989
_publ_section_title
;
Structure prediction by ZEFSAII (Michael W. Deem and Ramdas Pophale) SiO2 
 PCOD9214989
Probable space group: C 2/M
;
_chemical_formula_sum "Si O2"
_cell_formula_units_Z 42
_cell_length_a 18.116529
_cell_length_b 14.605177
_cell_length_c 8.351183
_cell_angle_alpha 90.000000
_cell_angle_beta 75.129664
_cell_angle_gamma 90.000000
_cell_volume 2135.677909
_symmetry_space_group_name_H-M "C 2/M"
_symmetry_group_IT_number 12
_symmetry_cell_setting 'monoclinic'
loop_
_space_group_symop_operation_xyz
x,y,z
-x,y,-z
-x,-y,-z
x,-y,z
1/2+x,1/2+y,z
1/2-x,1/2+y,-z
1/2-x,1/2-y,-z
1/2+x,1/2-y,z
loop_
_atom_site_type_symbol
_atom_site_label
_atom_site_fract_x
_atom_site_fract_y
_atom_site_fract_z
Si Si1 0.917981 0.895136 0.456732
Si Si2 0.858113 0.394614 0.128683
Si Si3 0.972366 0.751520 0.188170
Si Si4 0.280922 0.718555 0.655873
Si Si5 0.105086 0.647035 0.256726
Si Si6 0.500000 0.000000 0.500000
O O1 0.923021 0.827128 0.303373
O O2 0.848452 0.855493 0.598129
O O3 0.000000 0.892557 0.500000
O O4 0.903428 0.000000 0.419438
O O5 0.849706 0.500000 0.186734
O O6 0.927168 0.343536 0.182596
O O7 0.785574 0.331048 0.207234
O O8 0.877195 0.393593 0.929130
O O9 0.045307 0.728141 0.253597
O O10 0.000000 0.784344 0.000000
O O11 0.250000 0.750000 0.500000
O O12 0.318959 0.807899 0.714220
O O13 0.060252 0.578998 0.398346
#
# Coordination Sequence:
#
# PCOD9214989 Si02
#       6
#     8   8   8   8   8   2
#     4  11  22  42  66  92 122 171 231 274 325 397
#     4  11  24  43  66 100 139 177 222 276 343 409
#     4  10  22  40  67  93 129 172 219 279 332 394
#     4  12  24  42  67  92 134 180 213 280 342 405
#     4  11  24  42  65  97 136 174 227 276 337 396
#     4  12  24  40  74 100 130 172 240 292 324 408
#
# _framework density 19.665887999999999
#
# number of rings (size 3 to 8) (size 9 to 14) (size 15 to 20)
#    0.000    0.952    4.762    2.286    1.333    1.524 
#    1.714    0.000    0.000    0.000    0.000    0.000 
#    0.000    0.000    0.000    0.000    0.000    0.000 
#
# Total GULP energy -117030.103108 kJ/mol
# GULP energy per Si atom -5572.862053 kJ/mol
# Density = 1.962113 g / cm^3
# Si number density = 19.665888 Si / 1000 Ang^3
#
#
#
# Elastic Constant Matrix: (Units=GPa)
#
#
# Indices 1 2 3 4 5 6 
#
# 1 91.9777 25.4901 25.4149 0.0000 -3.3168 0.0000
# 2 25.4901 112.0002 45.0513 0.0000 1.5830 0.0000
# 3 25.4149 45.0513 69.5124 0.0000 -20.4383 0.0000
# 4 0.0000 0.0000 0.0000 -4.6476 0.0000 -6.7078
# 5 -3.3168 1.5830 -20.4383 0.0000 39.2601 0.0000
# 6 0.0000 0.0000 0.0000 -6.7078 0.0000 12.2033
#
#
#
# Elastic Compliance Matrix: (Units=1/GPa)
#
#
# Indices 1 2 3 4 5 6 
#
# 1 0.012271 -0.001154 -0.004038 0.000000 -0.001019 0.000000
# 2 -0.001154 0.013234 -0.009848 0.000000 -0.005758 0.000000
# 3 -0.004038 -0.009848 0.026284 0.000000 0.013739 0.000000
# 4 0.000000 0.000000 0.000000 -0.119981 0.000000 -0.065950
# 5 -0.001019 -0.005758 0.013739 0.000000 0.032770 0.000000
# 6 0.000000 0.000000 0.000000 -0.065950 0.000000 0.045694
#
#
# Mechanical properties :
#
#
# Convention : Reuss Voigt Hill
#
# Bulk Modulus (GPa) = 46.06348 51.71142 48.88745
# Shear Modulus (GPa) = 105.06650 21.19877 63.13264
#
# Velocity S-wave (km/s) = 7.31722 3.28677 5.67206
# Velocity P-wave (km/s) = 9.73976 6.38403 8.23465
#
# Compressibility (1/GPa) = 0.02170917
#
# Stress axis : x y z
#
# Youngs Moduli (GPa) = 81.49231 75.56406 38.04528
#
# Poissons Ratio (x) = 0.08720 0.15363
# Poissons Ratio (y) = 0.09404 0.37466
# Poissons Ratio (z) = 0.32908 0.74414
#
# Static dielectric constant tensor:
#      x y z
#    x 1.694300 0.000000 0.007060 
#    y 0.000000 1.666530 0.000000 
#    z 0.007060 0.000000 1.693210 
# 
# From -- ./inp_files/72935.got.cif
#   From: 2010.05.17/outbox.cif.g08.bks.cpg/sg12_37_cif.got.tgz:72935.got - 2010.06.03 13:09:07.
