data_PCOD9214470
_publ_section_title
;
Structure prediction by ZEFSAII (Michael W. Deem and Ramdas Pophale) SiO2 
 PCOD9214470
Probable space group: C 2/M
;
_chemical_formula_sum "Si O2"
_cell_formula_units_Z 64
_cell_length_a 11.570927
_cell_length_b 18.092079
_cell_length_c 15.238443
_cell_angle_alpha 90.000000
_cell_angle_beta 93.087998
_cell_angle_gamma 90.000000
_cell_volume 3185.416021
_symmetry_space_group_name_H-M "C 2/M"
_symmetry_group_IT_number 12
_symmetry_cell_setting 'monoclinic'
loop_
_space_group_symop_operation_xyz
x,y,z
-x,y,-z
-x,-y,-z
x,-y,z
1/2+x,1/2+y,z
1/2-x,1/2+y,-z
1/2-x,1/2-y,-z
1/2+x,1/2-y,z
loop_
_atom_site_type_symbol
_atom_site_label
_atom_site_fract_x
_atom_site_fract_y
_atom_site_fract_z
Si Si1 0.335904 0.583460 0.070282
Si Si2 0.669702 0.089505 0.440559
Si Si3 0.570413 0.410602 0.590794
Si Si4 0.519210 0.657474 0.771839
Si Si5 0.416408 0.911044 0.370608
Si Si6 0.088881 0.357801 0.080831
Si Si7 0.400268 0.823101 0.203750
Si Si8 0.331194 0.688894 0.905945
O O1 0.367833 0.500000 0.049089
O O2 0.399161 0.609885 0.160700
O O3 0.199300 0.590403 0.082755
O O4 0.361219 0.638330 0.990366
O O5 0.794815 0.114299 0.411333
O O6 0.648017 0.109030 0.541574
O O7 0.552018 0.112137 0.385796
O O8 0.670735 0.000000 0.437218
O O9 0.500000 0.390141 0.500000
O O10 0.569330 0.500000 0.596465
O O11 0.513769 0.377797 0.675950
O O12 0.571761 0.739615 0.767450
O O13 0.401701 0.664929 0.822485
O O14 0.363319 0.871122 0.285020
O O15 0.412437 0.000000 0.361993
O O16 0.135030 0.273411 0.072826
O O17 0.015195 0.358712 0.166754
O O18 0.000000 0.375218 0.000000
O O19 0.302715 0.818907 0.124929
#
# Coordination Sequence:
#
# PCOD9214470 Si02
#       8
#     8   8   8   8   8   8   8   8
#     4  12  25  42  66  94 125 163 211 259 306 367
#     4   8  17  37  61  84 116 158 202 253 313 366
#     4  10  22  40  61  86 121 164 208 256 311 366
#     4  11  25  42  63  91 125 164 211 254 310 376
#     4   9  19  36  61  90 118 156 204 254 307 365
#     4  11  22  42  66  87 123 166 203 249 309 366
#     4  11  23  39  64  92 125 163 206 250 314 371
#     4  11  23  43  66  89 126 168 206 252 308 373
#
# _framework density 20.091567999999999
#
# number of rings (size 3 to 8) (size 9 to 14) (size 15 to 20)
#    0.000    1.625    2.500    3.375    3.500    2.750 
#    2.250    0.625    0.000    0.000    0.000    0.000 
#    0.000    0.000    0.000    0.000    0.000    0.000 
#
# Total GULP energy -178811.440902 kJ/mol
# GULP energy per Si atom -5587.857528 kJ/mol
# Density = 2.004584 g / cm^3
# Si number density = 20.091568 Si / 1000 Ang^3
#
#
#
# Elastic Constant Matrix: (Units=GPa)
#
#
# Indices 1 2 3 4 5 6 
#
# 1 66.5847 4.5500 12.4818 0.0000 -9.4563 0.0000
# 2 4.5500 38.8372 26.3862 0.0000 -4.9293 0.0000
# 3 12.4818 26.3862 118.0091 0.0000 0.2157 0.0000
# 4 0.0000 0.0000 0.0000 17.2569 0.0000 -9.1356
# 5 -9.4563 -4.9293 0.2157 0.0000 22.0932 0.0000
# 6 0.0000 0.0000 0.0000 -9.1356 0.0000 7.2087
#
#
#
# Elastic Compliance Matrix: (Units=1/GPa)
#
#
# Indices 1 2 3 4 5 6 
#
# 1 0.016342 0.000193 -0.001785 0.000000 0.007055 0.000000
# 2 0.000193 0.031433 -0.007062 0.000000 0.007165 0.000000
# 3 -0.001785 -0.007062 0.010246 0.000000 -0.002439 0.000000
# 4 0.000000 0.000000 0.000000 0.176075 0.000000 0.223139
# 5 0.007055 0.007165 -0.002439 0.000000 0.049905 0.000000
# 6 0.000000 0.000000 0.000000 0.223139 0.000000 0.421505
#
#
# Mechanical properties :
#
#
# Convention : Reuss Voigt Hill
#
# Bulk Modulus (GPa) = 24.56101 34.47411 29.51756
# Shear Modulus (GPa) = 6.78994 21.31263 14.05129
#
# Velocity S-wave (km/s) = 1.84034 3.26049 2.64741
# Velocity P-wave (km/s) = 4.09474 5.60090 4.90596
#
# Compressibility (1/GPa) = 0.04071493
#
# Stress axis : x y z
#
# Youngs Moduli (GPa) = 61.19301 31.81358 97.59787
#
# Poissons Ratio (x) = -0.00615 0.17417
# Poissons Ratio (y) = -0.01184 0.68922
# Poissons Ratio (z) = 0.10921 0.22466
#
# Static dielectric constant tensor:
#      x y z
#    x 1.741230 0.000000 -0.014540 
#    y 0.000000 1.672900 0.000000 
#    z -0.014540 0.000000 1.687000 
# 
# From -- ./inp_files/206691.got.cif
#   From: 2010.05.17/outbox.cif.g08.bks.cpg/sg12_104_cif.got.tgz:206691.got - 2010.06.03 13:09:07.
