data_PCOD9214030
_publ_section_title
;
Structure prediction by ZEFSAII (Michael W. Deem and Ramdas Pophale) SiO2 
 PCOD9214030
Probable space group: C 2/M
;
_chemical_formula_sum "Si O2"
_cell_formula_units_Z 56
_cell_length_a 31.230441
_cell_length_b 8.160546
_cell_length_c 12.487724
_cell_angle_alpha 90.000000
_cell_angle_beta 132.235303
_cell_angle_gamma 90.000000
_cell_volume 2356.359262
_symmetry_space_group_name_H-M "C 2/M"
_symmetry_group_IT_number 12
_symmetry_cell_setting 'monoclinic'
loop_
_space_group_symop_operation_xyz
x,y,z
-x,y,-z
-x,-y,-z
x,-y,z
1/2+x,1/2+y,z
1/2-x,1/2+y,-z
1/2-x,1/2-y,-z
1/2+x,1/2-y,z
loop_
_atom_site_type_symbol
_atom_site_label
_atom_site_fract_x
_atom_site_fract_y
_atom_site_fract_z
Si Si1 0.551989 0.301765 0.393221
Si Si2 0.107909 0.311986 0.026804
Si Si3 0.932369 0.186241 0.255843
Si Si4 0.233997 0.188221 0.184479
Si Si5 0.154373 0.693990 0.718968
Si Si6 0.420185 0.687376 0.786881
Si Si7 0.802468 0.313859 0.518987
O O1 0.549217 0.500000 0.382311
O O2 0.497191 0.243692 0.370378
O O3 0.610711 0.255885 0.552780
O O4 0.547338 0.239436 0.262423
O O5 0.095236 0.500000 0.978988
O O6 0.177021 0.282234 0.128037
O O7 0.084279 0.273333 0.105788
O O8 0.080760 0.194859 0.892151
O O9 0.880462 0.271319 0.230986
O O10 0.933604 0.000000 0.298153
O O11 0.279576 0.260466 0.174722
O O12 0.277281 0.182001 0.358284
O O13 0.216315 0.000000 0.127852
O O14 0.160171 0.500000 0.716153
O O15 0.438302 0.500000 0.834857
O O16 0.355159 0.694946 0.631058
O O17 0.820071 0.500000 0.578353
O O18 0.750000 0.250000 0.500000
#
# Coordination Sequence:
#
# PCOD9214030 Si02
#       7
#     8   8   8   8   8   8   8
#     4  10  23  42  67  95 123 163 210 254 307 369
#     4  12  26  42  63  92 126 166 210 254 309 373
#     4  11  25  46  66  87 123 168 213 257 305 368
#     4  10  22  39  61  91 128 165 202 248 308 372
#     4  11  23  41  67  98 127 158 204 261 314 361
#     4  11  22  38  62  92 127 163 204 253 308 368
#     4  11  20  33  56  89 125 163 202 249 307 366
#
# _framework density 23.765474999999999
#
# number of rings (size 3 to 8) (size 9 to 14) (size 15 to 20)
#    0.000    1.143    2.857    3.429    0.000    6.286 
#    0.000    2.857    0.000    0.000    0.000    0.000 
#    0.000    0.000    0.000    0.000    0.000    0.000 
#
# Total GULP energy -156439.683834 kJ/mol
# GULP energy per Si atom -5587.131566 kJ/mol
# Density = 2.371138 g / cm^3
# Si number density = 23.765475 Si / 1000 Ang^3
#
#
#
# Elastic Constant Matrix: (Units=GPa)
#
#
# Indices 1 2 3 4 5 6 
#
# 1 121.1209 7.7146 15.8689 0.0000 -36.8936 0.0000
# 2 7.7146 54.2462 -9.6458 0.0000 -1.4393 0.0000
# 3 15.8689 -9.6458 56.5726 0.0000 -12.7746 0.0000
# 4 0.0000 0.0000 0.0000 18.4727 0.0000 0.8082
# 5 -36.8936 -1.4393 -12.7746 0.0000 25.0051 0.0000
# 6 0.0000 0.0000 0.0000 0.8082 0.0000 11.7903
#
#
#
# Elastic Compliance Matrix: (Units=1/GPa)
#
#
# Indices 1 2 3 4 5 6 
#
# 1 0.015144 -0.001448 0.000601 0.000000 0.022568 0.000000
# 2 -0.001448 0.019366 0.003931 0.000000 0.000986 0.000000
# 3 0.000601 0.003931 0.020833 0.000000 0.011756 0.000000
# 4 0.000000 0.000000 0.000000 0.054297 0.000000 -0.003722
# 5 0.022568 0.000986 0.011756 0.000000 0.079352 0.000000
# 6 0.000000 0.000000 0.000000 -0.003722 0.000000 0.085071
#
#
# Mechanical properties :
#
#
# Convention : Reuss Voigt Hill
#
# Bulk Modulus (GPa) = 16.25753 28.86833 22.56293
# Shear Modulus (GPa) = 17.33724 25.58709 21.46217
#
# Velocity S-wave (km/s) = 2.70388 3.28479 3.00839
# Velocity P-wave (km/s) = 4.07476 5.15364 4.64563
#
# Compressibility (1/GPa) = 0.06150997
#
# Stress axis : x y z
#
# Youngs Moduli (GPa) = 66.03359 51.63820 48.00157
#
# Poissons Ratio (x) = 0.07477 -0.02886
# Poissons Ratio (y) = 0.09562 -0.18868
# Poissons Ratio (z) = -0.03970 -0.20298
#
# Static dielectric constant tensor:
#      x y z
#    x 1.992730 0.000000 -0.005370 
#    y 0.000000 1.832920 0.000000 
#    z -0.005370 0.000000 1.880330 
# 
# From -- ./inp_files/187751.got.cif
#   From: 2010.05.17/outbox.cif.g08.bks.cpg/sg12_94_cif.got.tgz:187751.got - 2010.06.03 13:09:07.
