data_PCOD9214647
_publ_section_title
;
Structure prediction by ZEFSAII (Michael W. Deem and Ramdas Pophale) SiO2 
 PCOD9214647
Probable space group: C 2/M
;
_chemical_formula_sum "Si O2"
_cell_formula_units_Z 64
_cell_length_a 15.287257
_cell_length_b 16.178028
_cell_length_c 15.051583
_cell_angle_alpha 90.000000
_cell_angle_beta 48.164622
_cell_angle_gamma 90.000000
_cell_volume 2773.518589
_symmetry_space_group_name_H-M "C 2/M"
_symmetry_group_IT_number 12
_symmetry_cell_setting 'monoclinic'
loop_
_space_group_symop_operation_xyz
x,y,z
-x,y,-z
-x,-y,-z
x,-y,z
1/2+x,1/2+y,z
1/2-x,1/2+y,-z
1/2-x,1/2-y,-z
1/2+x,1/2-y,z
loop_
_atom_site_type_symbol
_atom_site_label
_atom_site_fract_x
_atom_site_fract_y
_atom_site_fract_z
Si Si1 0.153232 0.326772 0.835881
Si Si2 0.972442 0.137806 0.293240
Si Si3 0.609072 0.594001 0.367263
Si Si4 0.589808 0.903542 0.054872
Si Si5 0.710027 0.902202 0.505798
Si Si6 0.847226 0.591691 0.661998
Si Si7 0.977548 0.326970 0.724608
Si Si8 0.910792 0.866448 0.138337
O O1 0.275652 0.350261 0.708222
O O2 0.114374 0.232827 0.844892
O O3 0.047255 0.385402 0.875026
O O4 0.160118 0.347523 0.936604
O O5 0.840630 0.134178 0.423178
O O6 0.959836 0.107014 0.201147
O O7 0.059368 0.092244 0.300775
O O8 0.016660 0.231293 0.258467
O O9 0.500000 0.624886 0.500000
O O10 0.637232 0.500000 0.376700
O O11 0.599292 0.874485 0.149877
O O12 0.616981 0.000000 0.025048
O O13 0.668278 0.891413 0.431707
O O14 0.610317 0.861341 0.632960
O O15 0.716876 0.000000 0.518301
O O16 0.899162 0.500000 0.639783
O O17 0.922303 0.656416 0.665950
O O18 0.715724 0.593535 0.788476
O O19 0.000000 0.885490 0.000000
#
# Coordination Sequence:
#
# PCOD9214647 Si02
#       8
#     8   8   8   8   8   8   8   8
#     4  11  21  43  64  92 127 163 214 265 320 378
#     4  11  24  41  61  94 127 167 214 264 321 382
#     4  11  26  44  66  94 132 176 218 265 323 386
#     4  11  22  37  65  95 126 165 210 266 324 380
#     4  10  22  40  63  87 125 168 210 262 317 382
#     4  10  23  40  60  90 125 163 211 262 317 378
#     4  12  22  38  62  96 127 163 214 262 323 382
#     4  11  22  44  68  91 126 170 212 262 326 389
#
# _framework density 23.075379999999999
#
# number of rings (size 3 to 8) (size 9 to 14) (size 15 to 20)
#    0.000    1.125    2.500    4.500    1.750    5.750 
#    0.000    3.750    0.000    0.000    0.000    0.000 
#    0.000    0.000    0.000    0.000    0.000    0.000 
#
# Total GULP energy -179182.451657 kJ/mol
# GULP energy per Si atom -5599.451614 kJ/mol
# Density = 2.302286 g / cm^3
# Si number density = 23.075380 Si / 1000 Ang^3
#
#
#
# Elastic Constant Matrix: (Units=GPa)
#
#
# Indices 1 2 3 4 5 6 
#
# 1 71.5279 3.8907 8.4850 0.0000 0.0231 0.0000
# 2 3.8907 61.5818 3.2335 0.0000 6.9245 0.0000
# 3 8.4850 3.2335 119.0930 0.0000 -15.7659 0.0000
# 4 0.0000 0.0000 0.0000 22.9170 0.0000 25.4718
# 5 0.0231 6.9245 -15.7659 0.0000 23.3698 0.0000
# 6 0.0000 0.0000 0.0000 25.4718 0.0000 -3.3398
#
#
#
# Elastic Compliance Matrix: (Units=1/GPa)
#
#
# Indices 1 2 3 4 5 6 
#
# 1 0.014148 -0.000783 -0.001052 0.000000 -0.000491 0.000000
# 2 -0.000783 0.017006 -0.001178 0.000000 -0.005833 0.000000
# 3 -0.001052 -0.001178 0.009389 0.000000 0.006684 0.000000
# 4 0.000000 0.000000 0.000000 0.004604 0.000000 0.035117
# 5 -0.000491 -0.005833 0.006684 0.000000 0.049028 0.000000
# 6 0.000000 0.000000 0.000000 0.035117 0.000000 -0.031594
#
#
# Mechanical properties :
#
#
# Convention : Reuss Voigt Hill
#
# Bulk Modulus (GPa) = 28.97215 31.49124 30.23169
# Shear Modulus (GPa) = 62.41233 24.36231 43.38732
#
# Velocity S-wave (km/s) = 5.20633 3.25279 4.34088
# Velocity P-wave (km/s) = 6.98025 5.27108 6.18499
#
# Compressibility (1/GPa) = 0.03451591
#
# Stress axis : x y z
#
# Youngs Moduli (GPa) = 70.68085 58.80355 106.51271
#
# Poissons Ratio (x) = 0.04607 0.11203
# Poissons Ratio (y) = 0.05537 0.12548
# Poissons Ratio (z) = 0.07434 0.06928
#
# Static dielectric constant tensor:
#      x y z
#    x 1.860490 0.000000 0.029410 
#    y 0.000000 1.817260 0.000000 
#    z 0.029410 0.000000 1.866590 
# 
# From -- ./inp_files/216794.got.cif
#   From: 2010.05.17/outbox.cif.g08.bks.cpg/sg12_109_cif.got.tgz:216794.got - 2010.06.03 13:09:07.
