data_PCOD9214549
_publ_section_title
;
Structure prediction by ZEFSAII (Michael W. Deem and Ramdas Pophale) SiO2 
 PCOD9214549
Probable space group: C 2/M
;
_chemical_formula_sum "Si O2"
_cell_formula_units_Z 40
_cell_length_a 9.044756
_cell_length_b 14.803366
_cell_length_c 19.917514
_cell_angle_alpha 90.000000
_cell_angle_beta 46.686891
_cell_angle_gamma 90.000000
_cell_volume 1940.414898
_symmetry_space_group_name_H-M "C 2/M"
_symmetry_group_IT_number 12
_symmetry_cell_setting 'monoclinic'
loop_
_space_group_symop_operation_xyz
x,y,z
-x,y,-z
-x,-y,-z
x,-y,z
1/2+x,1/2+y,z
1/2-x,1/2+y,-z
1/2-x,1/2-y,-z
1/2+x,1/2-y,z
loop_
_atom_site_type_symbol
_atom_site_label
_atom_site_fract_x
_atom_site_fract_y
_atom_site_fract_z
Si Si1 0.933713 0.305839 0.913691
Si Si2 0.500000 0.294999 0.500000
Si Si3 0.543538 0.820688 0.622293
Si Si4 0.379104 0.000000 0.607940
Si Si5 0.940783 0.000000 0.765136
Si Si6 0.392440 0.706609 0.796958
Si Si7 0.020216 0.500000 0.074976
O O1 0.981030 0.272301 0.824772
O O2 0.872184 0.409628 0.936640
O O3 0.149074 0.294559 0.882996
O O4 0.750000 0.250000 0.000000
O O5 0.479476 0.233843 0.440129
O O6 0.278968 0.342965 0.568461
O O7 0.457405 0.752312 0.706287
O O8 0.429201 0.913567 0.639217
O O9 0.500000 0.000000 0.500000
O O10 0.143364 0.000000 0.657880
O O11 0.955644 0.897866 0.790617
O O12 0.702695 0.000000 0.820200
O O13 0.000000 0.500000 0.000000
#
# Coordination Sequence:
#
# PCOD9214549 Si02
#       7
#     8   4   8   4   4   8   4
#     4  11  22  40  65  95 131 167 215 258 324 384
#     4  10  22  40  62  86 122 168 210 274 320 386
#     4  11  23  41  63  91 128 166 220 266 335 383
#     4  12  24  40  62  96 125 172 218 273 339 392
#     4  10  22  40  63  90 126 169 216 254 327 397
#     4  11  23  41  65  94 125 173 211 272 318 391
#     4  10  22  41  66  95 130 174 213 259 326 398
#
# _framework density 20.614146999999999
#
# number of rings (size 3 to 8) (size 9 to 14) (size 15 to 20)
#    0.000    1.200    1.000    6.600    2.800    1.200 
#    0.000    6.000    0.000    0.000    0.000    0.000 
#    0.000    0.000    0.000    0.000    0.000    0.000 
#
# Total GULP energy -111368.956260 kJ/mol
# GULP energy per Si atom -5568.447813 kJ/mol
# Density = 2.056723 g / cm^3
# Si number density = 20.614147 Si / 1000 Ang^3
#
#
#
# Elastic Constant Matrix: (Units=GPa)
#
#
# Indices 1 2 3 4 5 6 
#
# 1 81.9147 27.1950 40.1671 -0.0002 -8.6272 0.0001
# 2 27.1950 170.9753 38.3738 0.0001 10.5121 0.0000
# 3 40.1671 38.3738 102.0593 0.0005 -14.0603 -0.0002
# 4 -0.0002 0.0001 0.0005 16.6466 0.0000 -5.6856
# 5 -8.6272 10.5121 -14.0603 0.0000 55.7431 0.0000
# 6 0.0001 0.0000 -0.0002 -5.6856 0.0000 16.1235
#
#
#
# Elastic Compliance Matrix: (Units=1/GPa)
#
#
# Indices 1 2 3 4 5 6 
#
# 1 0.015428 -0.001320 -0.005400 0.000000 0.001275 0.000000
# 2 -0.001320 0.006696 -0.002279 0.000000 -0.002042 0.000000
# 3 -0.005400 -0.002279 0.013183 0.000000 0.002919 0.000000
# 4 0.000000 0.000000 0.000000 0.068298 0.000000 0.024084
# 5 0.001275 -0.002042 0.002919 0.000000 0.019258 0.000000
# 6 0.000000 0.000000 0.000000 0.024084 0.000000 0.070514
#
#
# Mechanical properties :
#
#
# Convention : Reuss Voigt Hill
#
# Bulk Modulus (GPa) = 57.77822 62.93567 60.35695
# Shear Modulus (GPa) = 23.02603 34.31687 28.67145
#
# Velocity S-wave (km/s) = 3.34578 4.08453 3.73347
# Velocity P-wave (km/s) = 6.55858 7.26919 6.92301
#
# Compressibility (1/GPa) = 0.01730756
#
# Stress axis : x y z
#
# Youngs Moduli (GPa) = 64.81579 149.34437 75.85736
#
# Poissons Ratio (x) = 0.19719 0.40963
# Poissons Ratio (y) = 0.08558 0.17290
# Poissons Ratio (z) = 0.35000 0.34040
#
# Static dielectric constant tensor:
#      x y z
#    x 2.547270 0.000000 0.232770 
#    y 0.000000 1.758950 0.000000 
#    z 0.232770 0.000000 1.856130 
# 
# From -- ./inp_files/299722.got.cif
#   From: 2010.05.17/outbox.cif.g08.bks.cpg/sg12_150_cif.got.tgz:299722.got - 2010.06.03 13:09:07.
