data_PCOD9214148
_publ_section_title
;
Structure prediction by ZEFSAII (Michael W. Deem and Ramdas Pophale) SiO2 
 PCOD9214148
Probable space group: C 2/M
;
_chemical_formula_sum "Si O2"
_cell_formula_units_Z 48
_cell_length_a 8.930787
_cell_length_b 20.117655
_cell_length_c 19.214211
_cell_angle_alpha 90.000000
_cell_angle_beta 39.976171
_cell_angle_gamma 90.000000
_cell_volume 2217.899146
_symmetry_space_group_name_H-M "C 2/M"
_symmetry_group_IT_number 12
_symmetry_cell_setting 'monoclinic'
loop_
_space_group_symop_operation_xyz
x,y,z
-x,y,-z
-x,-y,-z
x,-y,z
1/2+x,1/2+y,z
1/2-x,1/2+y,-z
1/2-x,1/2-y,-z
1/2+x,1/2-y,z
loop_
_atom_site_type_symbol
_atom_site_label
_atom_site_fract_x
_atom_site_fract_y
_atom_site_fract_z
Si Si1 0.585730 0.312889 0.046273
Si Si2 0.209451 0.422575 0.381592
Si Si3 0.611858 0.337128 0.274671
Si Si4 0.429171 0.080311 0.880415
Si Si5 0.372618 0.868469 0.740509
Si Si6 0.261266 0.729606 0.625585
O O1 0.713906 0.384721 0.997674
O O2 0.500000 0.300594 0.000000
O O3 0.750000 0.250000 0.000000
O O4 0.348597 0.319175 0.173476
O O5 0.199630 0.500000 0.392276
O O6 0.442633 0.399547 0.336119
O O7 0.184142 0.408627 0.308624
O O8 0.000000 0.391069 0.500000
O O9 0.659650 0.299401 0.329024
O O10 0.438195 0.286480 0.295085
O O11 0.857172 0.372611 0.168785
O O12 0.396573 0.095164 0.808084
O O13 0.449364 0.000000 0.883353
O O14 0.613401 0.829391 0.642310
O O15 0.500000 0.746163 0.500000
#
# Coordination Sequence:
#
# PCOD9214148 Si02
#       6
#     8   8   8   8   8   8
#     4  10  22  40  64  94 126 162 208 260 317 380
#     4  11  23  39  59  86 124 168 212 259 312 374
#     4  11  22  37  57  85 120 157 204 257 315 371
#     4  10  22  40  63  91 125 165 210 261 318 383
#     4  10  22  39  63  91 123 163 209 259 316 376
#     4  11  21  36  60  87 118 158 206 261 316 373
#
# _framework density 21.642101
#
# number of rings (size 3 to 8) (size 9 to 14) (size 15 to 20)
#    0.000    1.500    0.000    5.000    0.000    7.667 
#    0.000    0.000    0.000   10.500    0.000    0.000 
#    0.000    0.000    0.000    0.000    0.000    0.000 
#
# Total GULP energy -133697.262733 kJ/mol
# GULP energy per Si atom -5570.719281 kJ/mol
# Density = 2.159284 g / cm^3
# Si number density = 21.642101 Si / 1000 Ang^3
#
#
#
# Elastic Constant Matrix: (Units=GPa)
#
#
# Indices 1 2 3 4 5 6 
#
# 1 103.7802 49.9459 45.2328 -0.0001 -25.5951 -0.0005
# 2 49.9459 131.8029 33.3225 0.0000 -7.3533 -0.0004
# 3 45.2328 33.3225 75.9950 0.0001 -26.2528 -0.0007
# 4 -0.0001 0.0000 0.0001 26.6019 0.0001 -11.3483
# 5 -25.5951 -7.3533 -26.2528 0.0001 27.7589 0.0005
# 6 -0.0005 -0.0004 -0.0007 -11.3483 0.0005 25.1916
#
#
#
# Elastic Compliance Matrix: (Units=1/GPa)
#
#
# Indices 1 2 3 4 5 6 
#
# 1 0.015987 -0.004446 -0.004279 0.000000 0.009517 0.000000
# 2 -0.004446 0.009837 -0.003243 0.000000 -0.004560 0.000000
# 3 -0.004279 -0.003243 0.022973 0.000000 0.016923 0.000000
# 4 0.000000 0.000000 0.000000 0.046534 0.000000 0.020962
# 5 0.009517 -0.004560 0.016923 0.000000 0.059596 -0.000001
# 6 0.000000 0.000000 0.000000 0.020962 -0.000001 0.049139
#
#
# Mechanical properties :
#
#
# Convention : Reuss Voigt Hill
#
# Bulk Modulus (GPa) = 40.21907 63.17561 51.69734
# Shear Modulus (GPa) = 21.16057 28.11560 24.63809
#
# Velocity S-wave (km/s) = 3.13029 3.60824 3.37773
# Velocity P-wave (km/s) = 5.62930 6.82741 6.25710
#
# Compressibility (1/GPa) = 0.02486383
#
# Stress axis : x y z
#
# Youngs Moduli (GPa) = 62.54966 101.65592 43.52857
#
# Poissons Ratio (x) = 0.45192 0.18625
# Poissons Ratio (y) = 0.27807 0.14115
# Poissons Ratio (z) = 0.26764 0.32963
#
# Static dielectric constant tensor:
#      x y z
#    x 1.499830 0.000000 -0.563980 
#    y 0.000000 1.851420 0.000000 
#    z -0.563980 0.000000 0.868230 
# 
# From -- ./inp_files/301558.got.cif
#   From: 2010.05.17/outbox.cif.g08.bks.cpg/sg12_151_cif.got.tgz:301558.got - 2010.06.03 13:09:07.
