data_PCOD9214160
_publ_section_title
;
Structure prediction by ZEFSAII (Michael W. Deem and Ramdas Pophale) SiO2 
 PCOD9214160
Probable space group: C 2/M
;
_chemical_formula_sum "Si O2"
_cell_formula_units_Z 42
_cell_length_a 18.776652
_cell_length_b 13.892644
_cell_length_c 9.736831
_cell_angle_alpha 90.000000
_cell_angle_beta 57.342068
_cell_angle_gamma 90.000000
_cell_volume 2138.380211
_symmetry_space_group_name_H-M "C 2/M"
_symmetry_group_IT_number 12
_symmetry_cell_setting 'monoclinic'
loop_
_space_group_symop_operation_xyz
x,y,z
-x,y,-z
-x,-y,-z
x,-y,z
1/2+x,1/2+y,z
1/2-x,1/2+y,-z
1/2-x,1/2-y,-z
1/2+x,1/2-y,z
loop_
_atom_site_type_symbol
_atom_site_label
_atom_site_fract_x
_atom_site_fract_y
_atom_site_fract_z
Si Si1 0.654449 0.250498 0.153930
Si Si2 0.920107 0.388106 0.991344
Si Si3 0.000000 0.000000 0.000000
Si Si4 0.296636 0.888645 0.371674
Si Si5 0.866683 0.759914 0.506010
Si Si6 0.983435 0.894947 0.735402
O O1 0.647947 0.228739 0.322025
O O2 0.611044 0.354489 0.179429
O O3 0.750000 0.250000 0.000000
O O4 0.600359 0.176866 0.117620
O O5 0.934908 0.500000 0.937765
O O6 0.840451 0.383797 0.177355
O O7 0.000000 0.356028 0.000000
O O8 0.997443 0.917169 0.124982
O O9 0.206870 0.835762 0.457646
O O10 0.354757 0.830441 0.417955
O O11 0.287638 0.000000 0.420319
O O12 0.953824 0.816386 0.392791
O O13 0.992398 0.000000 0.659386
#
# Coordination Sequence:
#
# PCOD9214160 Si02
#       6
#     8   8   2   8   8   8
#     4  12  25  41  64  98 138 174 219 280 339 401
#     4  10  22  41  65  90 127 178 227 270 330 407
#     4   8  24  44  66 104 126 180 224 280 330 426
#     4  10  22  39  63  93 131 175 224 279 339 402
#     4  11  23  41  66  98 135 175 222 289 339 406
#     4  10  24  42  69  97 133 175 224 277 339 402
#
# _framework density 19.641034000000001
#
# number of rings (size 3 to 8) (size 9 to 14) (size 15 to 20)
#    0.571    0.952    1.905    2.286    4.000    3.810 
#    0.000    0.000    0.000    5.714    0.000    0.000 
#    0.000    0.000    0.000    0.000    0.000    0.000 
#
# Total GULP energy -117000.365958 kJ/mol
# GULP energy per Si atom -5571.445998 kJ/mol
# Density = 1.959633 g / cm^3
# Si number density = 19.641034 Si / 1000 Ang^3
#
#
#
# Elastic Constant Matrix: (Units=GPa)
#
#
# Indices 1 2 3 4 5 6 
#
# 1 84.5807 45.3913 36.6751 0.0000 1.5193 0.0000
# 2 45.3913 111.1163 33.8704 0.0000 20.7726 0.0000
# 3 36.6751 33.8704 99.0643 0.0000 21.0719 0.0000
# 4 0.0000 0.0000 0.0000 17.6679 0.0000 -7.4593
# 5 1.5193 20.7726 21.0719 0.0000 43.8303 0.0000
# 6 0.0000 0.0000 0.0000 -7.4593 0.0000 13.9084
#
#
#
# Elastic Compliance Matrix: (Units=1/GPa)
#
#
# Indices 1 2 3 4 5 6 
#
# 1 0.017522 -0.006468 -0.005345 0.000000 0.005028 0.000000
# 2 -0.006468 0.012930 -0.000858 0.000000 -0.005491 0.000000
# 3 -0.005345 -0.000858 0.013635 0.000000 -0.005963 0.000000
# 4 0.000000 0.000000 0.000000 0.073167 0.000000 0.039241
# 5 0.005028 -0.005491 -0.005963 0.000000 0.028110 0.000000
# 6 0.000000 0.000000 0.000000 0.039241 0.000000 0.092945
#
#
# Mechanical properties :
#
#
# Convention : Reuss Voigt Hill
#
# Bulk Modulus (GPa) = 53.34947 58.51500 55.93224
# Shear Modulus (GPa) = 18.52548 27.00294 22.76421
#
# Velocity S-wave (km/s) = 3.07449 3.71188 3.40812
# Velocity P-wave (km/s) = 6.31067 6.94461 6.63522
#
# Compressibility (1/GPa) = 0.01874433
#
# Stress axis : x y z
#
# Youngs Moduli (GPa) = 57.07267 77.33934 73.34106
#
# Poissons Ratio (x) = 0.50026 0.39198
# Poissons Ratio (y) = 0.36917 0.06294
# Poissons Ratio (z) = 0.30503 0.06637
#
# Static dielectric constant tensor:
#      x y z
#    x 1.718140 0.000000 -0.029120 
#    y 0.000000 1.684730 0.000000 
#    z -0.029120 0.000000 1.690780 
# 
# From -- ./inp_files/73554.got.cif
#   From: 2010.05.17/outbox.cif.g08.bks.cpg/sg12_37_cif.got.tgz:73554.got - 2010.06.03 13:09:07.
