data_PCOD9214969
_publ_section_title
;
Structure prediction by ZEFSAII (Michael W. Deem and Ramdas Pophale) SiO2 
 PCOD9214969
Probable space group: C 2/M
;
_chemical_formula_sum "Si O2"
_cell_formula_units_Z 56
_cell_length_a 11.476629
_cell_length_b 17.223311
_cell_length_c 11.953791
_cell_angle_alpha 90.000000
_cell_angle_beta 76.791291
_cell_angle_gamma 90.000000
_cell_volume 2300.341478
_symmetry_space_group_name_H-M "C 2/M"
_symmetry_group_IT_number 12
_symmetry_cell_setting 'monoclinic'
loop_
_space_group_symop_operation_xyz
x,y,z
-x,y,-z
-x,-y,-z
x,-y,z
1/2+x,1/2+y,z
1/2-x,1/2+y,-z
1/2-x,1/2-y,-z
1/2+x,1/2-y,z
loop_
_atom_site_type_symbol
_atom_site_label
_atom_site_fract_x
_atom_site_fract_y
_atom_site_fract_z
Si Si1 0.180826 0.807129 0.102533
Si Si2 0.621803 0.584662 0.541633
Si Si3 0.237742 0.314287 0.243131
Si Si4 0.521274 0.090273 0.337240
Si Si5 0.947405 0.093418 0.183537
Si Si6 0.907757 0.590629 0.112850
Si Si7 0.308309 0.191935 0.400476
O O1 0.144199 0.740337 0.199208
O O2 0.284403 0.863517 0.127711
O O3 0.064501 0.861419 0.115223
O O4 0.250000 0.750000 0.000000
O O5 0.500000 0.582275 0.500000
O O6 0.674327 0.500000 0.549604
O O7 0.583069 0.609898 0.676785
O O8 0.711137 0.624395 0.433440
O O9 0.154870 0.377169 0.322753
O O10 0.331162 0.366276 0.152805
O O11 0.311270 0.247737 0.292837
O O12 0.473206 0.093136 0.218579
O O13 0.430547 0.152218 0.409313
O O14 0.512877 0.000000 0.372386
O O15 0.955327 0.000000 0.166970
O O16 0.883576 0.500000 0.093594
O O17 0.000000 0.621420 0.000000
O O18 0.250000 0.250000 0.500000
#
# Coordination Sequence:
#
# PCOD9214969 Si02
#       7
#     8   8   8   8   8   8   8
#     4  12  26  43  73 101 137 174 229 282 353 408
#     4  10  22  40  66  97 135 183 232 279 338 411
#     4  12  25  44  70 105 142 177 233 288 344 403
#     4  11  25  46  69 100 141 188 231 281 346 415
#     4  11  25  48  70  99 140 184 230 285 347 413
#     4  10  22  43  70 100 136 178 228 281 344 419
#     4  12  24  41  67  98 141 179 234 281 344 396
#
# _framework density 24.344211000000001
#
# number of rings (size 3 to 8) (size 9 to 14) (size 15 to 20)
#    0.000    0.857    2.857    3.857    4.000    0.000 
#    0.000    3.571    0.000    0.000    0.000    0.000 
#    0.000    0.000    0.000    0.000    0.000    0.000 
#
# Total GULP energy -156116.257463 kJ/mol
# GULP energy per Si atom -5575.580624 kJ/mol
# Density = 2.428880 g / cm^3
# Si number density = 24.344211 Si / 1000 Ang^3
#
#
#
# Elastic Constant Matrix: (Units=GPa)
#
#
# Indices 1 2 3 4 5 6 
#
# 1 118.0769 72.5026 32.5719 0.0000 -44.2846 0.0000
# 2 72.5026 173.4759 47.6056 0.0000 -32.9362 0.0000
# 3 32.5719 47.6056 64.1759 0.0000 -17.8966 0.0000
# 4 0.0000 0.0000 0.0000 141.8971 0.0000 14.3772
# 5 -44.2846 -32.9362 -17.8966 0.0000 36.3247 0.0000
# 6 0.0000 0.0000 0.0000 14.3772 0.0000 54.5708
#
#
#
# Elastic Compliance Matrix: (Units=1/GPa)
#
#
# Indices 1 2 3 4 5 6 
#
# 1 0.017692 -0.003692 -0.001344 0.000000 0.017560 0.000000
# 2 -0.003692 0.008718 -0.004224 0.000000 0.001323 0.000000
# 3 -0.001344 -0.004224 0.020720 0.000000 0.004739 0.000000
# 4 0.000000 0.000000 0.000000 0.007241 0.000000 -0.001908
# 5 0.017560 0.001323 0.004739 0.000000 0.052472 0.000000
# 6 0.000000 0.000000 0.000000 -0.001908 0.000000 0.018827
#
#
# Mechanical properties :
#
#
# Convention : Reuss Voigt Hill
#
# Bulk Modulus (GPa) = 34.95361 73.45435 54.20398
# Shear Modulus (GPa) = 32.52535 60.09509 46.31022
#
# Velocity S-wave (km/s) = 3.65918 4.97385 4.36628
# Velocity P-wave (km/s) = 5.67821 7.95137 6.90892
#
# Compressibility (1/GPa) = 0.02860935
#
# Stress axis : x y z
#
# Youngs Moduli (GPa) = 56.52138 114.70897 48.26342
#
# Poissons Ratio (x) = 0.42345 0.06488
# Poissons Ratio (y) = 0.20865 0.20388
# Poissons Ratio (z) = 0.07599 0.48457
#
# Static dielectric constant tensor:
#      x y z
#    x 2.107450 0.000000 0.537970 
#    y 0.000000 1.897020 0.000000 
#    z 0.537970 0.000000 3.319900 
# 
# From -- ./inp_files/206545.got.cif
#   From: 2010.05.17/outbox.cif.g08.bks.cpg/sg12_104_cif.got.tgz:206545.got - 2010.06.03 13:09:07.
