data_PCOD9214220
_publ_section_title
;
Structure prediction by ZEFSAII (Michael W. Deem and Ramdas Pophale) SiO2 
 PCOD9214220
Probable space group: C 2/M
;
_chemical_formula_sum "Si O2"
_cell_formula_units_Z 58
_cell_length_a 29.451132
_cell_length_b 8.720067
_cell_length_c 24.620777
_cell_angle_alpha 90.000000
_cell_angle_beta 29.365227
_cell_angle_gamma 90.000000
_cell_volume 3100.643385
_symmetry_space_group_name_H-M "C 2/M"
_symmetry_group_IT_number 12
_symmetry_cell_setting 'monoclinic'
loop_
_space_group_symop_operation_xyz
x,y,z
-x,y,-z
-x,-y,-z
x,-y,z
1/2+x,1/2+y,z
1/2-x,1/2+y,-z
1/2-x,1/2-y,-z
1/2+x,1/2-y,z
loop_
_atom_site_type_symbol
_atom_site_label
_atom_site_fract_x
_atom_site_fract_y
_atom_site_fract_z
Si Si1 0.109267 0.826309 0.875855
Si Si2 0.699173 0.819126 0.500721
Si Si3 0.303160 0.817520 0.108606
Si Si4 0.452717 0.184292 0.861394
Si Si5 0.641546 0.820232 0.729600
Si Si6 0.892393 0.669357 0.707101
Si Si7 0.504380 0.682363 0.298593
Si Si8 0.000000 0.500000 0.500000
O O1 0.159511 0.769332 0.877424
O O2 0.124400 0.712126 0.810338
O O3 0.139850 0.000000 0.830160
O O4 0.000000 0.830221 0.000000
O O5 0.750000 0.750000 0.500000
O O6 0.770945 0.780661 0.378486
O O7 0.601848 0.737050 0.593774
O O8 0.684219 0.000000 0.522620
O O9 0.196736 0.772720 0.211378
O O10 0.313487 0.000000 0.105492
O O11 0.367984 0.774922 0.989574
O O12 0.549735 0.222918 0.790797
O O13 0.450072 0.262819 0.805559
O O14 0.452428 0.000000 0.854281
O O15 0.659934 0.000000 0.700214
O O16 0.857517 0.500000 0.760692
O O17 0.950185 0.740153 0.696189
O O18 0.954839 0.631936 0.588791
O O19 0.509935 0.500000 0.296975
#
# Coordination Sequence:
#
# PCOD9214220 Si02
#       8
#     8   8   8   8   8   8   8   2
#     4  11  23  38  60  92 132 178 224 271 329 396
#     4  12  24  40  62  92 131 176 221 275 332 394
#     4  11  23  42  68  98 134 172 222 280 335 396
#     4  10  22  39  64  96 136 179 215 270 337 398
#     4  11  22  39  62  91 129 175 226 273 331 394
#     4  10  23  47  72  96 127 169 219 272 329 393
#     4  12  25  42  68  99 134 174 223 276 331 398
#     4   8  24  48  78  92 126 172 222 270 332 378
#
# _framework density 18.705795999999999
#
# number of rings (size 3 to 8) (size 9 to 14) (size 15 to 20)
#    0.414    0.690    2.759    4.138    0.000    3.862 
#    0.000    2.759    0.000    0.000    0.000    0.000 
#    0.000    0.000    0.000    0.000    0.000    0.000 
#
# Total GULP energy -161711.917722 kJ/mol
# GULP energy per Si atom -5576.273025 kJ/mol
# Density = 1.866322 g / cm^3
# Si number density = 18.705796 Si / 1000 Ang^3
#
#
#
# Elastic Constant Matrix: (Units=GPa)
#
#
# Indices 1 2 3 4 5 6 
#
# 1 102.8642 7.2211 38.4508 0.0063 -0.4693 -0.0021
# 2 7.2211 48.1667 -1.5031 0.0222 7.7340 -0.0069
# 3 38.4508 -1.5031 67.4900 0.0057 14.1419 -0.0033
# 4 0.0063 0.0222 0.0057 84.1952 -0.0020 -9.3757
# 5 -0.4693 7.7340 14.1419 -0.0020 30.4047 0.0018
# 6 -0.0021 -0.0069 -0.0033 -9.3757 0.0018 34.2183
#
#
#
# Elastic Compliance Matrix: (Units=1/GPa)
#
#
# Indices 1 2 3 4 5 6 
#
# 1 0.013182 -0.003046 -0.008623 0.000000 0.004989 -0.000001
# 2 -0.003046 0.022551 0.003822 -0.000006 -0.007561 0.000004
# 3 -0.008623 0.003822 0.022211 -0.000002 -0.011436 0.000002
# 4 0.000000 -0.000006 -0.000002 0.012251 0.000003 0.003357
# 5 0.004989 -0.007561 -0.011436 0.000003 0.040209 -0.000004
# 6 -0.000001 0.000004 0.000002 0.003357 -0.000004 0.030144
#
#
# Mechanical properties :
#
#
# Convention : Reuss Voigt Hill
#
# Bulk Modulus (GPa) = 23.66891 34.09540 28.88215
# Shear Modulus (GPa) = 29.35548 41.38711 35.37130
#
# Velocity S-wave (km/s) = 3.96577 4.70886 4.35320
# Velocity P-wave (km/s) = 5.80090 6.91601 6.38285
#
# Compressibility (1/GPa) = 0.04224952
#
# Stress axis : x y z
#
# Youngs Moduli (GPa) = 75.86382 44.34341 45.02211
#
# Poissons Ratio (x) = 0.13508 0.38823
# Poissons Ratio (y) = 0.23111 -0.17208
# Poissons Ratio (z) = 0.65418 -0.16949
#
# Static dielectric constant tensor:
#      x y z
#    x 1.576980 -0.000010 -0.057540 
#    y -0.000010 1.634580 -0.000010 
#    z -0.057540 -0.000010 1.541550 
# 
# From -- ./inp_files/351397.got.cif
#   From: 2010.05.17/outbox.cif.g08.bks.cpg/sg12_176_cif.got.tgz:351397.got - 2010.06.03 13:09:07.
