data_PCOD9214564
_publ_section_title
;
Structure prediction by ZEFSAII (Michael W. Deem and Ramdas Pophale) SiO2 
 PCOD9214564
Probable space group: C 2/M
;
_chemical_formula_sum "Si O2"
_cell_formula_units_Z 40
_cell_length_a 23.609268
_cell_length_b 7.677362
_cell_length_c 17.293786
_cell_angle_alpha 90.000000
_cell_angle_beta 147.618770
_cell_angle_gamma 90.000000
_cell_volume 1678.745183
_symmetry_space_group_name_H-M "C 2/M"
_symmetry_group_IT_number 12
_symmetry_cell_setting 'monoclinic'
loop_
_space_group_symop_operation_xyz
x,y,z
-x,y,-z
-x,-y,-z
x,-y,z
1/2+x,1/2+y,z
1/2-x,1/2+y,-z
1/2-x,1/2-y,-z
1/2+x,1/2-y,z
loop_
_atom_site_type_symbol
_atom_site_label
_atom_site_fract_x
_atom_site_fract_y
_atom_site_fract_z
Si Si1 0.618094 0.298260 0.118792
Si Si2 0.028613 0.698396 0.615058
Si Si3 0.235777 0.700282 0.102020
Si Si4 0.662811 0.792769 0.335728
Si Si5 0.029131 0.713779 0.782395
O O1 0.607431 0.500000 0.083776
O O2 0.678142 0.205524 0.118798
O O3 0.679615 0.286533 0.270853
O O4 0.500000 0.227886 0.000000
O O5 0.986506 0.500000 0.563853
O O6 0.155479 0.697036 0.768006
O O7 0.992869 0.775184 0.655956
O O8 0.000000 0.782749 0.500000
O O9 0.261355 0.500000 0.113047
O O10 0.147628 0.768137 0.940737
O O11 0.750000 0.750000 0.500000
O O12 0.551685 0.731334 0.244346
O O13 0.657768 0.000000 0.320048
O O14 0.029696 0.500000 0.781815
#
# Coordination Sequence:
#
# PCOD9214564 Si02
#       5
#     8   8   8   8   8
#     4  11  23  40  63  92 123 158 207 256 307 370
#     4  10  22  40  62  88 120 160 203 252 308 364
#     4  11  22  39  63  89 121 160 204 254 307 365
#     4  11  23  40  62  91 129 167 204 248 306 367
#     4   9  20  39  61  86 121 163 201 244 304 365
#
# _framework density 23.827321000000001
#
# number of rings (size 3 to 8) (size 9 to 14) (size 15 to 20)
#    0.000    1.600    2.000    2.400    2.800    1.200 
#    0.000    3.000    0.000    0.000    0.000    0.000 
#    0.000    0.000    0.000    0.000    0.000    0.000 
#
# Total GULP energy -111887.582584 kJ/mol
# GULP energy per Si atom -5594.379129 kJ/mol
# Density = 2.377309 g / cm^3
# Si number density = 23.827321 Si / 1000 Ang^3
#
#
#
# Elastic Constant Matrix: (Units=GPa)
#
#
# Indices 1 2 3 4 5 6 
#
# 1 94.5631 0.0101 2.9977 0.0000 -34.3797 0.0000
# 2 0.0101 68.9285 -7.8878 0.0000 -0.1680 0.0000
# 3 2.9977 -7.8878 82.0571 0.0000 -30.3412 0.0000
# 4 0.0000 0.0000 0.0000 11.7547 0.0000 2.3362
# 5 -34.3797 -0.1680 -30.3412 0.0000 51.5208 0.0000
# 6 0.0000 0.0000 0.0000 2.3362 0.0000 8.5917
#
#
#
# Elastic Compliance Matrix: (Units=1/GPa)
#
#
# Indices 1 2 3 4 5 6 
#
# 1 0.014945 0.000495 0.004078 0.000000 0.012376 0.000000
# 2 0.000495 0.014737 0.001967 0.000000 0.001536 0.000000
# 3 0.004078 0.001967 0.016919 0.000000 0.012691 0.000000
# 4 0.000000 0.000000 0.000000 0.089932 0.000000 -0.024454
# 5 0.012376 0.001536 0.012691 0.000000 0.035147 0.000000
# 6 0.000000 0.000000 0.000000 -0.024454 0.000000 0.123041
#
#
# Mechanical properties :
#
#
# Convention : Reuss Voigt Hill
#
# Bulk Modulus (GPa) = 16.75650 26.19874 21.47762
# Shear Modulus (GPa) = 16.58171 31.06869 23.82520
#
# Velocity S-wave (km/s) = 2.64088 3.61489 3.16557
# Velocity P-wave (km/s) = 4.04311 5.33314 4.73228
#
# Compressibility (1/GPa) = 0.05967835
#
# Stress axis : x y z
#
# Youngs Moduli (GPa) = 66.91203 67.85870 59.10350
#
# Poissons Ratio (x) = -0.03356 -0.24100
# Poissons Ratio (y) = -0.03309 -0.11623
# Poissons Ratio (z) = -0.27284 -0.13344
#
# Static dielectric constant tensor:
#      x y z
#    x 1.903040 0.000000 -0.016360 
#    y 0.000000 1.904320 0.000000 
#    z -0.016360 0.000000 1.900010 
# 
# From -- ./inp_files/221213.got.cif
#   From: 2010.05.17/outbox.cif.g08.bks.cpg/sg12_111_cif.got.tgz:221213.got - 2010.06.03 13:09:07.
