data_PCOD9214256
_publ_section_title
;
Structure prediction by ZEFSAII (Michael W. Deem and Ramdas Pophale) SiO2 
 PCOD9214256
Probable space group: C 2/M
;
_chemical_formula_sum "Si O2"
_cell_formula_units_Z 40
_cell_length_a 27.975283
_cell_length_b 14.314493
_cell_length_c 5.444633
_cell_angle_alpha 90.000000
_cell_angle_beta 130.235438
_cell_angle_gamma 90.000000
_cell_volume 1664.444529
_symmetry_space_group_name_H-M "C 2/M"
_symmetry_group_IT_number 12
_symmetry_cell_setting 'monoclinic'
loop_
_space_group_symop_operation_xyz
x,y,z
-x,y,-z
-x,-y,-z
x,-y,z
1/2+x,1/2+y,z
1/2-x,1/2+y,-z
1/2-x,1/2-y,-z
1/2+x,1/2-y,z
loop_
_atom_site_type_symbol
_atom_site_label
_atom_site_fract_x
_atom_site_fract_y
_atom_site_fract_z
Si Si1 0.116699 0.602286 0.384242
Si Si2 0.679781 0.254876 0.880199
Si Si3 0.539066 0.245738 0.879186
Si Si4 0.859748 0.893900 0.640117
Si Si5 0.720622 0.897977 0.363187
O O1 0.096178 0.500000 0.396285
O O2 0.125318 0.684046 0.606273
O O3 0.187715 0.595466 0.516131
O O4 0.071508 0.644390 0.026404
O O5 0.655766 0.352105 0.683224
O O6 0.750000 0.250000 0.000000
O O7 0.694350 0.200190 0.179331
O O8 0.500000 0.250697 0.500000
O O9 0.500000 0.260967 0.000000
O O10 0.592224 0.325591 0.064630
O O11 0.794914 0.894146 0.580078
O O12 0.882192 0.000000 0.696606
O O13 0.702809 0.000000 0.182854
#
# Coordination Sequence:
#
# PCOD9214256 Si02
#       5
#     8   8   8   8   8
#     4  10  22  39  65  96 130 168 212 271 337 400
#     4   9  18  32  57  90 130 165 199 257 322 398
#     4  11  27  47  68  94 129 179 233 278 321 384
#     4   9  20  40  64  94 128 169 219 274 331 392
#     4   9  18  36  63  99 131 160 207 265 341 411
#
# _framework density 24.032042000000001
#
# number of rings (size 3 to 8) (size 9 to 14) (size 15 to 20)
#    0.000    2.400    0.000    0.600    5.600    9.600 
#    3.600    0.000    0.000    0.000    0.000    0.000 
#    0.000    0.000    0.000    0.000    0.000    0.000 
#
# Total GULP energy -111423.809134 kJ/mol
# GULP energy per Si atom -5571.190457 kJ/mol
# Density = 2.397734 g / cm^3
# Si number density = 24.032042 Si / 1000 Ang^3
#
#
#
# Elastic Constant Matrix: (Units=GPa)
#
#
# Indices 1 2 3 4 5 6 
#
# 1 68.1608 -1.9324 11.8848 0.0000 12.3946 0.0000
# 2 -1.9324 173.4776 58.7091 0.0000 21.0750 0.0000
# 3 11.8848 58.7091 132.0526 0.0000 10.6358 0.0000
# 4 0.0000 0.0000 0.0000 11.1889 0.0000 1.7979
# 5 12.3946 21.0750 10.6358 0.0000 14.6729 0.0000
# 6 0.0000 0.0000 0.0000 1.7979 0.0000 22.9531
#
#
#
# Elastic Compliance Matrix: (Units=1/GPa)
#
#
# Indices 1 2 3 4 5 6 
#
# 1 0.018429 0.002986 -0.001473 0.000000 -0.018790 0.000000
# 2 0.002986 0.008294 -0.002967 0.000000 -0.012285 0.000000
# 3 -0.001473 -0.002967 0.009113 0.000000 -0.001100 0.000000
# 4 0.000000 0.000000 0.000000 0.090514 0.000000 -0.007090
# 5 -0.018790 -0.012285 -0.001100 0.000000 0.102468 0.000000
# 6 0.000000 0.000000 0.000000 -0.007090 0.000000 0.044123
#
#
# Mechanical properties :
#
#
# Convention : Reuss Voigt Hill
#
# Bulk Modulus (GPa) = 30.36765 56.77934 43.57350
# Shear Modulus (GPa) = 17.43228 30.09827 23.76528
#
# Velocity S-wave (km/s) = 2.69620 3.54280 3.14809
# Velocity P-wave (km/s) = 4.72826 6.35712 5.60221
#
# Compressibility (1/GPa) = 0.03292977
#
# Stress axis : x y z
#
# Youngs Moduli (GPa) = 54.26101 120.56564 109.73431
#
# Poissons Ratio (x) = -0.36006 0.16165
# Poissons Ratio (y) = -0.16205 0.32556
# Poissons Ratio (z) = 0.07993 0.35770
#
# Static dielectric constant tensor:
#      x y z
#    x 2.040700 0.000000 -0.078470 
#    y 0.000000 1.989730 0.000000 
#    z -0.078470 0.000000 2.052000 
# 
# From -- ./inp_files/28047.got.cif
#   From: 2010.05.17/outbox.cif.g08.bks.cpg/sg12_15_cif.got.tgz:28047.got - 2010.06.03 13:09:07.
