data_PCOD9214627
_publ_section_title
;
Structure prediction by ZEFSAII (Michael W. Deem and Ramdas Pophale) SiO2 
 PCOD9214627
Probable space group: C 2/M
;
_chemical_formula_sum "Si O2"
_cell_formula_units_Z 56
_cell_length_a 9.841638
_cell_length_b 22.604535
_cell_length_c 14.422632
_cell_angle_alpha 90.000000
_cell_angle_beta 111.944150
_cell_angle_gamma 90.000000
_cell_volume 2976.076878
_symmetry_space_group_name_H-M "C 2/M"
_symmetry_group_IT_number 12
_symmetry_cell_setting 'monoclinic'
loop_
_space_group_symop_operation_xyz
x,y,z
-x,y,-z
-x,-y,-z
x,-y,z
1/2+x,1/2+y,z
1/2-x,1/2+y,-z
1/2-x,1/2-y,-z
1/2+x,1/2-y,z
loop_
_atom_site_type_symbol
_atom_site_label
_atom_site_fract_x
_atom_site_fract_y
_atom_site_fract_z
Si Si1 0.414999 0.237629 0.073137
Si Si2 0.285894 0.802499 0.379863
Si Si3 0.019673 0.619935 0.197469
Si Si4 0.724585 0.567335 0.086774
Si Si5 0.610568 0.186520 0.391762
Si Si6 0.948485 0.142749 0.811834
Si Si7 0.226670 0.070592 0.867776
O O1 0.441727 0.180892 0.144350
O O2 0.479664 0.295374 0.139503
O O3 0.500000 0.226434 0.000000
O O4 0.250000 0.250000 0.000000
O O5 0.315923 0.827564 0.490562
O O6 0.444015 0.793858 0.372755
O O7 0.202563 0.740278 0.371472
O O8 0.183549 0.843767 0.291707
O O9 0.097451 0.634246 0.314319
O O10 0.138083 0.598842 0.152628
O O11 0.887010 0.574053 0.169952
O O12 0.671921 0.500000 0.082249
O O13 0.617634 0.610368 0.114910
O O14 0.739004 0.581811 0.981544
O O15 0.074966 0.101759 0.801266
O O16 0.224778 0.000000 0.853378
#
# Coordination Sequence:
#
# PCOD9214627 Si02
#       7
#     8   8   8   8   8   8   8
#     4  12  24  34  53  88 127 155 187 237 309 366
#     4  10  22  40  62  93 123 159 202 246 305 379
#     4  12  22  39  62  88 124 161 199 255 309 361
#     4  11  23  41  62  84 118 168 215 249 290 357
#     4  10  22  40  63  91 125 158 201 247 307 377
#     4  12  22  39  63  88 126 160 201 254 308 363
#     4  11  25  41  60  88 121 167 217 252 292 359
#
# _framework density 18.816717000000001
#
# number of rings (size 3 to 8) (size 9 to 14) (size 15 to 20)
#    0.000    0.857    2.857    6.000    2.000    2.286 
#    0.000    0.000    0.000    5.143    0.000    0.000 
#    0.000    0.000    0.000    0.000    0.000    0.000 
#
# Total GULP energy -156610.963886 kJ/mol
# GULP energy per Si atom -5593.248710 kJ/mol
# Density = 1.877389 g / cm^3
# Si number density = 18.816717 Si / 1000 Ang^3
#
#
#
# Elastic Constant Matrix: (Units=GPa)
#
#
# Indices 1 2 3 4 5 6 
#
# 1 87.7721 31.6725 24.8704 0.0000 8.8222 0.0000
# 2 31.6725 84.4914 36.2996 0.0000 0.8822 0.0000
# 3 24.8704 36.2996 96.8144 0.0000 16.7172 0.0000
# 4 0.0000 0.0000 0.0000 40.9404 0.0000 34.2414
# 5 8.8222 0.8822 16.7172 0.0000 29.5980 0.0000
# 6 0.0000 0.0000 0.0000 34.2414 0.0000 74.7404
#
#
#
# Elastic Compliance Matrix: (Units=1/GPa)
#
#
# Indices 1 2 3 4 5 6 
#
# 1 0.013724 -0.004574 -0.001250 0.000000 -0.003249 0.000000
# 2 -0.004574 0.015852 -0.005454 0.000000 0.003971 0.000000
# 3 -0.001250 -0.005454 0.013965 0.000000 -0.007352 0.000000
# 4 0.000000 0.000000 0.000000 0.039599 0.000000 -0.018142
# 5 -0.003249 0.003971 -0.007352 0.000000 0.038789 0.000000
# 6 0.000000 0.000000 0.000000 -0.018142 0.000000 0.021691
#
#
# Mechanical properties :
#
#
# Convention : Reuss Voigt Hill
#
# Bulk Modulus (GPa) = 47.65302 50.52922 49.09112
# Shear Modulus (GPa) = 28.87329 40.80478 34.83904
#
# Velocity S-wave (km/s) = 3.92145 4.66181 4.30757
# Velocity P-wave (km/s) = 6.77374 7.47585 7.13344
#
# Compressibility (1/GPa) = 0.02098503
#
# Stress axis : x y z
#
# Youngs Moduli (GPa) = 72.86372 63.08378 71.60933
#
# Poissons Ratio (x) = 0.28854 0.08949
# Poissons Ratio (y) = 0.33327 0.39058
# Poissons Ratio (z) = 0.09106 0.34408
#
# Static dielectric constant tensor:
#      x y z
#    x 1.645600 0.000000 0.008190 
#    y 0.000000 1.645510 0.000000 
#    z 0.008190 0.000000 1.657250 
# 
# From -- ./inp_files/198525.got.cif
#   From: 2010.05.17/outbox.cif.g08.bks.cpg/sg12_100_cif.got.tgz:198525.got - 2010.06.03 13:09:07.
