data_PCOD9214535
_publ_section_title
;
Structure prediction by ZEFSAII (Michael W. Deem and Ramdas Pophale) SiO2 
 PCOD9214535
Probable space group: C 2/M
;
_chemical_formula_sum "Si O2"
_cell_formula_units_Z 44
_cell_length_a 25.699163
_cell_length_b 13.689526
_cell_length_c 18.766250
_cell_angle_alpha 90.000000
_cell_angle_beta 18.510832
_cell_angle_gamma 90.000000
_cell_volume 2096.074151
_symmetry_space_group_name_H-M "C 2/M"
_symmetry_group_IT_number 12
_symmetry_cell_setting 'monoclinic'
loop_
_space_group_symop_operation_xyz
x,y,z
-x,y,-z
-x,-y,-z
x,-y,z
1/2+x,1/2+y,z
1/2-x,1/2+y,-z
1/2-x,1/2-y,-z
1/2+x,1/2-y,z
loop_
_atom_site_type_symbol
_atom_site_label
_atom_site_fract_x
_atom_site_fract_y
_atom_site_fract_z
Si Si1 0.452783 0.000000 0.644646
Si Si2 0.379323 0.500000 0.725669
Si Si3 0.537236 0.114386 0.868658
Si Si4 0.567846 0.500000 0.182143
Si Si5 0.153525 0.688274 0.006907
Si Si6 0.474173 0.783954 0.618261
Si Si7 0.893788 0.804624 0.415979
O O1 0.500000 0.000000 0.500000
O O2 0.517900 0.894450 0.583949
O O3 0.259305 0.000000 0.913875
O O4 0.500000 0.500000 0.500000
O O5 0.468173 0.500000 0.686046
O O6 0.258306 0.591967 0.885321
O O7 0.396515 0.174076 0.010136
O O8 0.705756 0.174374 0.644184
O O9 0.548167 0.000000 0.828323
O O10 0.500000 0.108061 0.000000
O O11 0.483981 0.400090 0.266788
O O12 0.981040 0.710380 0.268200
O O13 0.277986 0.769363 0.876003
O O14 0.500000 0.766907 0.500000
O O15 0.566689 0.711034 0.551181
#
# Coordination Sequence:
#
# PCOD9214535 Si02
#       7
#     4   4   8   4   8   8   8
#     4  10  22  40  61  93 129 171 211 267 317 389
#     4  12  26  37  67 107 137 161 211 287 339 393
#     4  11  25  42  64  91 132 171 218 275 337 389
#     4  12  22  39  62  97 132 163 216 271 332 387
#     4  12  23  41  62  94 129 172 214 262 327 397
#     4  11  22  39  66  95 128 165 216 266 328 391
#     4  12  24  40  65  94 128 175 218 272 325 397
#
# _framework density 20.991624000000002
#
# number of rings (size 3 to 8) (size 9 to 14) (size 15 to 20)
#    0.000    0.545    5.455    3.818    2.545    0.000 
#    0.000    0.000    0.000    0.000    0.000    6.364 
#    0.000    0.000    0.000    0.000    0.000    0.000 
#
# Total GULP energy -122629.937513 kJ/mol
# GULP energy per Si atom -5574.088069 kJ/mol
# Density = 2.094385 g / cm^3
# Si number density = 20.991624 Si / 1000 Ang^3
#
#
#
# Elastic Constant Matrix: (Units=GPa)
#
#
# Indices 1 2 3 4 5 6 
#
# 1 68.7019 6.9217 -4.6971 0.0020 -4.1823 -0.0009
# 2 6.9217 102.5033 16.3241 0.0027 2.9548 -0.0016
# 3 -4.6971 16.3241 59.0233 0.0041 6.4822 -0.0025
# 4 0.0020 0.0027 0.0041 21.2718 -0.0024 8.1186
# 5 -4.1823 2.9548 6.4822 -0.0024 34.4309 0.0013
# 6 -0.0009 -0.0016 -0.0025 8.1186 0.0013 13.7618
#
#
#
# Elastic Compliance Matrix: (Units=1/GPa)
#
#
# Indices 1 2 3 4 5 6 
#
# 1 0.014877 -0.001268 0.001352 -0.000002 0.001661 0.000002
# 2 -0.001268 0.010317 -0.002900 -0.000001 -0.000493 0.000001
# 3 0.001352 -0.002900 0.018183 -0.000006 -0.003010 0.000007
# 4 -0.000002 -0.000001 -0.000006 0.060671 0.000007 -0.035792
# 5 0.001661 -0.000493 -0.003010 0.000007 0.029855 -0.000007
# 6 0.000002 0.000001 0.000007 -0.035792 -0.000007 0.093780
#
#
# Mechanical properties :
#
#
# Convention : Reuss Voigt Hill
#
# Bulk Modulus (GPa) = 26.49334 29.70289 28.09812
# Shear Modulus (GPa) = 20.33376 28.00488 24.16932
#
# Velocity S-wave (km/s) = 3.11571 3.65649 3.39688
# Velocity P-wave (km/s) = 5.05884 5.65749 5.36652
#
# Compressibility (1/GPa) = 0.03774533
#
# Stress axis : x y z
#
# Youngs Moduli (GPa) = 67.21805 96.92280 54.99712
#
# Poissons Ratio (x) = 0.12288 -0.07436
# Poissons Ratio (y) = 0.08522 0.15950
# Poissons Ratio (z) = -0.09089 0.28110
#
# Static dielectric constant tensor:
#      x y z
#    x 1.661320 0.000000 -0.134910 
#    y 0.000000 1.834340 0.000000 
#    z -0.134910 0.000000 1.596420 
# 
# From -- ./inp_files/290017.got.cif
#   From: 2010.05.17/outbox.cif.g08.bks.cpg/sg12_146_cif.got.tgz:290017.got - 2010.06.03 13:09:07.
