data_PCOD9214781
_publ_section_title
;
Structure prediction by ZEFSAII (Michael W. Deem and Ramdas Pophale) SiO2 
 PCOD9214781
Probable space group: C 2/M
;
_chemical_formula_sum "Si O2"
_cell_formula_units_Z 24
_cell_length_a 23.794702
_cell_length_b 10.914343
_cell_length_c 5.116667
_cell_angle_alpha 90.000000
_cell_angle_beta 57.780659
_cell_angle_gamma 90.000000
_cell_volume 1124.196374
_symmetry_space_group_name_H-M "C 2/M"
_symmetry_group_IT_number 12
_symmetry_cell_setting 'monoclinic'
loop_
_space_group_symop_operation_xyz
x,y,z
-x,y,-z
-x,-y,-z
x,-y,z
1/2+x,1/2+y,z
1/2-x,1/2+y,-z
1/2-x,1/2-y,-z
1/2+x,1/2-y,z
loop_
_atom_site_type_symbol
_atom_site_label
_atom_site_fract_x
_atom_site_fract_y
_atom_site_fract_z
Si Si1 0.888232 0.865927 0.239951
Si Si2 0.437039 0.864420 0.846235
Si Si3 0.323192 0.722717 0.915918
O O1 0.861303 0.852067 0.597411
O O2 0.918339 0.000000 0.124852
O O3 0.933413 0.749803 0.052630
O O4 0.828222 0.848323 0.178813
O O5 0.500000 0.853884 0.500000
O O6 0.368861 0.842640 0.852341
O O7 0.436884 0.000000 0.966207
O O8 0.250000 0.750000 0.000000
#
# Coordination Sequence:
#
# PCOD9214781 Si02
#       3
#     8   8   8
#     4  10  22  40  64  92 123 158 205 258 308 361
#     4   9  22  42  63  90 125 165 207 252 307 368
#     4  10  22  41  62  92 123 163 204 252 308 363
#
# _framework density 21.348583999999999
#
# number of rings (size 3 to 8) (size 9 to 14) (size 15 to 20)
#    2.000    0.333    0.000    2.000    0.000    6.000 
#    0.000    5.000    0.000    0.000    0.000    0.000 
#    0.000    0.000    0.000    0.000    0.000    0.000 
#
# Total GULP energy -66834.197315 kJ/mol
# GULP energy per Si atom -5569.516443 kJ/mol
# Density = 2.129999 g / cm^3
# Si number density = 21.348584 Si / 1000 Ang^3
#
#
#
# Elastic Constant Matrix: (Units=GPa)
#
#
# Indices 1 2 3 4 5 6 
#
# 1 118.3533 9.9150 -1.0717 0.0000 -13.1339 0.0000
# 2 9.9150 180.8021 25.9783 0.0000 -11.4107 0.0000
# 3 -1.0717 25.9783 28.7171 0.0000 3.2658 0.0000
# 4 0.0000 0.0000 0.0000 16.5378 0.0000 10.3238
# 5 -13.1339 -11.4107 3.2658 0.0000 41.8463 0.0000
# 6 0.0000 0.0000 0.0000 10.3238 0.0000 11.4612
#
#
#
# Elastic Compliance Matrix: (Units=1/GPa)
#
#
# Indices 1 2 3 4 5 6 
#
# 1 0.008775 -0.000367 0.000361 0.000000 0.002626 0.000000
# 2 -0.000367 0.006580 -0.006212 0.000000 0.002164 0.000000
# 3 0.000361 -0.006212 0.041000 0.000000 -0.004780 0.000000
# 4 0.000000 0.000000 0.000000 0.138149 0.000000 -0.124440
# 5 0.002626 0.002164 -0.004780 0.000000 0.025684 0.000000
# 6 0.000000 0.000000 0.000000 -0.124440 0.000000 0.199342
#
#
# Mechanical properties :
#
#
# Convention : Reuss Voigt Hill
#
# Bulk Modulus (GPa) = 22.77013 44.16842 33.46928
# Shear Modulus (GPa) = 11.19555 33.50580 22.35067
#
# Velocity S-wave (km/s) = 2.29250 3.96594 3.23915
# Velocity P-wave (km/s) = 4.20671 6.45799 5.44987
#
# Compressibility (1/GPa) = 0.04391718
#
# Stress axis : x y z
#
# Youngs Moduli (GPa) = 113.96405 151.96996 24.39052
#
# Poissons Ratio (x) = 0.05583 -0.00881
# Poissons Ratio (y) = 0.04187 0.15153
# Poissons Ratio (z) = -0.04116 0.94411
#
# Static dielectric constant tensor:
#      x y z
#    x 1.824170 0.000000 0.027830 
#    y 0.000000 1.786220 0.000000 
#    z 0.027830 0.000000 1.720540 
# 
# From -- ./inp_files/13906.got.cif
#   From: 2010.05.17/outbox.cif.g08.bks.cpg/sg12_7_cif.got.tgz:13906.got - 2010.06.03 13:09:07.
