data_PCOD9214488
_publ_section_title
;
Structure prediction by ZEFSAII (Michael W. Deem and Ramdas Pophale) SiO2 
 PCOD9214488
Probable space group: C 2/M
;
_chemical_formula_sum "Si O2"
_cell_formula_units_Z 64
_cell_length_a 15.622049
_cell_length_b 8.751747
_cell_length_c 32.045804
_cell_angle_alpha 90.000000
_cell_angle_beta 48.107251
_cell_angle_gamma 90.000000
_cell_volume 3261.429433
_symmetry_space_group_name_H-M "C 2/M"
_symmetry_group_IT_number 12
_symmetry_cell_setting 'monoclinic'
loop_
_space_group_symop_operation_xyz
x,y,z
-x,y,-z
-x,-y,-z
x,-y,z
1/2+x,1/2+y,z
1/2-x,1/2+y,-z
1/2-x,1/2-y,-z
1/2+x,1/2-y,z
loop_
_atom_site_type_symbol
_atom_site_label
_atom_site_fract_x
_atom_site_fract_y
_atom_site_fract_z
Si Si1 0.858381 0.816165 0.940580
Si Si2 0.292256 0.817739 0.242835
Si Si3 0.385442 0.683170 0.126120
Si Si4 0.921290 0.683768 0.643701
Si Si5 0.117640 0.684252 0.439445
Si Si6 0.859359 0.682243 0.378485
Si Si7 0.312255 0.316383 0.860309
Si Si8 0.043058 0.183743 0.739070
O O1 0.851901 0.772671 0.893859
O O2 0.981320 0.767995 0.919245
O O3 0.853527 0.000000 0.944023
O O4 0.750000 0.750000 0.000000
O O5 0.331643 0.753057 0.185657
O O6 0.164062 0.765553 0.296518
O O7 0.373968 0.746257 0.251741
O O8 0.300426 0.000000 0.240330
O O9 0.382151 0.500000 0.130094
O O10 0.306408 0.739325 0.114136
O O11 0.906021 0.500000 0.652345
O O12 0.888338 0.728623 0.607390
O O13 0.052848 0.719156 0.612638
O O14 0.123210 0.500000 0.439246
O O15 0.232242 0.749674 0.422845
O O16 0.000000 0.732909 0.500000
O O17 0.851280 0.500000 0.377750
O O18 0.917097 0.747053 0.317552
O O19 0.299418 0.500000 0.863267
O O20 0.413300 0.275611 0.794855
O O21 0.052538 0.000000 0.734471
#
# Coordination Sequence:
#
# PCOD9214488 Si02
#       8
#     8   8   8   8   8   8   8   8
#     4  10  23  43  63  86 120 160 204 252 302 354
#     4  12  23  36  61  94 123 156 200 243 295 361
#     4  11  23  41  63  90 124 160 198 245 302 358
#     4  10  22  40  61  87 124 161 195 244 303 357
#     4  10  22  41  63  85 115 162 209 248 299 357
#     4  11  23  38  59  91 122 155 200 248 299 354
#     4  10  22  41  63  90 123 159 201 247 299 359
#     4  11  21  38  62  87 123 161 193 241 303 359
#
# _framework density 19.623297000000001
#
# number of rings (size 3 to 8) (size 9 to 14) (size 15 to 20)
#    0.000    1.375    2.500    3.000    0.000    6.750 
#    0.000    2.500    0.000    0.000    0.000    0.000 
#    0.000    0.000    0.000    0.000    0.000    0.000 
#
# Total GULP energy -178918.422217 kJ/mol
# GULP energy per Si atom -5591.200694 kJ/mol
# Density = 1.957863 g / cm^3
# Si number density = 19.623297 Si / 1000 Ang^3
#
#
#
# Elastic Constant Matrix: (Units=GPa)
#
#
# Indices 1 2 3 4 5 6 
#
# 1 118.5955 27.2967 13.7705 0.0003 -39.8084 0.0004
# 2 27.2967 24.6131 15.9096 0.0007 -14.3994 0.0004
# 3 13.7705 15.9096 72.5996 0.0003 -38.9817 0.0004
# 4 0.0003 0.0007 0.0003 25.5095 0.0002 -5.2439
# 5 -39.8084 -14.3994 -38.9817 0.0002 31.7971 0.0002
# 6 0.0004 0.0004 0.0004 -5.2439 0.0002 31.7563
#
#
#
# Elastic Compliance Matrix: (Units=1/GPa)
#
#
# Indices 1 2 3 4 5 6 
#
# 1 0.059841 -0.022670 0.082905 -0.000003 0.166289 -0.000003
# 2 -0.022670 0.064237 -0.027497 -0.000001 -0.033002 0.000000
# 3 0.082905 -0.027497 0.155440 -0.000005 0.281902 -0.000005
# 4 -0.000003 -0.000001 -0.000005 0.040578 -0.000011 0.006701
# 5 0.166289 -0.033002 0.281902 -0.000011 0.570288 -0.000011
# 6 -0.000003 0.000000 -0.000005 0.006701 -0.000011 0.032596
#
#
# Mechanical properties :
#
#
# Convention : Reuss Voigt Hill
#
# Bulk Modulus (GPa) = 2.89861 36.64021 19.76941
# Shear Modulus (GPa) = 5.14137 28.40135 16.77136
#
# Velocity S-wave (km/s) = 1.62041 3.80850 2.92664
# Velocity P-wave (km/s) = 2.23188 6.16862 4.63860
#
# Compressibility (1/GPa) = 0.34499327
#
# Stress axis : x y z
#
# Youngs Moduli (GPa) = 16.71093 15.56724 6.43336
#
# Poissons Ratio (x) = 0.35291 -0.53336
# Poissons Ratio (y) = 0.37884 0.17690
# Poissons Ratio (z) = -1.38542 0.42806
#
# Static dielectric constant tensor:
#      x y z
#    x 1.696280 0.000000 -0.008040 
#    y 0.000000 1.658820 0.000000 
#    z -0.008040 0.000000 1.664560 
# 
# From -- ./inp_files/375511.got.cif
#   From: 2010.05.17/outbox.cif.g08.bks.cpg/sg12_188_cif.got.tgz:375511.got - 2010.06.03 13:09:07.
