data_PCOD9214745
_publ_section_title
;
Structure prediction by ZEFSAII (Michael W. Deem and Ramdas Pophale) SiO2 
 PCOD9214745
Probable space group: C 2/M
;
_chemical_formula_sum "Si O2"
_cell_formula_units_Z 48
_cell_length_a 14.819568
_cell_length_b 20.368847
_cell_length_c 8.292207
_cell_angle_alpha 90.000000
_cell_angle_beta 115.363637
_cell_angle_gamma 90.000000
_cell_volume 2261.787883
_symmetry_space_group_name_H-M "C 2/M"
_symmetry_group_IT_number 12
_symmetry_cell_setting 'monoclinic'
loop_
_space_group_symop_operation_xyz
x,y,z
-x,y,-z
-x,-y,-z
x,-y,z
1/2+x,1/2+y,z
1/2-x,1/2+y,-z
1/2-x,1/2-y,-z
1/2+x,1/2-y,z
loop_
_atom_site_type_symbol
_atom_site_label
_atom_site_fract_x
_atom_site_fract_y
_atom_site_fract_z
Si Si1 0.409142 0.872719 0.661485
Si Si2 0.512066 0.264430 0.202614
Si Si3 0.197305 0.795359 0.824151
Si Si4 0.832893 0.424467 0.924617
Si Si5 0.662912 0.073412 0.712903
Si Si6 0.731635 0.314806 0.353941
O O1 0.479596 0.809260 0.720637
O O2 0.403356 0.910401 0.825507
O O3 0.407812 0.914066 0.495646
O O4 0.298328 0.840593 0.551687
O O5 0.418404 0.299019 0.214194
O O6 0.617226 0.301127 0.302648
O O7 0.500000 0.257584 0.000000
O O8 0.250916 0.866015 0.858273
O O9 0.214185 0.748258 0.682687
O O10 0.250000 0.750000 0.000000
O O11 0.795867 0.500000 0.881882
O O12 0.881598 0.419985 0.141366
O O13 0.750965 0.126456 0.760972
O O14 0.702266 0.000000 0.729457
#
# Coordination Sequence:
#
# PCOD9214745 Si02
#       6
#     8   8   8   8   8   8
#     4  10  22  40  63  97 131 169 220 274 327 398
#     4  12  22  36  68  99 131 174 223 277 331 395
#     4  12  21  40  64  98 131 171 224 279 325 393
#     4  11  21  39  69  96 135 180 214 273 344 396
#     4   9  20  38  64  93 131 173 212 268 337 398
#     4  10  22  41  62  97 133 167 221 279 326 393
#
# _framework density 21.222149999999999
#
# number of rings (size 3 to 8) (size 9 to 14) (size 15 to 20)
#    1.000    0.333    5.000    1.000    0.000    0.667 
#    0.000    0.833    0.000   16.000    0.000    0.000 
#    0.000    0.000    0.000    0.000    0.000    0.000 
#
# Total GULP energy -133853.190409 kJ/mol
# GULP energy per Si atom -5577.216267 kJ/mol
# Density = 2.117385 g / cm^3
# Si number density = 21.222150 Si / 1000 Ang^3
#
#
#
# Elastic Constant Matrix: (Units=GPa)
#
#
# Indices 1 2 3 4 5 6 
#
# 1 136.2569 56.6117 23.7558 0.0000 -8.1094 0.0000
# 2 56.6117 169.8398 31.0904 0.0000 -10.4668 0.0000
# 3 23.7558 31.0904 115.8694 0.0000 -18.7213 0.0000
# 4 0.0000 0.0000 0.0000 32.1640 0.0000 -5.5758
# 5 -8.1094 -10.4668 -18.7213 0.0000 25.7606 0.0000
# 6 0.0000 0.0000 0.0000 -5.5758 0.0000 18.0218
#
#
#
# Elastic Compliance Matrix: (Units=1/GPa)
#
#
# Indices 1 2 3 4 5 6 
#
# 1 0.008661 -0.002661 -0.000902 0.000000 0.000990 0.000000
# 2 -0.002661 0.007060 -0.001156 0.000000 0.001190 0.000000
# 3 -0.000902 -0.001156 0.010202 0.000000 0.006660 0.000000
# 4 0.000000 0.000000 0.000000 0.032853 0.000000 0.010164
# 5 0.000990 0.001190 0.006660 0.000000 0.044455 0.000000
# 6 0.000000 0.000000 0.000000 0.010164 0.000000 0.058633
#
#
# Mechanical properties :
#
#
# Convention : Reuss Voigt Hill
#
# Bulk Modulus (GPa) = 60.66362 71.65353 66.15857
# Shear Modulus (GPa) = 28.28130 35.88984 32.08557
#
# Velocity S-wave (km/s) = 3.65448 4.11682 3.89252
# Velocity P-wave (km/s) = 6.81572 7.51229 7.17247
#
# Compressibility (1/GPa) = 0.01648435
#
# Stress axis : x y z
#
# Youngs Moduli (GPa) = 115.46427 141.64603 98.02290
#
# Poissons Ratio (x) = 0.37688 0.08839
# Poissons Ratio (y) = 0.30722 0.11336
# Poissons Ratio (z) = 0.10412 0.16381
#
# Static dielectric constant tensor:
#      x y z
#    x 1.788320 0.000000 -0.027060 
#    y 0.000000 1.760750 0.000000 
#    z -0.027060 0.000000 1.869230 
# 
# From -- ./inp_files/63590.got.cif
#   From: 2010.05.17/outbox.cif.g08.bks.cpg/sg12_32_cif.got.tgz:63590.got - 2010.06.03 13:09:07.
