data_PCOD9214585
_publ_section_title
;
Structure prediction by ZEFSAII (Michael W. Deem and Ramdas Pophale) SiO2 
 PCOD9214585
Probable space group: C 2/M
;
_chemical_formula_sum "Si O2"
_cell_formula_units_Z 40
_cell_length_a 12.297791
_cell_length_b 13.772123
_cell_length_c 14.529110
_cell_angle_alpha 90.000000
_cell_angle_beta 51.000380
_cell_angle_gamma 90.000000
_cell_volume 1912.370076
_symmetry_space_group_name_H-M "C 2/M"
_symmetry_group_IT_number 12
_symmetry_cell_setting 'monoclinic'
loop_
_space_group_symop_operation_xyz
x,y,z
-x,y,-z
-x,-y,-z
x,-y,z
1/2+x,1/2+y,z
1/2-x,1/2+y,-z
1/2-x,1/2-y,-z
1/2+x,1/2-y,z
loop_
_atom_site_type_symbol
_atom_site_label
_atom_site_fract_x
_atom_site_fract_y
_atom_site_fract_z
Si Si1 0.927367 0.187478 0.354815
Si Si2 0.194034 0.388782 0.611231
Si Si3 0.256102 0.388376 0.795097
Si Si4 0.381652 0.385073 0.181482
Si Si5 0.839775 0.778690 0.039362
O O1 0.911465 0.303938 0.363997
O O2 0.839682 0.139802 0.484097
O O3 0.853652 0.151680 0.299117
O O4 0.086612 0.151770 0.273550
O O5 0.155997 0.500000 0.608204
O O6 0.216094 0.382876 0.709166
O O7 0.252416 0.500000 0.826780
O O8 0.152472 0.321540 0.908392
O O9 0.397678 0.500000 0.173081
O O10 0.282874 0.351204 0.149717
O O11 0.525668 0.331514 0.075652
O O12 0.750000 0.750000 0.000000
#
# Coordination Sequence:
#
# PCOD9214585 Si02
#       5
#     8   8   8   8   8
#     4  11  21  38  67  90 120 155 202 244 294 359
#     4  10  22  40  62  90 123 157 196 246 299 350
#     4  11  22  39  62  90 120 158 201 244 295 354
#     4  11  23  41  63  88 118 159 203 245 297 358
#     4  11  22  37  58  87 121 151 198 249 292 346
#
# _framework density 20.916452
#
# number of rings (size 3 to 8) (size 9 to 14) (size 15 to 20)
#    0.000    1.200    4.000    3.600    0.000    2.400 
#    0.000    5.000    0.000    2.400    0.000    0.000 
#    0.000    0.000    0.000    0.000    0.000    0.000 
#
# Total GULP energy -111603.840996 kJ/mol
# GULP energy per Si atom -5580.192050 kJ/mol
# Density = 2.086885 g / cm^3
# Si number density = 20.916452 Si / 1000 Ang^3
#
#
#
# Elastic Constant Matrix: (Units=GPa)
#
#
# Indices 1 2 3 4 5 6 
#
# 1 21.1457 27.1198 9.1073 0.0000 4.2396 0.0000
# 2 27.1198 223.3252 45.4497 0.0000 -5.7476 0.0000
# 3 9.1073 45.4497 86.5815 0.0000 16.0630 0.0000
# 4 0.0000 0.0000 0.0000 29.2221 0.0000 3.9786
# 5 4.2396 -5.7476 16.0630 0.0000 29.7282 0.0000
# 6 0.0000 0.0000 0.0000 3.9786 0.0000 28.1614
#
#
#
# Elastic Compliance Matrix: (Units=1/GPa)
#
#
# Indices 1 2 3 4 5 6 
#
# 1 0.058752 -0.007251 -0.000621 0.000000 -0.009445 0.000000
# 2 -0.007251 0.006105 -0.003170 0.000000 0.003927 0.000000
# 3 -0.000621 -0.003170 0.014867 0.000000 -0.008557 0.000000
# 4 0.000000 0.000000 0.000000 0.034892 0.000000 -0.004929
# 5 -0.009445 0.003927 -0.008557 0.000000 0.040368 0.000000
# 6 0.000000 0.000000 0.000000 -0.004929 0.000000 0.036206
#
#
# Mechanical properties :
#
#
# Convention : Reuss Voigt Hill
#
# Bulk Modulus (GPa) = 17.34974 54.93402 36.14188
# Shear Modulus (GPa) = 21.50646 34.04740 27.77693
#
# Velocity S-wave (km/s) = 3.21005 4.03895 3.64812
# Velocity P-wave (km/s) = 4.69595 6.93336 5.92129
#
# Compressibility (1/GPa) = 0.05763776
#
# Stress axis : x y z
#
# Youngs Moduli (GPa) = 17.02069 163.80953 67.26287
#
# Poissons Ratio (x) = 1.18783 0.04179
# Poissons Ratio (y) = 0.12342 0.21325
# Poissons Ratio (z) = 0.01057 0.51935
#
# Static dielectric constant tensor:
#      x y z
#    x 1.855480 0.000000 0.003000 
#    y 0.000000 1.747670 0.000000 
#    z 0.003000 0.000000 1.749240 
# 
# From -- ./inp_files/212361.got.cif
#   From: 2010.05.17/outbox.cif.g08.bks.cpg/sg12_107_cif.got.tgz:212361.got - 2010.06.03 13:09:07.
