data_PCOD9214817
_publ_section_title
;
Structure prediction by ZEFSAII (Michael W. Deem and Ramdas Pophale) SiO2 
 PCOD9214817
Probable space group: C 2/M
;
_chemical_formula_sum "Si O2"
_cell_formula_units_Z 56
_cell_length_a 16.811920
_cell_length_b 27.320919
_cell_length_c 12.542289
_cell_angle_alpha 90.000000
_cell_angle_beta 30.104009
_cell_angle_gamma 90.000000
_cell_volume 2889.495849
_symmetry_space_group_name_H-M "C 2/M"
_symmetry_group_IT_number 12
_symmetry_cell_setting 'monoclinic'
loop_
_space_group_symop_operation_xyz
x,y,z
-x,y,-z
-x,-y,-z
x,-y,z
1/2+x,1/2+y,z
1/2-x,1/2+y,-z
1/2-x,1/2-y,-z
1/2+x,1/2-y,z
loop_
_atom_site_type_symbol
_atom_site_label
_atom_site_fract_x
_atom_site_fract_y
_atom_site_fract_z
Si Si1 0.231578 0.802797 0.968601
Si Si2 0.953896 0.354557 0.329569
Si Si3 0.457078 0.348767 0.423430
Si Si4 0.406624 0.552576 0.717920
Si Si5 0.636859 0.791132 0.756098
Si Si6 0.040072 0.558229 0.078673
Si Si7 0.678593 0.316404 0.784315
O O1 0.373031 0.841769 0.824915
O O2 0.220032 0.798909 0.855131
O O3 0.250000 0.750000 0.000000
O O4 0.074246 0.820717 0.209516
O O5 0.925602 0.308884 0.283928
O O6 0.953848 0.403720 0.257918
O O7 0.812863 0.351273 0.579380
O O8 0.500000 0.345292 0.500000
O O9 0.492120 0.404473 0.346787
O O10 0.286157 0.325175 0.609384
O O11 0.500000 0.546631 0.500000
O O12 0.403161 0.500000 0.778721
O O13 0.226819 0.565575 0.891324
O O14 0.671621 0.733525 0.723145
O O15 0.500000 0.800969 0.000000
O O16 0.005532 0.500000 0.135264
O O17 0.000000 0.568530 0.000000
O O18 0.500000 0.337323 0.000000
#
# Coordination Sequence:
#
# PCOD9214817 Si02
#       7
#     8   8   8   8   8   8   8
#     4  12  23  38  60  88 120 160 204 253 305 362
#     4  12  23  39  63  90 121 164 206 257 308 369
#     4  11  21  35  56  87 117 155 197 245 303 361
#     4   9  19  35  55  84 124 156 191 240 304 367
#     4  11  23  38  59  86 123 161 206 250 302 367
#     4  10  22  40  64  95 128 161 201 254 316 378
#     4  11  24  43  59  84 123 168 210 254 301 361
#
# _framework density 19.380544
#
# number of rings (size 3 to 8) (size 9 to 14) (size 15 to 20)
#    0.000    1.143    1.429    6.429    6.000    0.000 
#    0.000    0.000    0.000    3.429    0.000    0.000 
#    0.000    0.000    0.000    0.000    0.000    0.000 
#
# Total GULP energy -156234.312793 kJ/mol
# GULP energy per Si atom -5579.796885 kJ/mol
# Density = 1.933643 g / cm^3
# Si number density = 19.380544 Si / 1000 Ang^3
#
#
#
# Elastic Constant Matrix: (Units=GPa)
#
#
# Indices 1 2 3 4 5 6 
#
# 1 24.9666 -1.4134 16.1353 0.0015 6.6904 0.0001
# 2 -1.4134 99.2243 53.9144 0.0011 2.1663 -0.0001
# 3 16.1353 53.9144 149.7400 0.0046 -1.2938 -0.0013
# 4 0.0015 0.0011 0.0046 32.9313 -0.0019 -2.5920
# 5 6.6904 2.1663 -1.2938 -0.0019 34.9636 0.0002
# 6 0.0001 -0.0001 -0.0013 -2.5920 0.0002 24.0563
#
#
#
# Elastic Compliance Matrix: (Units=1/GPa)
#
#
# Indices 1 2 3 4 5 6 
#
# 1 0.047301 0.004597 -0.006835 -0.000002 -0.009589 -0.000001
# 2 0.004597 0.013007 -0.005195 0.000000 -0.001878 0.000000
# 3 -0.006835 -0.005195 0.009302 -0.000001 0.001974 0.000000
# 4 -0.000002 0.000000 -0.000001 0.030626 0.000002 0.003300
# 5 -0.009589 -0.001878 0.001974 0.000002 0.030625 0.000000
# 6 -0.000001 0.000000 0.000000 0.003300 0.000000 0.041925
#
#
# Mechanical properties :
#
#
# Convention : Reuss Voigt Hill
#
# Bulk Modulus (GPa) = 18.26672 45.68927 31.97800
# Shear Modulus (GPa) = 24.28363 32.07656 28.18010
#
# Velocity S-wave (km/s) = 3.54360 4.07269 3.81733
# Velocity P-wave (km/s) = 5.11748 6.76327 5.99710
#
# Compressibility (1/GPa) = 0.05474437
#
# Stress axis : x y z
#
# Youngs Moduli (GPa) = 21.14142 76.87962 107.50097
#
# Poissons Ratio (x) = -0.35341 0.73476
# Poissons Ratio (y) = -0.09719 0.55846
# Poissons Ratio (z) = 0.14450 0.39938
#
# Static dielectric constant tensor:
#      x y z
#    x 1.670810 0.000010 -0.028110 
#    y 0.000010 1.864710 0.000000 
#    z -0.028110 0.000000 1.683320 
# 
# From -- ./inp_files/53191.got.cif
#   From: 2010.05.17/outbox.cif.g08.bks.cpg/sg12_27_cif.got.tgz:53191.got - 2010.06.03 13:09:07.
