data_PCOD9214991
_publ_section_title
;
Structure prediction by ZEFSAII (Michael W. Deem and Ramdas Pophale) SiO2 
 PCOD9214991
Probable space group: C 2/M
;
_chemical_formula_sum "Si O2"
_cell_formula_units_Z 32
_cell_length_a 14.277189
_cell_length_b 11.046841
_cell_length_c 14.637494
_cell_angle_alpha 90.000000
_cell_angle_beta 35.654644
_cell_angle_gamma 90.000000
_cell_volume 1345.675163
_symmetry_space_group_name_H-M "C 2/M"
_symmetry_group_IT_number 12
_symmetry_cell_setting 'monoclinic'
loop_
_space_group_symop_operation_xyz
x,y,z
-x,y,-z
-x,-y,-z
x,-y,z
1/2+x,1/2+y,z
1/2-x,1/2+y,-z
1/2-x,1/2-y,-z
1/2+x,1/2-y,z
loop_
_atom_site_type_symbol
_atom_site_label
_atom_site_fract_x
_atom_site_fract_y
_atom_site_fract_z
Si Si1 0.880851 0.865550 0.243461
Si Si2 0.617291 0.810897 0.988703
Si Si3 0.395508 0.223656 0.664146
Si Si4 0.430464 0.129162 0.305874
O O1 0.742398 0.852660 0.277543
O O2 0.848648 0.754264 0.338489
O O3 0.886530 0.000000 0.276343
O O4 0.049907 0.824690 0.063935
O O5 0.796264 0.812590 0.809320
O O6 0.500000 0.855710 0.000000
O O7 0.578113 0.872990 0.115484
O O8 0.500000 0.280330 0.500000
O O9 0.504617 0.144103 0.643939
O O10 0.344063 0.000000 0.363442
#
# Coordination Sequence:
#
# PCOD9214991 Si02
#       4
#     8   8   8   8
#     4   9  21  41  64  90 122 164 212 255 301 367
#     4   8  19  40  62  91 117 167 207 255 300 368
#     4  11  22  40  64  96 128 163 210 260 310 371
#     4  10  22  40  67  94 122 165 212 256 310 370
#
# _framework density 23.779885
#
# number of rings (size 3 to 8) (size 9 to 14) (size 15 to 20)
#    1.500    1.000    0.000    1.500    0.000    9.000 
#    0.000    1.250    0.000    5.250    0.000    0.000 
#    0.000    0.000    0.000    0.000    0.000    0.000 
#
# Total GULP energy -89121.679099 kJ/mol
# GULP energy per Si atom -5570.104944 kJ/mol
# Density = 2.372576 g / cm^3
# Si number density = 23.779885 Si / 1000 Ang^3
#
#
#
# Elastic Constant Matrix: (Units=GPa)
#
#
# Indices 1 2 3 4 5 6 
#
# 1 92.0719 50.2333 10.8000 0.0000 18.9108 0.0000
# 2 50.2333 172.3663 7.5209 0.0000 4.0961 0.0000
# 3 10.8000 7.5209 155.8143 0.0000 24.6481 0.0000
# 4 0.0000 0.0000 0.0000 -25.2389 0.0000 -11.4710
# 5 18.9108 4.0961 24.6481 0.0000 37.2259 0.0000
# 6 0.0000 0.0000 0.0000 -11.4710 0.0000 -4.8918
#
#
#
# Elastic Compliance Matrix: (Units=1/GPa)
#
#
# Indices 1 2 3 4 5 6 
#
# 1 0.014512 -0.004074 0.000319 0.000000 -0.007135 -0.000001
# 2 -0.004074 0.006966 -0.000290 0.000000 0.001495 0.000000
# 3 0.000319 -0.000290 0.007183 0.000000 -0.004886 -0.000001
# 4 0.000000 0.000000 0.000000 0.602561 -0.000001 -1.412958
# 5 -0.007135 0.001495 -0.004886 -0.000001 0.033558 0.000002
# 6 -0.000001 0.000000 -0.000001 -1.412958 0.000002 3.108853
#
#
# Mechanical properties :
#
#
# Convention : Reuss Voigt Hill
#
# Bulk Modulus (GPa) = 48.61137 61.92897 55.27017
# Shear Modulus (GPa) = 1.31976 24.86559 13.09267
#
# Velocity S-wave (km/s) = 0.74578 3.23717 2.34898
# Velocity P-wave (km/s) = 4.60741 6.33020 5.53623
#
# Compressibility (1/GPa) = 0.02057132
#
# Stress axis : x y z
#
# Youngs Moduli (GPa) = 68.91040 143.55632 139.22317
#
# Poissons Ratio (x) = 0.58478 -0.04448
# Poissons Ratio (y) = 0.28071 0.04043
# Poissons Ratio (z) = -0.02202 0.04169
#
# Static dielectric constant tensor:
#      x y z
#    x 1.883600 0.000000 0.004100 
#    y 0.000000 1.934290 0.000000 
#    z 0.004100 0.000000 1.980180 
# 
# From -- ./inp_files/212310.got.cif
#   From: 2010.05.17/outbox.cif.g08.bks.cpg/sg12_107_cif.got.tgz:212310.got - 2010.06.03 13:09:07.
