data_PCOD9214731
_publ_section_title
;
Structure prediction by ZEFSAII (Michael W. Deem and Ramdas Pophale) SiO2 
 PCOD9214731
Probable space group: C 2/M
;
_chemical_formula_sum "Si O2"
_cell_formula_units_Z 48
_cell_length_a 29.416062
_cell_length_b 12.886945
_cell_length_c 11.574065
_cell_angle_alpha 90.000000
_cell_angle_beta 31.031084
_cell_angle_gamma 90.000000
_cell_volume 2261.786694
_symmetry_space_group_name_H-M "C 2/M"
_symmetry_group_IT_number 12
_symmetry_cell_setting 'monoclinic'
loop_
_space_group_symop_operation_xyz
x,y,z
-x,y,-z
-x,-y,-z
x,-y,z
1/2+x,1/2+y,z
1/2-x,1/2+y,-z
1/2-x,1/2-y,-z
1/2+x,1/2-y,z
loop_
_atom_site_type_symbol
_atom_site_label
_atom_site_fract_x
_atom_site_fract_y
_atom_site_fract_z
Si Si1 0.085574 0.888934 0.966031
Si Si2 0.975786 0.175381 0.423813
Si Si3 0.723641 0.706323 0.181352
Si Si4 0.409446 0.118153 0.868749
Si Si5 0.285061 0.114188 0.615153
Si Si6 0.588519 0.834749 0.866439
O O1 0.182201 0.886396 0.811505
O O2 0.080699 0.789480 0.895720
O O3 0.073955 0.000000 0.932882
O O4 0.021580 0.877292 0.214468
O O5 0.017846 0.294028 0.325098
O O6 0.000000 0.138651 0.500000
O O7 0.871963 0.156725 0.631337
O O8 0.701217 0.797402 0.321050
O O9 0.750000 0.750000 0.000000
O O10 0.811262 0.646727 0.035220
O O11 0.432624 0.000000 0.784764
O O12 0.402342 0.124772 0.023580
O O13 0.333482 0.137418 0.389600
O O14 0.312902 0.000000 0.596469
O O15 0.500000 0.874973 0.000000
#
# Coordination Sequence:
#
# PCOD9214731 Si02
#       6
#     8   8   8   8   8   8
#     4  10  22  40  63  94 130 174 222 270 337 409
#     4  11  22  43  68  93 137 179 222 285 342 406
#     4  12  24  44  69  99 138 180 228 286 346 408
#     4  11  25  45  69 103 140 180 233 286 346 416
#     4  11  22  40  68  94 127 177 226 275 339 410
#     4  11  23  43  68  97 136 178 222 287 350 405
#
# _framework density 21.222159000000001
#
# number of rings (size 3 to 8) (size 9 to 14) (size 15 to 20)
#    0.000    1.000    5.000    3.000    0.000    5.667 
#    0.000    0.000    0.000    0.000    0.000    0.000 
#    0.000    0.000    0.000    0.000    0.000    0.000 
#
# Total GULP energy -134022.345269 kJ/mol
# GULP energy per Si atom -5584.264386 kJ/mol
# Density = 2.117386 g / cm^3
# Si number density = 21.222159 Si / 1000 Ang^3
#
#
#
# Elastic Constant Matrix: (Units=GPa)
#
#
# Indices 1 2 3 4 5 6 
#
# 1 94.3909 -16.5012 -3.8729 0.0000 -21.4273 0.0000
# 2 -16.5012 77.2326 -39.4245 0.0000 -11.5365 0.0000
# 3 -3.8729 -39.4245 86.3657 0.0000 -12.0256 0.0000
# 4 0.0000 0.0000 0.0000 -21.1927 0.0000 13.0190
# 5 -21.4273 -11.5365 -12.0256 0.0000 37.1723 0.0000
# 6 0.0000 0.0000 0.0000 13.0190 0.0000 -17.4061
#
#
#
# Elastic Compliance Matrix: (Units=1/GPa)
#
#
# Indices 1 2 3 4 5 6 
#
# 1 0.015533 0.008761 0.006620 0.000000 0.013815 0.000000
# 2 0.008761 0.024523 0.013980 0.000000 0.017184 0.000000
# 3 0.006620 0.013980 0.020307 0.000000 0.014724 0.000000
# 4 0.000000 0.000000 0.000000 -0.087298 0.000000 -0.065295
# 5 0.013815 0.017184 0.014724 0.000000 0.044961 0.000000
# 6 0.000000 0.000000 0.000000 -0.065295 0.000000 -0.106289
#
#
# Mechanical properties :
#
#
# Convention : Reuss Voigt Hill
#
# Bulk Modulus (GPa) = 8.39735 15.37689 11.88712
# Shear Modulus (GPa) = -46.60308 20.90057 -12.85125
#
# Velocity S-wave (km/s) = -4.69119 3.14163 -2.46348
# Velocity P-wave (km/s) = 5.03762 4.51898 1.57423
#
# Compressibility (1/GPa) = 0.11908519
#
# Stress axis : x y z
#
# Youngs Moduli (GPa) = 64.37704 40.77832 49.24347
#
# Poissons Ratio (x) = -0.35728 -0.32597
# Poissons Ratio (y) = -0.56403 -0.68842
# Poissons Ratio (z) = -0.42615 -0.57007
#
# Static dielectric constant tensor:
#      x y z
#    x 1.752820 0.000000 -0.032460 
#    y 0.000000 1.828700 0.000000 
#    z -0.032460 0.000000 1.720430 
# 
# From -- ./inp_files/189367.got.cif
#   From: 2010.05.17/outbox.cif.g08.bks.cpg/sg12_95_cif.got.tgz:189367.got - 2010.06.03 13:09:07.
