data_PCOD9214482
_publ_section_title
;
Structure prediction by ZEFSAII (Michael W. Deem and Ramdas Pophale) SiO2 
 PCOD9214482
Probable space group: C 2/M
;
_chemical_formula_sum "Si O2"
_cell_formula_units_Z 48
_cell_length_a 29.570214
_cell_length_b 8.970088
_cell_length_c 9.782734
_cell_angle_alpha 90.000000
_cell_angle_beta 99.120416
_cell_angle_gamma 90.000000
_cell_volume 2562.039354
_symmetry_space_group_name_H-M "C 2/M"
_symmetry_group_IT_number 12
_symmetry_cell_setting 'monoclinic'
loop_
_space_group_symop_operation_xyz
x,y,z
-x,y,-z
-x,-y,-z
x,-y,z
1/2+x,1/2+y,z
1/2-x,1/2+y,-z
1/2-x,1/2-y,-z
1/2+x,1/2-y,z
loop_
_atom_site_type_symbol
_atom_site_label
_atom_site_fract_x
_atom_site_fract_y
_atom_site_fract_z
Si Si1 0.615910 0.173406 0.959570
Si Si2 0.720753 0.173241 0.102683
Si Si3 0.873792 0.680597 0.349839
Si Si4 0.231276 0.321785 0.627979
Si Si5 0.454687 0.319595 0.566109
Si Si6 0.957587 0.179451 0.885678
O O1 0.614057 0.225594 0.800655
O O2 0.601153 0.000000 0.955025
O O3 0.668252 0.179304 0.033106
O O4 0.586335 0.264961 0.052809
O O5 0.733654 0.264495 0.241911
O O6 0.733383 0.000000 0.126358
O O7 0.750000 0.250000 0.000000
O O8 0.876091 0.500000 0.356570
O O9 0.821149 0.722898 0.359539
O O10 0.910225 0.749785 0.472007
O O11 0.231583 0.500000 0.620073
O O12 0.250000 0.250000 0.500000
O O13 0.500000 0.279418 0.500000
O O14 0.450790 0.500000 0.561514
O O15 0.459130 0.271846 0.727509
O O16 0.958307 0.000000 0.883340
O O17 0.000000 0.230769 0.000000
#
# Coordination Sequence:
#
# PCOD9214482 Si02
#       6
#     8   8   8   8   8   8
#     4  10  22  40  61  87 120 157 199 245 297 356
#     4  11  22  40  63  90 123 164 208 253 302 357
#     4  10  22  41  61  85 120 159 198 244 298 357
#     4  11  24  42  61  88 125 164 208 255 303 362
#     4  10  22  40  62  89 120 154 196 245 297 357
#     4  10  22  40  62  90 120 152 195 247 299 354
#
# _framework density 18.735074999999998
#
# number of rings (size 3 to 8) (size 9 to 14) (size 15 to 20)
#    0.000    1.667    1.667    2.000    2.333    6.000 
#    0.000    0.000    0.000    0.000    0.000    0.000 
#    0.000    0.000    0.000    0.000    0.000    0.000 
#
# Total GULP energy -133998.368951 kJ/mol
# GULP energy per Si atom -5583.265373 kJ/mol
# Density = 1.869243 g / cm^3
# Si number density = 18.735075 Si / 1000 Ang^3
#
#
#
# Elastic Constant Matrix: (Units=GPa)
#
#
# Indices 1 2 3 4 5 6 
#
# 1 64.7814 27.2810 50.3411 0.0000 -3.8404 0.0000
# 2 27.2810 29.3887 35.6104 0.0000 -0.4460 0.0000
# 3 50.3411 35.6104 194.1704 0.0000 -4.2844 0.0000
# 4 0.0000 0.0000 0.0000 33.5142 0.0000 2.0866
# 5 -3.8404 -0.4460 -4.2844 0.0000 35.5904 0.0000
# 6 0.0000 0.0000 0.0000 2.0866 0.0000 36.2084
#
#
#
# Elastic Compliance Matrix: (Units=1/GPa)
#
#
# Indices 1 2 3 4 5 6 
#
# 1 0.026863 -0.021245 -0.003018 0.000000 0.002269 0.000000
# 2 -0.021245 0.060557 -0.005647 0.000000 -0.002213 0.000000
# 3 -0.003018 -0.005647 0.006978 0.000000 0.000444 0.000000
# 4 0.000000 0.000000 0.000000 0.029946 0.000000 -0.001726
# 5 0.002269 -0.002213 0.000444 0.000000 0.028368 0.000000
# 6 0.000000 0.000000 0.000000 -0.001726 0.000000 0.027717
#
#
# Mechanical properties :
#
#
# Convention : Reuss Voigt Hill
#
# Bulk Modulus (GPa) = 28.92021 57.20059 43.06040
# Shear Modulus (GPa) = 19.85901 32.73646 26.29774
#
# Velocity S-wave (km/s) = 3.25928 4.18465 3.75061
# Velocity P-wave (km/s) = 5.44369 7.34479 6.46451
#
# Compressibility (1/GPa) = 0.03457789
#
# Stress axis : x y z
#
# Youngs Moduli (GPa) = 37.22551 16.51348 143.30690
#
# Poissons Ratio (x) = 0.35083 0.43254
# Poissons Ratio (y) = 0.79085 0.80922
# Poissons Ratio (z) = 0.11236 0.09325
#
# Static dielectric constant tensor:
#      x y z
#    x 1.595010 0.000000 0.053120 
#    y 0.000000 1.634670 0.000000 
#    z 0.053120 0.000000 1.496340 
# 
# From -- ./inp_files/108653.got.cif
#   From: 2010.05.17/outbox.cif.g08.bks.cpg/sg12_55_cif.got.tgz:108653.got - 2010.06.03 13:09:07.
