data_PCOD9214630
_publ_section_title
;
Structure prediction by ZEFSAII (Michael W. Deem and Ramdas Pophale) SiO2 
 PCOD9214630
Probable space group: C 2/M
;
_chemical_formula_sum "Si O2"
_cell_formula_units_Z 52
_cell_length_a 18.923527
_cell_length_b 7.441491
_cell_length_c 13.833936
_cell_angle_alpha 90.000000
_cell_angle_beta 90.285676
_cell_angle_gamma 90.000000
_cell_volume 1948.060358
_symmetry_space_group_name_H-M "C 2/M"
_symmetry_group_IT_number 12
_symmetry_cell_setting 'monoclinic'
loop_
_space_group_symop_operation_xyz
x,y,z
-x,y,-z
-x,-y,-z
x,-y,z
1/2+x,1/2+y,z
1/2-x,1/2+y,-z
1/2-x,1/2-y,-z
1/2+x,1/2-y,z
loop_
_atom_site_type_symbol
_atom_site_label
_atom_site_fract_x
_atom_site_fract_y
_atom_site_fract_z
Si Si1 0.853854 0.794741 0.928290
Si Si2 0.811357 0.500000 0.770558
Si Si3 0.110990 0.282486 0.536226
Si Si4 0.263340 0.783485 0.333595
Si Si5 0.470295 0.217993 0.649772
Si Si6 0.999457 0.796464 0.862155
Si Si7 0.657500 0.200826 0.860714
O O1 0.819087 0.656998 0.854901
O O2 0.937016 0.736786 0.932440
O O3 0.852166 0.000000 0.892979
O O4 0.826510 0.792800 0.037629
O O5 0.802843 0.657881 0.686271
O O6 0.110782 0.500000 0.533232
O O7 0.187446 0.229474 0.575668
O O8 0.081965 0.215781 0.433995
O O9 0.049250 0.236896 0.612649
O O10 0.310955 0.727873 0.238979
O O11 0.252849 0.000000 0.334294
O O12 0.462246 0.289185 0.757022
O O13 0.464759 0.000000 0.656963
O O14 0.072797 0.695754 0.851397
O O15 0.019661 0.000000 0.886584
O O16 0.685543 0.000000 0.870518
#
# Coordination Sequence:
#
# PCOD9214630 Si02
#       7
#     8   4   8   8   8   8   8
#     4  11  26  45  60  88 124 164 215 261 301 360
#     4  12  26  44  65  87 115 175 221 250 305 363
#     4   8  15  32  56  91 128 155 190 245 314 372
#     4  10  22  40  62  93 127 158 204 260 306 365
#     4   9  16  30  59  91 124 159 192 238 311 384
#     4  11  23  37  60  91 128 163 197 256 312 370
#     4  11  22  39  64  95 124 160 203 250 317 374
#
# _framework density 26.693218000000002
#
# number of rings (size 3 to 8) (size 9 to 14) (size 15 to 20)
#    0.000    1.846    2.308    2.769    4.308    2.462 
#    1.385    0.769    0.000    0.923    0.000    0.000 
#    0.000    0.000    0.000    0.000    0.000    0.000 
#
# Total GULP energy -145136.066205 kJ/mol
# GULP energy per Si atom -5582.156393 kJ/mol
# Density = 2.663246 g / cm^3
# Si number density = 26.693218 Si / 1000 Ang^3
#
#
#
# Elastic Constant Matrix: (Units=GPa)
#
#
# Indices 1 2 3 4 5 6 
#
# 1 99.1609 9.8073 39.8066 0.0000 -2.5155 0.0000
# 2 9.8073 116.6796 15.4244 0.0000 18.3947 0.0000
# 3 39.8066 15.4244 93.7069 0.0000 19.7562 0.0000
# 4 0.0000 0.0000 0.0000 23.5971 0.0000 6.7905
# 5 -2.5155 18.3947 19.7562 0.0000 55.0052 0.0000
# 6 0.0000 0.0000 0.0000 6.7905 0.0000 13.3793
#
#
#
# Elastic Compliance Matrix: (Units=1/GPa)
#
#
# Indices 1 2 3 4 5 6 
#
# 1 0.012575 -0.000746 -0.005835 0.000000 0.002920 0.000000
# 2 -0.000746 0.009166 -0.000582 0.000000 -0.002890 0.000000
# 3 -0.005835 -0.000582 0.014348 0.000000 -0.005225 0.000000
# 4 0.000000 0.000000 0.000000 0.049626 0.000000 -0.025187
# 5 0.002920 -0.002890 -0.005225 0.000000 0.021157 0.000000
# 6 0.000000 0.000000 0.000000 -0.025187 0.000000 0.087526
#
#
# Mechanical properties :
#
#
# Convention : Reuss Voigt Hill
#
# Bulk Modulus (GPa) = 45.95173 48.84712 47.39942
# Shear Modulus (GPa) = 23.15054 34.69691 28.92373
#
# Velocity S-wave (km/s) = 2.94816 3.60924 3.29532
# Velocity P-wave (km/s) = 5.37038 5.97562 5.68106
#
# Compressibility (1/GPa) = 0.02176197
#
# Stress axis : x y z
#
# Youngs Moduli (GPa) = 79.52490 109.10101 69.69795
#
# Poissons Ratio (x) = 0.08139 0.40666
# Poissons Ratio (y) = 0.05933 0.04060
# Poissons Ratio (z) = 0.46399 0.06355
#
# Static dielectric constant tensor:
#      x y z
#    x 2.212730 0.000000 0.023220 
#    y 0.000000 2.021050 0.000000 
#    z 0.023220 0.000000 2.056580 
# 
# From -- ./inp_files/230311.got.cif
#   From: 2010.05.17/outbox.cif.g08.bks.cpg/sg12_116_cif.got.tgz:230311.got - 2010.06.03 13:09:07.
