data_PCOD9214082
_publ_section_title
;
Structure prediction by ZEFSAII (Michael W. Deem and Ramdas Pophale) SiO2 
 PCOD9214082
Probable space group: C 2/M
;
_chemical_formula_sum "Si O2"
_cell_formula_units_Z 52
_cell_length_a 11.119410
_cell_length_b 22.108315
_cell_length_c 18.751098
_cell_angle_alpha 90.000000
_cell_angle_beta 35.820156
_cell_angle_gamma 90.000000
_cell_volume 2697.741240
_symmetry_space_group_name_H-M "C 2/M"
_symmetry_group_IT_number 12
_symmetry_cell_setting 'monoclinic'
loop_
_space_group_symop_operation_xyz
x,y,z
-x,y,-z
-x,-y,-z
x,-y,z
1/2+x,1/2+y,z
1/2-x,1/2+y,-z
1/2-x,1/2-y,-z
1/2+x,1/2-y,z
loop_
_atom_site_type_symbol
_atom_site_label
_atom_site_fract_x
_atom_site_fract_y
_atom_site_fract_z
Si Si1 0.577193 0.071959 0.685634
Si Si2 0.833977 0.833423 0.294827
Si Si3 0.296840 0.342843 0.144016
Si Si4 0.269901 0.430812 0.440791
Si Si5 0.500000 0.265226 0.500000
Si Si6 0.775996 0.700467 0.141143
Si Si7 0.374886 0.634083 0.654629
O O1 0.374831 0.110299 0.798503
O O2 0.624626 0.080031 0.578735
O O3 0.756305 0.101232 0.647778
O O4 0.562278 0.000000 0.706394
O O5 0.822024 0.847527 0.217165
O O6 0.745588 0.887143 0.385902
O O7 0.695692 0.775799 0.385744
O O8 0.074249 0.824431 0.198130
O O9 0.240477 0.272434 0.160606
O O10 0.500000 0.353677 0.000000
O O11 0.253684 0.500000 0.426903
O O12 0.493243 0.414895 0.366264
O O13 0.476585 0.311991 0.445450
O O14 0.774098 0.668792 0.219317
O O15 0.000000 0.689807 0.000000
#
# Coordination Sequence:
#
# PCOD9214082 Si02
#       7
#     8   8   8   8   4   8   8
#     4  11  23  40  63  90 125 165 208 250 304 368
#     4  11  24  40  63  94 128 162 202 256 311 372
#     4  11  25  40  61  89 122 168 204 252 305 367
#     4  10  22  39  62  90 123 162 204 252 308 365
#     4  12  20  36  62  98 130 154 194 252 320 370
#     4  10  24  40  65  92 125 164 207 254 310 366
#     4  11  21  37  66  94 125 157 199 263 305 364
#
# _framework density 19.275383999999999
#
# number of rings (size 3 to 8) (size 9 to 14) (size 15 to 20)
#    0.000    1.231    3.077    2.308    2.154    4.615 
#    0.000    1.923    0.000    2.308    0.000    0.000 
#    0.000    0.000    0.000    0.000    0.000    0.000 
#
# Total GULP energy -145161.120389 kJ/mol
# GULP energy per Si atom -5583.120015 kJ/mol
# Density = 1.923151 g / cm^3
# Si number density = 19.275384 Si / 1000 Ang^3
#
#
#
# Elastic Constant Matrix: (Units=GPa)
#
#
# Indices 1 2 3 4 5 6 
#
# 1 64.7000 16.8133 26.8873 0.0015 0.0011 0.0015
# 2 16.8133 95.4373 49.2600 0.0030 -2.2800 0.0012
# 3 26.8873 49.2600 92.2889 0.0110 -2.4992 -0.0030
# 4 0.0015 0.0030 0.0110 18.1232 -0.0011 5.9623
# 5 0.0011 -2.2800 -2.4992 -0.0011 27.6542 -0.0004
# 6 0.0015 0.0012 -0.0030 5.9623 -0.0004 24.2364
#
#
#
# Elastic Compliance Matrix: (Units=1/GPa)
#
#
# Indices 1 2 3 4 5 6 
#
# 1 0.017619 -0.000634 -0.004808 0.000002 -0.000487 -0.000002
# 2 -0.000634 0.014492 -0.007537 0.000003 0.000514 -0.000002
# 3 -0.004808 -0.007537 0.016282 -0.000010 0.000850 0.000005
# 4 0.000002 0.000003 -0.000010 0.060037 0.000002 -0.014769
# 5 -0.000487 0.000514 0.000850 0.000002 0.036280 0.000000
# 6 -0.000002 -0.000002 0.000005 -0.014769 0.000000 0.044894
#
#
# Mechanical properties :
#
#
# Convention : Reuss Voigt Hill
#
# Bulk Modulus (GPa) = 44.57144 48.70526 46.63835
# Shear Modulus (GPa) = 22.41761 24.63380 23.52570
#
# Velocity S-wave (km/s) = 3.41400 3.57878 3.49736
# Velocity P-wave (km/s) = 6.22208 6.51152 6.36844
#
# Compressibility (1/GPa) = 0.02243589
#
# Stress axis : x y z
#
# Youngs Moduli (GPa) = 56.75790 69.00310 61.41744
#
# Poissons Ratio (x) = 0.04375 0.29528
# Poissons Ratio (y) = 0.03598 0.46288
# Poissons Ratio (z) = 0.27288 0.52005
#
# Static dielectric constant tensor:
#      x y z
#    x 1.685090 0.000000 0.012650 
#    y 0.000000 1.645990 0.000000 
#    z 0.012650 0.000000 1.675580 
# 
# From -- ./inp_files/306890.got.cif
#   From: 2010.05.17/outbox.cif.g08.bks.cpg/sg12_154_cif.got.tgz:306890.got - 2010.06.03 13:09:07.
