data_PCOD9214194
_publ_section_title
;
Structure prediction by ZEFSAII (Michael W. Deem and Ramdas Pophale) SiO2 
 PCOD9214194
Probable space group: C 2/M
;
_chemical_formula_sum "Si O2"
_cell_formula_units_Z 48
_cell_length_a 19.160478
_cell_length_b 18.507241
_cell_length_c 11.017189
_cell_angle_alpha 90.000000
_cell_angle_beta 143.108647
_cell_angle_gamma 90.000000
_cell_volume 2345.237466
_symmetry_space_group_name_H-M "C 2/M"
_symmetry_group_IT_number 12
_symmetry_cell_setting 'monoclinic'
loop_
_space_group_symop_operation_xyz
x,y,z
-x,y,-z
-x,-y,-z
x,-y,z
1/2+x,1/2+y,z
1/2-x,1/2+y,-z
1/2-x,1/2-y,-z
1/2+x,1/2-y,z
loop_
_atom_site_type_symbol
_atom_site_label
_atom_site_fract_x
_atom_site_fract_y
_atom_site_fract_z
Si Si1 0.638936 0.500000 0.024569
Si Si2 0.817345 0.147711 0.054169
Si Si3 0.595128 0.202490 0.872314
Si Si4 0.261913 0.000000 0.447668
Si Si5 0.161098 0.661484 0.471540
Si Si6 0.594122 0.500000 0.430778
Si Si7 0.633275 0.237006 0.174277
Si Si8 0.000000 0.109168 0.500000
O O1 0.670156 0.500000 0.208436
O O2 0.683559 0.571996 0.016990
O O3 0.502828 0.500000 0.808577
O O4 0.884901 0.211849 0.081369
O O5 0.892946 0.145662 0.283079
O O6 0.688106 0.172727 0.907252
O O7 0.464881 0.184506 0.653885
O O8 0.628218 0.180196 0.055476
O O9 0.328306 0.075324 0.519069
O O10 0.210178 0.000000 0.512771
O O11 0.267606 0.700827 0.688784
O O12 0.161384 0.692466 0.335271
O O13 0.563522 0.565356 0.479398
O O14 0.500000 0.265617 0.000000
#
# Coordination Sequence:
#
# PCOD9214194 Si02
#       8
#     4   8   8   4   8   4   8   4
#     4  10  22  42  60  93 128 159 210 268 316 366
#     4  10  22  39  64  90 126 168 210 263 315 371
#     4  10  22  40  60  92 123 170 216 250 315 381
#     4  12  24  38  62  94 127 169 207 254 323 387
#     4  10  23  39  61  94 129 164 211 257 319 376
#     4   9  21  38  61  92 122 162 203 257 324 362
#     4   9  20  40  62  85 123 165 211 267 307 368
#     4   9  20  38  62  92 122 155 210 264 304 371
#
# _framework density 20.467009999999998
#
# number of rings (size 3 to 8) (size 9 to 14) (size 15 to 20)
#    0.000    2.167    0.000    1.750    4.667    8.667 
#    0.000    4.583    0.000    0.000    0.000    0.000 
#    0.000    0.000    0.000    0.000    0.000    0.000 
#
# Total GULP energy -133712.815566 kJ/mol
# GULP energy per Si atom -5571.367315 kJ/mol
# Density = 2.042043 g / cm^3
# Si number density = 20.467010 Si / 1000 Ang^3
#
#
#
# Elastic Constant Matrix: (Units=GPa)
#
#
# Indices 1 2 3 4 5 6 
#
# 1 80.1133 27.2610 32.3409 0.0000 16.2392 0.0000
# 2 27.2610 101.1996 35.8356 0.0000 18.2727 0.0000
# 3 32.3409 35.8356 114.0899 0.0000 3.4841 0.0000
# 4 0.0000 0.0000 0.0000 22.3568 0.0000 -1.4132
# 5 16.2392 18.2727 3.4841 0.0000 31.7505 0.0000
# 6 0.0000 0.0000 0.0000 -1.4132 0.0000 -11.0111
#
#
#
# Elastic Compliance Matrix: (Units=1/GPa)
#
#
# Indices 1 2 3 4 5 6 
#
# 1 0.015967 -0.001748 -0.003771 0.000000 -0.006747 0.000000
# 2 -0.001748 0.012595 -0.003278 0.000000 -0.005995 0.000000
# 3 -0.003771 -0.003278 0.010783 0.000000 0.002632 0.000000
# 4 0.000000 0.000000 0.000000 0.044369 0.000000 -0.005694
# 5 -0.006747 -0.005995 0.002632 0.000000 0.038108 0.000000
# 6 0.000000 0.000000 0.000000 -0.005694 0.000000 -0.090086
#
#
# Mechanical properties :
#
#
# Convention : Reuss Voigt Hill
#
# Bulk Modulus (GPa) = 45.97145 54.03086 50.00115
# Shear Modulus (GPa) = 88.37020 21.95026 55.16023
#
# Velocity S-wave (km/s) = 6.57804 3.27841 5.19705
# Velocity P-wave (km/s) = 8.95568 6.38647 7.77789
#
# Compressibility (1/GPa) = 0.02175263
#
# Stress axis : x y z
#
# Youngs Moduli (GPa) = 62.62925 79.39403 92.73680
#
# Poissons Ratio (x) = 0.13874 0.34973
# Poissons Ratio (y) = 0.10945 0.30397
# Poissons Ratio (z) = 0.23619 0.26023
#
# Static dielectric constant tensor:
#      x y z
#    x 1.816400 0.000000 -0.055150 
#    y 0.000000 1.751570 0.000000 
#    z -0.055150 0.000000 1.747410 
# 
# From -- ./inp_files/169774.got.cif
#   From: 2010.05.17/outbox.cif.g08.bks.cpg/sg12_85_cif.got.tgz:169774.got - 2010.06.03 13:09:07.
