data_PCOD9214738
_publ_section_title
;
Structure prediction by ZEFSAII (Michael W. Deem and Ramdas Pophale) SiO2 
 PCOD9214738
Probable space group: C 2/M
;
_chemical_formula_sum "Si O2"
_cell_formula_units_Z 64
_cell_length_a 13.739377
_cell_length_b 16.193963
_cell_length_c 16.167213
_cell_angle_alpha 90.000000
_cell_angle_beta 49.419173
_cell_angle_gamma 90.000000
_cell_volume 2731.975820
_symmetry_space_group_name_H-M "C 2/M"
_symmetry_group_IT_number 12
_symmetry_cell_setting 'monoclinic'
loop_
_space_group_symop_operation_xyz
x,y,z
-x,y,-z
-x,-y,-z
x,-y,z
1/2+x,1/2+y,z
1/2-x,1/2+y,-z
1/2-x,1/2-y,-z
1/2+x,1/2-y,z
loop_
_atom_site_type_symbol
_atom_site_label
_atom_site_fract_x
_atom_site_fract_y
_atom_site_fract_z
Si Si1 0.951941 0.649799 0.687652
Si Si2 0.126659 0.821444 0.240639
Si Si3 0.717868 0.596280 0.710083
Si Si4 0.217516 0.094575 0.349091
Si Si5 0.023238 0.408033 0.150679
Si Si6 0.622814 0.756105 0.987098
Si Si7 0.074186 0.906324 0.105685
Si Si8 0.761502 0.347648 0.504779
O O1 0.968236 0.744009 0.709804
O O2 0.832762 0.643971 0.691727
O O3 0.926081 0.596778 0.783663
O O4 0.088646 0.625415 0.574857
O O5 0.140424 0.851171 0.326568
O O6 0.093274 0.892260 0.193431
O O7 0.259956 0.783017 0.134505
O O8 0.752408 0.500000 0.693207
O O9 0.577552 0.604682 0.828104
O O10 0.704175 0.624571 0.623116
O O11 0.369421 0.104557 0.243886
O O12 0.202200 0.114812 0.454024
O O13 0.183569 0.000000 0.353499
O O14 0.046683 0.500000 0.102662
O O15 0.083309 0.333810 0.065892
O O16 0.645602 0.671049 0.024136
O O17 0.500000 0.739818 0.000000
O O18 0.112218 0.000000 0.061524
O O19 0.750000 0.250000 0.500000
#
# Coordination Sequence:
#
# PCOD9214738 Si02
#       8
#     8   8   8   8   8   8   8   8
#     4  11  23  40  67  97 133 175 222 278 332 401
#     4  12  23  42  68  94 132 181 224 272 341 407
#     4  11  24  43  67  96 133 179 226 278 337 400
#     4  10  22  40  63  96 133 171 217 279 340 399
#     4  10  22  40  63  95 131 165 214 281 338 392
#     4  12  24  43  70  96 131 176 225 284 337 406
#     4  11  26  46  66  94 137 182 227 279 334 405
#     4  11  23  40  68 100 133 173 222 279 340 408
#
# _framework density 23.426269000000001
#
# number of rings (size 3 to 8) (size 9 to 14) (size 15 to 20)
#    0.000    1.000    2.500    4.125    1.750    3.500 
#    0.000    2.500    0.000    4.500    0.000    0.000 
#    0.000    0.000    0.000    0.000    0.000    0.000 
#
# Total GULP energy -179182.018755 kJ/mol
# GULP energy per Si atom -5599.438086 kJ/mol
# Density = 2.337295 g / cm^3
# Si number density = 23.426269 Si / 1000 Ang^3
#
#
#
# Elastic Constant Matrix: (Units=GPa)
#
#
# Indices 1 2 3 4 5 6 
#
# 1 73.8681 5.4683 -4.0651 0.0000 16.1307 0.0000
# 2 5.4683 142.0698 28.2049 0.0000 13.4872 0.0000
# 3 -4.0651 28.2049 46.0014 0.0000 8.9553 0.0000
# 4 0.0000 0.0000 0.0000 130.9705 0.0000 34.4428
# 5 16.1307 13.4872 8.9553 0.0000 26.1627 0.0000
# 6 0.0000 0.0000 0.0000 34.4428 0.0000 38.2084
#
#
#
# Elastic Compliance Matrix: (Units=1/GPa)
#
#
# Indices 1 2 3 4 5 6 
#
# 1 0.016198 -0.000321 0.003793 0.000000 -0.011120 0.000000
# 2 -0.000321 0.008192 -0.004572 0.000000 -0.002460 0.000000
# 3 0.003793 -0.004572 0.026649 0.000000 -0.009103 0.000000
# 4 0.000000 0.000000 0.000000 0.010008 0.000000 -0.009021
# 5 -0.011120 -0.002460 -0.009103 0.000000 0.049463 0.000000
# 6 0.000000 0.000000 0.000000 -0.009021 0.000000 0.034305
#
#
# Mechanical properties :
#
#
# Convention : Reuss Voigt Hill
#
# Bulk Modulus (GPa) = 20.47521 35.68396 28.07958
# Shear Modulus (GPa) = 30.61926 54.55708 42.58817
#
# Velocity S-wave (km/s) = 3.61923 4.83109 4.26839
# Velocity P-wave (km/s) = 5.12098 6.81063 6.02533
#
# Compressibility (1/GPa) = 0.04883955
#
# Stress axis : x y z
#
# Youngs Moduli (GPa) = 61.73440 122.06322 37.52441
#
# Poissons Ratio (x) = 0.03916 -0.14233
# Poissons Ratio (y) = 0.01981 0.17158
# Poissons Ratio (z) = -0.23415 0.55813
#
# Static dielectric constant tensor:
#      x y z
#    x 1.907960 0.000000 -0.019770 
#    y 0.000000 1.853110 0.000000 
#    z -0.019770 0.000000 1.942520 
# 
# From -- ./inp_files/216780.got.cif
#   From: 2010.05.17/outbox.cif.g08.bks.cpg/sg12_109_cif.got.tgz:216780.got - 2010.06.03 13:09:07.
