data_PCOD9214025
_publ_section_title
;
Structure prediction by ZEFSAII (Michael W. Deem and Ramdas Pophale) SiO2 
 PCOD9214025
Probable space group: C 2/M
;
_chemical_formula_sum "Si O2"
_cell_formula_units_Z 48
_cell_length_a 8.479256
_cell_length_b 13.536781
_cell_length_c 28.172157
_cell_angle_alpha 90.000000
_cell_angle_beta 41.651786
_cell_angle_gamma 90.000000
_cell_volume 2149.090884
_symmetry_space_group_name_H-M "C 2/M"
_symmetry_group_IT_number 12
_symmetry_cell_setting 'monoclinic'
loop_
_space_group_symop_operation_xyz
x,y,z
-x,y,-z
-x,-y,-z
x,-y,z
1/2+x,1/2+y,z
1/2-x,1/2+y,-z
1/2-x,1/2-y,-z
1/2+x,1/2-y,z
loop_
_atom_site_type_symbol
_atom_site_label
_atom_site_fract_x
_atom_site_fract_y
_atom_site_fract_z
Si Si1 0.798949 0.881536 0.663590
Si Si2 0.327184 0.879608 0.580779
Si Si3 0.009960 0.618437 0.350137
Si Si4 0.600016 0.748892 0.784846
Si Si5 0.593300 0.192848 0.888227
Si Si6 0.618186 0.607246 0.025701
O O1 0.738242 0.859950 0.621746
O O2 0.608985 0.823652 0.738447
O O3 0.056900 0.852462 0.627082
O O4 0.779016 0.000000 0.673666
O O5 0.500000 0.845675 0.500000
O O6 0.428468 0.849593 0.609709
O O7 0.329832 0.000000 0.580245
O O8 0.031664 0.500000 0.345372
O O9 0.208148 0.667784 0.272533
O O10 0.636696 0.816530 0.822553
O O11 0.354368 0.693761 0.850016
O O12 0.487368 0.301696 0.922119
O O13 0.398996 0.121444 0.954179
O O14 0.565518 0.500000 0.058189
O O15 0.500000 0.612850 0.000000
#
# Coordination Sequence:
#
# PCOD9214025 Si02
#       6
#     8   8   8   8   8   8
#     4  10  22  39  62  91 123 163 208 255 309 368
#     4   9  19  38  63  90 123 163 207 257 310 364
#     4  10  22  39  61  91 124 161 208 257 307 368
#     4  12  22  39  62  87 127 155 200 254 306 365
#     4  11  23  38  61  90 115 160 198 248 308 360
#     4  10  22  41  62  86 120 156 202 250 296 368
#
# _framework density 22.335025000000002
#
# number of rings (size 3 to 8) (size 9 to 14) (size 15 to 20)
#    0.000    1.667    3.333    1.000    0.000    3.333 
#    0.000    5.000    0.000    0.000    0.000    0.000 
#    0.000    0.000    0.000    0.000    0.000    0.000 
#
# Total GULP energy -133940.698787 kJ/mol
# GULP energy per Si atom -5580.862449 kJ/mol
# Density = 2.228419 g / cm^3
# Si number density = 22.335025 Si / 1000 Ang^3
#
#
#
# Elastic Constant Matrix: (Units=GPa)
#
#
# Indices 1 2 3 4 5 6 
#
# 1 132.9037 24.7968 21.9114 -0.0005 18.8382 -0.0001
# 2 24.7968 70.8231 9.2758 -0.0014 5.0253 0.0000
# 3 21.9114 9.2758 59.1763 -0.0057 12.7134 0.0018
# 4 -0.0005 -0.0014 -0.0057 -5.1906 0.0005 2.3345
# 5 18.8382 5.0253 12.7134 0.0005 27.7963 0.0003
# 6 -0.0001 0.0000 0.0018 2.3345 0.0003 28.5805
#
#
#
# Elastic Compliance Matrix: (Units=1/GPa)
#
#
# Indices 1 2 3 4 5 6 
#
# 1 0.008991 -0.002561 -0.001905 0.000001 -0.004759 0.000000
# 2 -0.002561 0.015222 -0.001352 -0.000002 -0.000398 0.000000
# 3 -0.001905 -0.001352 0.019392 -0.000021 -0.007334 0.000001
# 4 0.000001 -0.000002 -0.000021 -0.185828 0.000013 0.015179
# 5 -0.004759 -0.000398 -0.007334 0.000013 0.042627 -0.000001
# 6 0.000000 0.000000 0.000001 0.015179 -0.000001 0.033749
#
#
# Mechanical properties :
#
#
# Convention : Reuss Voigt Hill
#
# Bulk Modulus (GPa) = 31.28178 41.65233 36.46705
# Shear Modulus (GPa) = -114.79670 24.03184 -45.38243
#
# Velocity S-wave (km/s) = -7.17699 3.28376 -4.51255
# Velocity P-wave (km/s) = 7.39208 5.75037 3.28451
#
# Compressibility (1/GPa) = 0.03196749
#
# Stress axis : x y z
#
# Youngs Moduli (GPa) = 111.22689 65.69619 51.56859
#
# Poissons Ratio (x) = 0.16822 0.09825
# Poissons Ratio (y) = 0.28481 0.06974
# Poissons Ratio (z) = 0.21191 0.08884
#
# Static dielectric constant tensor:
#      x y z
#    x 1.906320 0.000000 -0.016340 
#    y 0.000000 1.810280 0.000000 
#    z -0.016340 0.000000 1.771380 
# 
# From -- ./inp_files/372314.got.cif
#   From: 2010.05.17/outbox.cif.g08.bks.cpg/sg12_187_cif.got.tgz:372314.got - 2010.06.03 13:09:07.
