data_PCOD9214678
_publ_section_title
;
Structure prediction by ZEFSAII (Michael W. Deem and Ramdas Pophale) SiO2 
 PCOD9214678
Probable space group: C 2/M
;
_chemical_formula_sum "Si O2"
_cell_formula_units_Z 56
_cell_length_a 18.180457
_cell_length_b 8.807219
_cell_length_c 29.226042
_cell_angle_alpha 90.000000
_cell_angle_beta 141.081020
_cell_angle_gamma 90.000000
_cell_volume 2939.855101
_symmetry_space_group_name_H-M "C 2/M"
_symmetry_group_IT_number 12
_symmetry_cell_setting 'monoclinic'
loop_
_space_group_symop_operation_xyz
x,y,z
-x,y,-z
-x,-y,-z
x,-y,z
1/2+x,1/2+y,z
1/2-x,1/2+y,-z
1/2-x,1/2-y,-z
1/2+x,1/2-y,z
loop_
_atom_site_type_symbol
_atom_site_label
_atom_site_fract_x
_atom_site_fract_y
_atom_site_fract_z
Si Si1 0.295164 0.819151 0.569400
Si Si2 0.136861 0.681252 0.572761
Si Si3 0.223044 0.817648 0.709615
Si Si4 0.949933 0.182334 0.290794
Si Si5 0.912885 0.181797 0.999737
Si Si6 0.843653 0.182233 0.140118
Si Si7 0.993506 0.682273 0.860282
O O1 0.250000 0.750000 0.500000
O O2 0.213333 0.760375 0.570709
O O3 0.427062 0.764061 0.642383
O O4 0.290777 0.000000 0.564897
O O5 0.150588 0.500000 0.575496
O O6 0.179845 0.736241 0.643010
O O7 0.000000 0.718522 0.500000
O O8 0.139987 0.778476 0.712151
O O9 0.357530 0.779456 0.785738
O O10 0.216380 0.000000 0.699620
O O11 0.894482 0.220004 0.214803
O O12 0.968781 0.000000 0.301202
O O13 0.785691 0.251011 0.928469
O O14 0.903691 0.000000 0.999569
O O15 0.000000 0.217084 0.000000
O O16 0.963590 0.250504 0.070957
O O17 0.927609 0.250398 0.142008
O O18 0.839604 0.000000 0.133822
O O19 0.004812 0.500000 0.866581
#
# Coordination Sequence:
#
# PCOD9214678 Si02
#       7
#     8   8   8   8   8   8   8
#     4  12  25  41  63  90 122 160 201 247 299 354
#     4  11  24  41  62  90 122 158 201 247 298 355
#     4  10  22  40  63  91 121 157 199 245 299 355
#     4  10  22  41  64  91 123 158 199 246 298 356
#     4  11  24  41  62  89 120 156 200 249 301 356
#     4  11  23  40  63  90 122 160 200 245 298 354
#     4  11  23  40  62  89 122 158 200 247 297 356
#
# _framework density 19.048558
#
# number of rings (size 3 to 8) (size 9 to 14) (size 15 to 20)
#    0.000    1.143    0.000    6.000    0.000   10.857 
#    0.000    0.000    0.000    0.000    0.000    0.000 
#    0.000    0.000    0.000    0.000    0.000    0.000 
#
# Total GULP energy -156714.527220 kJ/mol
# GULP energy per Si atom -5596.947401 kJ/mol
# Density = 1.900520 g / cm^3
# Si number density = 19.048558 Si / 1000 Ang^3
#
#
#
# Elastic Constant Matrix: (Units=GPa)
#
#
# Indices 1 2 3 4 5 6 
#
# 1 220.5653 102.4901 139.3398 0.0000 -0.3067 0.0000
# 2 102.4901 88.0257 104.5404 0.0000 3.0005 0.0000
# 3 139.3398 104.5404 225.0242 0.0000 -0.2392 0.0000
# 4 0.0000 0.0000 0.0000 9.1872 0.0000 -38.5060
# 5 -0.3067 3.0005 -0.2392 0.0000 44.6969 0.0000
# 6 0.0000 0.0000 0.0000 -38.5060 0.0000 -32.8418
#
#
#
# Elastic Compliance Matrix: (Units=1/GPa)
#
#
# Indices 1 2 3 4 5 6 
#
# 1 0.010211 -0.009827 -0.001757 0.000000 0.000720 0.000000
# 2 -0.009827 0.034941 -0.010150 0.000000 -0.002467 0.000000
# 3 -0.001757 -0.010150 0.010248 0.000000 0.000724 0.000000
# 4 0.000000 0.000000 0.000000 0.018405 0.000000 -0.021579
# 5 0.000720 -0.002467 0.000724 0.000000 0.022547 0.000000
# 6 0.000000 0.000000 0.000000 -0.021579 0.000000 -0.005149
#
#
# Mechanical properties :
#
#
# Convention : Reuss Voigt Hill
#
# Bulk Modulus (GPa) = 83.80855 136.26175 110.03515
# Shear Modulus (GPa) = 36.06273 16.69146 26.37710
#
# Velocity S-wave (km/s) = 4.35581 2.96338 3.72523
# Velocity P-wave (km/s) = 8.33008 9.13225 8.74037
#
# Compressibility (1/GPa) = 0.01193196
#
# Stress axis : x y z
#
# Youngs Moduli (GPa) = 97.93445 28.62007 97.58155
#
# Poissons Ratio (x) = 0.28125 0.17141
# Poissons Ratio (y) = 0.96242 0.99044
# Poissons Ratio (z) = 0.17203 0.29049
#
# Static dielectric constant tensor:
#      x y z
#    x 1.624360 0.000000 0.002720 
#    y 0.000000 1.639800 0.000000 
#    z 0.002720 0.000000 1.618950 
# 
# From -- ./inp_files/363162.got.cif
#   From: 2010.05.17/outbox.cif.g08.bks.cpg/sg12_182_cif.got.tgz:363162.got - 2010.06.03 13:09:07.
