data_PCOD9214110
_publ_section_title
;
Structure prediction by ZEFSAII (Michael W. Deem and Ramdas Pophale) SiO2 
 PCOD9214110
Probable space group: C 2/M
;
_chemical_formula_sum "Si O2"
_cell_formula_units_Z 64
_cell_length_a 18.905234
_cell_length_b 18.652497
_cell_length_c 15.244678
_cell_angle_alpha 90.000000
_cell_angle_beta 39.008578
_cell_angle_gamma 90.000000
_cell_volume 3383.680716
_symmetry_space_group_name_H-M "C 2/M"
_symmetry_group_IT_number 12
_symmetry_cell_setting 'monoclinic'
loop_
_space_group_symop_operation_xyz
x,y,z
-x,y,-z
-x,-y,-z
x,-y,z
1/2+x,1/2+y,z
1/2-x,1/2+y,-z
1/2-x,1/2-y,-z
1/2+x,1/2-y,z
loop_
_atom_site_type_symbol
_atom_site_label
_atom_site_fract_x
_atom_site_fract_y
_atom_site_fract_z
Si Si1 0.372854 0.266088 0.120722
Si Si2 0.207312 0.209833 0.128370
Si Si3 0.563287 0.081349 0.705653
Si Si4 0.195148 0.584276 0.055946
Si Si5 0.297879 0.417943 0.150008
Si Si6 0.035121 0.776982 0.560180
Si Si7 0.097381 0.389753 0.472263
Si Si8 0.767897 0.297122 0.395909
O O1 0.287459 0.231205 0.132233
O O2 0.377677 0.349970 0.088411
O O3 0.320038 0.250022 0.266809
O O4 0.500000 0.237218 0.000000
O O5 0.077676 0.226608 0.273816
O O6 0.250000 0.250000 0.000000
O O7 0.224608 0.127379 0.085984
O O8 0.433777 0.106844 0.836422
O O9 0.588216 0.079435 0.577737
O O10 0.648487 0.137286 0.666405
O O11 0.572256 0.000000 0.731694
O O12 0.201033 0.500000 0.035249
O O13 0.231172 0.595741 0.122736
O O14 0.341958 0.500000 0.104462
O O15 0.210781 0.410377 0.313955
O O16 0.079884 0.695823 0.501167
O O17 0.141165 0.819954 0.493979
O O18 0.000000 0.806616 0.500000
O O19 0.000000 0.414340 0.500000
O O20 0.750000 0.250000 0.500000
#
# Coordination Sequence:
#
# PCOD9214110 Si02
#       8
#     8   8   8   8   8   8   8   8
#     4  12  25  41  62  93 128 168 216 261 316 379
#     4  12  23  41  68  94 123 168 216 263 312 378
#     4  11  22  37  59  91 130 169 212 266 321 375
#     4  10  22  39  62  94 127 163 211 264 318 374
#     4  11  21  36  58  92 132 166 203 253 318 392
#     4  11  22  40  65  93 125 159 213 269 314 373
#     4  11  18  33  60  93 126 162 206 256 317 382
#     4  12  24  40  62  93 128 167 209 263 322 377
#
# _framework density 18.914314000000001
#
# number of rings (size 3 to 8) (size 9 to 14) (size 15 to 20)
#    0.000    0.750    6.250    2.625    1.750    0.750 
#    0.000    1.250    0.000    3.000    0.000    0.000 
#    0.000    0.000    0.000    0.000    0.000    0.000 
#
# Total GULP energy -178673.925715 kJ/mol
# GULP energy per Si atom -5583.560179 kJ/mol
# Density = 1.887126 g / cm^3
# Si number density = 18.914314 Si / 1000 Ang^3
#
#
#
# Elastic Constant Matrix: (Units=GPa)
#
#
# Indices 1 2 3 4 5 6 
#
# 1 110.3544 46.2589 41.4804 0.0000 -6.7082 0.0000
# 2 46.2589 82.4139 24.2215 0.0000 -4.1365 0.0000
# 3 41.4804 24.2215 91.2114 0.0000 -2.3398 0.0000
# 4 0.0000 0.0000 0.0000 26.0869 0.0000 -3.2247
# 5 -6.7082 -4.1365 -2.3398 0.0000 32.6238 0.0000
# 6 0.0000 0.0000 0.0000 -3.2247 0.0000 19.8444
#
#
#
# Elastic Compliance Matrix: (Units=1/GPa)
#
#
# Indices 1 2 3 4 5 6 
#
# 1 0.013397 -0.006137 -0.004420 0.000000 0.001659 0.000000
# 2 -0.006137 0.016039 -0.001451 0.000000 0.000668 0.000000
# 3 -0.004420 -0.001451 0.013356 0.000000 -0.000135 0.000000
# 4 0.000000 0.000000 0.000000 0.039119 0.000000 0.006357
# 5 0.001659 0.000668 -0.000135 0.000000 0.031069 0.000000
# 6 0.000000 0.000000 0.000000 0.006357 0.000000 0.051425
#
#
# Mechanical properties :
#
#
# Convention : Reuss Voigt Hill
#
# Bulk Modulus (GPa) = 53.26429 56.43347 54.84888
# Shear Modulus (GPa) = 25.68342 27.17896 26.43119
#
# Velocity S-wave (km/s) = 3.68894 3.79483 3.74226
# Velocity P-wave (km/s) = 6.80929 7.00729 6.90900
#
# Compressibility (1/GPa) = 0.01877430
#
# Stress axis : x y z
#
# Youngs Moduli (GPa) = 74.64564 62.34951 74.87536
#
# Poissons Ratio (x) = 0.38265 0.33096
# Poissons Ratio (y) = 0.45811 0.10864
# Poissons Ratio (z) = 0.32994 0.09047
#
# Static dielectric constant tensor:
#      x y z
#    x 1.696730 0.000000 -0.029160 
#    y 0.000000 1.708420 0.000000 
#    z -0.029160 0.000000 1.656890 
# 
# From -- ./inp_files/226854.got.cif
#   From: 2010.05.17/outbox.cif.g08.bks.cpg/sg12_114_cif.got.tgz:226854.got - 2010.06.03 13:09:07.
