data_PCOD9214558
_publ_section_title
;
Structure prediction by ZEFSAII (Michael W. Deem and Ramdas Pophale) SiO2 
 PCOD9214558
Probable space group: C 2/M
;
_chemical_formula_sum "Si O2"
_cell_formula_units_Z 38
_cell_length_a 9.286425
_cell_length_b 29.528738
_cell_length_c 11.194098
_cell_angle_alpha 90.000000
_cell_angle_beta 39.468986
_cell_angle_gamma 90.000000
_cell_volume 1951.226733
_symmetry_space_group_name_H-M "C 2/M"
_symmetry_group_IT_number 12
_symmetry_cell_setting 'monoclinic'
loop_
_space_group_symop_operation_xyz
x,y,z
-x,y,-z
-x,-y,-z
x,-y,z
1/2+x,1/2+y,z
1/2-x,1/2+y,-z
1/2-x,1/2-y,-z
1/2+x,1/2-y,z
loop_
_atom_site_type_symbol
_atom_site_label
_atom_site_fract_x
_atom_site_fract_y
_atom_site_fract_z
Si Si1 0.500000 0.883767 0.000000
Si Si2 0.736070 0.688478 0.317609
Si Si3 0.630569 0.766710 0.198709
Si Si4 0.345786 0.411661 0.960859
Si Si5 0.785835 0.640808 0.726551
Si Si6 0.000000 0.000000 0.000000
O O1 0.600911 0.849319 0.838468
O O2 0.692408 0.911984 0.942648
O O3 0.500000 0.665452 0.500000
O O4 0.658557 0.724879 0.268869
O O5 0.879729 0.715828 0.324388
O O6 0.735785 0.809429 0.202165
O O7 0.750000 0.750000 0.000000
O O8 0.554169 0.376116 0.812424
O O9 0.441357 0.459805 0.939300
O O10 0.201457 0.392761 0.167151
O O11 0.000000 0.639085 0.500000
#
# Coordination Sequence:
#
# PCOD9214558 Si02
#       6
#     4   8   8   8   8   2
#     4  12  24  39  63  94 128 160 203 269 310 358
#     4  12  26  38  57  85 126 171 219 258 305 351
#     4  12  23  39  56  83 123 172 219 261 301 348
#     4  10  23  41  68  93 124 156 199 257 319 387
#     4  10  22  40  62  87 122 170 214 253 306 371
#     4   8  20  46  68  96 124 156 198 240 322 410
#
# _framework density 19.474930000000001
#
# number of rings (size 3 to 8) (size 9 to 14) (size 15 to 20)
#    0.000    1.263    4.211    1.263   11.789    0.421 
#    0.000    8.421    0.000    0.000    0.000   13.263 
#    0.000    0.000    0.000    0.000    0.000    0.000 
#
# Total GULP energy -105781.545434 kJ/mol
# GULP energy per Si atom -5567.449760 kJ/mol
# Density = 1.943060 g / cm^3
# Si number density = 19.474930 Si / 1000 Ang^3
#
#
#
# Elastic Constant Matrix: (Units=GPa)
#
#
# Indices 1 2 3 4 5 6 
#
# 1 146.6253 25.6449 17.5812 0.0000 -26.7136 0.0000
# 2 25.6449 92.9615 32.0580 0.0000 -1.5240 0.0000
# 3 17.5812 32.0580 97.9493 0.0000 -13.6168 0.0000
# 4 0.0000 0.0000 0.0000 -134.7231 0.0000 -372.9836
# 5 -26.7136 -1.5240 -13.6168 0.0000 21.8897 0.0000
# 6 0.0000 0.0000 0.0000 -372.9836 0.0000-1020.8877
#
#
#
# Elastic Compliance Matrix: (Units=1/GPa)
#
#
# Indices 1 2 3 4 5 6 
#
# 1 0.009319 -0.002664 0.000826 0.000000 0.011700 0.000000
# 2 -0.002664 0.012951 -0.004474 0.000000 -0.005132 0.000000
# 3 0.000826 -0.004474 0.012722 0.000000 0.008610 0.000000
# 4 0.000000 0.000000 0.000000 0.646281 0.000000 -0.236120
# 5 0.011700 -0.005132 0.008610 0.000000 0.064961 0.000000
# 6 0.000000 0.000000 0.000000 -0.236120 0.000000 0.085287
#
#
# Mechanical properties :
#
#
# Convention : Reuss Voigt Hill
#
# Bulk Modulus (GPa) = 44.70677 54.23381 49.47029
# Shear Modulus (GPa) = 5.87129 -209.26076 -101.69473
#
# Velocity S-wave (km/s) = 1.73820 -10.37712 -7.23406
# Velocity P-wave (km/s) = 5.19946 10.75505 6.65720
#
# Compressibility (1/GPa) = 0.02236797
#
# Stress axis : x y z
#
# Youngs Moduli (GPa) = 107.31143 77.21593 78.60114
#
# Poissons Ratio (x) = 0.20568 -0.06490
# Poissons Ratio (y) = 0.28584 0.35166
# Poissons Ratio (z) = -0.08861 0.34547
#
# Static dielectric constant tensor:
#      x y z
#    x 1.731740 0.000000 -0.026600 
#    y 0.000000 1.630980 0.000000 
#    z -0.026600 0.000000 1.816670 
# 
# From -- ./inp_files/125026.got.cif
#   From: 2010.05.17/outbox.cif.g08.bks.cpg/sg12_63_cif.got.tgz:125026.got - 2010.06.03 13:09:07.
