data_PCOD9214794
_publ_section_title
;
Structure prediction by ZEFSAII (Michael W. Deem and Ramdas Pophale) SiO2 
 PCOD9214794
Probable space group: C 2/M
;
_chemical_formula_sum "Si O2"
_cell_formula_units_Z 56
_cell_length_a 13.203349
_cell_length_b 23.285149
_cell_length_c 9.898229
_cell_angle_alpha 90.000000
_cell_angle_beta 73.330741
_cell_angle_gamma 90.000000
_cell_volume 2915.247912
_symmetry_space_group_name_H-M "C 2/M"
_symmetry_group_IT_number 12
_symmetry_cell_setting 'monoclinic'
loop_
_space_group_symop_operation_xyz
x,y,z
-x,y,-z
-x,-y,-z
x,-y,z
1/2+x,1/2+y,z
1/2-x,1/2+y,-z
1/2-x,1/2-y,-z
1/2+x,1/2-y,z
loop_
_atom_site_type_symbol
_atom_site_label
_atom_site_fract_x
_atom_site_fract_y
_atom_site_fract_z
Si Si1 0.472006 0.619392 0.669765
Si Si2 0.105314 0.763520 0.874967
Si Si3 0.873625 0.360131 0.050389
Si Si4 0.741538 0.434118 0.296298
Si Si5 0.027606 0.748592 0.330636
Si Si6 0.195768 0.931511 0.630796
Si Si7 0.701982 0.849297 0.204682
O O1 0.500000 0.617680 0.500000
O O2 0.371722 0.579061 0.728777
O O3 0.438276 0.685193 0.711035
O O4 0.579176 0.596616 0.697417
O O5 0.153374 0.707109 0.925448
O O6 0.189401 0.813667 0.843666
O O7 0.069822 0.744269 0.737451
O O8 0.000000 0.778494 0.000000
O O9 0.826133 0.393801 0.193733
O O10 0.825571 0.378994 0.926431
O O11 0.000000 0.364285 0.000000
O O12 0.770806 0.500000 0.266596
O O13 0.726032 0.423241 0.461682
O O14 0.111357 0.698437 0.268516
O O15 0.000000 0.745399 0.500000
O O16 0.279706 0.897110 0.688481
O O17 0.192004 0.000000 0.657797
#
# Coordination Sequence:
#
# PCOD9214794 Si02
#       7
#     8   8   8   8   8   8   8
#     4   9  18  38  61  94 125 153 195 249 310 365
#     4  11  23  41  60  91 126 162 199 244 310 369
#     4  11  24  41  60  85 121 164 206 250 302 364
#     4  10  22  40  65  88 116 162 209 253 300 356
#     4  11  23  38  63  97 125 156 200 251 310 366
#     4  10  22  40  64  93 124 160 204 255 307 359
#     4  12  24  39  63  90 128 162 198 256 306 368
#
# _framework density 19.209344999999999
#
# number of rings (size 3 to 8) (size 9 to 14) (size 15 to 20)
#    0.000    1.429    4.286    1.714    4.000    3.143 
#    0.000    0.000    0.000    4.286    0.000    0.000 
#    0.000    0.000    0.000    0.000    0.000    0.000 
#
# Total GULP energy -156275.382578 kJ/mol
# GULP energy per Si atom -5581.263663 kJ/mol
# Density = 1.916562 g / cm^3
# Si number density = 19.209345 Si / 1000 Ang^3
#
#
#
# Elastic Constant Matrix: (Units=GPa)
#
#
# Indices 1 2 3 4 5 6 
#
# 1 63.3526 40.2408 26.2046 0.0000 16.1967 0.0000
# 2 40.2408 76.0284 25.5694 0.0000 -2.3123 0.0000
# 3 26.2046 25.5694 54.1126 0.0000 11.1299 0.0000
# 4 0.0000 0.0000 0.0000 22.0189 0.0000 5.6883
# 5 16.1967 -2.3123 11.1299 0.0000 33.4167 0.0000
# 6 0.0000 0.0000 0.0000 5.6883 0.0000 22.4548
#
#
#
# Elastic Compliance Matrix: (Units=1/GPa)
#
#
# Indices 1 2 3 4 5 6 
#
# 1 0.031304 -0.015367 -0.004894 0.000000 -0.014606 0.000000
# 2 -0.015367 0.023646 -0.006012 0.000000 0.011087 0.000000
# 3 -0.004894 -0.006012 0.025001 0.000000 -0.006371 0.000000
# 4 0.000000 0.000000 0.000000 0.048596 0.000000 -0.012310
# 5 -0.014606 0.011087 -0.006371 0.000000 0.039894 0.000000
# 6 0.000000 0.000000 0.000000 -0.012310 0.000000 0.047652
#
#
# Mechanical properties :
#
#
# Convention : Reuss Voigt Hill
#
# Bulk Modulus (GPa) = 36.48935 41.94700 39.21818
# Shear Modulus (GPa) = 18.00030 22.34334 20.17182
#
# Velocity S-wave (km/s) = 3.06446 3.41420 3.24405
# Velocity P-wave (km/s) = 5.61766 6.11772 5.87302
#
# Compressibility (1/GPa) = 0.02740525
#
# Stress axis : x y z
#
# Youngs Moduli (GPa) = 31.94466 42.29110 39.99858
#
# Poissons Ratio (x) = 0.64990 0.19575
# Poissons Ratio (y) = 0.49090 0.24046
# Poissons Ratio (z) = 0.15633 0.25424
#
# Static dielectric constant tensor:
#      x y z
#    x 1.676560 0.000000 0.017940 
#    y 0.000000 1.661510 0.000000 
#    z 0.017940 0.000000 1.680750 
# 
# From -- ./inp_files/65273.got.cif
#   From: 2010.05.17/outbox.cif.g08.bks.cpg/sg12_33_cif.got.tgz:65273.got - 2010.06.03 13:09:07.
