data_PCOD9214094
_publ_section_title
;
Structure prediction by ZEFSAII (Michael W. Deem and Ramdas Pophale) SiO2 
 PCOD9214094
Probable space group: C 2/M
;
_chemical_formula_sum "Si O2"
_cell_formula_units_Z 32
_cell_length_a 11.245011
_cell_length_b 15.876406
_cell_length_c 20.199261
_cell_angle_alpha 90.000000
_cell_angle_beta 156.273901
_cell_angle_gamma 90.000000
_cell_volume 1451.000548
_symmetry_space_group_name_H-M "C 2/M"
_symmetry_group_IT_number 12
_symmetry_cell_setting 'monoclinic'
loop_
_space_group_symop_operation_xyz
x,y,z
-x,y,-z
-x,-y,-z
x,-y,z
1/2+x,1/2+y,z
1/2-x,1/2+y,-z
1/2-x,1/2-y,-z
1/2+x,1/2-y,z
loop_
_atom_site_type_symbol
_atom_site_label
_atom_site_fract_x
_atom_site_fract_y
_atom_site_fract_z
Si Si1 0.875380 0.000000 0.362377
Si Si2 0.850915 0.150175 0.253848
Si Si3 0.143213 0.500000 0.814659
Si Si4 0.838848 0.899389 0.103082
Si Si5 0.781363 0.166752 0.825737
O O1 0.954639 0.082739 0.360812
O O2 0.523627 0.000000 0.200743
O O3 0.000000 0.000000 0.500000
O O4 0.963861 0.128077 0.238139
O O5 0.890228 0.249536 0.282820
O O6 0.495234 0.134805 0.071615
O O7 0.082274 0.587757 0.746915
O O8 0.500000 0.500000 0.000000
O O9 0.021817 0.863576 0.135252
O O10 0.837527 0.000000 0.102829
O O11 0.000000 0.186080 0.000000
#
# Coordination Sequence:
#
# PCOD9214094 Si02
#       5
#     4   8   4   8   8
#     4  12  26  44  64  88 125 165 207 255 308 369
#     4  11  21  35  58  87 122 164 203 250 310 365
#     4  10  22  39  62  92 122 158 205 253 300 357
#     4  11  19  34  57  91 128 155 200 259 312 356
#     4  11  21  33  57  95 126 158 195 257 310 362
#
# _framework density 22.053747999999999
#
# number of rings (size 3 to 8) (size 9 to 14) (size 15 to 20)
#    0.000    1.000    6.250    4.500    3.500    0.000 
#    0.000    1.250    0.000    1.500    0.000    0.000 
#    0.000    0.000    0.000    0.000    0.000    0.000 
#
# Total GULP energy -89434.332201 kJ/mol
# GULP energy per Si atom -5589.645763 kJ/mol
# Density = 2.200355 g / cm^3
# Si number density = 22.053748 Si / 1000 Ang^3
#
#
#
# Elastic Constant Matrix: (Units=GPa)
#
#
# Indices 1 2 3 4 5 6 
#
# 1 111.8217 32.1939 -2.7177 -0.0075 -25.6387 -0.0060
# 2 32.1939 218.0404 14.0798 0.0181 -17.1545 -0.0187
# 3 -2.7177 14.0798 43.5204 0.0205 -8.0840 0.0135
# 4 -0.0075 0.0181 0.0205 -39.6636 -0.0017 33.1801
# 5 -25.6387 -17.1545 -8.0840 -0.0017 25.5090 0.0118
# 6 -0.0060 -0.0187 0.0135 33.1801 0.0118 -14.7091
#
#
#
# Elastic Compliance Matrix: (Units=1/GPa)
#
#
# Indices 1 2 3 4 5 6 
#
# 1 0.012235 -0.001031 0.003457 -0.000007 0.012700 -0.000007
# 2 -0.001031 0.004972 -0.001322 0.000003 0.001889 0.000002
# 3 0.003457 -0.001322 0.025609 -0.000044 0.010701 -0.000066
# 4 -0.000007 0.000003 -0.000044 0.028424 -0.000047 0.064116
# 5 0.012700 0.001889 0.010701 -0.000047 0.056628 -0.000058
# 6 -0.000007 0.000002 -0.000066 0.064116 -0.000058 0.076645
#
#
# Mechanical properties :
#
#
# Convention : Reuss Voigt Hill
#
# Bulk Modulus (GPa) = 22.21012 51.16605 36.68808
# Shear Modulus (GPa) = 23.00822 16.21570 19.61196
#
# Velocity S-wave (km/s) = 3.23349 2.71455 2.98532
# Velocity P-wave (km/s) = 4.90238 5.75117 5.34366
#
# Compressibility (1/GPa) = 0.04502452
#
# Stress axis : x y z
#
# Youngs Moduli (GPa) = 81.73017 201.10695 39.04864
#
# Poissons Ratio (x) = 0.20726 -0.13497
# Poissons Ratio (y) = 0.08423 0.05163
# Poissons Ratio (z) = -0.28250 0.26590
#
# Static dielectric constant tensor:
#      x y z
#    x 1.766880 0.000000 0.022540 
#    y 0.000000 1.833450 -0.000010 
#    z 0.022540 -0.000010 1.936290 
# 
# From -- ./inp_files/128478.got.cif
#   From: 2010.05.17/outbox.cif.g08.bks.cpg/sg12_65_cif.got.tgz:128478.got - 2010.06.03 13:09:07.
