data_PCOD9214758
_publ_section_title
;
Structure prediction by ZEFSAII (Michael W. Deem and Ramdas Pophale) SiO2 
 PCOD9214758
Probable space group: C 2/M
;
_chemical_formula_sum "Si O2"
_cell_formula_units_Z 56
_cell_length_a 21.717646
_cell_length_b 21.514816
_cell_length_c 18.452880
_cell_angle_alpha 90.000000
_cell_angle_beta 160.404839
_cell_angle_gamma 90.000000
_cell_volume 2891.620878
_symmetry_space_group_name_H-M "C 2/M"
_symmetry_group_IT_number 12
_symmetry_cell_setting 'monoclinic'
loop_
_space_group_symop_operation_xyz
x,y,z
-x,y,-z
-x,-y,-z
x,-y,z
1/2+x,1/2+y,z
1/2-x,1/2+y,-z
1/2-x,1/2-y,-z
1/2+x,1/2-y,z
loop_
_atom_site_type_symbol
_atom_site_label
_atom_site_fract_x
_atom_site_fract_y
_atom_site_fract_z
Si Si1 0.208845 0.309318 0.379871
Si Si2 0.064426 0.568509 0.153938
Si Si3 0.379176 0.863807 0.564653
Si Si4 0.829911 0.432057 0.035604
Si Si5 0.977810 0.815502 0.888701
Si Si6 0.112627 0.296272 0.698698
Si Si7 0.130716 0.801988 0.826227
O O1 0.183684 0.371678 0.305163
O O2 0.126947 0.323418 0.368104
O O3 0.110194 0.250878 0.232975
O O4 0.425046 0.300376 0.627268
O O5 0.152120 0.500000 0.261601
O O6 0.898786 0.571121 0.028694
O O7 0.000000 0.572375 0.000000
O O8 0.487767 0.924230 0.712253
O O9 0.170872 0.865453 0.304762
O O10 0.497973 0.831795 0.633367
O O11 0.745577 0.500000 0.954620
O O12 0.710234 0.371101 0.918888
O O13 0.000000 0.817255 0.000000
O O14 0.180684 0.821242 0.080420
O O15 0.126343 0.224672 0.739618
O O16 0.000000 0.301511 0.500000
O O17 0.250000 0.750000 0.000000
#
# Coordination Sequence:
#
# PCOD9214758 Si02
#       7
#     8   8   8   8   8   8   8
#     4  11  22  34  58  85 120 159 204 250 305 365
#     4   9  19  37  57  81 118 164 206 246 299 365
#     4  11  22  40  59  88 119 161 203 254 309 364
#     4  10  22  40  64  89 122 165 211 260 309 367
#     4  12  22  37  58  89 123 158 198 250 312 370
#     4  12  23  37  59  92 127 159 199 255 313 368
#     4  12  22  38  60  89 124 160 205 257 310 366
#
# _framework density 19.366301
#
# number of rings (size 3 to 8) (size 9 to 14) (size 15 to 20)
#    0.000    1.000    4.286    3.429    0.000    1.714 
#    0.000    0.000    0.000    3.857    0.000    0.000 
#    0.000    0.000    0.000    0.000    0.000    0.000 
#
# Total GULP energy -156322.923718 kJ/mol
# GULP energy per Si atom -5582.961561 kJ/mol
# Density = 1.932222 g / cm^3
# Si number density = 19.366301 Si / 1000 Ang^3
#
#
#
# Elastic Constant Matrix: (Units=GPa)
#
#
# Indices 1 2 3 4 5 6 
#
# 1 103.0800 32.7465 42.9367 0.0001 -11.1408 0.0001
# 2 32.7465 103.5170 40.7778 0.0000 -2.2790 0.0000
# 3 42.9367 40.7778 110.5884 0.0003 8.2248 0.0001
# 4 0.0001 0.0000 0.0003 25.4499 0.0001 0.0147
# 5 -11.1408 -2.2790 8.2248 0.0001 41.5353 0.0000
# 6 0.0001 0.0000 0.0001 0.0147 0.0000 17.3477
#
#
#
# Elastic Compliance Matrix: (Units=1/GPa)
#
#
# Indices 1 2 3 4 5 6 
#
# 1 0.012689 -0.002176 -0.004434 0.000000 0.004162 0.000000
# 2 -0.002176 0.011764 -0.003550 0.000000 0.000765 0.000000
# 3 -0.004434 -0.003550 0.012358 0.000000 -0.003831 0.000000
# 4 0.000000 0.000000 0.000000 0.039293 0.000000 -0.000033
# 5 0.004162 0.000765 -0.003831 0.000000 0.025993 0.000000
# 6 0.000000 0.000000 0.000000 -0.000033 0.000000 0.057645
#
#
# Mechanical properties :
#
#
# Convention : Reuss Voigt Hill
#
# Bulk Modulus (GPa) = 60.63641 61.12303 60.87972
# Shear Modulus (GPa) = 26.94581 30.24820 28.59700
#
# Velocity S-wave (km/s) = 3.73416 3.95637 3.84687
# Velocity P-wave (km/s) = 7.06896 7.24573 7.15789
#
# Compressibility (1/GPa) = 0.01649174
#
# Stress axis : x y z
#
# Youngs Moduli (GPa) = 78.80758 85.00696 80.91990
#
# Poissons Ratio (x) = 0.18496 0.35879
# Poissons Ratio (y) = 0.17147 0.28725
# Poissons Ratio (z) = 0.34942 0.30176
#
# Static dielectric constant tensor:
#      x y z
#    x 1.697140 0.000000 -0.001320 
#    y 0.000000 1.695560 0.000000 
#    z -0.001320 0.000000 1.718590 
# 
# From -- ./inp_files/286075.got.cif
#   From: 2010.05.17/outbox.cif.g08.bks.cpg/sg12_144_cif.got.tgz:286075.got - 2010.06.03 13:09:07.
