data_PCOD9214163
_publ_section_title
;
Structure prediction by ZEFSAII (Michael W. Deem and Ramdas Pophale) SiO2 
 PCOD9214163
Probable space group: C 2/M
;
_chemical_formula_sum "Si O2"
_cell_formula_units_Z 58
_cell_length_a 21.995322
_cell_length_b 14.926392
_cell_length_c 28.396290
_cell_angle_alpha 90.000000
_cell_angle_beta 18.127076
_cell_angle_gamma 90.000000
_cell_volume 2900.564205
_symmetry_space_group_name_H-M "C 2/M"
_symmetry_group_IT_number 12
_symmetry_cell_setting 'monoclinic'
loop_
_space_group_symop_operation_xyz
x,y,z
-x,y,-z
-x,-y,-z
x,-y,z
1/2+x,1/2+y,z
1/2-x,1/2+y,-z
1/2-x,1/2-y,-z
1/2+x,1/2-y,z
loop_
_atom_site_type_symbol
_atom_site_label
_atom_site_fract_x
_atom_site_fract_y
_atom_site_fract_z
Si Si1 0.992000 0.101725 0.274271
Si Si2 0.478466 0.394579 0.106027
Si Si3 0.972692 0.161288 0.468126
Si Si4 0.638006 0.216849 0.187726
Si Si5 0.284843 0.143178 0.609022
Si Si6 0.000000 0.500000 0.500000
Si Si7 0.732080 0.901353 0.558755
Si Si8 0.200035 0.250097 0.831112
O O1 0.828990 0.121761 0.354893
O O2 0.885864 0.107247 0.402976
O O3 0.146253 0.182929 0.160388
O O4 0.065991 0.000000 0.213234
O O5 0.491062 0.500000 0.086010
O O6 0.359385 0.383260 0.242041
O O7 0.370292 0.337688 0.145264
O O8 0.688418 0.347489 0.956894
O O9 0.857381 0.255673 0.558645
O O10 0.847446 0.106804 0.522652
O O11 0.000000 0.122175 0.500000
O O12 0.180150 0.186293 0.291802
O O13 0.431560 0.174040 0.326203
O O14 0.663080 0.224807 0.225657
O O15 0.465679 0.077873 0.485082
O O16 0.639852 0.000000 0.622625
O O17 0.000000 0.290463 0.000000
#
# Coordination Sequence:
#
# PCOD9214163 Si02
#       8
#     8   8   8   8   8   2   8   8
#     4  11  22  39  63  92 125 163 218 266 318 381
#     4  11  23  40  60  96 136 167 213 265 330 393
#     4  12  22  40  67  90 126 170 212 265 324 378
#     4  11  22  40  65  87 133 171 210 264 329 385
#     4  12  22  36  60  95 128 166 209 262 317 382
#     4  12  20  36  60  96 132 160 208 268 312 388
#     4  11  24  41  64  95 123 166 221 265 319 384
#     4  10  22  39  63  94 129 171 209 261 327 391
#
# _framework density 19.996109000000001
#
# number of rings (size 3 to 8) (size 9 to 14) (size 15 to 20)
#    0.000    0.828    6.207    1.655    0.000    3.862 
#    0.000    0.000    0.000    7.448    0.000    0.000 
#    0.000    0.000    0.000    0.000    0.000    0.000 
#
# Total GULP energy -161783.119353 kJ/mol
# GULP energy per Si atom -5578.728254 kJ/mol
# Density = 1.995060 g / cm^3
# Si number density = 19.996109 Si / 1000 Ang^3
#
#
#
# Elastic Constant Matrix: (Units=GPa)
#
#
# Indices 1 2 3 4 5 6 
#
# 1 137.3941 9.3071 19.4829 0.0269 -7.1746 -0.0169
# 2 9.3071 86.3695 13.3645 0.1677 -11.8128 -0.0615
# 3 19.4829 13.3645 73.4255 0.2380 3.0955 -0.0729
# 4 0.0269 0.1677 0.2380 63.3898 -0.0042 -30.7118
# 5 -7.1746 -11.8128 3.0955 -0.0042 21.9356 0.0279
# 6 -0.0169 -0.0615 -0.0729 -30.7118 0.0279 35.1010
#
#
#
# Elastic Compliance Matrix: (Units=1/GPa)
#
#
# Indices 1 2 3 4 5 6 
#
# 1 0.007736 -0.000123 -0.002147 0.000007 0.002767 0.000003
# 2 -0.000123 0.013004 -0.002643 -0.000032 0.007336 -0.000017
# 3 -0.002147 -0.002643 0.014848 -0.000060 -0.004221 -0.000024
# 4 0.000007 -0.000032 -0.000060 0.027384 -0.000032 0.023960
# 5 0.002767 0.007336 -0.004221 -0.000032 0.051039 -0.000063
# 6 0.000003 -0.000017 -0.000024 0.023960 -0.000063 0.049453
#
#
# Mechanical properties :
#
#
# Convention : Reuss Voigt Hill
#
# Bulk Modulus (GPa) = 38.81833 42.38868 40.60350
# Shear Modulus (GPa) = 27.49111 41.08758 34.28935
#
# Velocity S-wave (km/s) = 3.71188 4.53788 4.14551
# Velocity P-wave (km/s) = 6.15027 6.97861 6.57749
#
# Compressibility (1/GPa) = 0.02576103
#
# Stress axis : x y z
#
# Youngs Moduli (GPa) = 129.27280 76.90055 67.34841
#
# Poissons Ratio (x) = 0.00946 0.14459
# Poissons Ratio (y) = 0.01590 0.17803
# Poissons Ratio (z) = 0.27753 0.20328
#
# Static dielectric constant tensor:
#      x y z
#    x 1.704780 -0.000010 -0.010570 
#    y -0.000010 1.702270 0.000030 
#    z -0.010570 0.000030 1.769730 
# 
# From -- ./inp_files/366520.got.cif
#   From: 2010.05.17/outbox.cif.g08.bks.cpg/sg12_184_cif.got.tgz:366520.got - 2010.06.03 13:09:07.
