data_PCOD9214689
_publ_section_title
;
Structure prediction by ZEFSAII (Michael W. Deem and Ramdas Pophale) SiO2 
 PCOD9214689
Probable space group: C 2/M
;
_chemical_formula_sum "Si O2"
_cell_formula_units_Z 64
_cell_length_a 29.092044
_cell_length_b 8.805519
_cell_length_c 15.404956
_cell_angle_alpha 90.000000
_cell_angle_beta 53.179810
_cell_angle_gamma 90.000000
_cell_volume 3159.089800
_symmetry_space_group_name_H-M "C 2/M"
_symmetry_group_IT_number 12
_symmetry_cell_setting 'monoclinic'
loop_
_space_group_symop_operation_xyz
x,y,z
-x,y,-z
-x,-y,-z
x,-y,z
1/2+x,1/2+y,z
1/2-x,1/2+y,-z
1/2-x,1/2-y,-z
1/2+x,1/2-y,z
loop_
_atom_site_type_symbol
_atom_site_label
_atom_site_fract_x
_atom_site_fract_y
_atom_site_fract_z
Si Si1 0.134508 0.179379 0.998926
Si Si2 0.673722 0.179803 0.318091
Si Si3 0.984480 0.677444 0.916653
Si Si4 0.189241 0.319136 0.096998
Si Si5 0.309380 0.681525 0.398008
Si Si6 0.566365 0.318287 0.682449
Si Si7 0.955881 0.318115 0.474167
Si Si8 0.710128 0.179954 0.762009
O O1 0.180230 0.256611 0.882430
O O2 0.143947 0.000000 0.987489
O O3 0.071825 0.224373 0.037778
O O4 0.143379 0.244368 0.085072
O O5 0.677993 0.211141 0.210576
O O6 0.609339 0.210668 0.421549
O O7 0.722872 0.274985 0.309967
O O8 0.685773 0.000000 0.317928
O O9 0.972855 0.500000 0.910469
O O10 0.034797 0.738184 0.798224
O O11 0.000000 0.689634 0.000000
O O12 0.189908 0.500000 0.083616
O O13 0.250000 0.250000 0.000000
O O14 0.304509 0.500000 0.402645
O O15 0.250000 0.750000 0.500000
O O16 0.365857 0.722848 0.389665
O O17 0.317286 0.742397 0.291355
O O18 0.561772 0.500000 0.695849
O O19 0.537971 0.263486 0.624997
O O20 0.962992 0.500000 0.453968
O O21 0.000000 0.270970 0.500000
O O22 0.703176 0.000000 0.765146
#
# Coordination Sequence:
#
# PCOD9214689 Si02
#       8
#     8   8   8   8   8   8   8   8
#     4  12  25  41  63  93 130 169 211 262 324 389
#     4  10  22  40  63  91 128 169 216 270 328 385
#     4  11  25  45  70  98 129 170 219 270 324 392
#     4  11  22  38  62  94 130 170 215 267 326 391
#     4  11  24  42  66  95 130 166 210 263 323 388
#     4  11  25  44  66  97 132 171 214 268 328 387
#     4  10  23  43  67  94 125 171 221 270 323 380
#     4  12  24  39  63  94 127 166 213 263 320 387
#
# _framework density 20.258998999999999
#
# number of rings (size 3 to 8) (size 9 to 14) (size 15 to 20)
#    0.000    1.000    1.250    5.250    1.750    8.250 
#    0.000    0.000    0.000    0.000    0.000    0.000 
#    0.000    0.000    0.000    0.000    0.000    0.000 
#
# Total GULP energy -179096.278969 kJ/mol
# GULP energy per Si atom -5596.758718 kJ/mol
# Density = 2.021289 g / cm^3
# Si number density = 20.258999 Si / 1000 Ang^3
#
#
#
# Elastic Constant Matrix: (Units=GPa)
#
#
# Indices 1 2 3 4 5 6 
#
# 1 98.5882 33.3005 11.0902 0.0000 10.6431 -0.0001
# 2 33.3005 63.9182 27.9866 0.0000 8.4057 -0.0004
# 3 11.0902 27.9866 78.6602 0.0000 7.7357 0.0000
# 4 0.0000 0.0000 0.0000 28.3870 0.0000 0.0430
# 5 10.6431 8.4057 7.7357 0.0000 29.9510 0.0000
# 6 -0.0001 -0.0004 0.0000 0.0430 0.0000 32.5027
#
#
#
# Elastic Compliance Matrix: (Units=1/GPa)
#
#
# Indices 1 2 3 4 5 6 
#
# 1 0.012565 -0.006537 0.000834 0.000000 -0.002846 0.000000
# 2 -0.006537 0.022317 -0.006804 0.000000 -0.002183 0.000000
# 3 0.000834 -0.006804 0.015245 0.000000 -0.002324 0.000000
# 4 0.000000 0.000000 0.000000 0.035227 0.000000 -0.000047
# 5 -0.002846 -0.002183 -0.002324 0.000000 0.035612 0.000000
# 6 0.000000 0.000000 0.000000 -0.000047 0.000000 0.030767
#
#
# Mechanical properties :
#
#
# Convention : Reuss Voigt Hill
#
# Bulk Modulus (GPa) = 39.82033 42.88011 41.35022
# Shear Modulus (GPa) = 27.01004 29.42077 28.21541
#
# Velocity S-wave (km/s) = 3.65531 3.81495 3.73598
# Velocity P-wave (km/s) = 6.12482 6.37315 6.25022
#
# Compressibility (1/GPa) = 0.02511280
#
# Stress axis : x y z
#
# Youngs Moduli (GPa) = 79.58866 44.80928 65.59695
#
# Poissons Ratio (x) = 0.29292 -0.05472
# Poissons Ratio (y) = 0.52027 0.44631
# Poissons Ratio (z) = -0.06639 0.30487
#
# Static dielectric constant tensor:
#      x y z
#    x 1.719640 0.000000 0.003490 
#    y 0.000000 1.677560 0.000000 
#    z 0.003490 0.000000 1.709330 
# 
# From -- ./inp_files/249779.got.cif
#   From: 2010.05.17/outbox.cif.g08.bks.cpg/sg12_125_cif.got.tgz:249779.got - 2010.06.03 13:09:07.
