data_PCOD9214413
_publ_section_title
;
Structure prediction by ZEFSAII (Michael W. Deem and Ramdas Pophale) SiO2 
 PCOD9214413
Probable space group: C 2/M
;
_chemical_formula_sum "Si O2"
_cell_formula_units_Z 40
_cell_length_a 4.974566
_cell_length_b 13.034977
_cell_length_c 31.681222
_cell_angle_alpha 90.000000
_cell_angle_beta 118.288440
_cell_angle_gamma 90.000000
_cell_volume 1808.975771
_symmetry_space_group_name_H-M "C 2/M"
_symmetry_group_IT_number 12
_symmetry_cell_setting 'monoclinic'
loop_
_space_group_symop_operation_xyz
x,y,z
-x,y,-z
-x,-y,-z
x,-y,z
1/2+x,1/2+y,z
1/2-x,1/2+y,-z
1/2-x,1/2-y,-z
1/2+x,1/2-y,z
loop_
_atom_site_type_symbol
_atom_site_label
_atom_site_fract_x
_atom_site_fract_y
_atom_site_fract_z
Si Si1 0.296192 0.680619 0.444343
Si Si2 0.995757 0.500000 0.141101
Si Si3 0.459715 0.679943 0.320663
Si Si4 0.044581 0.682689 0.210523
Si Si5 0.620623 0.500000 0.617257
Si Si6 0.500000 0.825366 0.000000
Si Si7 0.695251 0.500000 0.922201
O O1 0.500000 0.648818 0.500000
O O2 0.474860 0.778179 0.437696
O O3 0.289715 0.589605 0.410888
O O4 0.017794 0.598397 0.172719
O O5 0.663258 0.500000 0.094652
O O6 0.248644 0.500000 0.123614
O O7 0.778862 0.722447 0.326858
O O8 0.468963 0.589619 0.354609
O O9 0.254890 0.646456 0.265168
O O10 0.721284 0.718796 0.204733
O O11 0.352785 0.900407 0.954265
O O12 0.250000 0.750000 0.000000
#
# Coordination Sequence:
#
# PCOD9214413 Si02
#       7
#     8   4   8   8   4   4   4
#     4  10  23  41  59  85 118 149 190 242 293 354
#     4  12  23  39  62  93 123 152 199 253 292 342
#     4  10  23  40  58  86 120 154 198 243 285 348
#     4  10  22  40  60  85 121 161 196 238 296 351
#     4  12  22  38  64  87 113 156 196 238 300 346
#     4  11  24  45  66  86 124 167 196 241 304 352
#     4  11  26  40  62  98 122 150 208 252 285 352
#
# _framework density 22.111958000000001
#
# number of rings (size 3 to 8) (size 9 to 14) (size 15 to 20)
#    0.000    1.400    0.000    4.500    0.000    9.600 
#    0.000    9.000    0.000    0.000    0.000    0.000 
#    0.000    0.000    0.000    0.000    0.000    0.000 
#
# Total GULP energy -111499.451050 kJ/mol
# GULP energy per Si atom -5574.972553 kJ/mol
# Density = 2.206163 g / cm^3
# Si number density = 22.111958 Si / 1000 Ang^3
#
#
#
# Elastic Constant Matrix: (Units=GPa)
#
#
# Indices 1 2 3 4 5 6 
#
# 1 87.4689 15.7806 3.4405 -0.0006 -5.7517 -0.0013
# 2 15.7806 109.2277 46.6851 -0.0036 -0.3346 -0.0075
# 3 3.4405 46.6851 86.8318 0.0003 -15.1188 0.0006
# 4 -0.0006 -0.0036 0.0003 1281.6654 -0.0031 2673.5211
# 5 -5.7517 -0.3346 -15.1188 -0.0031 33.6785 -0.0065
# 6 -0.0013 -0.0075 0.0006 2673.5211 -0.0065 5690.0037
#
#
#
# Elastic Compliance Matrix: (Units=1/GPa)
#
#
# Indices 1 2 3 4 5 6 
#
# 1 0.011954 -0.002215 0.001159 0.000000 0.002540 0.000000
# 2 -0.002215 0.012580 -0.007290 0.000000 -0.003526 0.000000
# 3 0.001159 -0.007290 0.016719 0.000000 0.007631 0.000000
# 4 0.000000 0.000000 0.000000 0.039251 0.000000 -0.018442
# 5 0.002540 -0.003526 0.007631 0.000000 0.033517 0.000000
# 6 0.000000 0.000000 0.000000 -0.018442 0.000000 0.008841
#
#
# Mechanical properties :
#
#
# Convention : Reuss Voigt Hill
#
# Bulk Modulus (GPa) = 40.71343 46.14898 43.43121
# Shear Modulus (GPa) = 33.84353 1415.57768 724.71060
#
# Velocity S-wave (km/s) = 3.91647 25.32936 18.12340
# Velocity P-wave (km/s) = 6.23731 29.60323 21.39223
#
# Compressibility (1/GPa) = 0.02456192
#
# Stress axis : x y z
#
# Youngs Moduli (GPa) = 83.65671 79.49052 59.81358
#
# Poissons Ratio (x) = 0.17605 -0.06935
# Poissons Ratio (y) = 0.18528 0.43603
# Poissons Ratio (z) = -0.09699 0.57947
#
# Static dielectric constant tensor:
#      x y z
#    x 1.771140 0.000000 0.036840 
#    y 0.000000 1.729430 0.000000 
#    z 0.036840 0.000000 1.834230 
# 
# From -- ./inp_files/371396.got.cif
#   From: 2010.05.17/outbox.cif.g08.bks.cpg/sg12_186_cif.got.tgz:371396.got - 2010.06.03 13:09:07.
