data_PCOD9214909
_publ_section_title
;
Structure prediction by ZEFSAII (Michael W. Deem and Ramdas Pophale) SiO2 
 PCOD9214909
Probable space group: C 2/M
;
_chemical_formula_sum "Si O2"
_cell_formula_units_Z 40
_cell_length_a 24.327870
_cell_length_b 8.695911
_cell_length_c 17.305918
_cell_angle_alpha 90.000000
_cell_angle_beta 147.033717
_cell_angle_gamma 90.000000
_cell_volume 1992.180942
_symmetry_space_group_name_H-M "C 2/M"
_symmetry_group_IT_number 12
_symmetry_cell_setting 'monoclinic'
loop_
_space_group_symop_operation_xyz
x,y,z
-x,y,-z
-x,-y,-z
x,-y,z
1/2+x,1/2+y,z
1/2-x,1/2+y,-z
1/2-x,1/2-y,-z
1/2+x,1/2-y,z
loop_
_atom_site_type_symbol
_atom_site_label
_atom_site_fract_x
_atom_site_fract_y
_atom_site_fract_z
Si Si1 0.137796 0.681998 0.376885
Si Si2 0.713966 0.814781 0.712030
Si Si3 0.532950 0.682884 0.404729
Si Si4 0.308235 0.816269 0.142277
Si Si5 0.595139 0.317765 0.168034
O O1 0.142305 0.500000 0.396085
O O2 0.250000 0.750000 0.500000
O O3 0.082877 0.763268 0.383216
O O4 0.084198 0.721975 0.233057
O O5 0.609779 0.739873 0.561414
O O6 0.738849 0.773163 0.829834
O O7 0.803613 0.772426 0.759001
O O8 0.702939 0.000000 0.695503
O O9 0.523920 0.500000 0.396719
O O10 0.423107 0.758014 0.280358
O O11 0.307249 0.000000 0.135330
O O12 0.250000 0.750000 0.000000
O O13 0.603493 0.500000 0.197378
O O14 0.500000 0.299062 0.000000
#
# Coordination Sequence:
#
# PCOD9214909 Si02
#       5
#     8   8   8   8   8
#     4  12  24  41  65  97 131 167 211 262 317 380
#     4  10  22  42  66  93 129 170 212 262 322 381
#     4  12  25  42  67  95 127 170 217 266 318 378
#     4  11  25  44  66  96 131 169 213 266 324 381
#     4  10  22  40  65  96 132 171 209 256 318 385
#
# _framework density 20.078498
#
# number of rings (size 3 to 8) (size 9 to 14) (size 15 to 20)
#    0.000    1.000    2.000    4.800    2.800    4.400 
#    0.000    0.000    0.000    0.000    0.000    0.000 
#    0.000    0.000    0.000    0.000    0.000    0.000 
#
# Total GULP energy -111917.854401 kJ/mol
# GULP energy per Si atom -5595.892720 kJ/mol
# Density = 2.003280 g / cm^3
# Si number density = 20.078498 Si / 1000 Ang^3
#
#
#
# Elastic Constant Matrix: (Units=GPa)
#
#
# Indices 1 2 3 4 5 6 
#
# 1 84.0285 19.2421 17.1026 0.0000 -25.8969 0.0000
# 2 19.2421 47.6381 23.4501 0.0000 -15.9220 0.0000
# 3 17.1026 23.4501 92.4769 0.0000 -19.1122 0.0000
# 4 0.0000 0.0000 0.0000 36.7936 0.0000 -5.2930
# 5 -25.8969 -15.9220 -19.1122 0.0000 37.8834 0.0000
# 6 0.0000 0.0000 0.0000 -5.2930 0.0000 28.6588
#
#
#
# Elastic Compliance Matrix: (Units=1/GPa)
#
#
# Indices 1 2 3 4 5 6 
#
# 1 0.015478 -0.003092 -0.000179 0.000000 0.009191 0.000000
# 2 -0.003092 0.026880 -0.004852 0.000000 0.006736 0.000000
# 3 -0.000179 -0.004852 0.012984 0.000000 0.004389 0.000000
# 4 0.000000 0.000000 0.000000 0.027920 0.000000 0.005157
# 5 0.009191 0.006736 0.004389 0.000000 0.037725 0.000000
# 6 0.000000 0.000000 0.000000 0.005157 0.000000 0.035846
#
#
# Mechanical properties :
#
#
# Convention : Reuss Voigt Hill
#
# Bulk Modulus (GPa) = 25.57821 38.19257 31.88539
# Shear Modulus (GPa) = 26.86565 31.62374 29.24469
#
# Velocity S-wave (km/s) = 3.66188 3.97294 3.82058
# Velocity P-wave (km/s) = 5.53587 6.33313 5.94788
#
# Compressibility (1/GPa) = 0.03909578
#
# Stress axis : x y z
#
# Youngs Moduli (GPa) = 64.60918 37.20177 77.01747
#
# Poissons Ratio (x) = 0.11502 0.01378
# Poissons Ratio (y) = 0.19977 0.37371
# Poissons Ratio (z) = 0.01156 0.18052
#
# Static dielectric constant tensor:
#      x y z
#    x 1.739580 0.000000 -0.007100 
#    y 0.000000 1.679890 0.000000 
#    z -0.007100 0.000000 1.696150 
# 
# From -- ./inp_files/220602.got.cif
#   From: 2010.05.17/outbox.cif.g08.bks.cpg/sg12_111_cif.got.tgz:220602.got - 2010.06.03 13:09:07.
