data_PCOD9214923
_publ_section_title
;
Structure prediction by ZEFSAII (Michael W. Deem and Ramdas Pophale) SiO2 
 PCOD9214923
Probable space group: C 2/M
;
_chemical_formula_sum "Si O2"
_cell_formula_units_Z 48
_cell_length_a 13.516716
_cell_length_b 25.057556
_cell_length_c 11.123804
_cell_angle_alpha 90.000000
_cell_angle_beta 34.707734
_cell_angle_gamma 90.000000
_cell_volume 2145.227913
_symmetry_space_group_name_H-M "C 2/M"
_symmetry_group_IT_number 12
_symmetry_cell_setting 'monoclinic'
loop_
_space_group_symop_operation_xyz
x,y,z
-x,y,-z
-x,-y,-z
x,-y,z
1/2+x,1/2+y,z
1/2-x,1/2+y,-z
1/2-x,1/2-y,-z
1/2+x,1/2-y,z
loop_
_atom_site_type_symbol
_atom_site_label
_atom_site_fract_x
_atom_site_fract_y
_atom_site_fract_z
Si Si1 0.362906 0.000000 0.525601
Si Si2 0.386283 0.587070 0.723918
Si Si3 0.801516 0.385904 0.659573
Si Si4 0.624633 0.664576 0.614505
Si Si5 0.644954 0.701504 0.956590
Si Si6 0.409380 0.000000 0.953145
Si Si7 0.707647 0.192341 0.797005
O O1 0.500000 0.000000 0.500000
O O2 0.258787 0.945466 0.656737
O O3 0.457775 0.000000 0.296925
O O4 0.500000 0.563418 0.500000
O O5 0.532347 0.608541 0.669854
O O6 0.297097 0.641445 0.767152
O O7 0.226090 0.549553 0.921189
O O8 0.753206 0.347867 0.596237
O O9 0.714588 0.357844 0.862053
O O10 0.000000 0.385618 0.500000
O O11 0.724253 0.691408 0.406354
O O12 0.466545 0.701936 0.812918
O O13 0.757659 0.753167 0.816001
O O14 0.500000 0.707232 0.000000
O O15 0.500000 0.000000 0.000000
O O16 0.500000 0.184213 0.000000
#
# Coordination Sequence:
#
# PCOD9214923 Si02
#       7
#     4   8   8   8   8   4   8
#     4  10  26  44  66 104 136 176 240 283 337 411
#     4  10  24  42  65  98 139 176 227 279 350 412
#     4  10  23  42  67  94 131 174 234 284 343 413
#     4  10  23  41  65  95 133 179 222 285 354 413
#     4   9  21  41  63  95 132 174 228 280 345 415
#     4  12  27  44  75 105 143 186 236 286 346 420
#     4  10  22  40  65  98 134 175 228 281 340 418
#
# _framework density 22.375245
#
# number of rings (size 3 to 8) (size 9 to 14) (size 15 to 20)
#    0.000    2.000    0.000    0.750   11.667    9.333 
#    0.000    3.750    0.000    3.000    0.000    0.000 
#    0.000    0.000    0.000    0.000    0.000    0.000 
#
# Total GULP energy -133679.600372 kJ/mol
# GULP energy per Si atom -5569.983349 kJ/mol
# Density = 2.232432 g / cm^3
# Si number density = 22.375245 Si / 1000 Ang^3
#
#
#
# Elastic Constant Matrix: (Units=GPa)
#
#
# Indices 1 2 3 4 5 6 
#
# 1 95.4897 8.9361 31.9092 -0.0001 1.4180 0.0000
# 2 8.9361 128.9219 73.0342 0.0000 14.5471 0.0000
# 3 31.9092 73.0342 142.0769 -0.0001 26.1813 0.0000
# 4 -0.0001 0.0000 -0.0001 24.7261 0.0001 -3.6174
# 5 1.4180 14.5471 26.1813 0.0001 24.6909 0.0000
# 6 0.0000 0.0000 0.0000 -3.6174 0.0000 21.1170
#
#
#
# Elastic Compliance Matrix: (Units=1/GPa)
#
#
# Indices 1 2 3 4 5 6 
#
# 1 0.011527 0.000912 -0.003525 0.000000 0.002539 0.000000
# 2 0.000912 0.011023 -0.005797 0.000000 -0.000399 0.000000
# 3 -0.003525 -0.005797 0.012607 0.000000 -0.009750 0.000000
# 4 0.000000 0.000000 0.000000 0.041483 0.000000 0.007106
# 5 0.002539 -0.000399 -0.009750 0.000000 0.050929 0.000000
# 6 0.000000 0.000000 0.000000 0.007106 0.000000 0.048573
#
#
# Mechanical properties :
#
#
# Convention : Reuss Voigt Hill
#
# Bulk Modulus (GPa) = 54.54121 66.02748 60.28434
# Shear Modulus (GPa) = 25.11617 30.94741 28.03179
#
# Velocity S-wave (km/s) = 3.35401 3.72305 3.54334
# Velocity P-wave (km/s) = 6.27915 6.93215 6.61372
#
# Compressibility (1/GPa) = 0.01833476
#
# Stress axis : x y z
#
# Youngs Moduli (GPa) = 86.74985 90.72195 79.32085
#
# Poissons Ratio (x) = -0.08271 0.27965
# Poissons Ratio (y) = -0.07909 0.45985
# Poissons Ratio (z) = 0.30584 0.52595
#
# Static dielectric constant tensor:
#      x y z
#    x 1.858670 0.000000 0.062000 
#    y 0.000000 1.987830 0.000000 
#    z 0.062000 0.000000 1.929450 
# 
# From -- ./inp_files/149691.got.cif
#   From: 2010.05.17/outbox.cif.g08.bks.cpg/sg12_75_cif.got.tgz:149691.got - 2010.06.03 13:09:07.
