data_PCOD9214797
_publ_section_title
;
Structure prediction by ZEFSAII (Michael W. Deem and Ramdas Pophale) SiO2 
 PCOD9214797
Probable space group: C 2/M
;
_chemical_formula_sum "Si O2"
_cell_formula_units_Z 40
_cell_length_a 19.981450
_cell_length_b 8.833048
_cell_length_c 11.350039
_cell_angle_alpha 90.000000
_cell_angle_beta 89.276759
_cell_angle_gamma 90.000000
_cell_volume 2003.089452
_symmetry_space_group_name_H-M "C 2/M"
_symmetry_group_IT_number 12
_symmetry_cell_setting 'monoclinic'
loop_
_space_group_symop_operation_xyz
x,y,z
-x,y,-z
-x,-y,-z
x,-y,z
1/2+x,1/2+y,z
1/2-x,1/2+y,-z
1/2-x,1/2-y,-z
1/2+x,1/2-y,z
loop_
_atom_site_type_symbol
_atom_site_label
_atom_site_fract_x
_atom_site_fract_y
_atom_site_fract_z
Si Si1 0.823861 0.678521 0.985570
Si Si2 0.342228 0.822168 0.251195
Si Si3 0.481446 0.818105 0.366986
Si Si4 0.722585 0.821481 0.380970
Si Si5 0.394931 0.680111 0.758745
O O1 0.817396 0.500000 0.959102
O O2 0.865954 0.756916 0.881999
O O3 0.750000 0.750000 0.000000
O O4 0.858186 0.694138 0.112874
O O5 0.405249 0.784907 0.331917
O O6 0.279092 0.719438 0.283976
O O7 0.324161 0.000000 0.270918
O O8 0.500000 0.772141 0.500000
O O9 0.531818 0.739829 0.275183
O O10 0.489949 0.000000 0.358930
O O11 0.750000 0.750000 0.500000
O O12 0.654293 0.745095 0.340667
O O13 0.713143 0.000000 0.393271
O O14 0.392684 0.500000 0.759374
#
# Coordination Sequence:
#
# PCOD9214797 Si02
#       5
#     8   8   8   8   8
#     4  11  22  39  64  93 128 167 212 266 320 376
#     4  10  22  40  64  93 126 164 210 263 319 380
#     4  10  22  42  66  92 126 167 209 260 324 386
#     4  12  24  39  63  92 125 163 210 263 316 378
#     4  12  25  41  63  92 128 168 214 263 315 376
#
# _framework density 19.969152999999999
#
# number of rings (size 3 to 8) (size 9 to 14) (size 15 to 20)
#    0.000    1.000    2.000    5.400    0.000    4.400 
#    0.000    4.000    0.000    0.000    0.000    0.000 
#    0.000    0.000    0.000    0.000    0.000    0.000 
#
# Total GULP energy -111904.246033 kJ/mol
# GULP energy per Si atom -5595.212302 kJ/mol
# Density = 1.992370 g / cm^3
# Si number density = 19.969153 Si / 1000 Ang^3
#
#
#
# Elastic Constant Matrix: (Units=GPa)
#
#
# Indices 1 2 3 4 5 6 
#
# 1 48.0444 20.7834 -9.0199 0.0000 -0.7332 0.0000
# 2 20.7834 79.4384 7.8265 0.0000 -4.7219 0.0000
# 3 -9.0199 7.8265 59.9602 0.0000 0.0614 0.0000
# 4 0.0000 0.0000 0.0000 31.8972 0.0000 -5.0563
# 5 -0.7332 -4.7219 0.0614 0.0000 39.3874 0.0000
# 6 0.0000 0.0000 0.0000 -5.0563 0.0000 32.5822
#
#
#
# Elastic Compliance Matrix: (Units=1/GPa)
#
#
# Indices 1 2 3 4 5 6 
#
# 1 0.024674 -0.006933 0.004617 0.000000 -0.000379 0.000000
# 2 -0.006933 0.014793 -0.002976 0.000000 0.001649 0.000000
# 3 0.004617 -0.002976 0.017761 0.000000 -0.000298 0.000000
# 4 0.000000 0.000000 0.000000 0.032141 0.000000 0.004988
# 5 -0.000379 0.001649 -0.000298 0.000000 0.025580 0.000000
# 6 0.000000 0.000000 0.000000 0.004988 0.000000 0.031466
#
#
# Mechanical properties :
#
#
# Convention : Reuss Voigt Hill
#
# Bulk Modulus (GPa) = 21.43815 25.18035 23.30925
# Shear Modulus (GPa) = 28.97761 31.96356 30.47058
#
# Velocity S-wave (km/s) = 3.81349 4.00515 3.91049
# Velocity P-wave (km/s) = 5.49083 5.83312 5.66456
#
# Compressibility (1/GPa) = 0.04664582
#
# Stress axis : x y z
#
# Youngs Moduli (GPa) = 40.52812 67.59771 56.30317
#
# Poissons Ratio (x) = 0.46865 -0.25996
# Poissons Ratio (y) = 0.28098 0.16753
# Poissons Ratio (z) = -0.18712 0.20114
#
# Static dielectric constant tensor:
#      x y z
#    x 1.677150 0.000000 0.002270 
#    y 0.000000 1.670890 0.000000 
#    z 0.002270 0.000000 1.740750 
# 
# From -- ./inp_files/151686.got.cif
#   From: 2010.05.17/outbox.cif.g08.bks.cpg/sg12_76_cif.got.tgz:151686.got - 2010.06.03 13:09:07.
