data_PCOD9214328
_publ_section_title
;
Structure prediction by ZEFSAII (Michael W. Deem and Ramdas Pophale) SiO2 
 PCOD9214328
Probable space group: C 2/M
;
_chemical_formula_sum "Si O2"
_cell_formula_units_Z 56
_cell_length_a 20.026900
_cell_length_b 21.764687
_cell_length_c 16.834693
_cell_angle_alpha 90.000000
_cell_angle_beta 20.913068
_cell_angle_gamma 90.000000
_cell_volume 2619.268595
_symmetry_space_group_name_H-M "C 2/M"
_symmetry_group_IT_number 12
_symmetry_cell_setting 'monoclinic'
loop_
_space_group_symop_operation_xyz
x,y,z
-x,y,-z
-x,-y,-z
x,-y,z
1/2+x,1/2+y,z
1/2-x,1/2+y,-z
1/2-x,1/2-y,-z
1/2+x,1/2-y,z
loop_
_atom_site_type_symbol
_atom_site_label
_atom_site_fract_x
_atom_site_fract_y
_atom_site_fract_z
Si Si1 0.231629 0.685435 0.936362
Si Si2 0.716584 0.430801 0.872588
Si Si3 0.146612 0.568414 0.453675
Si Si4 0.302082 0.841568 0.458233
Si Si5 0.718934 0.068946 0.660485
Si Si6 0.764345 0.569657 0.175205
Si Si7 0.915683 0.193032 0.902807
O O1 0.213632 0.752953 0.916366
O O2 0.016035 0.675968 0.203161
O O3 0.291124 0.627499 0.817147
O O4 0.354333 0.689908 0.879004
O O5 0.644046 0.500000 0.969820
O O6 0.733001 0.422930 0.759625
O O7 0.929659 0.428941 0.668435
O O8 0.615939 0.373348 0.023405
O O9 0.181543 0.500000 0.445694
O O10 0.184494 0.615774 0.479770
O O11 0.233029 0.880785 0.458422
O O12 0.136490 0.794514 0.662786
O O13 0.785676 0.079874 0.676695
O O14 0.778408 0.000000 0.570996
O O15 0.491533 0.068604 0.917861
O O16 0.703073 0.500000 0.220061
#
# Coordination Sequence:
#
# PCOD9214328 Si02
#       7
#     8   8   8   8   8   8   8
#     4  10  22  40  57  80 118 151 186 238 286 330
#     4   9  19  37  59  85 115 150 192 235 285 347
#     4   9  18  35  60  86 116 149 186 238 292 339
#     4  11  20  35  59  84 112 151 190 228 286 338
#     4   8  15  29  53  85 113 137 181 233 273 328
#     4   8  15  32  58  81 106 148 187 223 279 336
#     4  11  23  38  57  84 115 150 193 235 280 338
#
# _framework density 21.380013999999999
#
# number of rings (size 3 to 8) (size 9 to 14) (size 15 to 20)
#    0.000    2.571    1.429    2.571    0.000    2.857 
#    0.000    9.286    0.000    1.714    0.000    0.000 
#    0.000    0.000    0.000    0.000    0.000    0.000 
#
# Total GULP energy -156243.139225 kJ/mol
# GULP energy per Si atom -5580.112115 kJ/mol
# Density = 2.133135 g / cm^3
# Si number density = 21.380014 Si / 1000 Ang^3
#
#
#
# Elastic Constant Matrix: (Units=GPa)
#
#
# Indices 1 2 3 4 5 6 
#
# 1 52.9626 31.5141 2.3170 0.2538 3.2504 0.0690
# 2 31.5141 93.6918 17.8631 0.2003 7.8796 0.0024
# 3 2.3170 17.8631 62.3718 0.0328 -13.3834 -0.1445
# 4 0.2538 0.2003 0.0328 -31.9414 -0.2750 -27.6769
# 5 3.2504 7.8796 -13.3834 -0.2750 13.5448 -0.0880
# 6 0.0690 0.0024 -0.1445 -27.6769 -0.0880 4.4079
#
#
#
# Elastic Compliance Matrix: (Units=1/GPa)
#
#
# Indices 1 2 3 4 5 6 
#
# 1 0.023742 -0.008384 0.001705 0.000060 0.000866 0.000081
# 2 -0.008384 0.016166 -0.007492 0.000080 -0.014793 0.000086
# 3 0.001705 -0.007492 0.024064 -0.000216 0.027722 -0.000036
# 4 0.000060 0.000080 -0.000216 -0.004857 -0.000571 -0.030519
# 5 0.000866 -0.014793 0.027722 -0.000571 0.109603 -0.000496
# 6 0.000081 0.000086 -0.000036 -0.030519 -0.000496 0.035228
#
#
# Mechanical properties :
#
#
# Convention : Reuss Voigt Hill
#
# Bulk Modulus (GPa) = 28.06704 34.71272 31.38988
# Shear Modulus (GPa) = 20.47814 7.69107 14.08461
#
# Velocity S-wave (km/s) = 3.09822 1.89872 2.56944
# Velocity P-wave (km/s) = 5.09459 4.59109 4.84938
#
# Compressibility (1/GPa) = 0.03562897
#
# Stress axis : x y z
#
# Youngs Moduli (GPa) = 42.11997 61.85932 41.55634
#
# Poissons Ratio (x) = 0.51862 -0.07086
# Poissons Ratio (y) = 0.35313 0.31136
# Poissons Ratio (z) = -0.07182 0.46348
#
# Static dielectric constant tensor:
#      x y z
#    x 1.727460 -0.000010 -0.028780 
#    y -0.000010 1.869960 -0.000010 
#    z -0.028780 -0.000010 1.799610 
# 
# From -- ./inp_files/286009.got.cif
#   From: 2010.05.17/outbox.cif.g08.bks.cpg/sg12_144_cif.got.tgz:286009.got - 2010.06.03 13:09:07.
