data_PCOD9214103
_publ_section_title
;
Structure prediction by ZEFSAII (Michael W. Deem and Ramdas Pophale) SiO2 
 PCOD9214103
Probable space group: C 2/M
;
_chemical_formula_sum "Si O2"
_cell_formula_units_Z 60
_cell_length_a 19.912759
_cell_length_b 20.172959
_cell_length_c 8.614379
_cell_angle_alpha 90.000000
_cell_angle_beta 55.263156
_cell_angle_gamma 90.000000
_cell_volume 2843.671474
_symmetry_space_group_name_H-M "C 2/M"
_symmetry_group_IT_number 12
_symmetry_cell_setting 'monoclinic'
loop_
_space_group_symop_operation_xyz
x,y,z
-x,y,-z
-x,-y,-z
x,-y,z
1/2+x,1/2+y,z
1/2-x,1/2+y,-z
1/2-x,1/2-y,-z
1/2+x,1/2-y,z
loop_
_atom_site_type_symbol
_atom_site_label
_atom_site_fract_x
_atom_site_fract_y
_atom_site_fract_z
Si Si1 0.021777 0.171685 0.148180
Si Si2 0.428263 0.429006 0.471487
Si Si3 0.306335 0.797868 0.329312
Si Si4 0.244054 0.427270 0.780501
Si Si5 0.186596 0.573946 0.207505
Si Si6 0.979220 0.675269 0.202828
Si Si7 0.000000 0.395717 0.500000
Si Si8 0.297177 0.700164 0.061059
O O1 0.953280 0.133216 0.336006
O O2 0.009307 0.249905 0.173988
O O3 0.115363 0.163356 0.087265
O O4 0.000000 0.152107 0.000000
O O5 0.500000 0.432394 0.500000
O O6 0.427283 0.500000 0.384397
O O7 0.341662 0.424772 0.670638
O O8 0.250000 0.750000 0.500000
O O9 0.272763 0.866287 0.308296
O O10 0.382544 0.818444 0.330652
O O11 0.324725 0.751209 0.158192
O O12 0.222665 0.500000 0.743494
O O13 0.197703 0.420807 0.005124
O O14 0.220588 0.500000 0.204692
O O15 0.091566 0.573325 0.383730
O O16 0.235580 0.640682 0.193913
O O17 0.006881 0.640004 0.323000
O O18 0.000000 0.648685 0.000000
O O19 0.250000 0.750000 0.000000
#
# Coordination Sequence:
#
# PCOD9214103 Si02
#       8
#     8   8   8   8   8   8   4   8
#     4  11  23  41  64  97 140 180 226 289 357 418
#     4  10  22  39  62  93 128 176 230 278 341 424
#     4  12  23  40  65  99 141 175 232 299 347 422
#     4  10  22  42  67  97 139 186 232 291 362 425
#     4  11  24  44  70 104 142 182 242 304 351 436
#     4  11  23  44  67 102 141 176 230 293 355 425
#     4  12  25  46  76 104 135 192 240 290 381 432
#     4  12  23  42  69 102 132 185 238 279 364 428
#
# _framework density 21.099484
#
# number of rings (size 3 to 8) (size 9 to 14) (size 15 to 20)
#    0.000    0.933    4.000    4.200    0.933    1.867 
#    0.000    3.333    0.000    3.600    0.000    0.000 
#    0.000    0.000    0.000    0.000    0.000    0.000 
#
# Total GULP energy -167028.851237 kJ/mol
# GULP energy per Si atom -5567.628375 kJ/mol
# Density = 2.105146 g / cm^3
# Si number density = 21.099484 Si / 1000 Ang^3
#
#
#
# Elastic Constant Matrix: (Units=GPa)
#
#
# Indices 1 2 3 4 5 6 
#
# 1 60.1542 27.5533 5.5144 0.0000 -10.0762 0.0000
# 2 27.5533 114.6985 29.0037 0.0000 2.9431 0.0000
# 3 5.5144 29.0037 91.2839 0.0000 -5.1011 0.0000
# 4 0.0000 0.0000 0.0000 34.6038 0.0000 -4.0163
# 5 -10.0762 2.9431 -5.1011 0.0000 41.3957 0.0000
# 6 0.0000 0.0000 0.0000 -4.0163 0.0000 19.7357
#
#
#
# Elastic Compliance Matrix: (Units=1/GPa)
#
#
# Indices 1 2 3 4 5 6 
#
# 1 0.019757 -0.005060 0.000708 0.000000 0.005256 0.000000
# 2 -0.005060 0.010822 -0.003267 0.000000 -0.002404 0.000000
# 3 0.000708 -0.003267 0.012056 0.000000 0.001890 0.000000
# 4 0.000000 0.000000 0.000000 0.029598 0.000000 0.006023
# 5 0.005256 -0.002404 0.001890 0.000000 0.025840 0.000000
# 6 0.000000 0.000000 0.000000 0.006023 0.000000 0.051895
#
#
# Mechanical properties :
#
#
# Convention : Reuss Voigt Hill
#
# Bulk Modulus (GPa) = 36.50110 43.36437 39.93273
# Shear Modulus (GPa) = 28.67981 32.75138 30.71560
#
# Velocity S-wave (km/s) = 3.69082 3.94412 3.81957
# Velocity P-wave (km/s) = 5.95818 6.42949 6.19832
#
# Compressibility (1/GPa) = 0.02739644
#
# Stress axis : x y z
#
# Youngs Moduli (GPa) = 50.61451 92.40549 82.94793
#
# Poissons Ratio (x) = 0.46757 -0.05872
# Poissons Ratio (y) = 0.25611 0.27100
# Poissons Ratio (z) = -0.03583 0.30190
#
# Static dielectric constant tensor:
#      x y z
#    x 0.853080 0.000000 -0.204130 
#    y 0.000000 1.240950 0.000000 
#    z -0.204130 0.000000 1.831730 
# 
# From -- ./inp_files/89817.got.cif
#   From: 2010.05.17/outbox.cif.g08.bks.cpg/sg12_45_cif.got.tgz:89817.got - 2010.06.03 13:09:07.
