data_PCOD9214850
_publ_section_title
;
Structure prediction by ZEFSAII (Michael W. Deem and Ramdas Pophale) SiO2 
 PCOD9214850
Probable space group: C 2/M
;
_chemical_formula_sum "Si O2"
_cell_formula_units_Z 32
_cell_length_a 14.286669
_cell_length_b 27.384023
_cell_length_c 5.043115
_cell_angle_alpha 90.000000
_cell_angle_beta 46.611579
_cell_angle_gamma 90.000000
_cell_volume 1433.805824
_symmetry_space_group_name_H-M "C 2/M"
_symmetry_group_IT_number 12
_symmetry_cell_setting 'monoclinic'
loop_
_space_group_symop_operation_xyz
x,y,z
-x,y,-z
-x,-y,-z
x,-y,z
1/2+x,1/2+y,z
1/2-x,1/2+y,-z
1/2-x,1/2-y,-z
1/2+x,1/2-y,z
loop_
_atom_site_type_symbol
_atom_site_label
_atom_site_fract_x
_atom_site_fract_y
_atom_site_fract_z
Si Si1 0.153175 0.057786 0.668688
Si Si2 0.372718 0.189129 0.074885
Si Si3 0.234277 0.116505 0.005035
Si Si4 0.376138 0.701143 0.057506
O O1 0.189834 0.078793 0.313125
O O2 0.174560 0.000000 0.647337
O O3 0.235449 0.086564 0.729588
O O4 0.000000 0.066807 0.000000
O O5 0.352568 0.146984 0.898058
O O6 0.377454 0.243753 0.945389
O O7 0.249922 0.192016 0.512705
O O8 0.500000 0.181561 0.000000
O O9 0.134926 0.160566 0.144693
O O10 0.500000 0.695144 0.000000
#
# Coordination Sequence:
#
# PCOD9214850 Si02
#       4
#     8   8   8   8
#     4  11  25  42  66 100 134 168 221 292 347 392
#     4  10  23  41  63  98 142 181 222 268 322 400
#     4  12  22  41  67  95 134 173 222 266 343 398
#     4  10  22  40  65 101 137 176 226 274 326 389
#
# _framework density 22.318224000000001
#
# number of rings (size 3 to 8) (size 9 to 14) (size 15 to 20)
#    0.000    1.250    2.500    3.000    3.500    3.000 
#    0.000    7.500    0.000    4.500    0.000    0.000 
#    0.000    0.000    0.000    0.000    0.000    0.000 
#
# Total GULP energy -89567.110589 kJ/mol
# GULP energy per Si atom -5597.944412 kJ/mol
# Density = 2.226743 g / cm^3
# Si number density = 22.318224 Si / 1000 Ang^3
#
#
#
# Elastic Constant Matrix: (Units=GPa)
#
#
# Indices 1 2 3 4 5 6 
#
# 1 124.0062 49.4604 26.1946 0.0000 -15.8860 0.0000
# 2 49.4604 145.4037 2.3834 0.0000 0.2888 0.0000
# 3 26.1946 2.3834 70.1661 0.0000 -10.6311 0.0000
# 4 0.0000 0.0000 0.0000 195.3701 0.0000 16.1417
# 5 -15.8860 0.2888 -10.6311 0.0000 43.4603 0.0000
# 6 0.0000 0.0000 0.0000 16.1417 0.0000 39.8290
#
#
#
# Elastic Compliance Matrix: (Units=1/GPa)
#
#
# Indices 1 2 3 4 5 6 
#
# 1 0.010585 -0.003551 -0.003366 0.000000 0.003069 0.000000
# 2 -0.003551 0.008073 0.000879 0.000000 -0.001137 0.000000
# 3 -0.003366 0.000879 0.015880 0.000000 0.002648 0.000000
# 4 0.000000 0.000000 0.000000 0.005296 0.000000 -0.002146
# 5 0.003069 -0.001137 0.002648 0.000000 0.024787 0.000000
# 6 0.000000 0.000000 0.000000 -0.002146 0.000000 0.025977
#
#
# Mechanical properties :
#
#
# Convention : Reuss Voigt Hill
#
# Bulk Modulus (GPa) = 44.51950 55.07252 49.79601
# Shear Modulus (GPa) = 45.38814 73.16773 59.27793
#
# Velocity S-wave (km/s) = 4.51453 5.73193 5.15926
# Velocity P-wave (km/s) = 6.86771 8.27866 7.60598
#
# Compressibility (1/GPa) = 0.02246207
#
# Stress axis : x y z
#
# Youngs Moduli (GPa) = 94.47497 123.86503 62.97298
#
# Poissons Ratio (x) = 0.43990 0.21196
# Poissons Ratio (y) = 0.33552 -0.05538
# Poissons Ratio (z) = 0.31799 -0.10892
#
# Static dielectric constant tensor:
#      x y z
#    x 1.823580 0.000000 0.009700 
#    y 0.000000 1.812130 0.000000 
#    z 0.009700 0.000000 1.888250 
# 
# From -- ./inp_files/8021.got.cif
#   From: 2010.05.17/outbox.cif.g08.bks.cpg/sg12_5_cif.got.tgz:8021.got - 2010.06.03 13:09:07.
