data_PCOD9214937
_publ_section_title
;
Structure prediction by ZEFSAII (Michael W. Deem and Ramdas Pophale) SiO2 
 PCOD9214937
Probable space group: C 2/M
;
_chemical_formula_sum "Si O2"
_cell_formula_units_Z 52
_cell_length_a 14.064060
_cell_length_b 12.131630
_cell_length_c 14.918043
_cell_angle_alpha 90.000000
_cell_angle_beta 108.862646
_cell_angle_gamma 90.000000
_cell_volume 2408.623282
_symmetry_space_group_name_H-M "C 2/M"
_symmetry_group_IT_number 12
_symmetry_cell_setting 'monoclinic'
loop_
_space_group_symop_operation_xyz
x,y,z
-x,y,-z
-x,-y,-z
x,-y,z
1/2+x,1/2+y,z
1/2-x,1/2+y,-z
1/2-x,1/2-y,-z
1/2+x,1/2-y,z
loop_
_atom_site_type_symbol
_atom_site_label
_atom_site_fract_x
_atom_site_fract_y
_atom_site_fract_z
Si Si1 0.080628 0.803502 0.814746
Si Si2 0.685560 0.130441 0.369910
Si Si3 0.730934 0.500000 0.884310
Si Si4 0.141295 0.378244 0.692399
Si Si5 0.612581 0.811827 0.014524
Si Si6 0.108705 0.759633 0.513503
Si Si7 0.357844 0.297002 0.792429
O O1 0.093971 0.713127 0.742005
O O2 0.964648 0.839049 0.789706
O O3 0.154788 0.903931 0.822933
O O4 0.109901 0.744265 0.917120
O O5 0.800469 0.158539 0.433337
O O6 0.623189 0.207020 0.420028
O O7 0.663085 0.179848 0.264489
O O8 0.666316 0.000000 0.368838
O O9 0.805029 0.404591 0.949282
O O10 0.104640 0.500000 0.702629
O O11 0.118579 0.343402 0.584351
O O12 0.261568 0.369930 0.741101
O O13 0.633448 0.722509 0.099035
O O14 0.500000 0.855205 0.000000
O O15 0.000000 0.809895 0.500000
#
# Coordination Sequence:
#
# PCOD9214937 Si02
#       7
#     8   8   4   8   8   8   8
#     4  11  25  41  63  94 122 165 205 256 306 363
#     4  10  22  40  66  90 125 162 203 261 303 362
#     4  12  23  40  65  90 125 160 207 263 301 364
#     4  11  24  41  64  89 125 164 206 255 302 368
#     4  10  23  42  61  88 126 162 206 251 303 365
#     4  10  22  41  62  92 125 158 206 253 308 372
#     4  10  23  42  60  92 124 158 210 245 310 366
#
# _framework density 21.589098
#
# number of rings (size 3 to 8) (size 9 to 14) (size 15 to 20)
#    0.000    1.538    1.538    2.077    3.231    3.385 
#    0.000    1.154    3.385    0.000    0.000    0.000 
#    0.000    0.000    0.000    0.000    0.000    0.000 
#
# Total GULP energy -144864.823811 kJ/mol
# GULP energy per Si atom -5571.723993 kJ/mol
# Density = 2.153996 g / cm^3
# Si number density = 21.589098 Si / 1000 Ang^3
#
#
#
# Elastic Constant Matrix: (Units=GPa)
#
#
# Indices 1 2 3 4 5 6 
#
# 1 87.5120 -3.1208 14.5038 0.0000 10.3970 0.0000
# 2 -3.1208 67.8277 -1.1614 0.0000 -3.7675 0.0000
# 3 14.5038 -1.1614 77.9934 0.0000 -1.2350 0.0000
# 4 0.0000 0.0000 0.0000 9.3066 0.0000 -2.7871
# 5 10.3970 -3.7675 -1.2350 0.0000 33.8776 0.0000
# 6 0.0000 0.0000 0.0000 -2.7871 0.0000 -13.1109
#
#
#
# Elastic Compliance Matrix: (Units=1/GPa)
#
#
# Indices 1 2 3 4 5 6 
#
# 1 0.012280 0.000313 -0.002339 0.000000 -0.003819 0.000000
# 2 0.000313 0.014848 0.000188 0.000000 0.001562 0.000000
# 3 -0.002339 0.000188 0.013279 0.000000 0.001223 0.000000
# 4 0.000000 0.000000 0.000000 0.101019 0.000000 -0.021474
# 5 -0.003819 0.001562 0.001223 0.000000 0.030908 0.000000
# 6 0.000000 0.000000 0.000000 -0.021474 0.000000 -0.071707
#
#
# Mechanical properties :
#
#
# Convention : Reuss Voigt Hill
#
# Bulk Modulus (GPa) = 27.22701 28.19736 27.71219
# Shear Modulus (GPa) = 42.90120 20.88877 31.89499
#
# Velocity S-wave (km/s) = 4.46260 3.11394 3.84782
# Velocity P-wave (km/s) = 6.26035 5.10079 5.71008
#
# Compressibility (1/GPa) = 0.03672823
#
# Stress axis : x y z
#
# Youngs Moduli (GPa) = 81.43586 67.35093 75.30810
#
# Poissons Ratio (x) = -0.02107 0.17617
# Poissons Ratio (y) = -0.02547 -0.01413
# Poissons Ratio (z) = 0.19051 -0.01264
#
# Static dielectric constant tensor:
#      x y z
#    x 1.852870 0.000000 -0.006730 
#    y 0.000000 1.715670 0.000000 
#    z -0.006730 0.000000 1.764500 
# 
# From -- ./inp_files/213484.got.cif
#   From: 2010.05.17/outbox.cif.g08.bks.cpg/sg12_107_cif.got.tgz:213484.got - 2010.06.03 13:09:07.
