data_PCOD9214313
_publ_section_title
;
Structure prediction by ZEFSAII (Michael W. Deem and Ramdas Pophale) SiO2 
 PCOD9214313
Probable space group: C 2/M
;
_chemical_formula_sum "Si O2"
_cell_formula_units_Z 52
_cell_length_a 14.320071
_cell_length_b 21.497297
_cell_length_c 17.965341
_cell_angle_alpha 90.000000
_cell_angle_beta 151.383931
_cell_angle_gamma 90.000000
_cell_volume 2648.767613
_symmetry_space_group_name_H-M "C 2/M"
_symmetry_group_IT_number 12
_symmetry_cell_setting 'monoclinic'
loop_
_space_group_symop_operation_xyz
x,y,z
-x,y,-z
-x,-y,-z
x,-y,z
1/2+x,1/2+y,z
1/2-x,1/2+y,-z
1/2-x,1/2-y,-z
1/2+x,1/2-y,z
loop_
_atom_site_type_symbol
_atom_site_label
_atom_site_fract_x
_atom_site_fract_y
_atom_site_fract_z
Si Si1 0.110412 0.131514 0.191809
Si Si2 0.370643 0.000000 0.519128
Si Si3 0.702873 0.500000 0.231321
Si Si4 0.308659 0.262285 0.957283
Si Si5 0.100304 0.151101 0.647599
Si Si6 0.680707 0.629714 0.409009
Si Si7 0.444532 0.793740 0.354715
Si Si8 0.500000 0.846360 0.000000
O O1 0.074832 0.125813 0.255196
O O2 0.327343 0.154464 0.320209
O O3 0.084683 0.063253 0.140685
O O4 0.973442 0.185554 0.067276
O O5 0.290662 0.000000 0.377615
O O6 0.603658 0.000000 0.682822
O O7 0.291876 0.935795 0.497852
O O8 0.136606 0.287404 0.785496
O O9 0.250000 0.250000 0.000000
O O10 0.388841 0.198559 0.979602
O O11 0.106946 0.226721 0.646054
O O12 0.000000 0.128461 0.500000
O O13 0.957694 0.140250 0.617947
O O14 0.316294 0.125652 0.823499
O O15 0.834171 0.685137 0.500799
#
# Coordination Sequence:
#
# PCOD9214313 Si02
#       8
#     8   4   4   8   8   8   8   4
#     4  11  18  36  55  84 117 149 194 235 295 367
#     4   9  18  36  54  83 115 143 192 238 299 355
#     4   9  18  30  58  81 112 159 177 237 303 352
#     4  11  22  36  55  79 119 164 189 237 301 345
#     4  11  23  38  58  88 117 156 201 241 293 356
#     4  11  22  35  59  86 109 152 196 242 292 355
#     4  11  21  34  56  87 118 148 192 240 296 359
#     4  10  22  40  54  84 124 152 190 244 300 342
#
# _framework density 19.631771000000001
#
# number of rings (size 3 to 8) (size 9 to 14) (size 15 to 20)
#    0.000    1.385    4.615    3.692    2.154    0.000 
#    0.000    2.692    0.000    0.462    0.000    0.000 
#    0.000    0.000    0.000    0.000    0.000    0.000 
#
# Total GULP energy -145017.433402 kJ/mol
# GULP energy per Si atom -5577.593592 kJ/mol
# Density = 1.958709 g / cm^3
# Si number density = 19.631771 Si / 1000 Ang^3
#
#
#
# Elastic Constant Matrix: (Units=GPa)
#
#
# Indices 1 2 3 4 5 6 
#
# 1 107.1111 3.3720 25.1652 -0.0014 -20.2588 0.0002
# 2 3.3720 39.8728 3.0077 0.0069 3.0894 0.0013
# 3 25.1652 3.0077 103.9208 0.0108 -12.1942 0.0027
# 4 -0.0014 0.0069 0.0108 -7.6005 0.0024 1.3264
# 5 -20.2588 3.0894 -12.1942 0.0024 31.2677 0.0004
# 6 0.0002 0.0013 0.0027 1.3264 0.0004 13.3901
#
#
#
# Elastic Compliance Matrix: (Units=1/GPa)
#
#
# Indices 1 2 3 4 5 6 
#
# 1 0.011058 -0.001303 -0.001870 -0.000004 0.006564 0.000001
# 2 -0.001303 0.025542 -0.000858 0.000020 -0.003702 -0.000004
# 3 -0.001870 -0.000858 0.010446 0.000015 0.002947 -0.000004
# 4 -0.000004 0.000020 0.000015 -0.129335 0.000011 0.012812
# 5 0.006564 -0.003702 0.002947 0.000011 0.037750 -0.000003
# 6 0.000001 -0.000004 -0.000004 0.012812 -0.000003 0.073413
#
#
# Mechanical properties :
#
#
# Convention : Reuss Voigt Hill
#
# Bulk Modulus (GPa) = 25.65144 34.88828 30.26986
# Shear Modulus (GPa) = 100.13955 22.03545 61.08750
#
# Velocity S-wave (km/s) = 7.14980 3.35392 5.58428
# Velocity P-wave (km/s) = 9.01411 5.72785 7.55190
#
# Compressibility (1/GPa) = 0.03898417
#
# Stress axis : x y z
#
# Youngs Moduli (GPa) = 90.43282 39.15194 95.72885
#
# Poissons Ratio (x) = 0.05100 0.17900
# Poissons Ratio (y) = 0.11781 0.08215
# Poissons Ratio (z) = 0.16909 0.03360
#
# Static dielectric constant tensor:
#      x y z
#    x 1.677100 0.000000 -0.019500 
#    y 0.000000 1.685790 0.000000 
#    z -0.019500 0.000000 1.786430 
# 
# From -- ./inp_files/272252.got.cif
#   From: 2010.05.17/outbox.cif.g08.bks.cpg/sg12_137_cif.got.tgz:272252.got - 2010.06.03 13:09:07.
