data_PCOD9214960
_publ_section_title
;
Structure prediction by ZEFSAII (Michael W. Deem and Ramdas Pophale) SiO2 
 PCOD9214960
Probable space group: C 2/M
;
_chemical_formula_sum "Si O2"
_cell_formula_units_Z 56
_cell_length_a 20.552513
_cell_length_b 19.953772
_cell_length_c 17.889774
_cell_angle_alpha 90.000000
_cell_angle_beta 158.842204
_cell_angle_gamma 90.000000
_cell_volume 2648.055396
_symmetry_space_group_name_H-M "C 2/M"
_symmetry_group_IT_number 12
_symmetry_cell_setting 'monoclinic'
loop_
_space_group_symop_operation_xyz
x,y,z
-x,y,-z
-x,-y,-z
x,-y,z
1/2+x,1/2+y,z
1/2-x,1/2+y,-z
1/2-x,1/2-y,-z
1/2+x,1/2-y,z
loop_
_atom_site_type_symbol
_atom_site_label
_atom_site_fract_x
_atom_site_fract_y
_atom_site_fract_z
Si Si1 0.304363 0.311477 0.331840
Si Si2 0.877991 0.422793 0.964840
Si Si3 0.194605 0.339919 0.671725
Si Si4 0.262880 0.389334 0.431314
Si Si5 0.153191 0.924417 0.033802
Si Si6 0.824960 0.077144 0.104303
Si Si7 0.224452 0.422626 0.555182
O O1 0.500000 0.315261 0.500000
O O2 0.186078 0.368340 0.163976
O O3 0.233067 0.235764 0.252050
O O4 0.306658 0.328184 0.422677
O O5 0.819838 0.500000 0.885517
O O6 0.782074 0.398095 0.938666
O O7 0.091905 0.424297 0.208882
O O8 0.167980 0.377974 0.564864
O O9 0.000000 0.334920 0.500000
O O10 0.308541 0.383789 0.851196
O O11 0.460602 0.422564 0.649539
O O12 0.198411 0.385060 0.448285
O O13 0.215787 0.892912 0.021336
O O14 0.939304 0.929132 0.795126
O O15 0.226829 0.000000 0.121320
O O16 0.770556 0.000000 0.038684
O O17 0.153690 0.500000 0.476885
#
# Coordination Sequence:
#
# PCOD9214960 Si02
#       7
#     8   8   8   8   8   8   8
#     4  11  25  46  61  86 130 174 215 256 314 376
#     4  11  23  38  66  96 122 164 213 260 319 375
#     4  11  25  41  62  91 128 170 212 258 308 375
#     4  11  22  40  66  93 129 160 209 263 312 380
#     4   9  19  38  64  92 125 164 207 254 320 379
#     4   9  19  37  62  93 129 162 194 260 321 367
#     4  10  22  40  66  96 126 162 206 261 321 378
#
# _framework density 21.147594000000002
#
# number of rings (size 3 to 8) (size 9 to 14) (size 15 to 20)
#    0.000    1.714    1.429    3.429    2.000    7.714 
#    0.000    2.143    0.000    0.000    0.000    0.000 
#    0.000    0.000    0.000    0.000    0.000    0.000 
#
# Total GULP energy -156073.665823 kJ/mol
# GULP energy per Si atom -5574.059494 kJ/mol
# Density = 2.109946 g / cm^3
# Si number density = 21.147594 Si / 1000 Ang^3
#
#
#
# Elastic Constant Matrix: (Units=GPa)
#
#
# Indices 1 2 3 4 5 6 
#
# 1 180.7423 78.9108 31.2103 -0.0008 -25.0962 0.0000
# 2 78.9108 114.5524 34.3495 -0.0010 -28.3508 0.0007
# 3 31.2103 34.3495 83.2189 -0.0031 -11.8447 -0.0022
# 4 -0.0008 -0.0010 -0.0031 -0.4866 -0.0009 2.8817
# 5 -25.0962 -28.3508 -11.8447 -0.0009 36.1786 -0.0008
# 6 0.0000 0.0007 -0.0022 2.8817 -0.0008 27.8766
#
#
#
# Elastic Compliance Matrix: (Units=1/GPa)
#
#
# Indices 1 2 3 4 5 6 
#
# 1 0.008022 -0.004939 -0.000764 0.000000 0.001444 0.000000
# 2 -0.004939 0.014888 -0.003272 -0.000010 0.007169 0.000001
# 3 -0.000764 -0.003272 0.013859 -0.000046 0.001443 0.000006
# 4 0.000000 -0.000010 -0.000046 -1.274755 -0.000051 0.131778
# 5 0.001444 0.007169 0.001443 -0.000051 0.034732 0.000006
# 6 0.000000 0.000001 0.000006 0.131778 0.000006 0.022250
#
#
# Mechanical properties :
#
#
# Convention : Reuss Voigt Hill
#
# Bulk Modulus (GPa) = 53.14394 74.16165 63.65280
# Shear Modulus (GPa) = -4.32234 28.31659 11.99713
#
# Velocity S-wave (km/s) = -1.43120 3.66320 2.38440
# Velocity P-wave (km/s) = 4.73851 7.28264 6.14371
#
# Compressibility (1/GPa) = 0.01881682
#
# Stress axis : x y z
#
# Youngs Moduli (GPa) = 124.66288 67.17000 72.15456
#
# Poissons Ratio (x) = 0.33178 0.05514
# Poissons Ratio (y) = 0.61576 0.23611
# Poissons Ratio (z) = 0.09526 0.21979
#
# Static dielectric constant tensor:
#      x y z
#    x 1.844870 0.000000 0.016670 
#    y 0.000000 1.747060 0.000000 
#    z 0.016670 0.000000 1.804760 
# 
# From -- ./inp_files/286091.got.cif
#   From: 2010.05.17/outbox.cif.g08.bks.cpg/sg12_144_cif.got.tgz:286091.got - 2010.06.03 13:09:07.
