data_PCOD9214928
_publ_section_title
;
Structure prediction by ZEFSAII (Michael W. Deem and Ramdas Pophale) SiO2 
 PCOD9214928
Probable space group: C 2/M
;
_chemical_formula_sum "Si O2"
_cell_formula_units_Z 44
_cell_length_a 12.733191
_cell_length_b 18.181348
_cell_length_c 7.331328
_cell_angle_alpha 90.000000
_cell_angle_beta 92.990978
_cell_angle_gamma 90.000000
_cell_volume 1694.938591
_symmetry_space_group_name_H-M "C 2/M"
_symmetry_group_IT_number 12
_symmetry_cell_setting 'monoclinic'
loop_
_space_group_symop_operation_xyz
x,y,z
-x,y,-z
-x,-y,-z
x,-y,z
1/2+x,1/2+y,z
1/2-x,1/2+y,-z
1/2-x,1/2-y,-z
1/2+x,1/2-y,z
loop_
_atom_site_type_symbol
_atom_site_label
_atom_site_fract_x
_atom_site_fract_y
_atom_site_fract_z
Si Si1 0.718607 0.787902 0.683160
Si Si2 0.500000 0.186923 0.000000
Si Si3 0.968675 0.194817 0.280990
Si Si4 0.185766 0.418399 0.100400
Si Si5 0.123359 0.422251 0.511598
Si Si6 0.624596 0.412637 0.145717
O O1 0.750000 0.750000 0.500000
O O2 0.653092 0.721186 0.770529
O O3 0.634618 0.849179 0.624589
O O4 0.810058 0.844145 0.754178
O O5 0.476729 0.239305 0.826026
O O6 0.395073 0.138124 0.997838
O O7 0.000000 0.193276 0.500000
O O8 0.008802 0.119883 0.187515
O O9 0.144214 0.500000 0.053580
O O10 0.174710 0.411273 0.317545
O O11 0.302598 0.415712 0.029629
O O12 0.168354 0.500000 0.590531
O O13 0.000000 0.431432 0.500000
O O14 0.620975 0.500000 0.201355
#
# Coordination Sequence:
#
# PCOD9214928 Si02
#       6
#     8   4   8   8   8   8
#     4  12  23  42  69 100 137 179 240 296 347 422
#     4  12  23  40  71 104 138 186 232 298 363 408
#     4  12  26  46  69 108 142 186 240 300 352 427
#     4  10  22  40  65  99 142 183 232 292 359 433
#     4  10  22  40  66  99 138 180 228 290 359 423
#     4  11  26  47  70 100 145 191 234 290 362 432
#
# _framework density 25.959643
#
# number of rings (size 3 to 8) (size 9 to 14) (size 15 to 20)
#    0.000    0.909    3.636    3.545    0.000    2.545 
#    0.000    0.455    0.000    0.545    0.000    0.000 
#    0.000    0.000    0.000    0.000    0.000    0.000 
#
# Total GULP energy -122536.210568 kJ/mol
# GULP energy per Si atom -5569.827753 kJ/mol
# Density = 2.590056 g / cm^3
# Si number density = 25.959643 Si / 1000 Ang^3
#
#
#
# Elastic Constant Matrix: (Units=GPa)
#
#
# Indices 1 2 3 4 5 6 
#
# 1 125.3229 71.8235 3.1995 0.0000 -23.7024 0.0000
# 2 71.8235 214.4380 63.0196 0.0000 -16.1486 0.0000
# 3 3.1995 63.0196 122.2417 0.0000 -27.6608 0.0000
# 4 0.0000 0.0000 0.0000 -3.4915 0.0000 -29.9548
# 5 -23.7024 -16.1486 -27.6608 0.0000 26.5718 0.0000
# 6 0.0000 0.0000 0.0000 -29.9548 0.0000 38.8779
#
#
#
# Elastic Compliance Matrix: (Units=1/GPa)
#
#
# Indices 1 2 3 4 5 6 
#
# 1 0.013554 -0.005073 0.005623 0.000000 0.014861 0.000000
# 2 -0.005073 0.007400 -0.004825 0.000000 -0.005051 0.000000
# 3 0.005623 -0.004825 0.014380 0.000000 0.017053 0.000000
# 4 0.000000 0.000000 0.000000 -0.037635 0.000000 -0.028997
# 5 0.014861 -0.005051 0.017053 0.000000 0.065572 0.000000
# 6 0.000000 0.000000 0.000000 -0.028997 0.000000 0.003380
#
#
# Mechanical properties :
#
#
# Convention : Reuss Voigt Hill
#
# Bulk Modulus (GPa) = 37.33619 82.00976 59.67298
# Shear Modulus (GPa) = 59.43270 33.98897 46.71083
#
# Velocity S-wave (km/s) = 4.78999 3.62235 4.24649
# Velocity P-wave (km/s) = 6.70862 7.01107 6.86151
#
# Compressibility (1/GPa) = 0.02678367
#
# Stress axis : x y z
#
# Youngs Moduli (GPa) = 73.77890 135.13056 69.54339
#
# Poissons Ratio (x) = 0.68555 -0.39107
# Poissons Ratio (y) = 0.37430 0.33556
# Poissons Ratio (z) = -0.41489 0.65203
#
# Static dielectric constant tensor:
#      x y z
#    x 2.211360 0.000000 -0.006760 
#    y 0.000000 1.887240 0.000000 
#    z -0.006760 0.000000 1.847640 
# 
# From -- ./inp_files/61055.got.cif
#   From: 2010.05.17/outbox.cif.g08.bks.cpg/sg12_31_cif.got.tgz:61055.got - 2010.06.03 13:09:07.
