data_PCOD9214604
_publ_section_title
;
Structure prediction by ZEFSAII (Michael W. Deem and Ramdas Pophale) SiO2 
 PCOD9214604
Probable space group: C 2/M
;
_chemical_formula_sum "Si O2"
_cell_formula_units_Z 56
_cell_length_a 9.677260
_cell_length_b 27.009112
_cell_length_c 18.351590
_cell_angle_alpha 90.000000
_cell_angle_beta 141.385448
_cell_angle_gamma 90.000000
_cell_volume 2993.472916
_symmetry_space_group_name_H-M "C 2/M"
_symmetry_group_IT_number 12
_symmetry_cell_setting 'monoclinic'
loop_
_space_group_symop_operation_xyz
x,y,z
-x,y,-z
-x,-y,-z
x,-y,z
1/2+x,1/2+y,z
1/2-x,1/2+y,-z
1/2-x,1/2-y,-z
1/2+x,1/2-y,z
loop_
_atom_site_type_symbol
_atom_site_label
_atom_site_fract_x
_atom_site_fract_y
_atom_site_fract_z
Si Si1 0.517462 0.305749 0.627936
Si Si2 0.065283 0.083163 0.700721
Si Si3 0.334111 0.884610 0.229384
Si Si4 0.438425 0.442410 0.131137
Si Si5 0.591689 0.942867 0.459600
Si Si6 0.872201 0.291235 0.648724
Si Si7 0.442951 0.944430 0.134197
O O1 0.556455 0.358032 0.682930
O O2 0.729527 0.292608 0.664549
O O3 0.305349 0.308570 0.486167
O O4 0.456993 0.262686 0.659932
O O5 0.047104 0.068419 0.777579
O O6 0.297365 0.062277 0.769326
O O7 0.855287 0.061070 0.572207
O O8 0.493915 0.912856 0.352378
O O9 0.420463 0.828542 0.265132
O O10 0.364787 0.905869 0.161677
O O11 0.092738 0.901957 0.155691
O O12 0.508785 0.500000 0.146962
O O13 0.193179 0.438127 0.996585
O O14 0.500000 0.923719 0.500000
O O15 0.522540 0.000000 0.425092
O O16 0.394500 0.000000 0.141065
#
# Coordination Sequence:
#
# PCOD9214604 Si02
#       7
#     8   8   8   8   8   8   8
#     4  10  22  40  62  91 123 159 204 252 313 382
#     4  12  22  39  63  91 127 161 203 261 310 363
#     4  12  22  39  63  91 127 161 203 261 310 363
#     4  11  24  41  62  89 124 175 221 246 288 368
#     4  11  22  35  56  91 130 165 198 245 314 381
#     4  10  22  40  62  91 123 159 204 252 313 382
#     4  11  24  41  62  89 124 169 217 256 296 356
#
# _framework density 18.707367000000001
#
# number of rings (size 3 to 8) (size 9 to 14) (size 15 to 20)
#    0.000    1.000    4.286    3.429    2.000    2.857 
#    0.000    1.429    0.000    5.143    0.000    0.000 
#    0.000    0.000    0.000    0.000    0.000    0.000 
#
# Total GULP energy -156409.024218 kJ/mol
# GULP energy per Si atom -5586.036579 kJ/mol
# Density = 1.866479 g / cm^3
# Si number density = 18.707367 Si / 1000 Ang^3
#
#
#
# Elastic Constant Matrix: (Units=GPa)
#
#
# Indices 1 2 3 4 5 6 
#
# 1 44.8445 7.6128 1.9207 -0.0007 22.3716 0.0004
# 2 7.6128 94.4928 12.7022 -0.0004 -1.9254 0.0002
# 3 1.9207 12.7022 89.3664 -0.0018 24.6158 0.0006
# 4 -0.0007 -0.0004 -0.0018 10.6665 -0.0016 5.8041
# 5 22.3716 -1.9254 24.6158 -0.0016 56.9334 0.0007
# 6 0.0004 0.0002 0.0006 5.8041 0.0007 30.8673
#
#
#
# Elastic Compliance Matrix: (Units=1/GPa)
#
#
# Indices 1 2 3 4 5 6 
#
# 1 0.029181 -0.003074 0.003402 0.000001 -0.013041 0.000000
# 2 -0.003074 0.011182 -0.002225 0.000000 0.002548 0.000000
# 3 0.003402 -0.002225 0.013420 0.000002 -0.007214 0.000000
# 4 0.000001 0.000000 0.000002 0.104438 0.000002 -0.019638
# 5 -0.013041 0.002548 -0.007214 0.000002 0.025894 -0.000001
# 6 0.000000 0.000000 0.000000 -0.019638 -0.000001 0.036089
#
#
# Mechanical properties :
#
#
# Convention : Reuss Voigt Hill
#
# Bulk Modulus (GPa) = 20.00447 30.35281 25.17864
# Shear Modulus (GPa) = 20.77603 33.45796 27.11699
#
# Velocity S-wave (km/s) = 3.33615 4.23364 3.81141
# Velocity P-wave (km/s) = 5.05534 6.33708 5.73215
#
# Compressibility (1/GPa) = 0.04998883
#
# Stress axis : x y z
#
# Youngs Moduli (GPa) = 34.26839 89.43341 74.51436
#
# Poissons Ratio (x) = 0.27492 -0.25350
# Poissons Ratio (y) = 0.10534 0.16580
# Poissons Ratio (z) = -0.11658 0.19900
#
# Static dielectric constant tensor:
#      x y z
#    x 1.664460 0.000000 0.022950 
#    y 0.000000 1.615910 0.000000 
#    z 0.022950 0.000000 1.636230 
# 
# From -- ./inp_files/124359.got.cif
#   From: 2010.05.17/outbox.cif.g08.bks.cpg/sg12_63_cif.got.tgz:124359.got - 2010.06.03 13:09:07.
