data_PCOD9214713
_publ_section_title
;
Structure prediction by ZEFSAII (Michael W. Deem and Ramdas Pophale) SiO2 
 PCOD9214713
Probable space group: C 2/M
;
_chemical_formula_sum "Si O2"
_cell_formula_units_Z 48
_cell_length_a 22.350048
_cell_length_b 11.459480
_cell_length_c 29.635305
_cell_angle_alpha 90.000000
_cell_angle_beta 163.078530
_cell_angle_gamma 90.000000
_cell_volume 2209.206745
_symmetry_space_group_name_H-M "C 2/M"
_symmetry_group_IT_number 12
_symmetry_cell_setting 'monoclinic'
loop_
_space_group_symop_operation_xyz
x,y,z
-x,y,-z
-x,-y,-z
x,-y,z
1/2+x,1/2+y,z
1/2-x,1/2+y,-z
1/2-x,1/2-y,-z
1/2+x,1/2-y,z
loop_
_atom_site_type_symbol
_atom_site_label
_atom_site_fract_x
_atom_site_fract_y
_atom_site_fract_z
Si Si1 0.478110 0.291963 0.215171
Si Si2 0.911324 0.131651 0.070132
Si Si3 0.747558 0.626932 0.178458
Si Si4 0.149130 0.304752 0.647335
Si Si5 0.424460 0.371409 0.272772
Si Si6 0.857320 0.128982 0.476249
O O1 0.416929 0.369870 0.128514
O O2 0.517893 0.357934 0.290442
O O3 0.673509 0.219099 0.339966
O O4 0.289825 0.203425 0.087623
O O5 0.118003 0.193250 0.201795
O O6 0.910365 0.000000 0.051813
O O7 0.815934 0.500000 0.208492
O O8 0.840188 0.633139 0.296167
O O9 0.805854 0.750160 0.197432
O O10 0.500000 0.625223 0.000000
O O11 0.000000 0.353595 0.500000
O O12 0.052367 0.179275 0.590009
O O13 0.316050 0.500000 0.196395
O O14 0.586753 0.374945 0.430488
O O15 0.800831 0.000000 0.420069
#
# Coordination Sequence:
#
# PCOD9214713 Si02
#       6
#     8   8   8   8   8   8
#     4  11  22  42  63  92 126 167 217 261 322 390
#     4  11  24  40  62  91 127 167 211 267 325 387
#     4  10  22  40  64  93 128 171 221 271 327 389
#     4  11  22  42  62  97 127 166 215 268 327 385
#     4  10  22  40  63  93 130 166 214 268 325 388
#     4  10  22  42  66  94 127 169 215 268 325 385
#
# _framework density 21.727256000000001
#
# number of rings (size 3 to 8) (size 9 to 14) (size 15 to 20)
#    0.000    1.500    1.667    3.000    0.000    4.667 
#    0.000    7.500    0.000    0.000    0.000    0.000 
#    0.000    0.000    0.000    0.000    0.000    0.000 
#
# Total GULP energy -133886.736399 kJ/mol
# GULP energy per Si atom -5578.614017 kJ/mol
# Density = 2.167780 g / cm^3
# Si number density = 21.727256 Si / 1000 Ang^3
#
#
#
# Elastic Constant Matrix: (Units=GPa)
#
#
# Indices 1 2 3 4 5 6 
#
# 1 87.3837 30.9106 8.0868 -0.0921 -21.9907 -0.0589
# 2 30.9106 153.7927 19.1873 0.0728 0.3987 -0.0028
# 3 8.0868 19.1873 34.1665 0.3409 -4.0879 0.1139
# 4 -0.0921 0.0728 0.3409 -75.6474 -0.0870 -36.1877
# 5 -21.9907 0.3987 -4.0879 -0.0870 42.1087 -0.0630
# 6 -0.0589 -0.0028 0.1139 -36.1877 -0.0630 -33.4342
#
#
#
# Elastic Compliance Matrix: (Units=1/GPa)
#
#
# Indices 1 2 3 4 5 6 
#
# 1 0.014395 -0.002795 -0.000946 -0.000026 0.007452 -0.000014
# 2 -0.002795 0.007543 -0.003802 -0.000004 -0.001900 -0.000001
# 3 -0.000946 -0.003802 0.031942 0.000182 0.002643 -0.000091
# 4 -0.000026 -0.000004 0.000182 -0.027412 -0.000008 0.029670
# 5 0.007452 -0.001900 0.002643 -0.000008 0.027914 -0.000047
# 6 -0.000014 -0.000001 -0.000091 0.029670 -0.000047 -0.062023
#
#
# Mechanical properties :
#
#
# Convention : Reuss Voigt Hill
#
# Bulk Modulus (GPa) = 25.77595 43.52359 34.64977
# Shear Modulus (GPa) = 245.37531 1.08263 123.22897
#
# Velocity S-wave (km/s) = 10.63859 0.70666 7.53919
# Velocity P-wave (km/s) = 12.75912 4.55424 9.57957
#
# Compressibility (1/GPa) = 0.03879585
#
# Stress axis : x y z
#
# Youngs Moduli (GPa) = 69.46745 132.56968 31.30657
#
# Poissons Ratio (x) = 0.37048 0.02961
# Poissons Ratio (y) = 0.19413 0.11903
# Poissons Ratio (z) = 0.06570 0.50403
#
# Static dielectric constant tensor:
#      x y z
#    x 1.811660 0.000000 -0.031940 
#    y 0.000000 1.807000 -0.000040 
#    z -0.031940 -0.000040 1.751080 
# 
# From -- ./inp_files/366201.got.cif
#   From: 2010.05.17/outbox.cif.g08.bks.cpg/sg12_184_cif.got.tgz:366201.got - 2010.06.03 13:09:07.
