data_PCOD9214303
_publ_section_title
;
Structure prediction by ZEFSAII (Michael W. Deem and Ramdas Pophale) SiO2 
 PCOD9214303
Probable space group: C 2/M
;
_chemical_formula_sum "Si O2"
_cell_formula_units_Z 20
_cell_length_a 10.968842
_cell_length_b 16.814156
_cell_length_c 4.869215
_cell_angle_alpha 90.000000
_cell_angle_beta 64.791200
_cell_angle_gamma 90.000000
_cell_volume 812.510509
_symmetry_space_group_name_H-M "C 2/M"
_symmetry_group_IT_number 12
_symmetry_cell_setting 'monoclinic'
loop_
_space_group_symop_operation_xyz
x,y,z
-x,y,-z
-x,-y,-z
x,-y,z
1/2+x,1/2+y,z
1/2-x,1/2+y,-z
1/2-x,1/2-y,-z
1/2+x,1/2-y,z
loop_
_atom_site_type_symbol
_atom_site_label
_atom_site_fract_x
_atom_site_fract_y
_atom_site_fract_z
Si Si1 0.000000 0.308265 0.500000
Si Si2 0.259218 0.407346 0.330906
Si Si3 0.396428 0.500000 0.836480
Si Si4 0.000000 0.797974 0.000000
O O1 0.879051 0.362617 0.503871
O O2 0.944653 0.256625 0.807586
O O3 0.250959 0.500000 0.442881
O O4 0.386096 0.350347 0.267331
O O5 0.298445 0.425433 0.970676
O O6 0.500000 0.500000 0.500000
O O7 0.500000 0.500000 0.000000
#
# Coordination Sequence:
#
# PCOD9214303 Si02
#       4
#     4   8   4   4
#     4  12  27  44  65 104 140 166 214 284 345 370
#     4  10  23  47  70  98 129 181 224 270 318 404
#     4  10  22  39  70  95 124 167 233 260 312 383
#     4  12  25  44  67  98 138 176 216 268 337 398
#
# _framework density 24.615065000000001
#
# number of rings (size 3 to 8) (size 9 to 14) (size 15 to 20)
#    1.200    0.000    2.000    3.600    2.800    3.200 
#    0.000    3.000    0.000    0.000    0.000    0.000 
#    0.000    0.000    0.000    0.000    0.000    0.000 
#
# Total GULP energy -55672.938539 kJ/mol
# GULP energy per Si atom -5567.293854 kJ/mol
# Density = 2.455904 g / cm^3
# Si number density = 24.615065 Si / 1000 Ang^3
#
#
#
# Elastic Constant Matrix: (Units=GPa)
#
#
# Indices 1 2 3 4 5 6 
#
# 1 88.3215 50.0353 -0.0800 0.0000 -25.6867 0.0000
# 2 50.0353 130.9381 13.6987 0.0000 -10.3402 0.0000
# 3 -0.0800 13.6987 75.3036 0.0000 6.3577 0.0000
# 4 0.0000 0.0000 0.0000 -177.4834 0.0000 19.3442
# 5 -25.6867 -10.3402 6.3577 0.0000 47.3977 0.0000
# 6 0.0000 0.0000 0.0000 19.3442 0.0000 40.9523
#
#
#
# Elastic Compliance Matrix: (Units=1/GPa)
#
#
# Indices 1 2 3 4 5 6 
#
# 1 0.016945 -0.005901 0.000430 0.000000 0.007838 0.000000
# 2 -0.005901 0.010015 -0.001763 0.000000 -0.000777 0.000000
# 3 0.000430 -0.001763 0.013769 0.000000 -0.001999 0.000000
# 4 0.000000 0.000000 0.000000 -0.005358 0.000000 0.002531
# 5 0.007838 -0.000777 -0.001999 0.000000 0.025445 0.000000
# 6 0.000000 0.000000 0.000000 0.002531 0.000000 0.023223
#
#
# Mechanical properties :
#
#
# Convention : Reuss Voigt Hill
#
# Bulk Modulus (GPa) = 38.07803 46.87460 42.47632
# Shear Modulus (GPa) = 46.61492 -2.43274 22.09109
#
# Velocity S-wave (km/s) = 4.35645 -0.99522 2.99902
# Velocity P-wave (km/s) = 6.38810 4.21471 5.41164
#
# Compressibility (1/GPa) = 0.02626186
#
# Stress axis : x y z
#
# Youngs Moduli (GPa) = 59.01273 99.84691 72.62478
#
# Poissons Ratio (x) = 0.58923 -0.03121
# Poissons Ratio (y) = 0.34825 0.12801
# Poissons Ratio (z) = -0.02536 0.17599
#
# Static dielectric constant tensor:
#      x y z
#    x 2.000130 0.000000 0.093130 
#    y 0.000000 2.085570 0.000000 
#    z 0.093130 0.000000 2.110000 
# 
# From -- ./inp_files/4895.got.cif
#   From: 2010.05.17/outbox.cif.g08.bks.cpg/sg12_3_cif.got.tgz:4895.got - 2010.06.03 13:09:07.
