data_PCOD9214565
_publ_section_title
;
Structure prediction by ZEFSAII (Michael W. Deem and Ramdas Pophale) SiO2 
 PCOD9214565
Probable space group: C 2/M
;
_chemical_formula_sum "Si O2"
_cell_formula_units_Z 42
_cell_length_a 18.138889
_cell_length_b 14.295184
_cell_length_c 9.545434
_cell_angle_alpha 90.000000
_cell_angle_beta 125.627872
_cell_angle_gamma 90.000000
_cell_volume 2011.820134
_symmetry_space_group_name_H-M "C 2/M"
_symmetry_group_IT_number 12
_symmetry_cell_setting 'monoclinic'
loop_
_space_group_symop_operation_xyz
x,y,z
-x,y,-z
-x,-y,-z
x,-y,z
1/2+x,1/2+y,z
1/2-x,1/2+y,-z
1/2-x,1/2-y,-z
1/2+x,1/2-y,z
loop_
_atom_site_type_symbol
_atom_site_label
_atom_site_fract_x
_atom_site_fract_y
_atom_site_fract_z
Si Si1 0.267940 0.231319 0.719494
Si Si2 0.390284 0.243506 0.123995
Si Si3 0.650532 0.891355 0.660599
Si Si4 0.500000 0.000000 0.000000
Si Si5 0.073500 0.337605 0.287561
Si Si6 0.107117 0.888995 0.650227
O O1 0.240151 0.339507 0.702213
O O2 0.332232 0.203793 0.663632
O O3 0.176738 0.167957 0.627554
O O4 0.326195 0.215172 0.925720
O O5 0.376587 0.167511 0.232580
O O6 0.494420 0.238757 0.194560
O O7 0.371902 0.343433 0.174918
O O8 0.582354 0.875623 0.455489
O O9 0.660148 0.000000 0.702216
O O10 0.456895 0.919244 0.849424
O O11 0.000000 0.871027 0.500000
O O12 0.122821 0.000000 0.660967
#
# Coordination Sequence:
#
# PCOD9214565 Si02
#       6
#     8   8   8   2   8   8
#     4  11  24  42  64  92 126 164 205 258 308 367
#     4  11  23  41  64  94 126 159 203 262 312 363
#     4  11  24  39  63  91 127 166 207 253 310 372
#     4  12  24  40  66  96 124 168 204 258 326 368
#     4  12  24  43  63  94 127 161 209 258 315 371
#     4  10  22  40  62  88 120 164 208 247 299 366
#
# _framework density 20.876618000000001
#
# number of rings (size 3 to 8) (size 9 to 14) (size 15 to 20)
#    0.000    0.952    2.857    5.714    2.667    3.810 
#    0.000    2.857    0.000    2.286    0.000    0.000 
#    0.000    0.000    0.000    0.000    0.000    0.000 
#
# Total GULP energy -117077.927919 kJ/mol
# GULP energy per Si atom -5575.139425 kJ/mol
# Density = 2.082910 g / cm^3
# Si number density = 20.876618 Si / 1000 Ang^3
#
#
#
# Elastic Constant Matrix: (Units=GPa)
#
#
# Indices 1 2 3 4 5 6 
#
# 1 90.6815 14.4374 11.9443 0.0000 15.6101 0.0000
# 2 14.4374 96.5120 14.7901 0.0000 7.1163 0.0000
# 3 11.9443 14.7901 103.9420 0.0000 -2.2157 0.0000
# 4 0.0000 0.0000 0.0000 32.4410 0.0000 2.0277
# 5 15.6101 7.1163 -2.2157 0.0000 21.4189 0.0000
# 6 0.0000 0.0000 0.0000 2.0277 0.0000 -10.2607
#
#
#
# Elastic Compliance Matrix: (Units=1/GPa)
#
#
# Indices 1 2 3 4 5 6 
#
# 1 0.012993 -0.001022 -0.001546 0.000000 -0.009290 0.000000
# 2 -0.001022 0.010971 -0.001509 0.000000 -0.003056 0.000000
# 3 -0.001546 -0.001509 0.010070 0.000000 0.002669 0.000000
# 4 0.000000 0.000000 0.000000 0.030449 0.000000 0.006017
# 5 -0.009290 -0.003056 0.002669 0.000000 0.054750 0.000000
# 6 0.000000 0.000000 0.000000 0.006017 0.000000 -0.096270
#
#
# Mechanical properties :
#
#
# Convention : Reuss Voigt Hill
#
# Bulk Modulus (GPa) = 38.63802 41.49769 40.06786
# Shear Modulus (GPa) = 125.81044 25.38407 75.59726
#
# Velocity S-wave (km/s) = 7.77140 3.49077 6.02412
# Velocity P-wave (km/s) = 9.95360 6.01399 8.22321
#
# Compressibility (1/GPa) = 0.02588125
#
# Stress axis : x y z
#
# Youngs Moduli (GPa) = 76.96429 91.15074 99.30526
#
# Poissons Ratio (x) = 0.09314 0.15350
# Poissons Ratio (y) = 0.07864 0.14983
# Poissons Ratio (z) = 0.11896 0.13753
#
# Static dielectric constant tensor:
#      x y z
#    x 1.795460 0.000000 0.017340 
#    y 0.000000 1.699070 0.000000 
#    z 0.017340 0.000000 1.793040 
# 
# From -- ./inp_files/73732.got.cif
#   From: 2010.05.17/outbox.cif.g08.bks.cpg/sg12_37_cif.got.tgz:73732.got - 2010.06.03 13:09:07.
