data_PCOD9214299
_publ_section_title
;
Structure prediction by ZEFSAII (Michael W. Deem and Ramdas Pophale) SiO2 
 PCOD9214299
Probable space group: C 2/M
;
_chemical_formula_sum "Si O2"
_cell_formula_units_Z 44
_cell_length_a 15.837443
_cell_length_b 10.082202
_cell_length_c 10.515559
_cell_angle_alpha 90.000000
_cell_angle_beta 84.373618
_cell_angle_gamma 90.000000
_cell_volume 1670.996322
_symmetry_space_group_name_H-M "C 2/M"
_symmetry_group_IT_number 12
_symmetry_cell_setting 'monoclinic'
loop_
_space_group_symop_operation_xyz
x,y,z
-x,y,-z
-x,-y,-z
x,-y,z
1/2+x,1/2+y,z
1/2-x,1/2+y,-z
1/2-x,1/2-y,-z
1/2+x,1/2-y,z
loop_
_atom_site_type_symbol
_atom_site_label
_atom_site_fract_x
_atom_site_fract_y
_atom_site_fract_z
Si Si1 0.430758 0.000000 0.263476
Si Si2 0.344176 0.725898 0.938632
Si Si3 0.015602 0.000000 0.687117
Si Si4 0.196822 0.258080 0.330041
Si Si5 0.620267 0.703806 0.790685
Si Si6 0.153156 0.000000 0.455575
Si Si7 0.431168 0.000000 0.593867
Si Si8 0.439679 0.000000 0.919841
O O1 0.386344 0.142572 0.252854
O O2 0.453414 0.000000 0.428187
O O3 0.455749 0.000000 0.087240
O O4 0.334614 0.681882 0.795120
O O5 0.389239 0.865693 0.922849
O O6 0.250000 0.750000 0.000000
O O7 0.383203 0.663406 0.059513
O O8 0.033127 0.863876 0.756987
O O9 0.102831 0.000000 0.593481
O O10 0.930433 0.000000 0.622386
O O11 0.284955 0.327998 0.275597
O O12 0.295813 0.364568 0.573436
O O13 0.127582 0.365431 0.387541
O O14 0.462965 0.000000 0.749201
#
# Coordination Sequence:
#
# PCOD9214299 Si02
#       8
#     4   8   4   8   8   4   4   4
#     4  12  23  41  71 101 135 171 232 279 330 403
#     4  10  22  39  69 100 141 173 216 274 349 411
#     4  11  27  46  63  92 142 177 222 284 342 388
#     4  11  24  46  69 102 136 179 228 275 344 414
#     4  11  24  44  70 104 137 177 221 281 346 414
#     4  11  27  46  65  88 139 185 220 280 346 388
#     4  12  27  44  72 100 130 180 242 283 324 400
#     4  12  20  37  65  99 137 169 217 278 331 394
#
# _framework density 26.331596999999999
#
# number of rings (size 3 to 8) (size 9 to 14) (size 15 to 20)
#    0.000    0.909    3.636    2.182    5.091    5.818 
#    3.273    0.909    0.000    0.000    0.000    0.000 
#    0.000    0.000    0.000    0.000    0.000    0.000 
#
# Total GULP energy -122693.064689 kJ/mol
# GULP energy per Si atom -5576.957486 kJ/mol
# Density = 2.627167 g / cm^3
# Si number density = 26.331597 Si / 1000 Ang^3
#
#
#
# Elastic Constant Matrix: (Units=GPa)
#
#
# Indices 1 2 3 4 5 6 
#
# 1 115.3679 26.0010 28.8820 0.0000 -17.4363 0.0000
# 2 26.0010 93.4941 2.1355 0.0000 -6.7466 0.0000
# 3 28.8820 2.1355 121.3158 0.0000 -11.2295 0.0000
# 4 0.0000 0.0000 0.0000 55.6279 0.0000 -21.0122
# 5 -17.4363 -6.7466 -11.2295 0.0000 56.1773 0.0000
# 6 0.0000 0.0000 0.0000 -21.0122 0.0000 78.4113
#
#
#
# Elastic Compliance Matrix: (Units=1/GPa)
#
#
# Indices 1 2 3 4 5 6 
#
# 1 0.010157 -0.002602 -0.002149 0.000000 0.002410 0.000000
# 2 -0.002602 0.011456 0.000479 0.000000 0.000664 0.000000
# 3 -0.002149 0.000479 0.008854 0.000000 0.001160 0.000000
# 4 0.000000 0.000000 0.000000 0.020001 0.000000 0.005360
# 5 0.002410 0.000664 0.001160 0.000000 0.018861 0.000000
# 6 0.000000 0.000000 0.000000 0.005360 0.000000 0.014190
#
#
# Mechanical properties :
#
#
# Convention : Reuss Voigt Hill
#
# Bulk Modulus (GPa) = 45.61313 49.35720 47.48517
# Shear Modulus (GPa) = 50.31775 56.25391 53.28583
#
# Velocity S-wave (km/s) = 4.37616 4.62710 4.50338
# Velocity P-wave (km/s) = 6.54939 6.87982 6.71664
#
# Compressibility (1/GPa) = 0.02192351
#
# Stress axis : x y z
#
# Youngs Moduli (GPa) = 98.45859 87.28787 112.94894
#
# Poissons Ratio (x) = 0.22708 0.24274
# Poissons Ratio (y) = 0.25614 -0.05412
# Poissons Ratio (z) = 0.21160 -0.04183
#
# Static dielectric constant tensor:
#      x y z
#    x 1.984200 0.000000 -0.100910 
#    y 0.000000 1.815650 0.000000 
#    z -0.100910 0.000000 2.509540 
# 
# From -- ./inp_files/153851.got.cif
#   From: 2010.05.17/outbox.cif.g08.bks.cpg/sg12_77_cif.got.tgz:153851.got - 2010.06.03 13:09:07.
