data_PCOD9214346
_publ_section_title
;
Structure prediction by ZEFSAII (Michael W. Deem and Ramdas Pophale) SiO2 
 PCOD9214346
Probable space group: C 2/M
;
_chemical_formula_sum "Si O2"
_cell_formula_units_Z 44
_cell_length_a 5.111887
_cell_length_b 23.242316
_cell_length_c 21.572076
_cell_angle_alpha 90.000000
_cell_angle_beta 95.870893
_cell_angle_gamma 90.000000
_cell_volume 2549.580208
_symmetry_space_group_name_H-M "C 2/M"
_symmetry_group_IT_number 12
_symmetry_cell_setting 'monoclinic'
loop_
_space_group_symop_operation_xyz
x,y,z
-x,y,-z
-x,-y,-z
x,-y,z
1/2+x,1/2+y,z
1/2-x,1/2+y,-z
1/2-x,1/2-y,-z
1/2+x,1/2-y,z
loop_
_atom_site_type_symbol
_atom_site_label
_atom_site_fract_x
_atom_site_fract_y
_atom_site_fract_z
Si Si1 0.535316 0.932341 0.279664
Si Si2 0.269347 0.500000 0.544375
Si Si3 0.080884 0.098368 0.356535
Si Si4 0.552261 0.286987 0.573361
Si Si5 0.882308 0.070069 0.931515
Si Si6 0.849835 0.569928 0.857590
O O1 0.299669 0.899482 0.308039
O O2 0.590199 0.911997 0.210981
O O3 0.807866 0.926703 0.323501
O O4 0.458285 0.000000 0.275918
O O5 0.500000 0.500000 0.500000
O O6 0.300868 0.555414 0.589040
O O7 0.000000 0.500000 0.500000
O O8 0.013350 0.159046 0.385716
O O9 0.500000 0.302341 0.500000
O O10 0.349447 0.235723 0.584699
O O11 0.074390 0.088096 0.880383
O O12 0.586399 0.087547 0.908772
O O13 0.882112 0.000000 0.933118
O O14 0.000000 0.089281 0.000000
O O15 0.845157 0.500000 0.855925
#
# Coordination Sequence:
#
# PCOD9214346 Si02
#       6
#     8   4   8   8   8   8
#     4  11  20  34  49  72 104 135 171 204 248 306
#     4  12  24  36  52  76 104 128 157 204 259 302
#     4  12  22  37  55  76 102 133 167 209 256 307
#     4  10  22  40  59  77  97 126 167 212 257 310
#     4   9  15  24  37  57  83 119 170 216 242 266
#     4   9  17  26  40  59  87 127 164 205 242 281
#
# _framework density 17.257742
#
# number of rings (size 3 to 8) (size 9 to 14) (size 15 to 20)
#    0.000    1.636    1.818    4.364    0.000    7.273 
#    0.000    0.000    0.000    0.000    0.000    0.000 
#    0.000    0.000    0.000    0.000    0.000  229.091 
#
# Total GULP energy -122817.115116 kJ/mol
# GULP energy per Si atom -5582.596142 kJ/mol
# Density = 1.721846 g / cm^3
# Si number density = 17.257742 Si / 1000 Ang^3
#
#
#
# Elastic Constant Matrix: (Units=GPa)
#
#
# Indices 1 2 3 4 5 6 
#
# 1 63.4627 -9.0129 -9.0275 0.0000 -7.9037 0.0000
# 2 -9.0129 25.6295 14.3429 0.0000 -4.3507 0.0000
# 3 -9.0275 14.3429 49.8515 0.0000 -9.5251 0.0000
# 4 0.0000 0.0000 0.0000 7.2473 0.0000 -7.5224
# 5 -7.9037 -4.3507 -9.5251 0.0000 32.8857 0.0000
# 6 0.0000 0.0000 0.0000 -7.5224 0.0000 13.4726
#
#
#
# Elastic Compliance Matrix: (Units=1/GPa)
#
#
# Indices 1 2 3 4 5 6 
#
# 1 0.017664 0.005702 0.002661 0.000000 0.005770 0.000000
# 2 0.005702 0.048528 -0.012111 0.000000 0.004283 0.000000
# 3 0.002661 -0.012111 0.025239 0.000000 0.006347 0.000000
# 4 0.000000 0.000000 0.000000 0.328180 0.000000 0.183240
# 5 0.005770 0.004283 0.006347 0.000000 0.034200 0.000000
# 6 0.000000 0.000000 0.000000 0.183240 0.000000 0.176537
#
#
# Mechanical properties :
#
#
# Convention : Reuss Voigt Hill
#
# Bulk Modulus (GPa) = 11.91404 14.61652 13.26528
# Shear Modulus (GPa) = 7.50952 20.23051 13.87001
#
# Velocity S-wave (km/s) = 2.08826 3.42754 2.83803
# Velocity P-wave (km/s) = 3.56834 4.91446 4.29447
#
# Compressibility (1/GPa) = 0.08393461
#
# Stress axis : x y z
#
# Youngs Moduli (GPa) = 56.61147 20.60686 39.62170
#
# Poissons Ratio (x) = -0.11751 -0.10542
# Poissons Ratio (y) = -0.32282 0.47986
# Poissons Ratio (z) = -0.15063 0.24957
#
# Static dielectric constant tensor:
#      x y z
#    x 1.587640 0.000000 -0.004490 
#    y 0.000000 1.563370 0.000000 
#    z -0.004490 0.000000 1.599140 
# 
# From -- ./inp_files/252905.got.cif
#   From: 2010.05.17/outbox.cif.g08.bks.cpg/sg12_127_cif.got.tgz:252905.got - 2010.06.03 13:09:07.
