data_PCOD9214460
_publ_section_title
;
Structure prediction by ZEFSAII (Michael W. Deem and Ramdas Pophale) SiO2 
 PCOD9214460
Probable space group: C 2/M
;
_chemical_formula_sum "Si O2"
_cell_formula_units_Z 56
_cell_length_a 18.183383
_cell_length_b 9.035632
_cell_length_c 19.102508
_cell_angle_alpha 90.000000
_cell_angle_beta 104.002825
_cell_angle_gamma 90.000000
_cell_volume 3045.246064
_symmetry_space_group_name_H-M "C 2/M"
_symmetry_group_IT_number 12
_symmetry_cell_setting 'monoclinic'
loop_
_space_group_symop_operation_xyz
x,y,z
-x,y,-z
-x,-y,-z
x,-y,z
1/2+x,1/2+y,z
1/2-x,1/2+y,-z
1/2-x,1/2-y,-z
1/2+x,1/2-y,z
loop_
_atom_site_type_symbol
_atom_site_label
_atom_site_fract_x
_atom_site_fract_y
_atom_site_fract_z
Si Si1 0.196266 0.823963 0.929901
Si Si2 0.597085 0.177470 0.206460
Si Si3 0.910524 0.829024 0.500048
Si Si4 0.048467 0.677356 0.352217
Si Si5 0.623347 0.177213 0.647586
Si Si6 0.020048 0.824688 0.924645
Si Si7 0.256524 0.821966 0.204778
O O1 0.108848 0.802223 0.931180
O O2 0.212186 0.748544 0.859206
O O3 0.210788 0.000000 0.929447
O O4 0.250000 0.750000 0.000000
O O5 0.577220 0.218019 0.282015
O O6 0.530092 0.231603 0.140524
O O7 0.673932 0.256814 0.200818
O O8 0.605097 0.000000 0.204221
O O9 0.905379 0.750657 0.573803
O O10 0.867832 0.751592 0.426050
O O11 0.000000 0.819975 0.500000
O O12 0.889309 0.000000 0.500311
O O13 0.052986 0.500000 0.360433
O O14 0.959736 0.718880 0.341276
O O15 0.687580 0.216575 0.718148
O O16 0.623475 0.000000 0.638643
O O17 0.003262 0.000000 0.911305
O O18 0.000000 0.786196 0.000000
O O19 0.253773 0.000000 0.197681
#
# Coordination Sequence:
#
# PCOD9214460 Si02
#       7
#     8   8   8   8   8   8   8
#     4  11  23  39  62  90 119 151 187 229 277 331
#     4  11  23  38  58  84 113 148 191 236 282 334
#     4   9  17  29  50  81 111 139 177 228 281 332
#     4   9  18  34  55  79 108 142 183 229 278 337
#     4   9  18  34  56  79 106 145 187 228 279 336
#     4  10  22  40  61  86 116 149 184 226 278 333
#     4  11  23  39  58  81 114 153 192 234 282 335
#
# _framework density 18.389317999999999
#
# number of rings (size 3 to 8) (size 9 to 14) (size 15 to 20)
#    0.000    2.000    0.000    3.429    0.000    7.714 
#    0.000    3.571    0.000    0.000    0.000    0.000 
#    0.000    0.000    0.000    0.000    0.000    0.000 
#
# Total GULP energy -156405.926793 kJ/mol
# GULP energy per Si atom -5585.925957 kJ/mol
# Density = 1.834746 g / cm^3
# Si number density = 18.389318 Si / 1000 Ang^3
#
#
#
# Elastic Constant Matrix: (Units=GPa)
#
#
# Indices 1 2 3 4 5 6 
#
# 1 82.4086 54.5559 71.5632 0.0000 -4.8769 0.0000
# 2 54.5559 70.6040 83.4559 0.0000 0.6564 0.0000
# 3 71.5632 83.4559 187.5240 0.0000 -2.8720 0.0000
# 4 0.0000 0.0000 0.0000 32.8476 0.0000 0.8980
# 5 -4.8769 0.6564 -2.8720 0.0000 30.8601 0.0000
# 6 0.0000 0.0000 0.0000 0.8980 0.0000 20.7369
#
#
#
# Elastic Compliance Matrix: (Units=1/GPa)
#
#
# Indices 1 2 3 4 5 6 
#
# 1 0.025744 -0.017716 -0.001874 0.000000 0.004271 0.000000
# 2 -0.017716 0.042185 -0.012087 0.000000 -0.004822 0.000000
# 3 -0.001874 -0.012087 0.011443 0.000000 0.001026 0.000000
# 4 0.000000 0.000000 0.000000 0.030480 0.000000 -0.001320
# 5 0.004271 -0.004822 0.001026 0.000000 0.033277 0.000000
# 6 0.000000 0.000000 0.000000 -0.001320 0.000000 0.048280
#
#
# Mechanical properties :
#
#
# Convention : Reuss Voigt Hill
#
# Bulk Modulus (GPa) = 62.43720 84.40962 73.42341
# Shear Modulus (GPa) = 19.22319 25.61969 22.42144
#
# Velocity S-wave (km/s) = 3.23669 3.73659 3.49558
# Velocity P-wave (km/s) = 6.92783 8.03848 7.50373
#
# Compressibility (1/GPa) = 0.01601609
#
# Stress axis : x y z
#
# Youngs Moduli (GPa) = 38.84465 23.70521 87.39044
#
# Poissons Ratio (x) = 0.41997 0.16381
# Poissons Ratio (y) = 0.68818 1.05629
# Poissons Ratio (z) = 0.07281 0.28652
#
# Static dielectric constant tensor:
#      x y z
#    x 1.616200 0.000000 -0.001570 
#    y 0.000000 1.614260 0.000000 
#    z -0.001570 0.000000 1.604920 
# 
# From -- ./inp_files/275545.got.cif
#   From: 2010.05.17/outbox.cif.g08.bks.cpg/sg12_138_cif.got.tgz:275545.got - 2010.06.03 13:09:07.
