data_PCOD9214499
_publ_section_title
;
Structure prediction by ZEFSAII (Michael W. Deem and Ramdas Pophale) SiO2 
 PCOD9214499
Probable space group: C 2/M
;
_chemical_formula_sum "Si O2"
_cell_formula_units_Z 42
_cell_length_a 9.827380
_cell_length_b 7.471229
_cell_length_c 23.769560
_cell_angle_alpha 90.000000
_cell_angle_beta 67.486300
_cell_angle_gamma 90.000000
_cell_volume 1612.216115
_symmetry_space_group_name_H-M "C 2/M"
_symmetry_group_IT_number 12
_symmetry_cell_setting 'monoclinic'
loop_
_space_group_symop_operation_xyz
x,y,z
-x,y,-z
-x,-y,-z
x,-y,z
1/2+x,1/2+y,z
1/2-x,1/2+y,-z
1/2-x,1/2-y,-z
1/2+x,1/2-y,z
loop_
_atom_site_type_symbol
_atom_site_label
_atom_site_fract_x
_atom_site_fract_y
_atom_site_fract_z
Si Si1 0.604851 0.212123 0.560618
Si Si2 0.933534 0.793584 0.137788
Si Si3 0.500000 0.500000 0.500000
Si Si4 0.750702 0.286714 0.065891
Si Si5 0.343519 0.792951 0.752935
Si Si6 0.839518 0.283945 0.319476
O O1 0.750000 0.250000 0.500000
O O2 0.488018 0.343136 0.550782
O O3 0.645427 0.263591 0.617727
O O4 0.571454 0.000000 0.563462
O O5 0.885327 0.789110 0.080145
O O6 0.795141 0.709547 0.192520
O O7 0.096516 0.715617 0.116159
O O8 0.944326 0.000000 0.153957
O O9 0.755431 0.500000 0.072076
O O10 0.750000 0.250000 0.000000
O O11 0.296841 0.786364 0.694714
O O12 0.507126 0.718388 0.733232
O O13 0.352709 0.000000 0.768549
O O14 0.835703 0.500000 0.317382
#
# Coordination Sequence:
#
# PCOD9214499 Si02
#       6
#     8   8   2   8   8   8
#     4  11  25  44  67  99 132 173 221 274 334 402
#     4  10  22  40  61  88 124 160 203 255 308 369
#     4  12  26  44  72  92 132 180 214 276 342 388
#     4  11  23  38  60  90 121 160 205 252 306 368
#     4  10  22  41  64  90 123 163 205 255 314 373
#     4  10  24  41  63  94 125 161 211 263 313 385
#
# _framework density 26.051100000000002
#
# number of rings (size 3 to 8) (size 9 to 14) (size 15 to 20)
#    0.000    1.524    0.952    2.571    4.000    5.333 
#    0.000    0.000    0.000    0.000    0.000    0.000 
#    0.000    0.000    0.000    0.000    0.000    0.000 
#
# Total GULP energy -117362.754927 kJ/mol
# GULP energy per Si atom -5588.702616 kJ/mol
# Density = 2.599181 g / cm^3
# Si number density = 26.051100 Si / 1000 Ang^3
#
#
#
# Elastic Constant Matrix: (Units=GPa)
#
#
# Indices 1 2 3 4 5 6 
#
# 1 113.1472 3.8399 1.9395 0.0000 5.8890 0.0000
# 2 3.8399 126.5610 14.3076 0.0000 9.2118 0.0000
# 3 1.9395 14.3076 96.2191 0.0000 11.5429 0.0000
# 4 0.0000 0.0000 0.0000 28.4660 0.0000 12.0671
# 5 5.8890 9.2118 11.5429 0.0000 53.2013 0.0000
# 6 0.0000 0.0000 0.0000 12.0671 0.0000 16.3174
#
#
#
# Elastic Compliance Matrix: (Units=1/GPa)
#
#
# Indices 1 2 3 4 5 6 
#
# 1 0.008894 -0.000197 -0.000037 0.000000 -0.000942 0.000000
# 2 -0.000197 0.008111 -0.001064 0.000000 -0.001152 0.000000
# 3 -0.000037 -0.001064 0.010811 0.000000 -0.002157 0.000000
# 4 0.000000 0.000000 0.000000 0.051171 0.000000 -0.037842
# 5 -0.000942 -0.001152 -0.002157 0.000000 0.019568 0.000000
# 6 0.000000 0.000000 0.000000 -0.037842 0.000000 0.089270
#
#
# Mechanical properties :
#
#
# Convention : Reuss Voigt Hill
#
# Bulk Modulus (GPa) = 39.65027 41.78904 40.71965
# Shear Modulus (GPa) = 25.14725 40.65296 32.90011
#
# Velocity S-wave (km/s) = 3.11031 3.95461 3.55760
# Velocity P-wave (km/s) = 5.30584 6.07684 5.70438
#
# Compressibility (1/GPa) = 0.02522051
#
# Stress axis : x y z
#
# Youngs Moduli (GPa) = 112.43006 123.28287 92.50093
#
# Poissons Ratio (x) = 0.02430 0.00342
# Poissons Ratio (y) = 0.02216 0.09842
# Poissons Ratio (z) = 0.00415 0.13117
#
# Static dielectric constant tensor:
#      x y z
#    x 2.247770 0.000000 -0.090450 
#    y 0.000000 1.973370 0.000000 
#    z -0.090450 0.000000 2.111070 
# 
# From -- ./inp_files/303576.got.cif
#   From: 2010.05.17/outbox.cif.g08.bks.cpg/sg12_152_cif.got.tgz:303576.got - 2010.06.03 13:09:07.
