data_PCOD9214427
_publ_section_title
;
Structure prediction by ZEFSAII (Michael W. Deem and Ramdas Pophale) SiO2 
 PCOD9214427
Probable space group: C 2/M
;
_chemical_formula_sum "Si O2"
_cell_formula_units_Z 40
_cell_length_a 13.950403
_cell_length_b 10.911797
_cell_length_c 15.371894
_cell_angle_alpha 90.000000
_cell_angle_beta 132.352877
_cell_angle_gamma 90.000000
_cell_volume 1729.260952
_symmetry_space_group_name_H-M "C 2/M"
_symmetry_group_IT_number 12
_symmetry_cell_setting 'monoclinic'
loop_
_space_group_symop_operation_xyz
x,y,z
-x,y,-z
-x,-y,-z
x,-y,z
1/2+x,1/2+y,z
1/2-x,1/2+y,-z
1/2-x,1/2-y,-z
1/2+x,1/2-y,z
loop_
_atom_site_type_symbol
_atom_site_label
_atom_site_fract_x
_atom_site_fract_y
_atom_site_fract_z
Si Si1 0.402682 0.131683 0.768128
Si Si2 0.993165 0.308205 0.636383
Si Si3 0.908980 0.219407 0.016446
Si Si4 0.343649 0.636483 0.166938
Si Si5 0.286685 0.861069 0.365751
O O1 0.469754 0.129993 0.714682
O O2 0.513331 0.159077 0.905962
O O3 0.312641 0.251697 0.713473
O O4 0.338066 0.000000 0.742668
O O5 0.864360 0.322538 0.500487
O O6 0.042720 0.174230 0.696924
O O7 0.106456 0.361689 0.645442
O O8 0.889593 0.146829 0.094493
O O9 0.770777 0.263243 0.896028
O O10 0.000000 0.157806 0.000000
O O11 0.297734 0.500000 0.155199
O O12 0.233790 0.000000 0.342092
#
# Coordination Sequence:
#
# PCOD9214427 Si02
#       5
#     8   8   8   8   8
#     4  11  23  39  62  92 125 161 203 253 307 360
#     4  10  22  40  62  87 120 161 203 247 304 364
#     4  10  22  40  60  87 122 162 203 246 306 369
#     4  10  22  40  62  90 123 159 204 256 303 357
#     4  11  23  41  65  90 121 164 209 249 299 366
#
# _framework density 23.131267999999999
#
# number of rings (size 3 to 8) (size 9 to 14) (size 15 to 20)
#    0.000    1.600    0.000    4.800    0.000    8.400 
#    0.000   10.000    0.000    0.000    0.000    0.000 
#    0.000    0.000    0.000    0.000    0.000    0.000 
#
# Total GULP energy -111745.692759 kJ/mol
# GULP energy per Si atom -5587.284638 kJ/mol
# Density = 2.307862 g / cm^3
# Si number density = 23.131268 Si / 1000 Ang^3
#
#
#
# Elastic Constant Matrix: (Units=GPa)
#
#
# Indices 1 2 3 4 5 6 
#
# 1 107.9521 13.8349 15.3807 0.0000 -22.0261 0.0000
# 2 13.8349 133.1677 40.1591 0.0000 15.5087 0.0000
# 3 15.3807 40.1591 94.0037 0.0000 -14.5728 0.0000
# 4 0.0000 0.0000 0.0000 -3.7263 0.0000 20.9783
# 5 -22.0261 15.5087 -14.5728 0.0000 37.9359 0.0000
# 6 0.0000 0.0000 0.0000 20.9783 0.0000 3.6977
#
#
#
# Elastic Compliance Matrix: (Units=1/GPa)
#
#
# Indices 1 2 3 4 5 6 
#
# 1 0.010986 -0.002056 0.000212 0.000000 0.007301 0.000000
# 2 -0.002056 0.010115 -0.005116 0.000000 -0.007294 0.000000
# 3 0.000212 -0.005116 0.013963 0.000000 0.007579 0.000000
# 4 0.000000 0.000000 0.000000 -0.008147 0.000000 0.046221
# 5 0.007301 -0.007294 0.007579 0.000000 0.036492 0.000000
# 6 0.000000 0.000000 0.000000 0.046221 0.000000 0.008210
#
#
# Mechanical properties :
#
#
# Convention : Reuss Voigt Hill
#
# Bulk Modulus (GPa) = 47.28809 52.65253 49.97031
# Shear Modulus (GPa) = 54.00367 25.29806 39.65087
#
# Velocity S-wave (km/s) = 4.83707 3.31066 4.14474
# Velocity P-wave (km/s) = 7.18917 6.11767 6.67495
#
# Compressibility (1/GPa) = 0.02114697
#
# Stress axis : x y z
#
# Youngs Moduli (GPa) = 91.02365 98.86286 71.61576
#
# Poissons Ratio (x) = 0.20323 -0.01521
# Poissons Ratio (y) = 0.18711 0.36636
# Poissons Ratio (z) = -0.01934 0.50574
#
# Static dielectric constant tensor:
#      x y z
#    x 1.913880 0.000000 0.007880 
#    y 0.000000 1.849510 0.000000 
#    z 0.007880 0.000000 1.854060 
# 
# From -- ./inp_files/213049.got.cif
#   From: 2010.05.17/outbox.cif.g08.bks.cpg/sg12_107_cif.got.tgz:213049.got - 2010.06.03 13:09:07.
