data_PCOD9214128
_publ_section_title
;
Structure prediction by ZEFSAII (Michael W. Deem and Ramdas Pophale) SiO2 
 PCOD9214128
Probable space group: C 2/M
;
_chemical_formula_sum "Si O2"
_cell_formula_units_Z 50
_cell_length_a 24.434186
_cell_length_b 17.734957
_cell_length_c 5.471547
_cell_angle_alpha 90.000000
_cell_angle_beta 105.914599
_cell_angle_gamma 90.000000
_cell_volume 2280.157691
_symmetry_space_group_name_H-M "C 2/M"
_symmetry_group_IT_number 12
_symmetry_cell_setting 'monoclinic'
loop_
_space_group_symop_operation_xyz
x,y,z
-x,y,-z
-x,-y,-z
x,-y,z
1/2+x,1/2+y,z
1/2-x,1/2+y,-z
1/2-x,1/2-y,-z
1/2+x,1/2-y,z
loop_
_atom_site_type_symbol
_atom_site_label
_atom_site_fract_x
_atom_site_fract_y
_atom_site_fract_z
Si Si1 0.603995 0.376299 0.605531
Si Si2 0.777903 0.329954 0.496189
Si Si3 0.547568 0.082425 0.260840
Si Si4 0.842787 0.584097 0.938547
Si Si5 0.894355 0.299134 0.379831
Si Si6 0.826401 0.911075 0.812022
Si Si7 0.000000 0.000000 0.500000
O O1 0.589277 0.287757 0.626160
O O2 0.638709 0.383928 0.389653
O O3 0.550267 0.433323 0.533901
O O4 0.640900 0.395708 0.893480
O O5 0.750000 0.250000 0.500000
O O6 0.786375 0.385766 0.736145
O O7 0.840692 0.305607 0.494215
O O8 0.735832 0.372939 0.261224
O O9 0.608089 0.075086 0.201958
O O10 0.555093 0.150449 0.453634
O O11 0.537427 0.000000 0.358532
O O12 0.500000 0.096545 0.000000
O O13 0.835742 0.500000 0.045826
O O14 0.868043 0.652603 0.126338
O O15 0.820016 0.000000 0.776645
#
# Coordination Sequence:
#
# PCOD9214128 Si02
#       7
#     8   8   8   8   8   8   2
#     4  12  28  47  77 104 144 192 252 314 374 442
#     4  11  23  41  67  97 143 185 235 303 364 444
#     4   9  20  40  64  94 137 182 229 289 357 438
#     4  10  22  39  63 100 139 183 235 292 368 446
#     4  11  24  42  66 103 139 184 241 302 373 440
#     4  12  25  48  72 107 143 192 247 302 379 456
#     4  12  28  58  76 110 146 202 252 330 366 438
#
# _framework density 21.92831
#
# number of rings (size 3 to 8) (size 9 to 14) (size 15 to 20)
#    0.000    1.120    3.200    1.920    4.480    6.400 
#    0.000    2.400    0.000    0.000    0.000    0.000 
#    0.000    0.000    0.000    0.000    0.000    0.000 
#
# Total GULP energy -139185.689605 kJ/mol
# GULP energy per Si atom -5567.427584 kJ/mol
# Density = 2.187840 g / cm^3
# Si number density = 21.928310 Si / 1000 Ang^3
#
#
#
# Elastic Constant Matrix: (Units=GPa)
#
#
# Indices 1 2 3 4 5 6 
#
# 1 63.7239 35.5332 34.8495 0.0000 24.9342 0.0000
# 2 35.5332 274.2055 6.1155 0.0000 7.1856 0.0000
# 3 34.8495 6.1155 87.1098 0.0000 16.1782 0.0000
# 4 0.0000 0.0000 0.0000 47.2773 0.0000 20.7677
# 5 24.9342 7.1856 16.1782 0.0000 31.5650 0.0000
# 6 0.0000 0.0000 0.0000 20.7677 0.0000 55.8107
#
#
#
# Elastic Compliance Matrix: (Units=1/GPa)
#
#
# Indices 1 2 3 4 5 6 
#
# 1 0.028799 -0.003083 -0.007969 0.000000 -0.017963 0.000000
# 2 -0.003083 0.004000 0.000740 0.000000 0.001146 0.000000
# 3 -0.007969 0.000740 0.014896 0.000000 -0.001508 0.000000
# 4 0.000000 0.000000 0.000000 0.025285 0.000000 -0.009409
# 5 -0.017963 0.001146 -0.001508 0.000000 0.046382 0.000000
# 6 0.000000 0.000000 0.000000 -0.009409 0.000000 0.021419
#
#
# Mechanical properties :
#
#
# Convention : Reuss Voigt Hill
#
# Bulk Modulus (GPa) = 36.94122 64.22618 50.58370
# Shear Modulus (GPa) = 29.33785 50.16667 39.75226
#
# Velocity S-wave (km/s) = 3.66170 4.78824 4.26235
# Velocity P-wave (km/s) = 5.89579 7.74096 6.88051
#
# Compressibility (1/GPa) = 0.02707003
#
# Stress axis : x y z
#
# Youngs Moduli (GPa) = 34.72384 250.00357 67.13226
#
# Poissons Ratio (x) = 0.77088 0.53496
# Poissons Ratio (y) = 0.10707 -0.04967
# Poissons Ratio (z) = 0.27671 -0.18499
#
# Static dielectric constant tensor:
#      x y z
#    x 2.340100 0.000000 -0.264980 
#    y 0.000000 1.806310 0.000000 
#    z -0.264980 0.000000 1.948270 
# 
# From -- ./inp_files/28719.got.cif
#   From: 2010.05.17/outbox.cif.g08.bks.cpg/sg12_15_cif.got.tgz:28719.got - 2010.06.03 13:09:07.
