data_PCOD9214755
_publ_section_title
;
Structure prediction by ZEFSAII (Michael W. Deem and Ramdas Pophale) SiO2 
 PCOD9214755
Probable space group: C 2/M
;
_chemical_formula_sum "Si O2"
_cell_formula_units_Z 56
_cell_length_a 16.573117
_cell_length_b 17.479062
_cell_length_c 14.849912
_cell_angle_alpha 90.000000
_cell_angle_beta 41.982858
_cell_angle_gamma 90.000000
_cell_volume 2877.482854
_symmetry_space_group_name_H-M "C 2/M"
_symmetry_group_IT_number 12
_symmetry_cell_setting 'monoclinic'
loop_
_space_group_symop_operation_xyz
x,y,z
-x,y,-z
-x,-y,-z
x,-y,z
1/2+x,1/2+y,z
1/2-x,1/2+y,-z
1/2-x,1/2-y,-z
1/2+x,1/2-y,z
loop_
_atom_site_type_symbol
_atom_site_label
_atom_site_fract_x
_atom_site_fract_y
_atom_site_fract_z
Si Si1 0.527522 0.731096 0.082363
Si Si2 0.244993 0.174274 0.139505
Si Si3 0.503734 0.744242 0.396245
Si Si4 0.877898 0.090530 0.449690
Si Si5 0.586537 0.584155 0.134478
Si Si6 0.388154 0.915378 0.160558
Si Si7 0.619437 0.827795 0.666435
O O1 0.573449 0.648089 0.070560
O O2 0.413978 0.756314 0.238670
O O3 0.500000 0.736076 0.000000
O O4 0.641031 0.787281 0.003256
O O5 0.186296 0.110117 0.124697
O O6 0.289151 0.139851 0.198371
O O7 0.139056 0.234317 0.246920
O O8 0.500000 0.775458 0.500000
O O9 0.450318 0.656927 0.444257
O O10 0.433119 0.797698 0.383846
O O11 0.751039 0.134915 0.541825
O O12 0.959208 0.084498 0.293013
O O13 0.867329 0.000000 0.489572
O O14 0.612839 0.500000 0.078445
O O15 0.432201 0.893213 0.223472
O O16 0.337821 0.000000 0.202407
O O17 0.500000 0.912703 0.000000
#
# Coordination Sequence:
#
# PCOD9214755 Si02
#       7
#     8   8   8   8   8   8   8
#     4  12  23  38  65  92 121 166 208 248 300 372
#     4  11  20  39  61  90 127 153 201 258 307 363
#     4  11  25  37  63  90 120 161 206 248 306 365
#     4  10  22  40  64  88 119 159 206 256 310 357
#     4  10  23  40  60  90 125 165 203 255 306 358
#     4  11  22  36  60  92 124 158 196 246 308 365
#     4  12  21  40  59  89 124 158 201 254 299 367
#
# _framework density 19.461452999999999
#
# number of rings (size 3 to 8) (size 9 to 14) (size 15 to 20)
#    0.000    1.000    5.714    2.571    0.000    1.143 
#    0.000    0.000    0.000    1.714    0.000    0.000 
#    0.000    0.000    0.000    0.000    0.000    0.000 
#
# Total GULP energy -155900.136380 kJ/mol
# GULP energy per Si atom -5567.862014 kJ/mol
# Density = 1.941716 g / cm^3
# Si number density = 19.461453 Si / 1000 Ang^3
#
#
#
# Elastic Constant Matrix: (Units=GPa)
#
#
# Indices 1 2 3 4 5 6 
#
# 1 88.6536 49.5811 40.8282 0.0000 8.1232 0.0000
# 2 49.5811 111.5921 31.3601 0.0000 -1.4610 0.0000
# 3 40.8282 31.3601 73.6758 0.0000 -8.7901 0.0000
# 4 0.0000 0.0000 0.0000 17.9917 0.0000 4.4053
# 5 8.1232 -1.4610 -8.7901 0.0000 33.8399 0.0000
# 6 0.0000 0.0000 0.0000 4.4053 0.0000 14.1196
#
#
#
# Elastic Compliance Matrix: (Units=1/GPa)
#
#
# Indices 1 2 3 4 5 6 
#
# 1 0.019650 -0.006270 -0.009097 0.000000 -0.007351 0.000000
# 2 -0.006270 0.012196 -0.001521 0.000000 0.001637 0.000000
# 3 -0.009097 -0.001521 0.020139 0.000000 0.007349 0.000000
# 4 0.000000 0.000000 0.000000 0.060178 0.000000 -0.018775
# 5 -0.007351 0.001637 0.007349 0.000000 0.033295 0.000000
# 6 0.000000 0.000000 0.000000 -0.018775 0.000000 0.076681
#
#
# Mechanical properties :
#
#
# Convention : Reuss Voigt Hill
#
# Bulk Modulus (GPa) = 54.92380 57.49559 56.20970
# Shear Modulus (GPa) = 19.08505 23.33371 21.20938
#
# Velocity S-wave (km/s) = 3.13494 3.46637 3.30482
# Velocity P-wave (km/s) = 6.43327 6.75488 6.59604
#
# Compressibility (1/GPa) = 0.01820704
#
# Stress axis : x y z
#
# Youngs Moduli (GPa) = 50.89143 81.99372 49.65587
#
# Poissons Ratio (x) = 0.51412 0.45173
# Poissons Ratio (y) = 0.31910 0.07554
# Poissons Ratio (z) = 0.46297 0.12474
#
# Static dielectric constant tensor:
#      x y z
#    x 1.701850 0.000000 -0.012550 
#    y 0.000000 1.716860 0.000000 
#    z -0.012550 0.000000 1.733690 
# 
# From -- ./inp_files/216321.got.cif
#   From: 2010.05.17/outbox.cif.g08.bks.cpg/sg12_109_cif.got.tgz:216321.got - 2010.06.03 13:09:07.
