data_PCOD9214676
_publ_section_title
;
Structure prediction by ZEFSAII (Michael W. Deem and Ramdas Pophale) SiO2 
 PCOD9214676
Probable space group: C 2/M
;
_chemical_formula_sum "Si O2"
_cell_formula_units_Z 60
_cell_length_a 19.956841
_cell_length_b 30.603649
_cell_length_c 6.401537
_cell_angle_alpha 90.000000
_cell_angle_beta 123.584885
_cell_angle_gamma 90.000000
_cell_volume 3257.086594
_symmetry_space_group_name_H-M "C 2/M"
_symmetry_group_IT_number 12
_symmetry_cell_setting 'monoclinic'
loop_
_space_group_symop_operation_xyz
x,y,z
-x,y,-z
-x,-y,-z
x,-y,z
1/2+x,1/2+y,z
1/2-x,1/2+y,-z
1/2-x,1/2-y,-z
1/2+x,1/2-y,z
loop_
_atom_site_type_symbol
_atom_site_label
_atom_site_fract_x
_atom_site_fract_y
_atom_site_fract_z
Si Si1 0.103314 0.311914 0.635753
Si Si2 0.900867 0.216839 0.193291
Si Si3 0.000000 0.833634 0.000000
Si Si4 0.242549 0.208098 0.350315
Si Si5 0.076045 0.618525 0.275833
Si Si6 0.187589 0.619678 0.086869
Si Si7 0.855022 0.848738 0.488210
Si Si8 0.597540 0.949297 0.654733
O O1 0.078156 0.266263 0.699112
O O2 0.169489 0.300704 0.578218
O O3 0.048277 0.344080 0.395827
O O4 0.152022 0.341876 0.881423
O O5 0.890608 0.184337 0.373487
O O6 0.957022 0.197021 0.103994
O O7 0.812818 0.217887 0.942661
O O8 0.934238 0.862072 0.758302
O O9 0.250000 0.250000 0.500000
O O10 0.197228 0.174406 0.421187
O O11 0.110741 0.578399 0.468534
O O12 0.147429 0.629195 0.240249
O O13 0.000000 0.607452 0.000000
O O14 0.146823 0.575880 0.920542
O O15 0.285282 0.620994 0.263391
O O16 0.500000 0.946895 0.500000
O O17 0.619808 0.000000 0.683581
#
# Coordination Sequence:
#
# PCOD9214676 Si02
#       8
#     8   8   4   8   8   8   8   8
#     4  11  22  35  54  77 111 151 201 247 287 341
#     4  11  22  39  52  75 113 154 207 256 299 338
#     4  10  26  38  52  80 111 154 211 256 304 340
#     4  11  19  32  55  79  99 148 203 246 299 343
#     4  11  23  39  53  86 119 152 192 234 290 339
#     4  11  22  39  61  83 114 154 191 235 294 348
#     4  11  21  39  58  78 112 151 202 254 296 345
#     4  10  22  40  63  91 120 149 185 226 281 359
#
# _framework density 18.421372000000002
#
# number of rings (size 3 to 8) (size 9 to 14) (size 15 to 20)
#    0.000    1.200    5.333    1.600    0.000    0.800 
#    7.200    0.000    0.000    0.000    0.000    0.467 
#    0.000    3.200    0.000    0.133    0.000    0.000 
#
# Total GULP energy -167082.927963 kJ/mol
# GULP energy per Si atom -5569.430932 kJ/mol
# Density = 1.837944 g / cm^3
# Si number density = 18.421372 Si / 1000 Ang^3
#
#
#
# Elastic Constant Matrix: (Units=GPa)
#
#
# Indices 1 2 3 4 5 6 
#
# 1 57.7887 19.0996 21.8815 0.0000 -2.5974 0.0000
# 2 19.0996 76.0095 39.9037 0.0000 -1.3060 0.0000
# 3 21.8815 39.9037 124.0297 0.0000 14.6918 0.0000
# 4 0.0000 0.0000 0.0000 7.3446 0.0000 4.6726
# 5 -2.5974 -1.3060 14.6918 0.0000 43.6187 0.0000
# 6 0.0000 0.0000 0.0000 4.6726 0.0000 13.2285
#
#
#
# Elastic Compliance Matrix: (Units=1/GPa)
#
#
# Indices 1 2 3 4 5 6 
#
# 1 0.019519 -0.003544 -0.002529 0.000000 0.001908 0.000000
# 2 -0.003544 0.016694 -0.004979 0.000000 0.001966 0.000000
# 3 -0.002529 -0.004979 0.010568 0.000000 -0.003859 0.000000
# 4 0.000000 0.000000 0.000000 0.175618 0.000000 -0.062032
# 5 0.001908 0.001966 -0.003859 0.000000 0.024398 0.000000
# 6 0.000000 0.000000 0.000000 -0.062032 0.000000 0.097506
#
#
# Mechanical properties :
#
#
# Convention : Reuss Voigt Hill
#
# Bulk Modulus (GPa) = 40.52348 46.62194 43.57271
# Shear Modulus (GPa) = 13.34638 24.63457 18.99047
#
# Velocity S-wave (km/s) = 2.69458 3.66085 3.21424
# Velocity P-wave (km/s) = 5.63266 6.57516 6.12207
#
# Compressibility (1/GPa) = 0.02467705
#
# Stress axis : x y z
#
# Youngs Moduli (GPa) = 51.23135 59.90087 94.62796
#
# Poissons Ratio (x) = 0.21229 0.23935
# Poissons Ratio (y) = 0.18157 0.47111
# Poissons Ratio (z) = 0.12959 0.29822
#
# Static dielectric constant tensor:
#      x y z
#    x 1.686200 0.000000 0.043960 
#    y 0.000000 1.636760 0.000000 
#    z 0.043960 0.000000 1.689090 
# 
# From -- ./inp_files/22480.got.cif
#   From: 2010.05.17/outbox.cif.g08.bks.cpg/sg12_12_cif.got.tgz:22480.got - 2010.06.03 13:09:07.
