data_PCOD9214846
_publ_section_title
;
Structure prediction by ZEFSAII (Michael W. Deem and Ramdas Pophale) SiO2 
 PCOD9214846
Probable space group: C 2/M
;
_chemical_formula_sum "Si O2"
_cell_formula_units_Z 64
_cell_length_a 17.141927
_cell_length_b 14.065488
_cell_length_c 17.893520
_cell_angle_alpha 90.000000
_cell_angle_beta 41.632596
_cell_angle_gamma 90.000000
_cell_volume 2866.211080
_symmetry_space_group_name_H-M "C 2/M"
_symmetry_group_IT_number 12
_symmetry_cell_setting 'monoclinic'
loop_
_space_group_symop_operation_xyz
x,y,z
-x,y,-z
-x,-y,-z
x,-y,z
1/2+x,1/2+y,z
1/2-x,1/2+y,-z
1/2-x,1/2-y,-z
1/2+x,1/2-y,z
loop_
_atom_site_type_symbol
_atom_site_label
_atom_site_fract_x
_atom_site_fract_y
_atom_site_fract_z
Si Si1 0.308192 0.714760 0.243957
Si Si2 0.003380 0.108061 0.357539
Si Si3 0.791161 0.615347 0.983415
Si Si4 0.255130 0.683005 0.568147
Si Si5 0.971628 0.114073 0.838379
Si Si6 0.359723 0.892564 0.103487
Si Si7 0.502052 0.888376 0.727231
Si Si8 0.428902 0.198408 0.626479
O O1 0.236564 0.747687 0.367994
O O2 0.426297 0.663076 0.186249
O O3 0.335540 0.809045 0.178263
O O4 0.204589 0.658717 0.275697
O O5 0.867785 0.117115 0.479052
O O6 0.009501 0.130666 0.264225
O O7 0.071152 0.187730 0.356476
O O8 0.044377 0.000000 0.338560
O O9 0.791968 0.500000 0.979414
O O10 0.899870 0.649338 0.855222
O O11 0.662011 0.645634 0.048602
O O12 0.809933 0.635444 0.057626
O O13 0.250000 0.750000 0.500000
O O14 0.131332 0.630674 0.666069
O O15 0.979347 0.000000 0.843755
O O16 0.317680 0.000000 0.152566
O O17 0.500000 0.898950 0.000000
O O18 0.494739 0.842492 0.651260
O O19 0.484634 0.000000 0.732225
O O20 0.500000 0.177155 0.500000
#
# Coordination Sequence:
#
# PCOD9214846 Si02
#       8
#     8   8   8   8   8   8   8   8
#     4  12  24  39  66  95 134 174 214 271 344 392
#     4  11  23  42  68  94 129 180 226 269 332 392
#     4   9  20  43  69  96 132 172 227 278 319 391
#     4  12  21  42  64  94 137 172 221 277 315 391
#     4  10  22  42  69  98 130 176 228 274 320 389
#     4  10  22  40  64  98 135 167 211 273 335 395
#     4  11  24  43  71  98 128 179 222 265 331 393
#     4  12  25  44  61  95 139 167 212 281 328 398
#
# _framework density 22.329131
#
# number of rings (size 3 to 8) (size 9 to 14) (size 15 to 20)
#    0.000    1.125    3.750    1.875    0.000    5.500 
#    0.000    3.750    0.000    2.625    0.000    0.875 
#    0.000    0.000    0.000    0.000    0.000    0.000 
#
# Total GULP energy -178980.065210 kJ/mol
# GULP energy per Si atom -5593.127038 kJ/mol
# Density = 2.227831 g / cm^3
# Si number density = 22.329131 Si / 1000 Ang^3
#
#
#
# Elastic Constant Matrix: (Units=GPa)
#
#
# Indices 1 2 3 4 5 6 
#
# 1 112.6596 17.7739 47.1225 0.0000 -35.1890 0.0000
# 2 17.7739 65.4854 26.1764 0.0000 -2.9858 0.0000
# 3 47.1225 26.1764 115.4049 0.0000 -28.6044 0.0000
# 4 0.0000 0.0000 0.0000 31.9105 0.0000 -5.2855
# 5 -35.1890 -2.9858 -28.6044 0.0000 46.4509 0.0000
# 6 0.0000 0.0000 0.0000 -5.2855 0.0000 31.4963
#
#
#
# Elastic Compliance Matrix: (Units=1/GPa)
#
#
# Indices 1 2 3 4 5 6 
#
# 1 0.012828 -0.001987 -0.002844 0.000000 0.007839 0.000000
# 2 -0.001987 0.017189 -0.003761 0.000000 -0.002717 0.000000
# 3 -0.002844 -0.003761 0.011902 0.000000 0.004933 0.000000
# 4 0.000000 0.000000 0.000000 0.032234 0.000000 0.005409
# 5 0.007839 -0.002717 0.004933 0.000000 0.030329 0.000000
# 6 0.000000 0.000000 0.000000 0.005409 0.000000 0.032658
#
#
# Mechanical properties :
#
#
# Convention : Reuss Voigt Hill
#
# Bulk Modulus (GPa) = 40.42900 52.85504 46.64202
# Shear Modulus (GPa) = 30.75603 35.47001 33.11302
#
# Velocity S-wave (km/s) = 3.71535 3.98993 3.85509
# Velocity P-wave (km/s) = 6.04569 6.70435 6.38352
#
# Compressibility (1/GPa) = 0.02473472
#
# Stress axis : x y z
#
# Youngs Moduli (GPa) = 77.95521 58.17534 84.01779
#
# Poissons Ratio (x) = 0.11562 0.23897
# Poissons Ratio (y) = 0.15493 0.31597
# Poissons Ratio (z) = 0.22172 0.21878
#
# Static dielectric constant tensor:
#      x y z
#    x 1.873540 0.000000 -0.017360 
#    y 0.000000 1.835460 0.000000 
#    z -0.017360 0.000000 1.831270 
# 
# From -- ./inp_files/278120.got.cif
#   From: 2010.05.17/outbox.cif.g08.bks.cpg/sg12_140_cif.got.tgz:278120.got - 2010.06.03 13:09:07.
