data_PCOD9214679
_publ_section_title
;
Structure prediction by ZEFSAII (Michael W. Deem and Ramdas Pophale) SiO2 
 PCOD9214679
Probable space group: C 2/M
;
_chemical_formula_sum "Si O2"
_cell_formula_units_Z 56
_cell_length_a 23.732547
_cell_length_b 9.323071
_cell_length_c 13.240340
_cell_angle_alpha 90.000000
_cell_angle_beta 77.472844
_cell_angle_gamma 90.000000
_cell_volume 2859.817421
_symmetry_space_group_name_H-M "C 2/M"
_symmetry_group_IT_number 12
_symmetry_cell_setting 'monoclinic'
loop_
_space_group_symop_operation_xyz
x,y,z
-x,y,-z
-x,-y,-z
x,-y,z
1/2+x,1/2+y,z
1/2-x,1/2+y,-z
1/2-x,1/2-y,-z
1/2+x,1/2-y,z
loop_
_atom_site_type_symbol
_atom_site_label
_atom_site_fract_x
_atom_site_fract_y
_atom_site_fract_z
Si Si1 0.170935 0.837005 0.466303
Si Si2 0.809907 0.667552 0.965262
Si Si3 0.516688 0.331055 0.875305
Si Si4 0.729069 0.664487 0.664867
Si Si5 0.637019 0.831282 0.834188
Si Si6 0.433227 0.165596 0.549244
Si Si7 0.084170 0.329396 0.205770
O O1 0.209546 0.738541 0.378233
O O2 0.198916 0.835858 0.566429
O O3 0.107671 0.771171 0.495678
O O4 0.170585 0.000000 0.429633
O O5 0.796590 0.500000 0.954450
O O6 0.853003 0.716558 0.859791
O O7 0.750000 0.750000 0.000000
O O8 0.846748 0.680687 0.054010
O O9 0.522392 0.500000 0.848997
O O10 0.577136 0.249387 0.835791
O O11 0.466088 0.257800 0.830440
O O12 0.500000 0.318504 0.000000
O O13 0.735112 0.500000 0.697102
O O14 0.688723 0.756211 0.753477
O O15 0.632663 0.000000 0.810375
O O16 0.500000 0.188857 0.500000
O O17 0.421858 0.187207 0.672301
O O18 0.419122 0.000000 0.529346
O O19 0.078041 0.500000 0.184315
#
# Coordination Sequence:
#
# PCOD9214679 Si02
#       7
#     8   8   8   8   8   8   8
#     4  10  22  41  63  89 121 158 201 250 305 360
#     4  10  23  40  60  88 123 161 204 246 299 363
#     4  11  23  39  61  90 121 156 199 249 300 353
#     4  10  22  40  63  91 122 157 199 250 303 359
#     4  11  23  39  62  91 122 159 200 246 301 362
#     4  10  23  41  62  90 122 161 207 252 305 363
#     4  10  22  42  63  87 120 164 205 249 306 361
#
# _framework density 19.581669999999999
#
# number of rings (size 3 to 8) (size 9 to 14) (size 15 to 20)
#    0.000    1.714    1.429    1.714    4.000    4.857 
#    0.000    0.000    0.000    0.000    0.000    0.000 
#    0.000    0.000    0.000    0.000    0.000    0.000 
#
# Total GULP energy -156519.890317 kJ/mol
# GULP energy per Si atom -5589.996083 kJ/mol
# Density = 1.953710 g / cm^3
# Si number density = 19.581670 Si / 1000 Ang^3
#
#
#
# Elastic Constant Matrix: (Units=GPa)
#
#
# Indices 1 2 3 4 5 6 
#
# 1 69.9137 44.6657 5.0746 0.0000 -10.0452 0.0000
# 2 44.6657 102.6604 27.8970 0.0000 -9.9072 0.0000
# 3 5.0746 27.8970 73.1820 0.0000 -27.7465 0.0000
# 4 0.0000 0.0000 0.0000 27.1293 0.0000 -6.1421
# 5 -10.0452 -9.9072 -27.7465 0.0000 23.0694 0.0000
# 6 0.0000 0.0000 0.0000 -6.1421 0.0000 37.4747
#
#
#
# Elastic Compliance Matrix: (Units=1/GPa)
#
#
# Indices 1 2 3 4 5 6 
#
# 1 0.022700 -0.010652 0.008272 0.000000 0.015259 0.000000
# 2 -0.010652 0.015869 -0.008245 0.000000 -0.007740 0.000000
# 3 0.008272 -0.008245 0.029885 0.000000 0.036005 0.000000
# 4 0.000000 0.000000 0.000000 0.038281 0.000000 0.006274
# 5 0.015259 -0.007740 0.036005 0.000000 0.089972 0.000000
# 6 0.000000 0.000000 0.000000 0.006274 0.000000 0.027713
#
#
# Mechanical properties :
#
#
# Convention : Reuss Voigt Hill
#
# Bulk Modulus (GPa) = 21.18482 44.55895 32.87189
# Shear Modulus (GPa) = 19.12739 28.74261 23.93500
#
# Velocity S-wave (km/s) = 3.12877 3.83539 3.49996
# Velocity P-wave (km/s) = 4.88820 6.51294 5.75816
#
# Compressibility (1/GPa) = 0.04720360
#
# Stress axis : x y z
#
# Youngs Moduli (GPa) = 44.05215 63.01671 33.46163
#
# Poissons Ratio (x) = 0.67123 -0.27678
# Poissons Ratio (y) = 0.46923 0.27590
# Poissons Ratio (z) = -0.36438 0.51958
#
# Static dielectric constant tensor:
#      x y z
#    x 1.659230 0.000000 0.008310 
#    y 0.000000 1.666340 0.000000 
#    z 0.008310 0.000000 1.679560 
# 
# From -- ./inp_files/238390.got.cif
#   From: 2010.05.17/outbox.cif.g08.bks.cpg/sg12_120_cif.got.tgz:238390.got - 2010.06.03 13:09:07.
