data_PCOD9214521
_publ_section_title
;
Structure prediction by ZEFSAII (Michael W. Deem and Ramdas Pophale) SiO2 
 PCOD9214521
Probable space group: C 2/M
;
_chemical_formula_sum "Si O2"
_cell_formula_units_Z 60
_cell_length_a 19.365856
_cell_length_b 22.005268
_cell_length_c 8.197076
_cell_angle_alpha 90.000000
_cell_angle_beta 54.358000
_cell_angle_gamma 90.000000
_cell_volume 2838.824820
_symmetry_space_group_name_H-M "C 2/M"
_symmetry_group_IT_number 12
_symmetry_cell_setting 'monoclinic'
loop_
_space_group_symop_operation_xyz
x,y,z
-x,y,-z
-x,-y,-z
x,-y,z
1/2+x,1/2+y,z
1/2-x,1/2+y,-z
1/2-x,1/2-y,-z
1/2+x,1/2-y,z
loop_
_atom_site_type_symbol
_atom_site_label
_atom_site_fract_x
_atom_site_fract_y
_atom_site_fract_z
Si Si1 0.031234 0.180710 0.139729
Si Si2 0.443159 0.434398 0.417580
Si Si3 0.283189 0.812895 0.341322
Si Si4 0.246481 0.433545 0.786949
Si Si5 0.188922 0.565951 0.236713
Si Si6 0.967361 0.691132 0.231655
Si Si7 0.000000 0.393963 0.500000
Si Si8 0.284068 0.681986 0.236027
O O1 0.981236 0.123503 0.276033
O O2 0.008337 0.246274 0.243382
O O3 0.131791 0.170836 0.985627
O O4 0.000000 0.188929 0.000000
O O5 0.500000 0.438400 0.500000
O O6 0.450600 0.500000 0.318610
O O7 0.345636 0.427432 0.605507
O O8 0.298261 0.874774 0.225038
O O9 0.367169 0.800472 0.334152
O O10 0.265186 0.754712 0.250983
O O11 0.208807 0.823081 0.576490
O O12 0.217248 0.500000 0.765199
O O13 0.231391 0.433287 0.000251
O O14 0.211596 0.500000 0.283192
O O15 0.220358 0.627823 0.278145
O O16 0.087555 0.569760 0.360068
O O17 0.987306 0.643530 0.347608
O O18 0.000000 0.677140 0.000000
#
# Coordination Sequence:
#
# PCOD9214521 Si02
#       8
#     8   8   8   8   8   8   4   8
#     4  11  22  39  62  97 132 168 218 279 339 407
#     4  10  22  40  61  89 130 175 221 275 339 417
#     4  11  22  43  65  94 136 173 227 284 339 418
#     4  10  23  42  66  97 133 177 229 284 346 415
#     4  11  25  45  67  97 137 178 231 289 339 410
#     4  11  23  44  67 100 139 173 226 288 346 412
#     4  12  25  46  72 102 133 188 232 286 359 400
#     4  11  23  40  67  97 132 180 219 283 347 402
#
# _framework density 21.135508000000002
#
# number of rings (size 3 to 8) (size 9 to 14) (size 15 to 20)
#    0.000    1.200    4.000    2.600    2.800    2.933 
#    0.000    0.000    0.000    2.800    0.000    0.000 
#    0.000    0.000    0.000    0.000    0.000    0.000 
#
# Total GULP energy -167230.573551 kJ/mol
# GULP energy per Si atom -5574.352452 kJ/mol
# Density = 2.108740 g / cm^3
# Si number density = 21.135508 Si / 1000 Ang^3
#
#
#
# Elastic Constant Matrix: (Units=GPa)
#
#
# Indices 1 2 3 4 5 6 
#
# 1 57.3116 43.9376 5.1367 0.0000 -16.1020 0.0000
# 2 43.9376 167.1985 62.4462 0.0000 -4.7754 0.0000
# 3 5.1367 62.4462 94.7257 0.0000 -10.9755 0.0000
# 4 0.0000 0.0000 0.0000 33.5306 0.0000 -1.5362
# 5 -16.1020 -4.7754 -10.9755 0.0000 30.0810 0.0000
# 6 0.0000 0.0000 0.0000 -1.5362 0.0000 33.1842
#
#
#
# Elastic Compliance Matrix: (Units=1/GPa)
#
#
# Indices 1 2 3 4 5 6 
#
# 1 0.028777 -0.009578 0.006643 0.000000 0.016307 0.000000
# 2 -0.009578 0.011135 -0.007529 0.000000 -0.006106 0.000000
# 3 0.006643 -0.007529 0.016115 0.000000 0.008240 0.000000
# 4 0.000000 0.000000 0.000000 0.029887 0.000000 0.001384
# 5 0.016307 -0.006106 0.008240 0.000000 0.044010 0.000000
# 6 0.000000 0.000000 0.000000 0.001384 0.000000 0.030199
#
#
# Mechanical properties :
#
#
# Convention : Reuss Voigt Hill
#
# Bulk Modulus (GPa) = 28.49003 60.25296 44.37149
# Shear Modulus (GPa) = 25.94033 33.20685 29.57359
#
# Velocity S-wave (km/s) = 3.50713 3.96806 3.74470
# Velocity P-wave (km/s) = 5.46891 7.04016 6.30368
#
# Compressibility (1/GPa) = 0.03510000
#
# Stress axis : x y z
#
# Youngs Moduli (GPa) = 34.74960 89.80468 62.05557
#
# Poissons Ratio (x) = 0.86011 -0.41222
# Poissons Ratio (y) = 0.33281 0.46721
# Poissons Ratio (z) = -0.23083 0.67613
#
# Static dielectric constant tensor:
#      x y z
#    x 1.742400 0.000000 -0.005120 
#    y 0.000000 1.901510 0.000000 
#    z -0.005120 0.000000 1.748430 
# 
# From -- ./inp_files/89819.got.cif
#   From: 2010.05.17/outbox.cif.g08.bks.cpg/sg12_45_cif.got.tgz:89819.got - 2010.06.03 13:09:07.
