data_PCOD9214286
_publ_section_title
;
Structure prediction by ZEFSAII (Michael W. Deem and Ramdas Pophale) SiO2 
 PCOD9214286
Probable space group: C 2/M
;
_chemical_formula_sum "Si O2"
_cell_formula_units_Z 56
_cell_length_a 18.137707
_cell_length_b 13.782552
_cell_length_c 12.784319
_cell_angle_alpha 90.000000
_cell_angle_beta 119.988524
_cell_angle_gamma 90.000000
_cell_volume 2768.027894
_symmetry_space_group_name_H-M "C 2/M"
_symmetry_group_IT_number 12
_symmetry_cell_setting 'monoclinic'
loop_
_space_group_symop_operation_xyz
x,y,z
-x,y,-z
-x,-y,-z
x,-y,z
1/2+x,1/2+y,z
1/2-x,1/2+y,-z
1/2-x,1/2-y,-z
1/2+x,1/2-y,z
loop_
_atom_site_type_symbol
_atom_site_label
_atom_site_fract_x
_atom_site_fract_y
_atom_site_fract_z
Si Si1 0.888705 0.610088 0.362018
Si Si2 0.005846 0.752652 0.701404
Si Si3 0.170053 0.242979 0.519742
Si Si4 0.705219 0.608646 0.142190
Si Si5 0.783515 0.314728 0.780076
Si Si6 0.961877 0.389902 0.858516
Si Si7 0.163574 0.113350 0.868927
O O1 0.917074 0.500000 0.390833
O O2 0.957082 0.682264 0.362138
O O3 0.853991 0.652924 0.446476
O O4 0.807554 0.611264 0.226347
O O5 0.077538 0.831868 0.775885
O O6 0.914861 0.792581 0.597877
O O7 0.991886 0.685916 0.793308
O O8 0.250000 0.250000 0.500000
O O9 0.205145 0.182799 0.643401
O O10 0.678070 0.500000 0.158935
O O11 0.679288 0.704455 0.188092
O O12 0.677708 0.620771 0.003192
O O13 0.860208 0.381663 0.798578
O O14 0.743455 0.341303 0.863287
O O15 0.986693 0.500000 0.847313
O O16 0.000000 0.368372 0.000000
O O17 0.159069 0.000000 0.838513
#
# Coordination Sequence:
#
# PCOD9214286 Si02
#       7
#     8   8   8   8   8   8   8
#     4  10  22  39  67  97 121 157 207 262 314 361
#     4  12  23  41  65  88 128 163 208 262 303 362
#     4  11  23  43  62  87 124 162 207 253 306 370
#     4   9  19  36  64  97 123 154 203 253 310 374
#     4  11  21  42  64  88 127 166 202 254 315 365
#     4  11  25  40  62  97 130 161 202 254 318 378
#     4  11  23  39  63  94 125 164 208 251 310 377
#
# _framework density 20.231009
#
# number of rings (size 3 to 8) (size 9 to 14) (size 15 to 20)
#    0.000    1.286    4.286    2.571    2.000    1.714 
#    0.000    3.571    0.000    2.571    0.000    0.000 
#    0.000    0.000    0.000    0.000    0.000    0.000 
#
# Total GULP energy -156376.728713 kJ/mol
# GULP energy per Si atom -5584.883168 kJ/mol
# Density = 2.018496 g / cm^3
# Si number density = 20.231009 Si / 1000 Ang^3
#
#
#
# Elastic Constant Matrix: (Units=GPa)
#
#
# Indices 1 2 3 4 5 6 
#
# 1 73.3397 30.3963 17.0301 0.0000 2.3015 0.0000
# 2 30.3963 88.4753 35.3026 0.0000 3.0453 0.0000
# 3 17.0301 35.3026 78.2729 0.0000 5.5357 0.0000
# 4 0.0000 0.0000 0.0000 11.3536 0.0000 -0.0391
# 5 2.3015 3.0453 5.5357 0.0000 25.3057 0.0000
# 6 0.0000 0.0000 0.0000 -0.0391 0.0000 14.7575
#
#
#
# Elastic Compliance Matrix: (Units=1/GPa)
#
#
# Indices 1 2 3 4 5 6 
#
# 1 0.016003 -0.005006 -0.001182 0.000000 -0.000594 0.000000
# 2 -0.005006 0.015351 -0.005826 0.000000 -0.000118 0.000000
# 3 -0.001182 -0.005826 0.015849 0.000000 -0.002658 0.000000
# 4 0.000000 0.000000 0.000000 0.088079 0.000000 0.000233
# 5 -0.000594 -0.000118 -0.002658 0.000000 0.040167 0.000000
# 6 0.000000 0.000000 0.000000 0.000233 0.000000 0.067763
#
#
# Mechanical properties :
#
#
# Convention : Reuss Voigt Hill
#
# Bulk Modulus (GPa) = 43.15050 45.06064 44.10557
# Shear Modulus (GPa) = 18.18417 20.77393 19.47905
#
# Velocity S-wave (km/s) = 3.00130 3.20790 3.10632
# Velocity P-wave (km/s) = 5.77802 6.00352 5.89185
#
# Compressibility (1/GPa) = 0.02317470
#
# Stress axis : x y z
#
# Youngs Moduli (GPa) = 62.48815 65.14171 63.09653
#
# Poissons Ratio (x) = 0.32609 0.07458
# Poissons Ratio (y) = 0.31281 0.36761
# Poissons Ratio (z) = 0.07387 0.37953
#
# Static dielectric constant tensor:
#      x y z
#    x 1.704690 0.000000 0.007080 
#    y 0.000000 1.719160 0.000000 
#    z 0.007080 0.000000 1.744620 
# 
# From -- ./inp_files/156747.got.cif
#   From: 2010.05.17/outbox.cif.g08.bks.cpg/sg12_79_cif.got.tgz:156747.got - 2010.06.03 13:09:07.
