data_PCOD9214632
_publ_section_title
;
Structure prediction by ZEFSAII (Michael W. Deem and Ramdas Pophale) SiO2 
 PCOD9214632
Probable space group: C 2/M
;
_chemical_formula_sum "Si O2"
_cell_formula_units_Z 44
_cell_length_a 8.823023
_cell_length_b 16.450569
_cell_length_c 20.262613
_cell_angle_alpha 90.000000
_cell_angle_beta 131.781486
_cell_angle_gamma 90.000000
_cell_volume 2193.071966
_symmetry_space_group_name_H-M "C 2/M"
_symmetry_group_IT_number 12
_symmetry_cell_setting 'monoclinic'
loop_
_space_group_symop_operation_xyz
x,y,z
-x,y,-z
-x,-y,-z
x,-y,z
1/2+x,1/2+y,z
1/2-x,1/2+y,-z
1/2-x,1/2-y,-z
1/2+x,1/2-y,z
loop_
_atom_site_type_symbol
_atom_site_label
_atom_site_fract_x
_atom_site_fract_y
_atom_site_fract_z
Si Si1 0.550292 0.783179 0.140596
Si Si2 0.729370 0.827542 0.540150
Si Si3 0.978320 0.000000 0.269299
Si Si4 0.407088 0.500000 0.547831
Si Si5 0.855851 0.868103 0.012049
Si Si6 0.235525 0.500000 0.079937
Si Si7 0.985797 0.175528 0.743056
O O1 0.475439 0.713698 0.068015
O O2 0.769091 0.819620 0.187591
O O3 0.574534 0.737157 0.217196
O O4 0.364019 0.846368 0.082373
O O5 0.500000 0.834942 0.500000
O O6 0.750000 0.750000 0.500000
O O7 0.884092 0.804866 0.644025
O O8 0.788704 0.914161 0.523663
O O9 0.961632 0.000000 0.344068
O O10 0.083189 0.081345 0.272278
O O11 0.771573 0.000000 0.168199
O O12 0.500000 0.500000 0.500000
O O13 0.825598 0.922059 0.068131
O O14 0.000000 0.908476 0.000000
O O15 0.000000 0.500000 0.000000
#
# Coordination Sequence:
#
# PCOD9214632 Si02
#       7
#     8   8   4   4   8   4   8
#     4  11  22  37  61  88 123 169 211 263 313 373
#     4  11  23  42  69 100 134 173 223 275 347 414
#     4  10  22  40  62  94 122 165 218 258 323 400
#     4  10  23  43  71  98 135 174 221 290 345 408
#     4  11  23  38  59  90 128 163 216 262 316 373
#     4  12  23  39  65  88 131 175 214 269 324 385
#     4  11  22  41  64  90 127 167 217 267 322 391
#
# _framework density 20.063182000000001
#
# number of rings (size 3 to 8) (size 9 to 14) (size 15 to 20)
#    0.000    1.091    3.636    3.273    0.000    1.455 
#    0.000    0.000    0.000    0.000    0.000    0.000 
#    0.000    0.000    0.000    0.000    0.000    0.000 
#
# Total GULP energy -122647.841212 kJ/mol
# GULP energy per Si atom -5574.901873 kJ/mol
# Density = 2.001752 g / cm^3
# Si number density = 20.063182 Si / 1000 Ang^3
#
#
#
# Elastic Constant Matrix: (Units=GPa)
#
#
# Indices 1 2 3 4 5 6 
#
# 1 119.7831 53.7707 32.7252 0.0000 -6.7136 0.0000
# 2 53.7707 131.0486 46.6432 0.0000 -15.5403 0.0000
# 3 32.7252 46.6432 99.8207 0.0000 -11.4055 0.0000
# 4 0.0000 0.0000 0.0000 24.6538 0.0000 -5.9322
# 5 -6.7136 -15.5403 -11.4055 0.0000 33.9427 0.0000
# 6 0.0000 0.0000 0.0000 -5.9322 0.0000 26.3307
#
#
#
# Elastic Compliance Matrix: (Units=1/GPa)
#
#
# Indices 1 2 3 4 5 6 
#
# 1 0.010472 -0.003708 -0.001724 0.000000 -0.000206 0.000000
# 2 -0.003708 0.010741 -0.003458 0.000000 0.003022 0.000000
# 3 -0.001724 -0.003458 0.012458 0.000000 0.002262 0.000000
# 4 0.000000 0.000000 0.000000 0.042887 0.000000 0.009662
# 5 -0.000206 0.003022 0.002262 0.000000 0.031565 0.000000
# 6 0.000000 0.000000 0.000000 0.009662 0.000000 0.040155
#
#
# Mechanical properties :
#
#
# Convention : Reuss Voigt Hill
#
# Bulk Modulus (GPa) = 62.92871 68.54783 65.73827
# Shear Modulus (GPa) = 29.17921 31.48633 30.33277
#
# Velocity S-wave (km/s) = 3.81775 3.96581 3.89249
# Velocity P-wave (km/s) = 7.13211 7.43037 7.28277
#
# Compressibility (1/GPa) = 0.01589100
#
# Stress axis : x y z
#
# Youngs Moduli (GPa) = 95.48985 93.09860 80.27229
#
# Poissons Ratio (x) = 0.34517 0.13841
# Poissons Ratio (y) = 0.35404 0.27760
# Poissons Ratio (z) = 0.16465 0.32196
#
# Static dielectric constant tensor:
#      x y z
#    x 1.693480 0.000000 -0.022090 
#    y 0.000000 1.844830 0.000000 
#    z -0.022090 0.000000 1.734400 
# 
# From -- ./inp_files/257326.got.cif
#   From: 2010.05.17/outbox.cif.g08.bks.cpg/sg12_129_cif.got.tgz:257326.got - 2010.06.03 13:09:07.
