data_PCOD9214879
_publ_section_title
;
Structure prediction by ZEFSAII (Michael W. Deem and Ramdas Pophale) SiO2 
 PCOD9214879
Probable space group: C 2/M
;
_chemical_formula_sum "Si O2"
_cell_formula_units_Z 50
_cell_length_a 29.253529
_cell_length_b 14.585836
_cell_length_c 18.462704
_cell_angle_alpha 90.000000
_cell_angle_beta 161.142077
_cell_angle_gamma 90.000000
_cell_volume 2546.282236
_symmetry_space_group_name_H-M "C 2/M"
_symmetry_group_IT_number 12
_symmetry_cell_setting 'monoclinic'
loop_
_space_group_symop_operation_xyz
x,y,z
-x,y,-z
-x,-y,-z
x,-y,z
1/2+x,1/2+y,z
1/2-x,1/2+y,-z
1/2-x,1/2-y,-z
1/2+x,1/2-y,z
loop_
_atom_site_type_symbol
_atom_site_label
_atom_site_fract_x
_atom_site_fract_y
_atom_site_fract_z
Si Si1 0.585628 0.178380 0.197356
Si Si2 0.097046 0.243576 0.806461
Si Si3 0.339116 0.250164 0.930550
Si Si4 0.500000 0.500000 0.000000
Si Si5 0.131152 0.394338 0.551882
Si Si6 0.763197 0.864766 0.594963
Si Si7 0.415750 0.606951 0.449517
O O1 0.677399 0.119446 0.391942
O O2 0.694004 0.257744 0.334060
O O3 0.500000 0.138412 0.000000
O O4 0.466238 0.226712 0.067604
O O5 0.006647 0.331712 0.645261
O O6 0.017223 0.152877 0.660491
O O7 0.250000 0.250000 0.000000
O O8 0.106424 0.241670 0.906537
O O9 0.257046 0.341318 0.781806
O O10 0.226193 0.166947 0.762094
O O11 0.593379 0.421229 0.182196
O O12 0.116265 0.500000 0.551901
O O13 0.171058 0.391839 0.526667
O O14 0.500000 0.617259 0.500000
O O15 0.387598 0.500000 0.419119
#
# Coordination Sequence:
#
# PCOD9214879 Si02
#       7
#     8   8   8   2   8   8   8
#     4  11  22  41  64  96 129 176 217 270 330 396
#     4  11  23  41  65  96 129 169 215 272 329 391
#     4  11  22  41  66  93 129 171 212 272 329 389
#     4  12  20  40  62 100 128 168 214 276 316 408
#     4  11  23  40  65 100 128 171 223 269 329 396
#     4  11  22  37  68  94 129 171 220 266 327 396
#     4  10  22  40  65  93 125 169 216 265 329 396
#
# _framework density 19.636472000000001
#
# number of rings (size 3 to 8) (size 9 to 14) (size 15 to 20)
#    0.000    1.120    6.400    0.000    0.000    1.920 
#    1.440    1.200    7.040    0.000    0.000    0.000 
#    0.000    0.000    0.000    0.000    0.000    0.000 
#
# Total GULP energy -139370.259240 kJ/mol
# GULP energy per Si atom -5574.810370 kJ/mol
# Density = 1.959178 g / cm^3
# Si number density = 19.636472 Si / 1000 Ang^3
#
#
#
# Elastic Constant Matrix: (Units=GPa)
#
#
# Indices 1 2 3 4 5 6 
#
# 1 45.9327 9.3290 24.5270 0.0000 0.6176 0.0000
# 2 9.3290 101.9930 35.5843 0.0000 -1.7097 0.0000
# 3 24.5270 35.5843 133.9264 0.0000 -27.6287 0.0000
# 4 0.0000 0.0000 0.0000 12.7947 0.0000 -6.2767
# 5 0.6176 -1.7097 -27.6287 0.0000 37.1213 0.0000
# 6 0.0000 0.0000 0.0000 -6.2767 0.0000 13.7086
#
#
#
# Elastic Compliance Matrix: (Units=1/GPa)
#
#
# Indices 1 2 3 4 5 6 
#
# 1 0.024765 -0.000486 -0.005312 0.000000 -0.004388 0.000000
# 2 -0.000486 0.010935 -0.003203 0.000000 -0.001872 0.000000
# 3 -0.005312 -0.003203 0.010961 0.000000 0.008099 0.000000
# 4 0.000000 0.000000 0.000000 0.100797 0.000000 0.046151
# 5 -0.004388 -0.001872 0.008099 0.000000 0.032954 0.000000
# 6 0.000000 0.000000 0.000000 0.046151 0.000000 0.094078
#
#
# Mechanical properties :
#
#
# Convention : Reuss Voigt Hill
#
# Bulk Modulus (GPa) = 34.88992 46.74807 40.81900
# Shear Modulus (GPa) = 16.55392 26.88572 21.71982
#
# Velocity S-wave (km/s) = 2.90663 3.70425 3.32941
# Velocity P-wave (km/s) = 5.39177 6.49259 5.96761
#
# Compressibility (1/GPa) = 0.02866157
#
# Stress axis : x y z
#
# Youngs Moduli (GPa) = 40.37985 91.44931 91.22987
#
# Poissons Ratio (x) = 0.04441 0.48457
# Poissons Ratio (y) = 0.01961 0.29218
# Poissons Ratio (z) = 0.21448 0.29288
#
# Static dielectric constant tensor:
#      x y z
#    x 1.690260 0.000000 -0.000420 
#    y 0.000000 1.665530 0.000000 
#    z -0.000420 0.000000 1.699060 
# 
# From -- ./inp_files/296804.got.cif
#   From: 2010.05.17/outbox.cif.g08.bks.cpg/sg12_149_cif.got.tgz:296804.got - 2010.06.03 13:09:07.
