data_PCOD9214327
_publ_section_title
;
Structure prediction by ZEFSAII (Michael W. Deem and Ramdas Pophale) SiO2 
 PCOD9214327
Probable space group: C 2/M
;
_chemical_formula_sum "Si O2"
_cell_formula_units_Z 48
_cell_length_a 14.978139
_cell_length_b 9.084932
_cell_length_c 19.859024
_cell_angle_alpha 90.000000
_cell_angle_beta 72.807368
_cell_angle_gamma 90.000000
_cell_volume 2581.574503
_symmetry_space_group_name_H-M "C 2/M"
_symmetry_group_IT_number 12
_symmetry_cell_setting 'monoclinic'
loop_
_space_group_symop_operation_xyz
x,y,z
-x,y,-z
-x,-y,-z
x,-y,z
1/2+x,1/2+y,z
1/2-x,1/2+y,-z
1/2-x,1/2-y,-z
1/2+x,1/2-y,z
loop_
_atom_site_type_symbol
_atom_site_label
_atom_site_fract_x
_atom_site_fract_y
_atom_site_fract_z
Si Si1 0.849253 0.324542 0.657900
Si Si2 0.839478 0.176217 0.514545
Si Si3 0.455772 0.176786 0.110440
Si Si4 0.849104 0.322090 0.996749
Si Si5 0.648373 0.673783 0.744900
Si Si6 0.468768 0.672273 0.361627
O O1 0.845418 0.500000 0.649099
O O2 0.851144 0.245605 0.585108
O O3 0.756352 0.279208 0.718727
O O4 0.943380 0.273998 0.672810
O O5 0.750000 0.250000 0.500000
O O6 0.925124 0.204622 0.444435
O O7 0.828208 0.000000 0.521644
O O8 0.563054 0.221146 0.070681
O O9 0.413997 0.242699 0.187395
O O10 0.455800 0.000000 0.113481
O O11 0.388300 0.217272 0.062515
O O12 0.839675 0.500000 0.996057
O O13 0.750000 0.250000 0.000000
O O14 0.644483 0.500000 0.761032
O O15 0.608975 0.693206 0.678225
O O16 0.496438 0.500000 0.354822
#
# Coordination Sequence:
#
# PCOD9214327 Si02
#       6
#     8   8   8   8   8   8
#     4  11  23  39  57  83 113 146 191 239 285 338
#     4  11  21  37  60  82 110 147 189 239 291 338
#     4   9  20  38  58  83 115 149 185 225 272 329
#     4   9  19  37  60  86 116 146 182 228 272 324
#     4  10  22  40  57  79 117 152 184 231 281 332
#     4  10  22  40  57  79 112 149 187 234 289 338
#
# _framework density 18.593305000000001
#
# number of rings (size 3 to 8) (size 9 to 14) (size 15 to 20)
#    0.000    2.000    1.667    2.500    0.000    8.000 
#    0.000    8.333    0.000    0.000    0.000    0.000 
#    0.000    0.000    0.000    0.000    0.000    0.000 
#
# Total GULP energy -133970.048193 kJ/mol
# GULP energy per Si atom -5582.085341 kJ/mol
# Density = 1.855099 g / cm^3
# Si number density = 18.593305 Si / 1000 Ang^3
#
#
#
# Elastic Constant Matrix: (Units=GPa)
#
#
# Indices 1 2 3 4 5 6 
#
# 1 105.8617 36.4078 19.9769 0.0000 -28.2829 0.0000
# 2 36.4078 32.6011 28.7305 0.0000 -15.4811 0.0000
# 3 19.9769 28.7305 89.3767 0.0000 -26.2618 0.0000
# 4 0.0000 0.0000 0.0000 32.8099 0.0000 0.4973
# 5 -28.2829 -15.4811 -26.2618 0.0000 20.6454 0.0000
# 6 0.0000 0.0000 0.0000 0.4973 0.0000 37.2558
#
#
#
# Elastic Compliance Matrix: (Units=1/GPa)
#
#
# Indices 1 2 3 4 5 6 
#
# 1 0.021574 -0.019642 0.009339 0.000000 0.026707 0.000000
# 2 -0.019642 0.069077 -0.016769 0.000000 0.003559 0.000000
# 3 0.009339 -0.016769 0.023244 0.000000 0.029787 0.000000
# 4 0.000000 0.000000 0.000000 0.030485 0.000000 -0.000407
# 5 0.026707 0.003559 0.029787 0.000000 0.125583 0.000000
# 6 0.000000 0.000000 0.000000 -0.000407 0.000000 0.026847
#
#
# Mechanical properties :
#
#
# Convention : Reuss Voigt Hill
#
# Bulk Modulus (GPa) = 16.73575 44.22999 30.48287
# Shear Modulus (GPa) = 13.48176 27.65717 20.56947
#
# Velocity S-wave (km/s) = 2.69566 3.86097 3.32969
# Velocity P-wave (km/s) = 4.32543 6.61180 5.58682
#
# Compressibility (1/GPa) = 0.05975232
#
# Stress axis : x y z
#
# Youngs Moduli (GPa) = 46.35162 14.47654 43.02154
#
# Poissons Ratio (x) = 0.28434 -0.40178
# Poissons Ratio (y) = 0.91042 0.72144
# Poissons Ratio (z) = -0.43288 0.24276
#
# Static dielectric constant tensor:
#      x y z
#    x 1.661610 0.000000 0.002910 
#    y 0.000000 1.619870 0.000000 
#    z 0.002910 0.000000 1.627990 
# 
# From -- ./inp_files/308273.got.cif
#   From: 2010.05.17/outbox.cif.g08.bks.cpg/sg12_155_cif.got.tgz:308273.got - 2010.06.03 13:09:07.
