data_PCOD9214720
_publ_section_title
;
Structure prediction by ZEFSAII (Michael W. Deem and Ramdas Pophale) SiO2 
 PCOD9214720
Probable space group: C 2/M
;
_chemical_formula_sum "Si O2"
_cell_formula_units_Z 50
_cell_length_a 18.796656
_cell_length_b 17.433745
_cell_length_c 8.336685
_cell_angle_alpha 90.000000
_cell_angle_beta 117.511550
_cell_angle_gamma 90.000000
_cell_volume 2422.969868
_symmetry_space_group_name_H-M "C 2/M"
_symmetry_group_IT_number 12
_symmetry_cell_setting 'monoclinic'
loop_
_space_group_symop_operation_xyz
x,y,z
-x,y,-z
-x,-y,-z
x,-y,z
1/2+x,1/2+y,z
1/2-x,1/2+y,-z
1/2-x,1/2-y,-z
1/2+x,1/2-y,z
loop_
_atom_site_type_symbol
_atom_site_label
_atom_site_fract_x
_atom_site_fract_y
_atom_site_fract_z
Si Si1 0.000000 0.000000 0.000000
Si Si2 0.913773 0.123064 0.474151
Si Si3 0.087498 0.697064 0.034944
Si Si4 0.221410 0.588243 0.766349
Si Si5 0.889416 0.869651 0.819614
Si Si6 0.263641 0.913286 0.836349
Si Si7 0.416869 0.203125 0.354075
O O1 0.065021 0.931625 0.024650
O O2 0.916732 0.113808 0.667670
O O3 0.827178 0.093096 0.324594
O O4 0.910679 0.212440 0.421535
O O5 0.000000 0.092715 0.500000
O O6 0.095900 0.781697 0.119676
O O7 0.167176 0.645707 0.152156
O O8 0.084876 0.707473 0.840009
O O9 0.000000 0.665853 0.000000
O O10 0.198386 0.500000 0.716790
O O11 0.296800 0.610729 0.739402
O O12 0.152578 0.648314 0.659425
O O13 0.242224 0.597687 0.977076
O O14 0.292286 0.000000 0.835481
O O15 0.500000 0.169098 0.500000
#
# Coordination Sequence:
#
# PCOD9214720 Si02
#       7
#     2   8   8   8   8   8   8
#     4  12  28  40  62 100 120 160 206 260 298 386
#     4  11  25  41  62  93 125 163 204 259 310 365
#     4  11  22  41  68  91 122 171 206 250 310 371
#     4  10  22  41  64  88 125 167 204 254 310 366
#     4  12  25  41  65  91 125 163 210 247 315 372
#     4  10  24  42  63  93 128 162 208 256 307 365
#     4  10  22  40  63  94 122 161 213 253 305 367
#
# _framework density 20.635833000000002
#
# number of rings (size 3 to 8) (size 9 to 14) (size 15 to 20)
#    0.000    1.280    1.600    3.840    3.360    7.360 
#    0.000    0.000    0.000    0.000    0.000    0.000 
#    0.000    0.000    0.000    0.000    0.000    0.000 
#
# Total GULP energy -139385.035455 kJ/mol
# GULP energy per Si atom -5575.401418 kJ/mol
# Density = 2.058887 g / cm^3
# Si number density = 20.635833 Si / 1000 Ang^3
#
#
#
# Elastic Constant Matrix: (Units=GPa)
#
#
# Indices 1 2 3 4 5 6 
#
# 1 116.2308 60.6395 0.5176 0.0000 12.5750 0.0000
# 2 60.6395 95.6057 34.1868 0.0000 15.9105 0.0000
# 3 0.5176 34.1868 32.9340 0.0000 23.8169 0.0000
# 4 0.0000 0.0000 0.0000 27.0500 0.0000 16.6347
# 5 12.5750 15.9105 23.8169 0.0000 31.5441 0.0000
# 6 0.0000 0.0000 0.0000 16.6347 0.0000 43.7136
#
#
#
# Elastic Compliance Matrix: (Units=1/GPa)
#
#
# Indices 1 2 3 4 5 6 
#
# 1 0.044935 -0.055545 0.109356 0.000000 -0.072464 0.000000
# 2 -0.055545 0.086943 -0.162291 0.000000 0.100825 0.000000
# 3 0.109356 -0.162291 0.373228 0.000000 -0.243536 0.000000
# 4 0.000000 0.000000 0.000000 0.048263 0.000000 -0.018366
# 5 -0.072464 0.100825 -0.243536 0.000000 0.193612 0.000000
# 6 0.000000 0.000000 0.000000 -0.018366 0.000000 0.029865
#
#
# Mechanical properties :
#
#
# Convention : Reuss Voigt Hill
#
# Bulk Modulus (GPa) = 3.47047 48.38424 25.92735
# Shear Modulus (GPa) = 4.58776 30.42330 17.50553
#
# Velocity S-wave (km/s) = 1.49266 3.84382 2.91573
# Velocity P-wave (km/s) = 2.15781 6.57248 4.89151
#
# Compressibility (1/GPa) = 0.28814553
#
# Stress axis : x y z
#
# Youngs Moduli (GPa) = 22.25424 11.50176 2.67933
#
# Poissons Ratio (x) = 0.63887 -0.29300
# Poissons Ratio (y) = 1.23611 0.43483
# Poissons Ratio (z) = -2.43363 1.86663
#
# Static dielectric constant tensor:
#      x y z
#    x 1.746710 0.000000 0.031440 
#    y 0.000000 1.736690 0.000000 
#    z 0.031440 0.000000 1.787710 
# 
# From -- ./inp_files/76055.got.cif
#   From: 2010.05.17/outbox.cif.g08.bks.cpg/sg12_39_cif.got.tgz:76055.got - 2010.06.03 13:09:07.
