data_PCOD9214155
_publ_section_title
;
Structure prediction by ZEFSAII (Michael W. Deem and Ramdas Pophale) SiO2 
 PCOD9214155
Probable space group: C 2/M
;
_chemical_formula_sum "Si O2"
_cell_formula_units_Z 64
_cell_length_a 12.238726
_cell_length_b 28.942146
_cell_length_c 14.274942
_cell_angle_alpha 90.000000
_cell_angle_beta 38.740318
_cell_angle_gamma 90.000000
_cell_volume 3164.252096
_symmetry_space_group_name_H-M "C 2/M"
_symmetry_group_IT_number 12
_symmetry_cell_setting 'monoclinic'
loop_
_space_group_symop_operation_xyz
x,y,z
-x,y,-z
-x,-y,-z
x,-y,z
1/2+x,1/2+y,z
1/2-x,1/2+y,-z
1/2-x,1/2-y,-z
1/2+x,1/2-y,z
loop_
_atom_site_type_symbol
_atom_site_label
_atom_site_fract_x
_atom_site_fract_y
_atom_site_fract_z
Si Si1 0.590385 0.191480 0.842350
Si Si2 0.304524 0.782057 0.671137
Si Si3 0.038623 0.945423 0.216869
Si Si4 0.686479 0.052933 0.361701
Si Si5 0.573910 0.831697 0.230535
Si Si6 0.702495 0.305264 0.550035
Si Si7 0.317093 0.417880 0.078739
Si Si8 0.089142 0.129673 0.342095
O O1 0.721371 0.232142 0.728920
O O2 0.443935 0.188483 0.860845
O O3 0.715080 0.147101 0.768181
O O4 0.500000 0.201271 0.000000
O O5 0.500000 0.780455 0.500000
O O6 0.320247 0.802283 0.763967
O O7 0.194357 0.810260 0.667924
O O8 0.096352 0.911254 0.260833
O O9 0.843514 0.928605 0.319151
O O10 0.039165 0.000000 0.242232
O O11 0.141387 0.940919 0.048939
O O12 0.500000 0.077099 0.500000
O O13 0.743818 0.052687 0.215008
O O14 0.668892 0.000000 0.405302
O O15 0.372956 0.832440 0.399606
O O16 0.671785 0.879654 0.159808
O O17 0.750000 0.250000 0.500000
O O18 0.531366 0.327533 0.617216
O O19 0.500000 0.399188 0.000000
O O20 0.000000 0.115529 0.500000
#
# Coordination Sequence:
#
# PCOD9214155 Si02
#       8
#     8   8   8   8   8   8   8   8
#     4  12  25  42  61  91 133 176 217 267 320 389
#     4  10  23  40  64  90 126 170 217 269 321 384
#     4  10  23  43  65  94 130 174 217 271 342 403
#     4   9  19  35  61  95 130 165 210 267 328 393
#     4  11  23  39  63  94 123 168 221 266 316 388
#     4  11  21  42  68  94 129 171 216 269 327 388
#     4  10  22  39  63  92 133 169 212 265 337 401
#     4  12  24  42  70  92 125 178 226 271 327 397
#
# _framework density 20.225950000000001
#
# number of rings (size 3 to 8) (size 9 to 14) (size 15 to 20)
#    0.000    1.375    2.500    3.000    5.250    3.250 
#    0.000    0.000    0.000    4.125    0.000    0.000 
#    0.000    0.000    0.000    0.000    0.000    0.000 
#
# Total GULP energy -178574.467122 kJ/mol
# GULP energy per Si atom -5580.452098 kJ/mol
# Density = 2.017991 g / cm^3
# Si number density = 20.225950 Si / 1000 Ang^3
#
#
#
# Elastic Constant Matrix: (Units=GPa)
#
#
# Indices 1 2 3 4 5 6 
#
# 1 116.3605 30.5653 22.2899 0.0000 32.3359 0.0000
# 2 30.5653 70.0031 13.5904 0.0000 3.6114 0.0000
# 3 22.2899 13.5904 57.2534 0.0000 8.0187 0.0000
# 4 0.0000 0.0000 0.0000 5.5439 0.0000 13.3564
# 5 32.3359 3.6114 8.0187 0.0000 35.0978 0.0000
# 6 0.0000 0.0000 0.0000 13.3564 0.0000 23.5324
#
#
#
# Elastic Compliance Matrix: (Units=1/GPa)
#
#
# Indices 1 2 3 4 5 6 
#
# 1 0.013502 -0.004819 -0.002520 0.000000 -0.011367 0.000000
# 2 -0.004819 0.016715 -0.002554 0.000000 0.003304 0.000000
# 3 -0.002520 -0.002554 0.019310 0.000000 -0.001827 0.000000
# 4 0.000000 0.000000 0.000000 -0.490955 0.000000 0.278653
# 5 -0.011367 0.003304 -0.001827 0.000000 0.039042 0.000000
# 6 0.000000 0.000000 0.000000 0.278653 0.000000 -0.115662
#
#
# Mechanical properties :
#
#
# Convention : Reuss Voigt Hill
#
# Bulk Modulus (GPa) = 33.62672 41.83424 37.73048
# Shear Modulus (GPa) = -10.23860 24.64624 7.20382
#
# Velocity S-wave (km/s) = -2.25235 3.49455 1.88929
# Velocity P-wave (km/s) = 3.14603 6.08366 4.84295
#
# Compressibility (1/GPa) = 0.02973826
#
# Stress axis : x y z
#
# Youngs Moduli (GPa) = 74.06471 59.82722 51.78785
#
# Poissons Ratio (x) = 0.28834 0.13053
# Poissons Ratio (y) = 0.35695 0.13227
# Poissons Ratio (z) = 0.18667 0.15280
#
# Static dielectric constant tensor:
#      x y z
#    x 1.792070 0.000000 0.062270 
#    y 0.000000 1.725990 0.000000 
#    z 0.062270 0.000000 1.796800 
# 
# From -- ./inp_files/209360.got.cif
#   From: 2010.05.17/outbox.cif.g08.bks.cpg/sg12_105_cif.got.tgz:209360.got - 2010.06.03 13:09:07.
