data_PCOD9214241
_publ_section_title
;
Structure prediction by ZEFSAII (Michael W. Deem and Ramdas Pophale) SiO2 
 PCOD9214241
Probable space group: C 2/M
;
_chemical_formula_sum "Si O2"
_cell_formula_units_Z 56
_cell_length_a 13.734556
_cell_length_b 26.602901
_cell_length_c 14.532094
_cell_angle_alpha 90.000000
_cell_angle_beta 30.281394
_cell_angle_gamma 90.000000
_cell_volume 2677.412799
_symmetry_space_group_name_H-M "C 2/M"
_symmetry_group_IT_number 12
_symmetry_cell_setting 'monoclinic'
loop_
_space_group_symop_operation_xyz
x,y,z
-x,y,-z
-x,-y,-z
x,-y,z
1/2+x,1/2+y,z
1/2-x,1/2+y,-z
1/2-x,1/2-y,-z
1/2+x,1/2-y,z
loop_
_atom_site_type_symbol
_atom_site_label
_atom_site_fract_x
_atom_site_fract_y
_atom_site_fract_z
Si Si1 0.006107 0.558592 0.392763
Si Si2 0.627589 0.441592 0.602616
Si Si3 0.361737 0.653452 0.526465
Si Si4 0.305311 0.588028 0.003723
Si Si5 0.090047 0.777724 0.218711
Si Si6 0.438768 0.859710 0.946743
Si Si7 0.373495 0.700330 0.014182
O O1 0.956960 0.500000 0.443814
O O2 0.833225 0.578380 0.471377
O O3 0.000000 0.581389 0.500000
O O4 0.201132 0.562247 0.174935
O O5 0.636443 0.500000 0.564538
O O6 0.577352 0.400943 0.565610
O O7 0.483272 0.438095 0.807460
O O8 0.500000 0.662959 0.500000
O O9 0.411987 0.695968 0.411793
O O10 0.139803 0.655758 0.736345
O O11 0.366662 0.641962 0.994181
O O12 0.154818 0.598202 0.043010
O O13 0.161692 0.724664 0.199314
O O14 0.273509 0.816277 0.085069
O O15 0.054396 0.774201 0.139062
O O16 0.500000 0.875239 0.000000
O O17 0.500000 0.710098 0.000000
#
# Coordination Sequence:
#
# PCOD9214241 Si02
#       7
#     8   8   8   8   8   8   8
#     4  10  23  40  61  88 122 167 214 256 310 375
#     4  11  23  41  64  93 129 164 212 267 314 377
#     4  12  22  39  68  93 123 170 211 253 323 381
#     4  11  22  40  63  91 127 167 205 262 320 369
#     4  10  22  42  62  92 127 165 210 255 313 375
#     4  11  20  38  65  88 122 163 205 255 309 380
#     4  10  22  39  65  92 130 164 207 262 306 368
#
# _framework density 20.915714000000001
#
# number of rings (size 3 to 8) (size 9 to 14) (size 15 to 20)
#    0.000    1.286    5.714    0.857    2.000    0.286 
#    0.000   10.714    0.000    2.143    0.000    0.000 
#    0.000    0.000    0.000    0.000    0.000    0.000 
#
# Total GULP energy -156266.394065 kJ/mol
# GULP energy per Si atom -5580.942645 kJ/mol
# Density = 2.086811 g / cm^3
# Si number density = 20.915714 Si / 1000 Ang^3
#
#
#
# Elastic Constant Matrix: (Units=GPa)
#
#
# Indices 1 2 3 4 5 6 
#
# 1 100.4254 9.0214 -0.6735 -0.0018 23.6096 0.0001
# 2 9.0214 41.5196 -5.1035 -0.0002 6.5986 0.0002
# 3 -0.6735 -5.1035 108.9834 0.0015 5.8183 0.0033
# 4 -0.0018 -0.0002 0.0015 -25.5038 0.0008 -33.6374
# 5 23.6096 6.5986 5.8183 0.0008 27.2067 -0.0006
# 6 0.0001 0.0002 0.0033 -33.6374 -0.0006 -19.7268
#
#
#
# Elastic Compliance Matrix: (Units=1/GPa)
#
#
# Indices 1 2 3 4 5 6 
#
# 1 0.012592 -0.000940 0.000612 0.000001 -0.010830 -0.000002
# 2 -0.000940 0.025370 0.001484 0.000001 -0.005655 -0.000001
# 3 0.000612 0.001484 0.009404 0.000001 -0.002902 -0.000001
# 4 0.000001 0.000001 0.000001 0.031394 -0.000004 -0.053531
# 5 -0.010830 -0.005655 -0.002902 -0.000004 0.048146 0.000005
# 6 -0.000002 -0.000001 -0.000001 -0.053531 0.000005 0.040587
#
#
# Mechanical properties :
#
#
# Convention : Reuss Voigt Hill
#
# Bulk Modulus (GPa) = 20.12887 28.60190 24.36539
# Shear Modulus (GPa) = 27.51171 12.90749 20.20960
#
# Velocity S-wave (km/s) = 3.63073 2.48688 3.11181
# Velocity P-wave (km/s) = 5.21737 4.68515 4.95841
#
# Compressibility (1/GPa) = 0.04967988
#
# Stress axis : x y z
#
# Youngs Moduli (GPa) = 79.41339 39.41602 106.33854
#
# Poissons Ratio (x) = 0.03703 -0.06508
# Poissons Ratio (y) = 0.07462 -0.15782
# Poissons Ratio (z) = -0.04860 -0.05850
#
# Static dielectric constant tensor:
#      x y z
#    x 1.781240 0.000000 0.002350 
#    y 0.000000 1.760030 0.000000 
#    z 0.002350 0.000000 1.764690 
# 
# From -- ./inp_files/219060.got.cif
#   From: 2010.05.17/outbox.cif.g08.bks.cpg/sg12_110_cif.got.tgz:219060.got - 2010.06.03 13:09:07.
