data_PCOD9214914
_publ_section_title
;
Structure prediction by ZEFSAII (Michael W. Deem and Ramdas Pophale) SiO2 
 PCOD9214914
Probable space group: C 2/M
;
_chemical_formula_sum "Si O2"
_cell_formula_units_Z 48
_cell_length_a 8.525569
_cell_length_b 13.696347
_cell_length_c 19.890092
_cell_angle_alpha 90.000000
_cell_angle_beta 68.520689
_cell_angle_gamma 90.000000
_cell_volume 2161.247771
_symmetry_space_group_name_H-M "C 2/M"
_symmetry_group_IT_number 12
_symmetry_cell_setting 'monoclinic'
loop_
_space_group_symop_operation_xyz
x,y,z
-x,y,-z
-x,-y,-z
x,-y,z
1/2+x,1/2+y,z
1/2-x,1/2+y,-z
1/2-x,1/2-y,-z
1/2+x,1/2-y,z
loop_
_atom_site_type_symbol
_atom_site_label
_atom_site_fract_x
_atom_site_fract_y
_atom_site_fract_z
Si Si1 0.925509 0.292326 0.946553
Si Si2 0.326667 0.614317 0.607254
Si Si3 0.738922 0.610913 0.702843
Si Si4 0.256310 0.306689 0.151921
Si Si5 0.157301 0.111823 0.242302
Si Si6 0.973912 0.709800 0.427963
O O1 0.875404 0.341117 0.883914
O O2 0.056651 0.205637 0.907679
O O3 0.750000 0.250000 0.000000
O O4 0.000000 0.347408 0.000000
O O5 0.342627 0.500000 0.589194
O O6 0.265583 0.620841 0.694975
O O7 0.502627 0.672996 0.574868
O O8 0.193113 0.668075 0.579992
O O9 0.781264 0.500000 0.679991
O O10 0.753760 0.630155 0.779859
O O11 0.543303 0.627717 0.717129
O O12 0.869009 0.675998 0.641966
O O13 0.216860 0.195467 0.182459
O O14 0.182139 0.000000 0.214864
O O15 0.000000 0.674477 0.500000
#
# Coordination Sequence:
#
# PCOD9214914 Si02
#       6
#     8   8   8   8   8   8
#     4   9  20  36  62  96 128 168 211 253 330 407
#     4  11  25  44  68  99 135 177 230 288 345 413
#     4  11  24  41  66  97 128 174 233 283 341 407
#     4  11  19  38  67  90 126 171 212 272 323 394
#     4  10  22  40  65  97 127 165 221 280 337 394
#     4  12  26  46  69  97 140 185 228 290 355 409
#
# _framework density 22.209392999999999
#
# number of rings (size 3 to 8) (size 9 to 14) (size 15 to 20)
#    0.000    1.333    3.333    2.000    2.333    1.667 
#    0.000    2.500    0.000   20.000    0.000    0.000 
#    0.000    0.000    0.000    0.000    0.000    0.000 
#
# Total GULP energy -134087.990245 kJ/mol
# GULP energy per Si atom -5586.999594 kJ/mol
# Density = 2.215884 g / cm^3
# Si number density = 22.209393 Si / 1000 Ang^3
#
#
#
# Elastic Constant Matrix: (Units=GPa)
#
#
# Indices 1 2 3 4 5 6 
#
# 1 106.1731 50.3505 42.3236 0.0000 36.9457 0.0000
# 2 50.3505 101.8599 15.7571 0.0000 -10.4513 0.0000
# 3 42.3236 15.7571 101.0834 0.0000 23.7260 0.0000
# 4 0.0000 0.0000 0.0000 -3.8975 0.0000 2.4678
# 5 36.9457 -10.4513 23.7260 0.0000 54.9073 0.0000
# 6 0.0000 0.0000 0.0000 2.4678 0.0000 22.4802
#
#
#
# Elastic Compliance Matrix: (Units=1/GPa)
#
#
# Indices 1 2 3 4 5 6 
#
# 1 0.021812 -0.011781 -0.003700 0.000000 -0.015320 0.000000
# 2 -0.011781 0.016852 -0.000342 0.000000 0.011283 0.000000
# 3 -0.003700 -0.000342 0.012160 0.000000 -0.002830 0.000000
# 4 0.000000 0.000000 0.000000 -0.239902 0.000000 0.026335
# 5 -0.015320 0.011283 -0.002830 0.000000 0.031891 0.000000
# 6 0.000000 0.000000 0.000000 0.026335 0.000000 0.041593
#
#
# Mechanical properties :
#
#
# Convention : Reuss Voigt Hill
#
# Bulk Modulus (GPa) = 52.15015 58.44210 55.29613
# Shear Modulus (GPa) = -64.46961 28.07702 -18.19630
#
# Velocity S-wave (km/s) = -5.39362 3.55941 -2.86546
# Velocity P-wave (km/s) = 3.90590 6.57752 3.74218
#
# Compressibility (1/GPa) = 0.01917540
#
# Stress axis : x y z
#
# Youngs Moduli (GPa) = 45.84713 59.34136 82.23943
#
# Poissons Ratio (x) = 0.69912 0.30430
# Poissons Ratio (y) = 0.54014 0.02815
# Poissons Ratio (z) = 0.16964 0.02031
#
# Static dielectric constant tensor:
#      x y z
#    x 1.862200 0.000000 0.026700 
#    y 0.000000 1.794650 0.000000 
#    z 0.026700 0.000000 1.868530 
# 
# From -- ./inp_files/299771.got.cif
#   From: 2010.05.17/outbox.cif.g08.bks.cpg/sg12_150_cif.got.tgz:299771.got - 2010.06.03 13:09:07.
