data_PCOD9214061
_publ_section_title
;
Structure prediction by ZEFSAII (Michael W. Deem and Ramdas Pophale) SiO2 
 PCOD9214061
Probable space group: C 2/M
;
_chemical_formula_sum "Si O2"
_cell_formula_units_Z 64
_cell_length_a 9.376317
_cell_length_b 24.929840
_cell_length_c 15.587992
_cell_angle_alpha 90.000000
_cell_angle_beta 64.087611
_cell_angle_gamma 90.000000
_cell_volume 3277.369437
_symmetry_space_group_name_H-M "C 2/M"
_symmetry_group_IT_number 12
_symmetry_cell_setting 'monoclinic'
loop_
_space_group_symop_operation_xyz
x,y,z
-x,y,-z
-x,-y,-z
x,-y,z
1/2+x,1/2+y,z
1/2-x,1/2+y,-z
1/2-x,1/2-y,-z
1/2+x,1/2-y,z
loop_
_atom_site_type_symbol
_atom_site_label
_atom_site_fract_x
_atom_site_fract_y
_atom_site_fract_z
Si Si1 0.367100 0.242154 0.191848
Si Si2 0.474006 0.133463 0.908952
Si Si3 0.170771 0.561359 0.721246
Si Si4 0.190598 0.798840 0.954575
Si Si5 0.038759 0.214197 0.295599
Si Si6 0.978925 0.893661 0.404347
Si Si7 0.356652 0.918150 0.470821
Si Si8 0.886582 0.707688 0.450386
O O1 0.451985 0.193440 0.120960
O O2 0.271530 0.278978 0.150747
O O3 0.220833 0.212869 0.277378
O O4 0.483156 0.281698 0.212125
O O5 0.559857 0.097575 0.813192
O O6 0.287413 0.147072 0.947525
O O7 0.500000 0.114401 0.000000
O O8 0.162685 0.500000 0.753394
O O9 0.355722 0.580569 0.671851
O O10 0.122189 0.561660 0.632411
O O11 0.250000 0.750000 0.000000
O O12 0.000000 0.804258 0.000000
O O13 0.958729 0.162142 0.358620
O O14 0.975841 0.271446 0.344018
O O15 0.818670 0.929805 0.443822
O O16 0.000000 0.881934 0.500000
O O17 0.500000 0.930353 0.500000
O O18 0.347537 0.854078 0.459322
O O19 0.750000 0.750000 0.500000
O O20 0.000000 0.716066 0.500000
#
# Coordination Sequence:
#
# PCOD9214061 Si02
#       8
#     8   8   8   8   8   8   8   8
#     4  12  22  33  57  89 131 167 204 239 304 377
#     4  12  24  42  66  92 128 166 212 267 319 376
#     4  11  26  47  69  90 118 161 224 283 323 364
#     4  12  21  38  59  91 131 166 200 237 304 386
#     4  12  22  31  51  88 130 172 202 246 294 373
#     4  10  22  39  62  87 125 168 215 258 312 369
#     4  10  23  40  62  97 131 166 211 255 318 383
#     4  11  21  32  50  81 131 174 199 233 290 371
#
# _framework density 19.527854999999999
#
# number of rings (size 3 to 8) (size 9 to 14) (size 15 to 20)
#    0.000    0.750    6.250    1.875    5.250    2.750 
#    0.000    0.000    0.000    0.375    0.000    0.000 
#    0.000    0.000    0.000    0.000    0.000    0.000 
#
# Total GULP energy -178298.685288 kJ/mol
# GULP energy per Si atom -5571.833915 kJ/mol
# Density = 1.948341 g / cm^3
# Si number density = 19.527855 Si / 1000 Ang^3
#
#
#
# Elastic Constant Matrix: (Units=GPa)
#
#
# Indices 1 2 3 4 5 6 
#
# 1 128.8369 36.2382 51.8730 0.0000 -6.0043 0.0000
# 2 36.2382 84.6793 35.6147 0.0000 0.6632 0.0000
# 3 51.8730 35.6147 90.7976 0.0000 -10.9558 0.0000
# 4 0.0000 0.0000 0.0000 12.3796 0.0000 1.1117
# 5 -6.0043 0.6632 -10.9558 0.0000 34.9094 0.0000
# 6 0.0000 0.0000 0.0000 1.1117 0.0000 6.9166
#
#
#
# Elastic Compliance Matrix: (Units=1/GPa)
#
#
# Indices 1 2 3 4 5 6 
#
# 1 0.010459 -0.002370 -0.005013 0.000000 0.000271 0.000000
# 2 -0.002370 0.014827 -0.004724 0.000000 -0.002172 0.000000
# 3 -0.005013 -0.004724 0.016253 0.000000 0.004328 0.000000
# 4 0.000000 0.000000 0.000000 0.081961 0.000000 -0.013174
# 5 0.000271 -0.002172 0.004328 0.000000 0.030092 0.000000
# 6 0.000000 0.000000 0.000000 -0.013174 0.000000 0.146698
#
#
# Mechanical properties :
#
#
# Convention : Reuss Voigt Hill
#
# Bulk Modulus (GPa) = 57.71925 61.30731 59.51328
# Shear Modulus (GPa) = 15.13869 22.88030 19.00950
#
# Velocity S-wave (km/s) = 2.78733 3.42669 3.12341
# Velocity P-wave (km/s) = 6.32301 6.86434 6.59923
#
# Compressibility (1/GPa) = 0.01732524
#
# Stress axis : x y z
#
# Youngs Moduli (GPa) = 95.60793 67.44335 61.52740
#
# Poissons Ratio (x) = 0.15982 0.30846
# Poissons Ratio (y) = 0.22656 0.29067
# Poissons Ratio (z) = 0.47932 0.31861
#
# Static dielectric constant tensor:
#      x y z
#    x 1.793480 0.000000 -0.033860 
#    y 0.000000 1.553380 0.000000 
#    z -0.033860 0.000000 1.824400 
# 
# From -- ./inp_files/199751.got.cif
#   From: 2010.05.17/outbox.cif.g08.bks.cpg/sg12_100_cif.got.tgz:199751.got - 2010.06.03 13:09:07.
