data_PCOD9214774
_publ_section_title
;
Structure prediction by ZEFSAII (Michael W. Deem and Ramdas Pophale) SiO2 
 PCOD9214774
Probable space group: C 2/M
;
_chemical_formula_sum "Si O2"
_cell_formula_units_Z 50
_cell_length_a 28.866596
_cell_length_b 9.517797
_cell_length_c 12.410150
_cell_angle_alpha 90.000000
_cell_angle_beta 126.933355
_cell_angle_gamma 90.000000
_cell_volume 2725.447774
_symmetry_space_group_name_H-M "C 2/M"
_symmetry_group_IT_number 12
_symmetry_cell_setting 'monoclinic'
loop_
_space_group_symop_operation_xyz
x,y,z
-x,y,-z
-x,-y,-z
x,-y,z
1/2+x,1/2+y,z
1/2-x,1/2+y,-z
1/2-x,1/2-y,-z
1/2+x,1/2-y,z
loop_
_atom_site_type_symbol
_atom_site_label
_atom_site_fract_x
_atom_site_fract_y
_atom_site_fract_z
Si Si1 0.941101 0.239770 0.266920
Si Si2 0.748988 0.668654 0.884398
Si Si3 0.500000 0.500000 0.500000
Si Si4 0.143912 0.837921 0.045910
Si Si5 0.140817 0.339989 0.664264
Si Si6 0.938336 0.833409 0.866654
Si Si7 0.561325 0.839987 0.345671
O O1 0.899913 0.329306 0.287604
O O2 0.969205 0.121060 0.381182
O O3 0.994968 0.321197 0.290147
O O4 0.901538 0.179274 0.115645
O O5 0.749277 0.500000 0.897352
O O6 0.804790 0.727466 0.899761
O O7 0.691001 0.725224 0.746161
O O8 0.750000 0.750000 0.000000
O O9 0.109952 0.812563 0.109631
O O10 0.165239 0.000000 0.074302
O O11 0.163822 0.500000 0.689170
O O12 0.101701 0.310353 0.505090
O O13 0.926093 0.759660 0.736960
O O14 0.943979 0.000000 0.855341
O O15 0.000000 0.782714 0.000000
O O16 0.571313 0.000000 0.326604
#
# Coordination Sequence:
#
# PCOD9214774 Si02
#       7
#     8   8   2   8   8   8   8
#     4  12  22  35  62  93 132 164 203 253 311 372
#     4  12  26  41  64  92 124 164 209 257 310 373
#     4  12  24  32  58 106 128 176 202 256 310 392
#     4  11  23  41  63  91 127 163 207 257 305 362
#     4  11  24  42  62  90 128 167 208 259 315 371
#     4  10  22  40  64  91 123 164 207 255 306 366
#     4  11  24  40  61  93 129 165 205 256 313 372
#
# _framework density 18.345610000000001
#
# number of rings (size 3 to 8) (size 9 to 14) (size 15 to 20)
#    0.000    0.800    5.600    1.920    2.240    3.520 
#    0.000    0.800    0.000    0.000    0.000    0.000 
#    0.000    0.000    0.000    0.000    0.000    0.000 
#
# Total GULP energy -139437.969712 kJ/mol
# GULP energy per Si atom -5577.518788 kJ/mol
# Density = 1.830385 g / cm^3
# Si number density = 18.345610 Si / 1000 Ang^3
#
#
#
# Elastic Constant Matrix: (Units=GPa)
#
#
# Indices 1 2 3 4 5 6 
#
# 1 85.5379 65.1360 55.3919 0.0000 -3.0626 0.0000
# 2 65.1360 120.9365 54.0643 0.0000 -0.9957 0.0000
# 3 55.3919 54.0643 84.2619 0.0000 -9.2960 0.0000
# 4 0.0000 0.0000 0.0000 31.8051 0.0000 2.6376
# 5 -3.0626 -0.9957 -9.2960 0.0000 26.0575 0.0000
# 6 0.0000 0.0000 0.0000 2.6376 0.0000 3.6121
#
#
#
# Elastic Compliance Matrix: (Units=1/GPa)
#
#
# Indices 1 2 3 4 5 6 
#
# 1 0.025710 -0.008742 -0.011446 0.000000 -0.001396 0.000000
# 2 -0.008742 0.014701 -0.003890 0.000000 -0.001854 0.000000
# 3 -0.011446 -0.003890 0.022613 0.000000 0.006573 0.000000
# 4 0.000000 0.000000 0.000000 0.033468 0.000000 -0.024438
# 5 -0.001396 -0.001854 0.006573 0.000000 0.040487 0.000000
# 6 0.000000 0.000000 0.000000 -0.024438 0.000000 0.294689
#
#
# Mechanical properties :
#
#
# Convention : Reuss Voigt Hill
#
# Bulk Modulus (GPa) = 67.25917 71.10228 69.18073
# Shear Modulus (GPa) = 10.31397 20.03789 15.17593
#
# Velocity S-wave (km/s) = 2.37366 3.30850 2.87927
# Velocity P-wave (km/s) = 6.65238 7.31000 6.98893
#
# Compressibility (1/GPa) = 0.01486786
#
# Stress axis : x y z
#
# Youngs Moduli (GPa) = 38.89610 68.02292 44.22144
#
# Poissons Ratio (x) = 0.59463 0.50616
# Poissons Ratio (y) = 0.34002 0.17204
# Poissons Ratio (z) = 0.44521 0.26463
#
# Static dielectric constant tensor:
#      x y z
#    x 1.629910 0.000000 0.011630 
#    y 0.000000 1.629510 0.000000 
#    z 0.011630 0.000000 1.613190 
# 
# From -- ./inp_files/180522.got.cif
#   From: 2010.05.17/outbox.cif.g08.bks.cpg/sg12_91_cif.got.tgz:180522.got - 2010.06.03 13:09:07.
