data_PCOD9214362
_publ_section_title
;
Structure prediction by ZEFSAII (Michael W. Deem and Ramdas Pophale) SiO2 
 PCOD9214362
Probable space group: C 2/M
;
_chemical_formula_sum "Si O2"
_cell_formula_units_Z 48
_cell_length_a 19.644448
_cell_length_b 8.867008
_cell_length_c 15.797216
_cell_angle_alpha 90.000000
_cell_angle_beta 102.088911
_cell_angle_gamma 90.000000
_cell_volume 2690.655430
_symmetry_space_group_name_H-M "C 2/M"
_symmetry_group_IT_number 12
_symmetry_cell_setting 'monoclinic'
loop_
_space_group_symop_operation_xyz
x,y,z
-x,y,-z
-x,-y,-z
x,-y,z
1/2+x,1/2+y,z
1/2-x,1/2+y,-z
1/2-x,1/2-y,-z
1/2+x,1/2-y,z
loop_
_atom_site_type_symbol
_atom_site_label
_atom_site_fract_x
_atom_site_fract_y
_atom_site_fract_z
Si Si1 0.198816 0.680522 0.736314
Si Si2 0.929526 0.321274 0.034512
Si Si3 0.063066 0.819762 0.778556
Si Si4 0.404672 0.679819 0.712306
Si Si5 0.774667 0.679586 0.594384
Si Si6 0.666946 0.320994 0.125669
O O1 0.199630 0.500000 0.726258
O O2 0.123599 0.740253 0.741750
O O3 0.227752 0.755954 0.658727
O O4 0.254551 0.716556 0.825424
O O5 0.926899 0.500000 0.050134
O O6 0.931188 0.233611 0.122988
O O7 0.864887 0.270406 0.959945
O O8 0.000000 0.288288 0.000000
O O9 0.985532 0.780676 0.726391
O O10 0.070698 0.000000 0.776135
O O11 0.395931 0.500000 0.695965
O O12 0.352962 0.768353 0.637663
O O13 0.379299 0.708607 0.802159
O O14 0.770084 0.500000 0.590572
O O15 0.750000 0.750000 0.500000
O O16 0.662802 0.500000 0.106610
#
# Coordination Sequence:
#
# PCOD9214362 Si02
#       6
#     8   8   8   8   8   8
#     4  10  22  40  59  84 118 149 186 236 287 338
#     4  11  22  33  51  81 114 149 196 245 282 327
#     4  11  22  37  58  83 115 155 192 233 287 338
#     4   9  19  36  58  84 114 148 189 233 281 337
#     4  11  22  39  65  91 115 146 185 227 277 339
#     4   9  18  35  56  77 107 152 194 235 283 334
#
# _framework density 17.839518999999999
#
# number of rings (size 3 to 8) (size 9 to 14) (size 15 to 20)
#    0.000    1.833    1.667    4.000    0.000    6.000 
#    0.000    0.833    0.000    5.000    0.000    0.000 
#    0.000    0.000    0.000    0.000    0.000    0.000 
#
# Total GULP energy -134072.764554 kJ/mol
# GULP energy per Si atom -5586.365190 kJ/mol
# Density = 1.779892 g / cm^3
# Si number density = 17.839519 Si / 1000 Ang^3
#
#
#
# Elastic Constant Matrix: (Units=GPa)
#
#
# Indices 1 2 3 4 5 6 
#
# 1 145.6829 69.0427 57.0173 0.0000 9.5169 0.0000
# 2 69.0427 86.4247 59.8533 0.0000 12.3269 0.0000
# 3 57.0173 59.8533 99.7145 0.0000 22.7580 0.0000
# 4 0.0000 0.0000 0.0000 30.7785 0.0000 0.5162
# 5 9.5169 12.3269 22.7580 0.0000 18.3495 0.0000
# 6 0.0000 0.0000 0.0000 0.5162 0.0000 32.4242
#
#
#
# Elastic Compliance Matrix: (Units=1/GPa)
#
#
# Indices 1 2 3 4 5 6 
#
# 1 0.011291 -0.007727 -0.002325 0.000000 0.002218 0.000000
# 2 -0.007727 0.025143 -0.010787 0.000000 0.000495 0.000000
# 3 -0.002325 -0.010787 0.022183 0.000000 -0.019060 0.000000
# 4 0.000000 0.000000 0.000000 0.032499 0.000000 -0.000517
# 5 0.002218 0.000495 -0.019060 0.000000 0.076654 0.000000
# 6 0.000000 0.000000 0.000000 -0.000517 0.000000 0.030849
#
#
# Mechanical properties :
#
#
# Convention : Reuss Voigt Hill
#
# Bulk Modulus (GPa) = 59.02925 78.18320 68.60622
# Shear Modulus (GPa) = 20.32995 26.03768 23.18381
#
# Velocity S-wave (km/s) = 3.37946 3.82455 3.60887
# Velocity P-wave (km/s) = 6.95619 7.96391 7.47705
#
# Compressibility (1/GPa) = 0.01694075
#
# Stress axis : x y z
#
# Youngs Moduli (GPa) = 88.56686 39.77206 45.07984
#
# Poissons Ratio (x) = 0.30730 0.10479
# Poissons Ratio (y) = 0.68431 0.48628
# Poissons Ratio (z) = 0.20588 0.42903
#
# Static dielectric constant tensor:
#      x y z
#    x 1.612680 0.000000 0.002730 
#    y 0.000000 1.592010 0.000000 
#    z 0.002730 0.000000 1.575220 
# 
# From -- ./inp_files/221620.got.cif
#   From: 2010.05.17/outbox.cif.g08.bks.cpg/sg12_111_cif.got.tgz:221620.got - 2010.06.03 13:09:07.
