data_PCOD9214036
_publ_section_title
;
Structure prediction by ZEFSAII (Michael W. Deem and Ramdas Pophale) SiO2 
 PCOD9214036
Probable space group: C 2/M
;
_chemical_formula_sum "Si O2"
_cell_formula_units_Z 52
_cell_length_a 26.176924
_cell_length_b 18.574350
_cell_length_c 5.112723
_cell_angle_alpha 90.000000
_cell_angle_beta 80.717424
_cell_angle_gamma 90.000000
_cell_volume 2453.351462
_symmetry_space_group_name_H-M "C 2/M"
_symmetry_group_IT_number 12
_symmetry_cell_setting 'monoclinic'
loop_
_space_group_symop_operation_xyz
x,y,z
-x,y,-z
-x,-y,-z
x,-y,z
1/2+x,1/2+y,z
1/2-x,1/2+y,-z
1/2-x,1/2-y,-z
1/2+x,1/2-y,z
loop_
_atom_site_type_symbol
_atom_site_label
_atom_site_fract_x
_atom_site_fract_y
_atom_site_fract_z
Si Si1 0.270854 0.809770 0.170316
Si Si2 0.090092 0.217124 0.112667
Si Si3 0.293134 0.580726 0.496619
Si Si4 0.903915 0.915892 0.571796
Si Si5 0.688101 0.083534 0.259067
Si Si6 0.000000 0.172899 0.500000
Si Si7 0.361068 0.207945 0.426510
O O1 0.224019 0.859395 0.289486
O O2 0.303338 0.773478 0.375172
O O3 0.250000 0.750000 0.000000
O O4 0.309921 0.865545 0.995164
O O5 0.104404 0.132893 0.159321
O O6 0.121187 0.256179 0.320631
O O7 0.030247 0.218404 0.257123
O O8 0.103353 0.257842 0.833059
O O9 0.286706 0.500000 0.612239
O O10 0.354530 0.590206 0.420460
O O11 0.247932 0.586349 0.316310
O O12 0.955579 0.878579 0.415858
O O13 0.911568 0.000000 0.623265
O O14 0.648631 0.123395 0.491764
O O15 0.675707 0.000000 0.225241
#
# Coordination Sequence:
#
# PCOD9214036 Si02
#       7
#     8   8   8   8   8   4   8
#     4  11  22  33  59  90 128 170 208 257 307 382
#     4  10  22  39  64  93 126 160 218 262 322 364
#     4   9  19  33  53  82 128 171 210 253 303 364
#     4   9  18  38  60  89 130 176 219 264 310 369
#     4  10  22  39  61  92 130 172 215 257 313 387
#     4   8  21  36  66  88 127 168 216 278 307 386
#     4  11  22  41  61  94 125 164 208 266 315 383
#
# _framework density 21.195494
#
# number of rings (size 3 to 8) (size 9 to 14) (size 15 to 20)
#    0.923    1.231    1.538    1.615    2.154    2.462 
#    0.000    0.769    0.000    1.846    0.000    3.231 
#    0.000    0.000    0.000    0.000    0.000    0.000 
#
# Total GULP energy -144804.488275 kJ/mol
# GULP energy per Si atom -5569.403395 kJ/mol
# Density = 2.114725 g / cm^3
# Si number density = 21.195494 Si / 1000 Ang^3
#
#
#
# Elastic Constant Matrix: (Units=GPa)
#
#
# Indices 1 2 3 4 5 6 
#
# 1 89.4897 49.2578 25.1171 0.0000 -21.5320 0.0000
# 2 49.2578 136.0617 68.9758 0.0000 -11.4382 0.0000
# 3 25.1171 68.9758 87.9967 0.0000 -8.8791 0.0000
# 4 0.0000 0.0000 0.0000 16.6005 0.0000 -7.2785
# 5 -21.5320 -11.4382 -8.8791 0.0000 29.1688 0.0000
# 6 0.0000 0.0000 0.0000 -7.2785 0.0000 35.0679
#
#
#
# Elastic Compliance Matrix: (Units=1/GPa)
#
#
# Indices 1 2 3 4 5 6 
#
# 1 0.016427 -0.005368 0.000547 0.000000 0.010188 0.000000
# 2 -0.005368 0.014056 -0.009625 0.000000 -0.001380 0.000000
# 3 0.000547 -0.009625 0.018996 0.000000 0.002412 0.000000
# 4 0.000000 0.000000 0.000000 0.066270 0.000000 0.013755
# 5 0.010188 -0.001380 0.002412 0.000000 0.041996 0.000000
# 6 0.000000 0.000000 0.000000 0.013755 0.000000 0.031371
#
#
# Mechanical properties :
#
#
# Convention : Reuss Voigt Hill
#
# Bulk Modulus (GPa) = 48.57491 66.69438 57.63464
# Shear Modulus (GPa) = 22.23503 27.51393 24.87448
#
# Velocity S-wave (km/s) = 3.24241 3.60683 3.42946
# Velocity P-wave (km/s) = 6.08153 6.99144 6.55230
#
# Compressibility (1/GPa) = 0.02058676
#
# Stress axis : x y z
#
# Youngs Moduli (GPa) = 60.87633 71.14340 52.64291
#
# Poissons Ratio (x) = 0.38186 -0.02877
# Poissons Ratio (y) = 0.32676 0.50669
# Poissons Ratio (z) = -0.03327 0.68476
#
# Static dielectric constant tensor:
#      x y z
#    x 1.804660 0.000000 0.005200 
#    y 0.000000 1.791330 0.000000 
#    z 0.005200 0.000000 1.869290 
# 
# From -- ./inp_files/29031.got.cif
#   From: 2010.05.17/outbox.cif.g08.bks.cpg/sg12_15_cif.got.tgz:29031.got - 2010.06.03 13:09:07.
