data_PCOD9214383
_publ_section_title
;
Structure prediction by ZEFSAII (Michael W. Deem and Ramdas Pophale) SiO2 
 PCOD9214383
Probable space group: C 2/M
;
_chemical_formula_sum "Si O2"
_cell_formula_units_Z 56
_cell_length_a 13.132879
_cell_length_b 27.553661
_cell_length_c 8.939804
_cell_angle_alpha 90.000000
_cell_angle_beta 132.623012
_cell_angle_gamma 90.000000
_cell_volume 2380.355873
_symmetry_space_group_name_H-M "C 2/M"
_symmetry_group_IT_number 12
_symmetry_cell_setting 'monoclinic'
loop_
_space_group_symop_operation_xyz
x,y,z
-x,y,-z
-x,-y,-z
x,-y,z
1/2+x,1/2+y,z
1/2-x,1/2+y,-z
1/2-x,1/2-y,-z
1/2+x,1/2-y,z
loop_
_atom_site_type_symbol
_atom_site_label
_atom_site_fract_x
_atom_site_fract_y
_atom_site_fract_z
Si Si1 0.856332 0.642721 0.645259
Si Si2 0.882567 0.944751 0.097033
Si Si3 0.310668 0.700462 0.733689
Si Si4 0.344215 0.357217 0.276134
Si Si5 0.296043 0.555660 0.673529
Si Si6 0.405230 0.726082 0.117653
Si Si7 0.897850 0.669677 0.259180
O O1 0.801509 0.692623 0.507396
O O2 0.774242 0.643072 0.717621
O O3 0.796471 0.596158 0.496928
O O4 0.022771 0.642169 0.796053
O O5 0.837272 0.906151 0.173232
O O6 0.044999 0.936371 0.220929
O O7 0.869364 0.000000 0.138807
O O8 0.801530 0.941555 0.859153
O O9 0.453631 0.697974 0.786989
O O10 0.249472 0.663649 0.800425
O O11 0.346075 0.740872 0.893772
O O12 0.500000 0.353515 0.500000
O O13 0.328341 0.312564 0.146592
O O14 0.257731 0.500000 0.596003
O O15 0.414640 0.773950 0.227294
O O16 0.000000 0.659248 0.500000
#
# Coordination Sequence:
#
# PCOD9214383 Si02
#       7
#     8   8   8   8   8   8   8
#     4  11  22  37  56  87 124 161 193 244 308 356
#     4   9  18  32  54  89 127 161 196 248 303 352
#     4  10  22  40  60  80 111 155 198 248 290 358
#     4  12  21  32  54  89 125 157 190 251 303 357
#     4   9  17  33  58  86 121 162 205 241 292 365
#     4  11  22  38  61  84 109 155 205 246 302 348
#     4  10  24  39  59  82 117 156 194 253 293 362
#
# _framework density 23.525894999999998
#
# number of rings (size 3 to 8) (size 9 to 14) (size 15 to 20)
#    0.000    1.714    2.857    2.571    2.000    4.286 
#    0.000    0.000    0.000    3.857    0.000    0.000 
#    0.000   22.857    0.000    0.286    0.000    0.000 
#
# Total GULP energy -155927.191110 kJ/mol
# GULP energy per Si atom -5568.828254 kJ/mol
# Density = 2.347235 g / cm^3
# Si number density = 23.525895 Si / 1000 Ang^3
#
#
#
# Elastic Constant Matrix: (Units=GPa)
#
#
# Indices 1 2 3 4 5 6 
#
# 1 212.8949 47.0656 19.1646 0.0000 -13.8586 0.0000
# 2 47.0656 114.1195 12.8634 0.0000 -8.5426 0.0000
# 3 19.1646 12.8634 49.2167 0.0000 -15.3722 0.0000
# 4 0.0000 0.0000 0.0000 33.3796 0.0000 -7.5928
# 5 -13.8586 -8.5426 -15.3722 0.0000 33.3779 0.0000
# 6 0.0000 0.0000 0.0000 -7.5928 0.0000 33.3317
#
#
#
# Elastic Compliance Matrix: (Units=1/GPa)
#
#
# Indices 1 2 3 4 5 6 
#
# 1 0.005316 -0.001971 -0.001195 0.000000 0.001152 0.000000
# 2 -0.001971 0.009819 -0.001483 0.000000 0.001012 0.000000
# 3 -0.001195 -0.001483 0.024409 0.000000 0.010366 0.000000
# 4 0.000000 0.000000 0.000000 0.031596 0.000000 0.007197
# 5 0.001152 0.001012 0.010366 0.000000 0.035471 0.000000
# 6 0.000000 0.000000 0.000000 0.007197 0.000000 0.031641
#
#
# Mechanical properties :
#
#
# Convention : Reuss Voigt Hill
#
# Bulk Modulus (GPa) = 33.06279 59.37982 46.22131
# Shear Modulus (GPa) = 31.71989 39.82700 35.77344
#
# Velocity S-wave (km/s) = 3.67590 4.11895 3.90372
# Velocity P-wave (km/s) = 5.66574 6.92214 6.32521
#
# Compressibility (1/GPa) = 0.03024548
#
# Stress axis : x y z
#
# Youngs Moduli (GPa) = 188.12836 101.84737 40.96905
#
# Poissons Ratio (x) = 0.20077 0.04895
# Poissons Ratio (y) = 0.37086 0.06074
# Poissons Ratio (z) = 0.22476 0.15100
#
# Static dielectric constant tensor:
#      x y z
#    x 1.962840 0.000000 0.103900 
#    y 0.000000 1.898460 0.000000 
#    z 0.103900 0.000000 2.101820 
# 
# From -- ./inp_files/54784.got.cif
#   From: 2010.05.17/outbox.cif.g08.bks.cpg/sg12_28_cif.got.tgz:54784.got - 2010.06.03 13:09:07.
