data_PCOD9214641
_publ_section_title
;
Structure prediction by ZEFSAII (Michael W. Deem and Ramdas Pophale) SiO2 
 PCOD9214641
Probable space group: C 2/M
;
_chemical_formula_sum "Si O2"
_cell_formula_units_Z 48
_cell_length_a 28.520196
_cell_length_b 7.602626
_cell_length_c 14.900060
_cell_angle_alpha 90.000000
_cell_angle_beta 133.592171
_cell_angle_gamma 90.000000
_cell_volume 2339.926948
_symmetry_space_group_name_H-M "C 2/M"
_symmetry_group_IT_number 12
_symmetry_cell_setting 'monoclinic'
loop_
_space_group_symop_operation_xyz
x,y,z
-x,y,-z
-x,-y,-z
x,-y,z
1/2+x,1/2+y,z
1/2-x,1/2+y,-z
1/2-x,1/2-y,-z
1/2+x,1/2-y,z
loop_
_atom_site_type_symbol
_atom_site_label
_atom_site_fract_x
_atom_site_fract_y
_atom_site_fract_z
Si Si1 0.071556 0.214285 0.622284
Si Si2 0.274171 0.705161 0.932662
Si Si3 0.980522 0.500000 0.118648
Si Si4 0.715111 0.302161 0.361165
Si Si5 0.811905 0.197658 0.339640
Si Si6 0.577567 0.291344 0.837895
Si Si7 0.388461 0.000000 0.822415
O O1 0.123328 0.277690 0.617688
O O2 0.082566 0.264491 0.740068
O O3 0.000000 0.265436 0.500000
O O4 0.076615 0.000000 0.627367
O O5 0.261142 0.500000 0.898664
O O6 0.235359 0.811555 0.808211
O O7 0.250000 0.750000 0.000000
O O8 0.350587 0.733023 0.028072
O O9 0.969733 0.670295 0.167156
O O10 0.051215 0.500000 0.167122
O O11 0.925017 0.500000 0.967222
O O12 0.689030 0.500000 0.333211
O O13 0.750000 0.250000 0.500000
O O14 0.772250 0.295993 0.363030
O O15 0.658978 0.166608 0.257123
O O16 0.825476 0.000000 0.391411
O O17 0.561350 0.500000 0.819185
#
# Coordination Sequence:
#
# PCOD9214641 Si02
#       7
#     8   8   4   8   8   8   4
#     4   9  19  37  59  88 135 181 220 263 326 407
#     4  11  21  33  56  90 129 174 219 270 329 393
#     4  11  26  44  73  98 142 182 225 288 350 423
#     4  12  25  47  74 100 134 174 232 295 347 406
#     4  11  21  37  62  95 129 170 215 275 335 394
#     4  10  22  40  62  97 136 180 226 270 335 410
#     4  11  26  50  70 106 133 177 234 290 358 406
#
# _framework density 20.513459999999998
#
# number of rings (size 3 to 8) (size 9 to 14) (size 15 to 20)
#    0.000    1.333    3.333    2.000    2.333    4.000 
#    1.500    3.750    0.000    0.000    0.000    0.000 
#    0.000    0.000    0.000    0.000    0.000    0.000 
#
# Total GULP energy -134116.014324 kJ/mol
# GULP energy per Si atom -5588.167263 kJ/mol
# Density = 2.046677 g / cm^3
# Si number density = 20.513460 Si / 1000 Ang^3
#
#
#
# Elastic Constant Matrix: (Units=GPa)
#
#
# Indices 1 2 3 4 5 6 
#
# 1 155.5992 50.7496 45.7139 0.0000 1.4781 0.0000
# 2 50.7496 100.2833 23.0793 0.0000 15.0968 0.0000
# 3 45.7139 23.0793 81.2305 0.0000 9.3811 0.0000
# 4 0.0000 0.0000 0.0000 30.0348 0.0000 -24.8094
# 5 1.4781 15.0968 9.3811 0.0000 28.7982 0.0000
# 6 0.0000 0.0000 0.0000 -24.8094 0.0000 35.6376
#
#
#
# Elastic Compliance Matrix: (Units=1/GPa)
#
#
# Indices 1 2 3 4 5 6 
#
# 1 0.008954 -0.004009 -0.004250 0.000000 0.003026 0.000000
# 2 -0.004009 0.013139 -0.000733 0.000000 -0.006443 0.000000
# 3 -0.004250 -0.000733 0.015421 0.000000 -0.004421 0.000000
# 4 0.000000 0.000000 0.000000 0.078348 0.000000 0.054542
# 5 0.003026 -0.006443 -0.004421 0.000000 0.039387 0.000000
# 6 0.000000 0.000000 0.000000 0.054542 0.000000 0.066030
#
#
# Mechanical properties :
#
#
# Convention : Reuss Voigt Hill
#
# Bulk Modulus (GPa) = 51.19938 64.02206 57.61072
# Shear Modulus (GPa) = 20.34403 33.39882 26.87142
#
# Velocity S-wave (km/s) = 3.15261 4.03940 3.62324
# Velocity P-wave (km/s) = 6.18587 7.28239 6.75641
#
# Compressibility (1/GPa) = 0.01953149
#
# Stress axis : x y z
#
# Youngs Moduli (GPa) = 111.68183 76.10841 64.84688
#
# Poissons Ratio (x) = 0.30511 0.27557
# Poissons Ratio (y) = 0.44772 0.04753
# Poissons Ratio (z) = 0.47459 0.05578
#
# Static dielectric constant tensor:
#      x y z
#    x 1.496900 0.000000 -0.018530 
#    y 0.000000 1.784910 0.000000 
#    z -0.018530 0.000000 1.713300 
# 
# From -- ./inp_files/249393.got.cif
#   From: 2010.05.17/outbox.cif.g08.bks.cpg/sg12_125_cif.got.tgz:249393.got - 2010.06.03 13:09:07.
