data_PCOD9214392
_publ_section_title
;
Structure prediction by ZEFSAII (Michael W. Deem and Ramdas Pophale) SiO2 
 PCOD9214392
Probable space group: C 2/M
;
_chemical_formula_sum "Si O2"
_cell_formula_units_Z 40
_cell_length_a 10.158184
_cell_length_b 8.977536
_cell_length_c 22.203750
_cell_angle_alpha 90.000000
_cell_angle_beta 97.091339
_cell_angle_gamma 90.000000
_cell_volume 2009.392146
_symmetry_space_group_name_H-M "C 2/M"
_symmetry_group_IT_number 12
_symmetry_cell_setting 'monoclinic'
loop_
_space_group_symop_operation_xyz
x,y,z
-x,y,-z
-x,-y,-z
x,-y,z
1/2+x,1/2+y,z
1/2-x,1/2+y,-z
1/2-x,1/2-y,-z
1/2+x,1/2-y,z
loop_
_atom_site_type_symbol
_atom_site_label
_atom_site_fract_x
_atom_site_fract_y
_atom_site_fract_z
Si Si1 0.110292 0.178707 0.766996
Si Si2 0.644905 0.673957 0.038272
Si Si3 0.889648 0.678057 0.834213
Si Si4 0.227704 0.821928 0.563725
Si Si5 0.481610 0.678970 0.631864
O O1 0.264224 0.217441 0.784656
O O2 0.022008 0.254320 0.813305
O O3 0.051251 0.219630 0.698733
O O4 0.099536 0.000000 0.772595
O O5 0.678290 0.500000 0.048568
O O6 0.639382 0.755546 0.101934
O O7 0.500000 0.683207 0.000000
O O8 0.750000 0.750000 0.000000
O O9 0.899989 0.500000 0.838362
O O10 0.250000 0.750000 0.500000
O O11 0.344211 0.762055 0.613264
O O12 0.085290 0.784350 0.584479
O O13 0.235251 0.000000 0.559644
O O14 0.460407 0.500000 0.630020
#
# Coordination Sequence:
#
# PCOD9214392 Si02
#       5
#     8   8   8   8   8
#     4  10  22  40  60  85 118 153 191 238 290 344
#     4  11  24  41  61  87 119 155 196 242 292 346
#     4  11  23  39  61  89 119 153 195 240 288 346
#     4  11  23  39  60  87 118 153 195 241 290 346
#     4  10  22  40  60  84 117 154 192 238 290 343
#
# _framework density 19.906517000000001
#
# number of rings (size 3 to 8) (size 9 to 14) (size 15 to 20)
#    0.000    1.400    0.000    4.800    0.000   14.400 
#    0.000    0.000    0.000    0.000    0.000    0.000 
#    0.000    0.000    0.000    0.000    0.000    0.000 
#
# Total GULP energy -111897.267716 kJ/mol
# GULP energy per Si atom -5594.863386 kJ/mol
# Density = 1.986121 g / cm^3
# Si number density = 19.906517 Si / 1000 Ang^3
#
#
#
# Elastic Constant Matrix: (Units=GPa)
#
#
# Indices 1 2 3 4 5 6 
#
# 1 58.2030 13.0712 -25.0861 0.0000 -5.6773 0.0000
# 2 13.0712 20.2788 0.6639 0.0000 1.3302 0.0000
# 3 -25.0861 0.6639 51.5978 0.0000 -3.7314 0.0000
# 4 0.0000 0.0000 0.0000 35.6361 0.0000 2.7952
# 5 -5.6773 1.3302 -3.7314 0.0000 39.7470 0.0000
# 6 0.0000 0.0000 0.0000 2.7952 0.0000 33.6290
#
#
#
# Elastic Compliance Matrix: (Units=1/GPa)
#
#
# Indices 1 2 3 4 5 6 
#
# 1 0.028278 -0.019095 0.014430 0.000000 0.006033 0.000000
# 2 -0.019095 0.062345 -0.010505 0.000000 -0.005800 0.000000
# 3 0.014430 -0.010505 0.026889 0.000000 0.004937 0.000000
# 4 0.000000 0.000000 0.000000 0.028246 0.000000 -0.002348
# 5 0.006033 -0.005800 0.004937 0.000000 0.026678 0.000000
# 6 0.000000 0.000000 0.000000 -0.002348 0.000000 0.029931
#
#
# Mechanical properties :
#
#
# Convention : Reuss Voigt Hill
#
# Bulk Modulus (GPa) = 11.47175 11.93083 11.70129
# Shear Modulus (GPa) = 19.10117 31.23112 25.16614
#
# Velocity S-wave (km/s) = 3.10101 3.96522 3.55944
# Velocity P-wave (km/s) = 4.31242 5.19330 4.77323
#
# Compressibility (1/GPa) = 0.08717063
#
# Stress axis : x y z
#
# Youngs Moduli (GPa) = 35.36373 16.03975 37.19051
#
# Poissons Ratio (x) = 0.30628 -0.53666
# Poissons Ratio (y) = 0.67527 0.39070
# Poissons Ratio (z) = -0.51030 0.16850
#
# Static dielectric constant tensor:
#      x y z
#    x 1.666520 0.000000 0.020160 
#    y 0.000000 1.662110 0.000000 
#    z 0.020160 0.000000 1.689970 
# 
# From -- ./inp_files/303417.got.cif
#   From: 2010.05.17/outbox.cif.g08.bks.cpg/sg12_152_cif.got.tgz:303417.got - 2010.06.03 13:09:07.
