data_PCOD9214710
_publ_section_title
;
Structure prediction by ZEFSAII (Michael W. Deem and Ramdas Pophale) SiO2 
 PCOD9214710
Probable space group: C 2/M
;
_chemical_formula_sum "Si O2"
_cell_formula_units_Z 48
_cell_length_a 16.641486
_cell_length_b 29.557228
_cell_length_c 7.936114
_cell_angle_alpha 90.000000
_cell_angle_beta 35.368386
_cell_angle_gamma 90.000000
_cell_volume 2259.517595
_symmetry_space_group_name_H-M "C 2/M"
_symmetry_group_IT_number 12
_symmetry_cell_setting 'monoclinic'
loop_
_space_group_symop_operation_xyz
x,y,z
-x,y,-z
-x,-y,-z
x,-y,z
1/2+x,1/2+y,z
1/2-x,1/2+y,-z
1/2-x,1/2-y,-z
1/2+x,1/2-y,z
loop_
_atom_site_type_symbol
_atom_site_label
_atom_site_fract_x
_atom_site_fract_y
_atom_site_fract_z
Si Si1 0.350328 0.448072 0.698079
Si Si2 0.780082 0.720209 0.110388
Si Si3 0.915027 0.727328 0.305265
Si Si4 0.667033 0.129178 0.083435
Si Si5 0.837172 0.053027 0.318327
Si Si6 0.632693 0.868798 0.530763
O O1 0.500000 0.430951 0.500000
O O2 0.341915 0.500000 0.762925
O O3 0.327712 0.444394 0.537079
O O4 0.237760 0.418701 0.982045
O O5 0.699615 0.742654 0.405423
O O6 0.750000 0.750000 0.000000
O O7 0.740620 0.667585 0.162996
O O8 0.947976 0.718656 0.817568
O O9 0.853995 0.676837 0.380301
O O10 0.000000 0.746976 0.000000
O O11 0.530709 0.119551 0.203285
O O12 0.654320 0.145699 0.298264
O O13 0.733074 0.090444 0.416735
O O14 0.808555 0.000000 0.317701
O O15 0.000000 0.062036 0.000000
#
# Coordination Sequence:
#
# PCOD9214710 Si02
#       6
#     8   8   8   8   8   8
#     4  10  22  40  63  93 128 165 212 269 322 387
#     4  11  22  43  66  92 128 173 219 270 328 392
#     4  11  24  42  65  95 132 167 216 278 330 388
#     4  10  22  40  64  92 127 171 221 264 323 394
#     4  10  22  41  64  94 131 169 212 269 330 391
#     4  10  22  40  64  93 127 171 211 268 328 392
#
# _framework density 21.243473000000002
#
# number of rings (size 3 to 8) (size 9 to 14) (size 15 to 20)
#    0.000    1.667    1.667    2.000    4.667    4.000 
#    3.000    3.333    0.000    0.000    0.000    0.000 
#    0.000    0.000    0.000    0.000    0.000    0.000 
#
# Total GULP energy -133745.340021 kJ/mol
# GULP energy per Si atom -5572.722501 kJ/mol
# Density = 2.119512 g / cm^3
# Si number density = 21.243473 Si / 1000 Ang^3
#
#
#
# Elastic Constant Matrix: (Units=GPa)
#
#
# Indices 1 2 3 4 5 6 
#
# 1 74.9759 40.2205 16.1463 0.0000 -10.5356 0.0000
# 2 40.2205 90.2985 53.6003 0.0000 -19.8975 0.0000
# 3 16.1463 53.6003 94.8554 0.0000 1.2041 0.0000
# 4 0.0000 0.0000 0.0000 38.4524 0.0000 -5.1050
# 5 -10.5356 -19.8975 1.2041 0.0000 35.7774 0.0000
# 6 0.0000 0.0000 0.0000 -5.1050 0.0000 37.8496
#
#
#
# Elastic Compliance Matrix: (Units=1/GPa)
#
#
# Indices 1 2 3 4 5 6 
#
# 1 0.017821 -0.009218 0.002175 0.000000 0.000048 0.000000
# 2 -0.009218 0.025528 -0.013008 0.000000 0.011921 0.000000
# 3 0.002175 -0.013008 0.017614 0.000000 -0.007186 0.000000
# 4 0.000000 0.000000 0.000000 0.026480 0.000000 0.003572
# 5 0.000048 0.011921 -0.007186 0.000000 0.034836 0.000000
# 6 0.000000 0.000000 0.000000 0.003572 0.000000 0.026902
#
#
# Mechanical properties :
#
#
# Convention : Reuss Voigt Hill
#
# Bulk Modulus (GPa) = 47.93604 53.34043 50.63824
# Shear Modulus (GPa) = 25.47939 32.42673 28.95306
#
# Velocity S-wave (km/s) = 3.46699 3.91120 3.69577
# Velocity P-wave (km/s) = 6.21617 6.74983 6.48849
#
# Compressibility (1/GPa) = 0.02086113
#
# Stress axis : x y z
#
# Youngs Moduli (GPa) = 56.11333 39.17232 56.77428
#
# Poissons Ratio (x) = 0.36110 -0.12348
# Poissons Ratio (y) = 0.51726 0.73849
# Poissons Ratio (z) = -0.12204 0.50954
#
# Static dielectric constant tensor:
#      x y z
#    x 1.903820 0.000000 0.032120 
#    y 0.000000 1.801480 0.000000 
#    z 0.032120 0.000000 1.799950 
# 
# From -- ./inp_files/80559.got.cif
#   From: 2010.05.17/outbox.cif.g08.bks.cpg/sg12_41_cif.got.tgz:80559.got - 2010.06.03 13:09:07.
