data_PCOD9214771
_publ_section_title
;
Structure prediction by ZEFSAII (Michael W. Deem and Ramdas Pophale) SiO2 
 PCOD9214771
Probable space group: C 2/M
;
_chemical_formula_sum "Si O2"
_cell_formula_units_Z 48
_cell_length_a 13.394106
_cell_length_b 15.981414
_cell_length_c 23.929714
_cell_angle_alpha 90.000000
_cell_angle_beta 152.081358
_cell_angle_gamma 90.000000
_cell_volume 2398.357561
_symmetry_space_group_name_H-M "C 2/M"
_symmetry_group_IT_number 12
_symmetry_cell_setting 'monoclinic'
loop_
_space_group_symop_operation_xyz
x,y,z
-x,y,-z
-x,-y,-z
x,-y,z
1/2+x,1/2+y,z
1/2-x,1/2+y,-z
1/2-x,1/2-y,-z
1/2+x,1/2-y,z
loop_
_atom_site_type_symbol
_atom_site_label
_atom_site_fract_x
_atom_site_fract_y
_atom_site_fract_z
Si Si1 0.806282 0.500000 0.967153
Si Si2 0.130031 0.178421 0.905746
Si Si3 0.242268 0.225721 0.139374
Si Si4 0.181129 0.000000 0.781874
Si Si5 0.046331 0.826727 0.670889
Si Si6 0.198081 0.400038 0.742598
Si Si7 0.922714 0.297684 0.524030
O O1 0.756825 0.590482 0.968795
O O2 0.654792 0.500000 0.836259
O O3 0.062119 0.500000 0.090434
O O4 0.130236 0.222932 0.844955
O O5 0.903647 0.146200 0.816990
O O6 0.250000 0.250000 0.000000
O O7 0.254333 0.285252 0.199236
O O8 0.325692 0.138359 0.206530
O O9 0.000000 0.214949 0.000000
O O10 0.079717 0.922413 0.699836
O O11 0.020479 0.789024 0.596503
O O12 0.831441 0.795489 0.595581
O O13 0.221532 0.500000 0.754235
O O14 0.005493 0.368623 0.608117
O O15 0.000000 0.314338 0.500000
#
# Coordination Sequence:
#
# PCOD9214771 Si02
#       7
#     4   8   8   4   8   8   8
#     4  11  24  38  63  95 129 168 212 261 310 389
#     4  12  23  39  63  94 131 171 213 259 319 381
#     4  11  21  40  65  92 128 172 204 259 326 381
#     4  11  22  38  63  89 128 159 214 252 313 370
#     4  10  22  40  64  91 120 168 202 262 312 375
#     4  11  25  42  65  97 130 167 219 267 319 386
#     4  10  23  42  65  89 122 161 216 258 320 368
#
# _framework density 20.013695999999999
#
# number of rings (size 3 to 8) (size 9 to 14) (size 15 to 20)
#    0.000    1.167    4.167    2.000    3.500    0.667 
#    1.500    0.417    0.000    0.000    0.000    0.000 
#    0.000    0.000    0.000    0.000    0.000    0.000 
#
# Total GULP energy -133735.152794 kJ/mol
# GULP energy per Si atom -5572.298033 kJ/mol
# Density = 1.996814 g / cm^3
# Si number density = 20.013696 Si / 1000 Ang^3
#
#
#
# Elastic Constant Matrix: (Units=GPa)
#
#
# Indices 1 2 3 4 5 6 
#
# 1 48.8644 30.5284 13.8530 -0.0014 -5.5140 0.0028
# 2 30.5284 178.7203 45.3527 0.0005 -21.6185 0.0009
# 3 13.8530 45.3527 96.4553 -0.0056 -20.5059 0.0035
# 4 -0.0014 0.0005 -0.0056 12.0943 -0.0027 19.2990
# 5 -5.5140 -21.6185 -20.5059 -0.0027 16.4725 0.0029
# 6 0.0028 0.0009 0.0035 19.2990 0.0029 2.3511
#
#
#
# Elastic Compliance Matrix: (Units=1/GPa)
#
#
# Indices 1 2 3 4 5 6 
#
# 1 0.023169 -0.003418 -0.001394 -0.000004 0.001534 0.000004
# 2 -0.003418 0.007375 -0.001581 -0.000001 0.006567 0.000000
# 3 -0.001394 -0.001581 0.014647 -0.000006 0.015692 0.000010
# 4 -0.000004 -0.000001 -0.000006 -0.006834 -0.000020 0.056099
# 5 0.001534 0.006567 0.015692 -0.000020 0.089373 0.000030
# 6 0.000004 0.000000 0.000010 0.056099 0.000030 -0.035156
#
#
# Mechanical properties :
#
#
# Convention : Reuss Voigt Hill
#
# Bulk Modulus (GPa) = 30.86008 55.94535 43.40271
# Shear Modulus (GPa) = 43.04379 21.80398 32.42388
#
# Velocity S-wave (km/s) = 4.64261 3.30427 4.02939
# Velocity P-wave (km/s) = 6.64766 6.52471 6.58647
#
# Compressibility (1/GPa) = 0.03240433
#
# Stress axis : x y z
#
# Youngs Moduli (GPa) = 43.16168 135.59980 68.27336
#
# Poissons Ratio (x) = 0.46352 0.09519
# Poissons Ratio (y) = 0.14754 0.10791
# Poissons Ratio (z) = 0.06018 0.21432
#
# Static dielectric constant tensor:
#      x y z
#    x 1.794830 0.000000 -0.019670 
#    y 0.000000 1.799520 -0.000010 
#    z -0.019670 -0.000010 1.741220 
# 
# From -- ./inp_files/340242.got.cif
#   From: 2010.05.17/outbox.cif.g08.bks.cpg/sg12_171_cif.got.tgz:340242.got - 2010.06.03 13:09:07.
