data_PCOD9214963
_publ_section_title
;
Structure prediction by ZEFSAII (Michael W. Deem and Ramdas Pophale) SiO2 
 PCOD9214963
Probable space group: C 2/M
;
_chemical_formula_sum "Si O2"
_cell_formula_units_Z 44
_cell_length_a 23.830299
_cell_length_b 14.773075
_cell_length_c 15.944858
_cell_angle_alpha 90.000000
_cell_angle_beta 157.285452
_cell_angle_gamma 90.000000
_cell_volume 2167.535146
_symmetry_space_group_name_H-M "C 2/M"
_symmetry_group_IT_number 12
_symmetry_cell_setting 'monoclinic'
loop_
_space_group_symop_operation_xyz
x,y,z
-x,y,-z
-x,-y,-z
x,-y,z
1/2+x,1/2+y,z
1/2-x,1/2+y,-z
1/2-x,1/2-y,-z
1/2+x,1/2-y,z
loop_
_atom_site_type_symbol
_atom_site_label
_atom_site_fract_x
_atom_site_fract_y
_atom_site_fract_z
Si Si1 0.005787 0.000000 0.838016
Si Si2 0.311777 0.151706 0.063774
Si Si3 0.226056 0.139307 0.543283
Si Si4 0.877500 0.657601 0.588468
Si Si5 0.241936 0.500000 0.692601
Si Si6 0.658901 0.000000 0.173550
Si Si7 0.168472 0.000000 0.759137
Si Si8 0.314641 0.000000 0.197971
O O1 0.907499 0.087666 0.686146
O O2 0.092794 0.000000 0.045466
O O3 0.137805 0.000000 0.954569
O O4 0.456306 0.162106 0.208347
O O5 0.354846 0.091075 0.204178
O O6 0.250000 0.250000 0.000000
O O7 0.200684 0.088941 0.859074
O O8 0.192371 0.243246 0.513577
O O9 0.355917 0.129018 0.655223
O O10 0.262815 0.087209 0.678126
O O11 0.797705 0.586487 0.417805
O O12 0.151708 0.500000 0.656371
O O13 0.707903 0.000000 0.144131
O O14 0.500000 0.000000 0.000000
O O15 0.000000 0.000000 0.500000
#
# Coordination Sequence:
#
# PCOD9214963 Si02
#       8
#     4   8   8   8   4   4   4   4
#     4   9  20  41  65  89 128 165 202 255 329 366
#     4  11  24  43  67  86 134 175 206 260 337 382
#     4  10  23  41  67  90 133 167 214 261 326 392
#     4  11  23  41  63  98 124 172 214 262 321 384
#     4  10  22  40  66  96 128 158 216 264 308 376
#     4  11  23  44  69  94 131 174 219 273 326 378
#     4  11  27  42  67 100 129 164 231 273 314 394
#     4   9  22  39  61  94 124 165 204 257 307 394
#
# _framework density 20.299557
#
# number of rings (size 3 to 8) (size 9 to 14) (size 15 to 20)
#    0.545    1.091    0.000    4.364    7.636    4.364 
#    6.545    0.000    0.000    0.000    0.000    0.000 
#    0.000    0.000    0.000    0.000    0.000    0.000 
#
# Total GULP energy -122805.709535 kJ/mol
# GULP energy per Si atom -5582.077706 kJ/mol
# Density = 2.025335 g / cm^3
# Si number density = 20.299557 Si / 1000 Ang^3
#
#
#
# Elastic Constant Matrix: (Units=GPa)
#
#
# Indices 1 2 3 4 5 6 
#
# 1 111.0224 65.7442 24.9608 0.0000 5.4868 0.0000
# 2 65.7442 174.2077 46.6494 0.0000 -14.2058 0.0000
# 3 24.9608 46.6494 97.4565 0.0000 7.0519 0.0000
# 4 0.0000 0.0000 0.0000 20.5560 0.0000 18.7869
# 5 5.4868 -14.2058 7.0519 0.0000 39.4634 0.0000
# 6 0.0000 0.0000 0.0000 18.7869 0.0000 24.5118
#
#
#
# Elastic Compliance Matrix: (Units=1/GPa)
#
#
# Indices 1 2 3 4 5 6 
#
# 1 0.012061 -0.004647 -0.000631 0.000000 -0.003237 0.000000
# 2 -0.004647 0.008737 -0.003309 0.000000 0.004383 0.000000
# 3 -0.000631 -0.003309 0.012245 0.000000 -0.003292 0.000000
# 4 0.000000 0.000000 0.000000 0.162419 0.000000 -0.124484
# 5 -0.003237 0.004383 -0.003292 0.000000 0.027956 0.000000
# 6 0.000000 0.000000 0.000000 -0.124484 0.000000 0.136207
#
#
# Mechanical properties :
#
#
# Convention : Reuss Voigt Hill
#
# Bulk Modulus (GPa) = 63.01345 73.04393 68.02869
# Shear Modulus (GPa) = 13.08603 33.26173 23.17388
#
# Velocity S-wave (km/s) = 2.54174 4.05229 3.38242
# Velocity P-wave (km/s) = 6.30263 7.61287 6.98852
#
# Compressibility (1/GPa) = 0.01586963
#
# Stress axis : x y z
#
# Youngs Moduli (GPa) = 82.91528 114.45034 81.66763
#
# Poissons Ratio (x) = 0.53181 0.05150
# Poissons Ratio (y) = 0.38527 0.27027
# Poissons Ratio (z) = 0.05228 0.37876
#
# Static dielectric constant tensor:
#      x y z
#    x 1.766690 0.000000 0.028990 
#    y 0.000000 1.681350 0.000000 
#    z 0.028990 0.000000 1.741830 
# 
# From -- ./inp_files/290220.got.cif
#   From: 2010.05.17/outbox.cif.g08.bks.cpg/sg12_146_cif.got.tgz:290220.got - 2010.06.03 13:09:07.
