data_PCOD9215326
_publ_section_title
;
Structure prediction by ZEFSAII (Michael W. Deem and Ramdas Pophale) SiO2 
 PCOD9215326
Probable space group: C 2/M
;
_chemical_formula_sum "Si O2"
_cell_formula_units_Z 48
_cell_length_a 19.537925
_cell_length_b 8.211469
_cell_length_c 25.348270
_cell_angle_alpha 90.000000
_cell_angle_beta 150.806703
_cell_angle_gamma 90.000000
_cell_volume 1983.588610
_symmetry_space_group_name_H-M "C 2/M"
_symmetry_group_IT_number 12
_symmetry_cell_setting 'monoclinic'
loop_
_space_group_symop_operation_xyz
x,y,z
-x,y,-z
-x,-y,-z
x,-y,z
1/2+x,1/2+y,z
1/2-x,1/2+y,-z
1/2-x,1/2-y,-z
1/2+x,1/2-y,z
loop_
_atom_site_type_symbol
_atom_site_label
_atom_site_fract_x
_atom_site_fract_y
_atom_site_fract_z
Si Si1 0.415736 0.188917 0.671964
Si Si2 0.927734 0.185084 0.791491
Si Si3 0.328417 0.304695 0.325260
Si Si4 0.809867 0.314599 0.985907
Si Si5 0.400353 0.195093 0.543856
Si Si6 0.836973 0.300936 0.891612
O O1 0.467347 0.287886 0.757133
O O2 0.458686 0.238753 0.641824
O O3 0.246973 0.213117 0.559358
O O4 0.450134 0.000000 0.703511
O O5 0.765335 0.227667 0.691785
O O6 0.022399 0.299503 0.891895
O O7 0.955684 0.000000 0.825318
O O8 0.326963 0.500000 0.329216
O O9 0.486381 0.244863 0.423329
O O10 0.247301 0.252357 0.216905
O O11 0.767568 0.500000 0.954327
O O12 0.750000 0.250000 0.000000
O O13 0.776283 0.237690 0.906656
O O14 0.375464 0.000000 0.526412
O O15 0.834616 0.500000 0.891181
O O16 0.000000 0.251474 0.000000
#
# Coordination Sequence:
#
# PCOD9215326 Si02
#       6
#     8   8   8   8   8   8
#     4  10  22  42  66  91 122 161 202 250 305 366
#     4  12  25  41  61  90 125 163 205 256 307 357
#     4  11  22  39  64  91 122 163 206 250 304 366
#     4  11  23  41  62  90 124 162 205 253 306 362
#     4  10  22  41  64  94 125 155 198 252 307 367
#     4   9  18  37  62  86 117 159 202 246 295 353
#
# _framework density 24.198564999999999
#
# number of rings (size 3 to 8) (size 9 to 14) (size 15 to 20)
#    0.000    1.500    1.667    3.500    2.333    2.667 
#    0.000    6.667    0.000    0.000    0.000    0.000 
#    0.000    0.000    0.000    0.000    0.000    0.000 
#
# Total GULP energy -134311.506844 kJ/mol
# GULP energy per Si atom -5596.312785 kJ/mol
# Density = 2.414349 g / cm^3
# Si number density = 24.198565 Si / 1000 Ang^3
#
#
#
# Elastic Constant Matrix: (Units=GPa)
#
#
# Indices 1 2 3 4 5 6 
#
# 1 121.6441 11.6047 -3.5577 0.0000 -0.7755 0.0000
# 2 11.6047 47.2908 -7.6119 0.0000 -7.5821 0.0000
# 3 -3.5577 -7.6119 53.3228 -0.0001 0.3321 0.0000
# 4 0.0000 0.0000 -0.0001 20.1411 -0.0001 4.7508
# 5 -0.7755 -7.5821 0.3321 -0.0001 43.2497 0.0000
# 6 0.0000 0.0000 0.0000 4.7508 0.0000 30.1590
#
#
#
# Elastic Compliance Matrix: (Units=1/GPa)
#
#
# Indices 1 2 3 4 5 6 
#
# 1 0.008424 -0.002058 0.000270 0.000000 -0.000212 0.000000
# 2 -0.002058 0.022779 0.003090 0.000000 0.003933 0.000000
# 3 0.000270 0.003090 0.019210 0.000000 0.000399 0.000000
# 4 0.000000 0.000000 0.000000 0.051566 0.000000 -0.008123
# 5 -0.000212 0.003933 0.000399 0.000000 0.023804 0.000000
# 6 0.000000 0.000000 0.000000 -0.008123 0.000000 0.034437
#
#
# Mechanical properties :
#
#
# Convention : Reuss Voigt Hill
#
# Bulk Modulus (GPa) = 18.86215 24.79198 21.82706
# Shear Modulus (GPa) = 28.52452 33.49812 31.01132
#
# Velocity S-wave (km/s) = 3.43705 3.72466 3.58374
# Velocity P-wave (km/s) = 4.85414 5.36329 5.11506
#
# Compressibility (1/GPa) = 0.05301623
#
# Stress axis : x y z
#
# Youngs Moduli (GPa) = 118.71510 43.90091 52.05539
#
# Poissons Ratio (x) = 0.09033 -0.01403
# Poissons Ratio (y) = 0.24427 -0.16085
# Poissons Ratio (z) = -0.03201 -0.13565
#
# Static dielectric constant tensor:
#      x y z
#    x 1.963360 0.000000 0.004100 
#    y 0.000000 1.835020 0.000000 
#    z 0.004100 0.000000 1.993360 
# 
# From -- ./inp_files/365565.got.cif
#   From: 2010.05.17/outbox.cif.g08.bks.cpg/sg12_183_cif.got.tgz:365565.got - 2010.06.03 13:09:07.
