data_PCOD9215362
_publ_section_title
;
Structure prediction by ZEFSAII (Michael W. Deem and Ramdas Pophale) SiO2 
 PCOD9215362
Probable space group: C 2/M
;
_chemical_formula_sum "Si O2"
_cell_formula_units_Z 48
_cell_length_a 30.421385
_cell_length_b 14.908671
_cell_length_c 15.184557
_cell_angle_alpha 90.000000
_cell_angle_beta 160.419116
_cell_angle_gamma 90.000000
_cell_volume 2308.036835
_symmetry_space_group_name_H-M "C 2/M"
_symmetry_group_IT_number 12
_symmetry_cell_setting 'monoclinic'
loop_
_space_group_symop_operation_xyz
x,y,z
-x,y,-z
-x,-y,-z
x,-y,z
1/2+x,1/2+y,z
1/2-x,1/2+y,-z
1/2-x,1/2-y,-z
1/2+x,1/2-y,z
loop_
_atom_site_type_symbol
_atom_site_label
_atom_site_fract_x
_atom_site_fract_y
_atom_site_fract_z
Si Si1 0.151510 0.671238 0.292190
Si Si2 0.282065 0.393021 0.359757
Si Si3 0.682692 0.896166 0.542091
Si Si4 0.066883 0.608464 0.815904
Si Si5 0.579431 0.389775 0.891027
Si Si6 0.607868 0.731818 0.773395
O O1 0.250000 0.750000 0.500000
O O2 0.201853 0.631891 0.295481
O O3 0.166610 0.610555 0.407429
O O4 0.000000 0.698080 0.000000
O O5 0.286767 0.500000 0.367070
O O6 0.432258 0.361983 0.641498
O O7 0.200466 0.366592 0.119510
O O8 0.553016 0.863658 0.346828
O O9 0.688243 0.000000 0.574988
O O10 0.816152 0.859346 0.837068
O O11 0.064540 0.500000 0.796571
O O12 0.059145 0.671612 0.717369
O O13 0.581122 0.500000 0.884314
O O14 0.613879 0.338910 0.865547
O O15 0.500000 0.698587 0.500000
O O16 0.750000 0.750000 0.000000
#
# Coordination Sequence:
#
# PCOD9215362 Si02
#       6
#     8   8   8   8   8   8
#     4  12  27  39  60  98 132 171 217 265 310 373
#     4  10  22  41  65  91 127 175 215 263 317 374
#     4  10  22  41  65  91 127 173 213 264 316 369
#     4  10  22  41  66  93 123 166 216 268 325 383
#     4  10  24  43  66  95 131 170 214 266 327 390
#     4  12  26  42  66  95 124 167 208 270 338 394
#
# _framework density 20.796894000000002
#
# number of rings (size 3 to 8) (size 9 to 14) (size 15 to 20)
#    0.000    1.333    1.667    2.500    7.000    2.000 
#    0.000    2.500    0.000    0.000    0.000    0.000 
#    0.000    0.000    0.000    0.000    0.000    0.000 
#
# Total GULP energy -134025.840323 kJ/mol
# GULP energy per Si atom -5584.410013 kJ/mol
# Density = 2.074956 g / cm^3
# Si number density = 20.796894 Si / 1000 Ang^3
#
#
#
# Elastic Constant Matrix: (Units=GPa)
#
#
# Indices 1 2 3 4 5 6 
#
# 1 86.3332 8.6315 21.7177 0.0000 11.4357 0.0000
# 2 8.6315 48.8746 10.6931 0.0000 1.7948 0.0000
# 3 21.7177 10.6931 146.4498 0.0000 8.5664 0.0000
# 4 0.0000 0.0000 0.0000 12.4001 0.0000 -7.1491
# 5 11.4357 1.7948 8.5664 0.0000 43.3962 0.0000
# 6 0.0000 0.0000 0.0000 -7.1491 0.0000 36.7303
#
#
#
# Elastic Compliance Matrix: (Units=1/GPa)
#
#
# Indices 1 2 3 4 5 6 
#
# 1 0.012539 -0.001766 -0.001560 0.000000 -0.002923 0.000000
# 2 -0.001766 0.021055 -0.001266 0.000000 -0.000155 0.000000
# 3 -0.001560 -0.001266 0.007208 0.000000 -0.000960 0.000000
# 4 0.000000 0.000000 0.000000 0.090838 0.000000 0.017680
# 5 -0.002923 -0.000155 -0.000960 0.000000 0.024010 0.000000
# 6 0.000000 0.000000 0.000000 0.017680 0.000000 0.030667
#
#
# Mechanical properties :
#
#
# Convention : Reuss Voigt Hill
#
# Bulk Modulus (GPa) = 31.62676 40.41580 36.02128
# Shear Modulus (GPa) = 24.26710 34.54634 29.40672
#
# Velocity S-wave (km/s) = 3.41964 4.08012 3.76439
# Velocity P-wave (km/s) = 5.55269 6.45540 6.02099
#
# Compressibility (1/GPa) = 0.03161879
#
# Stress axis : x y z
#
# Youngs Moduli (GPa) = 79.75031 47.49423 138.73197
#
# Poissons Ratio (x) = 0.08387 0.21636
# Poissons Ratio (y) = 0.14083 0.17569
# Poissons Ratio (z) = 0.12437 0.06015
#
# Static dielectric constant tensor:
#      x y z
#    x 2.493290 0.000000 -0.069240 
#    y 0.000000 1.818200 0.000000 
#    z -0.069240 0.000000 1.766290 
# 
# From -- ./inp_files/251395.got.cif
#   From: 2010.05.17/outbox.cif.g08.bks.cpg/sg12_126_cif.got.tgz:251395.got - 2010.06.03 13:09:07.
