data_PCOD9215967
_publ_section_title
;
Structure prediction by ZEFSAII (Michael W. Deem and Ramdas Pophale) SiO2 
 PCOD9215967
Probable space group: C 2/M
;
_chemical_formula_sum "Si O2"
_cell_formula_units_Z 40
_cell_length_a 15.268648
_cell_length_b 18.696034
_cell_length_c 7.562942
_cell_angle_alpha 90.000000
_cell_angle_beta 125.157188
_cell_angle_gamma 90.000000
_cell_volume 1765.097299
_symmetry_space_group_name_H-M "C 2/M"
_symmetry_group_IT_number 12
_symmetry_cell_setting 'monoclinic'
loop_
_space_group_symop_operation_xyz
x,y,z
-x,y,-z
-x,-y,-z
x,-y,z
1/2+x,1/2+y,z
1/2-x,1/2+y,-z
1/2-x,1/2-y,-z
1/2+x,1/2-y,z
loop_
_atom_site_type_symbol
_atom_site_label
_atom_site_fract_x
_atom_site_fract_y
_atom_site_fract_z
Si Si1 0.283068 0.500000 0.711641
Si Si2 0.880825 0.360743 0.834322
Si Si3 0.939054 0.000000 0.194359
Si Si4 0.885690 0.386696 0.443034
Si Si5 0.000000 0.877755 0.500000
Si Si6 0.804211 0.231732 0.250564
Si Si7 0.236261 0.500000 0.228200
O O1 0.218105 0.433098 0.717944
O O2 0.274864 0.500000 0.484574
O O3 0.395094 0.500000 0.944540
O O4 0.894271 0.395405 0.660594
O O5 0.792525 0.298938 0.743174
O O6 0.834158 0.428234 0.890101
O O7 0.000000 0.331181 0.000000
O O8 0.002777 0.929349 0.331378
O O9 0.837156 0.000000 0.213553
O O10 0.860727 0.304439 0.375222
O O11 0.000000 0.408474 0.500000
O O12 0.895539 0.828702 0.357227
O O13 0.750000 0.250000 0.000000
#
# Coordination Sequence:
#
# PCOD9215967 Si02
#       7
#     4   8   4   8   4   8   4
#     4  10  24  42  67 103 132 184 229 280 349 406
#     4  11  24  41  65 100 133 180 227 282 347 403
#     4  11  22  44  73  94 137 185 222 289 344 407
#     4  11  23  41  66  96 136 174 229 288 333 414
#     4  11  24  42  72  99 134 182 234 279 340 418
#     4  12  24  43  68  98 136 181 225 280 346 408
#     4  10  22  42  68  99 144 171 235 289 328 421
#
# _framework density 22.661639999999998
#
# number of rings (size 3 to 8) (size 9 to 14) (size 15 to 20)
#    0.000    1.000    3.000    3.600    2.800    0.000 
#    0.000    2.000    4.400    0.000    0.000    0.000 
#    0.000    0.000    0.000    0.000    0.000    0.000 
#
# Total GULP energy -111676.829005 kJ/mol
# GULP energy per Si atom -5583.841450 kJ/mol
# Density = 2.261006 g / cm^3
# Si number density = 22.661640 Si / 1000 Ang^3
#
#
#
# Elastic Constant Matrix: (Units=GPa)
#
#
# Indices 1 2 3 4 5 6 
#
# 1 127.3297 14.1576 34.6651 0.0000 29.5587 0.0000
# 2 14.1576 94.0639 4.4013 0.0000 30.6152 0.0000
# 3 34.6651 4.4013 82.2821 0.0000 35.1706 0.0000
# 4 0.0000 0.0000 0.0000 41.2350 0.0000 14.4198
# 5 29.5587 30.6152 35.1706 0.0000 38.1819 0.0000
# 6 0.0000 0.0000 0.0000 14.4198 0.0000 26.2785
#
#
#
# Elastic Compliance Matrix: (Units=1/GPa)
#
#
# Indices 1 2 3 4 5 6 
#
# 1 0.009735 0.001003 -0.000973 0.000000 -0.007445 0.000000
# 2 0.001003 0.017297 0.008102 0.000000 -0.022109 0.000000
# 3 -0.000973 0.008102 0.024057 0.000000 -0.027903 0.000000
# 4 0.000000 0.000000 0.000000 0.030010 0.000000 -0.016467
# 5 -0.007445 -0.022109 -0.027903 0.000000 0.075384 0.000000
# 6 0.000000 0.000000 0.000000 -0.016467 0.000000 0.047090
#
#
# Mechanical properties :
#
#
# Convention : Reuss Voigt Hill
#
# Bulk Modulus (GPa) = 14.84671 45.56930 30.20800
# Shear Modulus (GPa) = 23.83697 37.83585 30.83641
#
# Velocity S-wave (km/s) = 3.24676 4.09051 3.69281
# Velocity P-wave (km/s) = 4.54103 6.51628 5.61618
#
# Compressibility (1/GPa) = 0.06735500
#
# Stress axis : x y z
#
# Youngs Moduli (GPa) = 102.72000 57.81382 41.56861
#
# Poissons Ratio (x) = -0.05801 0.04044
# Poissons Ratio (y) = -0.10307 -0.33681
# Poissons Ratio (z) = 0.09992 -0.46843
#
# Static dielectric constant tensor:
#      x y z
#    x 1.924010 0.000000 0.066650 
#    y 0.000000 1.841470 0.000000 
#    z 0.066650 0.000000 1.918490 
# 
# From -- ./inp_files/63860.got.cif
#   From: 2010.05.17/outbox.cif.g08.bks.cpg/sg12_32_cif.got.tgz:63860.got - 2010.06.03 13:09:07.
