data_PCOD9215149
_publ_section_title
;
Structure prediction by ZEFSAII (Michael W. Deem and Ramdas Pophale) SiO2 
 PCOD9215149
Probable space group: C 2/M
;
_chemical_formula_sum "Si O2"
_cell_formula_units_Z 64
_cell_length_a 19.168120
_cell_length_b 8.916633
_cell_length_c 30.790902
_cell_angle_alpha 90.000000
_cell_angle_beta 38.658681
_cell_angle_gamma 90.000000
_cell_volume 3287.457940
_symmetry_space_group_name_H-M "C 2/M"
_symmetry_group_IT_number 12
_symmetry_cell_setting 'monoclinic'
loop_
_space_group_symop_operation_xyz
x,y,z
-x,y,-z
-x,-y,-z
x,-y,z
1/2+x,1/2+y,z
1/2-x,1/2+y,-z
1/2-x,1/2-y,-z
1/2+x,1/2-y,z
loop_
_atom_site_type_symbol
_atom_site_label
_atom_site_fract_x
_atom_site_fract_y
_atom_site_fract_z
Si Si1 0.954217 0.173778 0.207502
Si Si2 0.719350 0.177283 0.210118
Si Si3 0.367731 0.823197 0.570833
Si Si4 0.871877 0.680059 0.936274
Si Si5 0.284456 0.318888 0.437426
Si Si6 0.774158 0.823283 0.702835
Si Si7 0.006484 0.174102 0.282008
Si Si8 0.543766 0.820085 0.931034
O O1 0.067617 0.240219 0.133419
O O2 0.954241 0.178365 0.259426
O O3 0.855130 0.276185 0.238041
O O4 0.938856 0.000000 0.201484
O O5 0.684513 0.239774 0.274321
O O6 0.618477 0.230210 0.228676
O O7 0.838136 0.246210 0.138411
O O8 0.729123 0.000000 0.206565
O O9 0.500000 0.807984 0.500000
O O10 0.299900 0.775955 0.560694
O O11 0.330947 0.733594 0.631205
O O12 0.341921 0.000000 0.590653
O O13 0.866741 0.500000 0.933668
O O14 0.950184 0.713106 0.940122
O O15 0.750000 0.750000 0.000000
O O16 0.281829 0.500000 0.441612
O O17 0.250000 0.250000 0.500000
O O18 0.409747 0.275078 0.362034
O O19 0.786646 0.000000 0.701812
O O20 0.034631 0.000000 0.277851
O O21 0.560161 0.000000 0.923389
O O22 0.500000 0.774666 0.000000
#
# Coordination Sequence:
#
# PCOD9215149 Si02
#       8
#     8   8   8   8   8   8   8   8
#     4  11  22  42  69  93 124 166 211 264 321 373
#     4  12  26  42  65  95 127 165 213 263 315 371
#     4  10  22  42  66  93 126 166 212 261 315 373
#     4  11  24  41  64  95 129 168 210 259 314 375
#     4  10  22  41  62  91 128 168 207 255 314 373
#     4  12  24  41  66  94 127 165 211 263 317 378
#     4  10  23  43  65  90 127 168 209 256 316 378
#     4  10  23  44  66  90 126 170 211 255 315 374
#
# _framework density 19.467931
#
# number of rings (size 3 to 8) (size 9 to 14) (size 15 to 20)
#    0.000    1.250    2.500    3.000    3.500    3.000 
#    0.000    0.000    0.000    0.000    0.000    0.000 
#    0.000    0.000    0.000    0.000    0.000    0.000 
#
# Total GULP energy -178907.418592 kJ/mol
# GULP energy per Si atom -5590.856831 kJ/mol
# Density = 1.942362 g / cm^3
# Si number density = 19.467931 Si / 1000 Ang^3
#
#
#
# Elastic Constant Matrix: (Units=GPa)
#
#
# Indices 1 2 3 4 5 6 
#
# 1 59.3948 24.7224 17.0064 0.0000 -2.7905 -0.0018
# 2 24.7224 66.5638 36.6682 0.0001 -1.9538 -0.0037
# 3 17.0064 36.6682 100.6969 0.0000 4.8170 0.0000
# 4 0.0000 0.0001 0.0000 34.9423 0.0001 1.2419
# 5 -2.7905 -1.9538 4.8170 0.0001 35.0695 -0.0001
# 6 -0.0018 -0.0037 0.0000 1.2419 -0.0001 27.1567
#
#
#
# Elastic Compliance Matrix: (Units=1/GPa)
#
#
# Indices 1 2 3 4 5 6 
#
# 1 0.020034 -0.006883 -0.000941 0.000000 0.001340 0.000000
# 2 -0.006883 0.021298 -0.006668 0.000000 0.001555 0.000002
# 3 -0.000941 -0.006668 0.012622 0.000000 -0.002180 -0.000001
# 4 0.000000 0.000000 0.000000 0.028665 0.000000 -0.001311
# 5 0.001340 0.001555 -0.002180 0.000000 0.029008 0.000000
# 6 0.000000 0.000002 -0.000001 -0.001311 0.000000 0.036883
#
#
# Mechanical properties :
#
#
# Convention : Reuss Voigt Hill
#
# Bulk Modulus (GPa) = 40.04693 42.60547 41.32620
# Shear Modulus (GPa) = 26.90821 29.31760 28.11290
#
# Velocity S-wave (km/s) = 3.72180 3.88486 3.80420
# Velocity P-wave (km/s) = 6.25176 6.48501 6.36945
#
# Compressibility (1/GPa) = 0.02497070
#
# Stress axis : x y z
#
# Youngs Moduli (GPa) = 49.91546 46.95243 79.22690
#
# Poissons Ratio (x) = 0.32317 0.07457
# Poissons Ratio (y) = 0.34357 0.52825
# Poissons Ratio (z) = 0.04698 0.31306
#
# Static dielectric constant tensor:
#      x y z
#    x 1.690840 0.000000 -0.006110 
#    y 0.000000 1.654930 0.000000 
#    z -0.006110 0.000000 1.678090 
# 
# From -- ./inp_files/378106.got.cif
#   From: 2010.05.17/outbox.cif.g08.bks.cpg/sg12_190_cif.got.tgz:378106.got - 2010.06.03 13:09:07.
