data_PCOD9215303
_publ_section_title
;
Structure prediction by ZEFSAII (Michael W. Deem and Ramdas Pophale) SiO2 
 PCOD9215303
Probable space group: C 2/M
;
_chemical_formula_sum "Si O2"
_cell_formula_units_Z 40
_cell_length_a 11.878859
_cell_length_b 13.474214
_cell_length_c 10.430147
_cell_angle_alpha 90.000000
_cell_angle_beta 90.249055
_cell_angle_gamma 90.000000
_cell_volume 1669.415703
_symmetry_space_group_name_H-M "C 2/M"
_symmetry_group_IT_number 12
_symmetry_cell_setting 'monoclinic'
loop_
_space_group_symop_operation_xyz
x,y,z
-x,y,-z
-x,-y,-z
x,-y,z
1/2+x,1/2+y,z
1/2-x,1/2+y,-z
1/2-x,1/2-y,-z
1/2+x,1/2-y,z
loop_
_atom_site_type_symbol
_atom_site_label
_atom_site_fract_x
_atom_site_fract_y
_atom_site_fract_z
Si Si1 0.479718 0.613952 0.641155
Si Si2 0.079935 0.387121 0.828552
Si Si3 0.745630 0.798934 0.640034
Si Si4 0.189309 0.391816 0.192105
Si Si5 0.903062 0.175741 0.096544
O O1 0.500000 0.659607 0.500000
O O2 0.516277 0.500000 0.636434
O O3 0.347169 0.624301 0.659395
O O4 0.544705 0.660633 0.760796
O O5 0.113959 0.500000 0.862806
O O6 0.134703 0.355305 0.691639
O O7 0.116374 0.294027 0.916435
O O8 0.944027 0.386725 0.831908
O O9 0.750000 0.750000 0.500000
O O10 0.778728 0.704659 0.726963
O O11 0.207252 0.500000 0.255829
O O12 0.287105 0.383760 0.085134
O O13 0.000000 0.143599 0.000000
#
# Coordination Sequence:
#
# PCOD9215303 Si02
#       5
#     8   8   8   8   8
#     4  11  23  42  67  98 134 177 225 277 339 407
#     4  10  22  43  65  93 133 177 223 275 342 406
#     4  11  23  39  65  93 134 174 227 274 334 400
#     4  10  22  41  64  92 129 173 220 275 337 404
#     4  11  24  43  71 100 135 174 229 287 341 399
#
# _framework density 23.960478999999999
#
# number of rings (size 3 to 8) (size 9 to 14) (size 15 to 20)
#    0.000    1.400    2.000    3.600    0.000    6.000 
#    0.000    2.000    0.000    0.000    0.000    0.000 
#    0.000    0.000    0.000    0.000    0.000    0.000 
#
# Total GULP energy -111668.551569 kJ/mol
# GULP energy per Si atom -5583.427578 kJ/mol
# Density = 2.390594 g / cm^3
# Si number density = 23.960479 Si / 1000 Ang^3
#
#
#
# Elastic Constant Matrix: (Units=GPa)
#
#
# Indices 1 2 3 4 5 6 
#
# 1 136.6973 30.8677 54.8010 0.0000 -23.0275 0.0000
# 2 30.8677 122.1360 18.2060 0.0000 -2.2947 0.0000
# 3 54.8010 18.2060 101.3248 0.0000 -16.3471 0.0000
# 4 0.0000 0.0000 0.0000 15.5934 0.0000 -9.2294
# 5 -23.0275 -2.2947 -16.3471 0.0000 41.3922 0.0000
# 6 0.0000 0.0000 0.0000 -9.2294 0.0000 22.8065
#
#
#
# Elastic Compliance Matrix: (Units=1/GPa)
#
#
# Indices 1 2 3 4 5 6 
#
# 1 0.010197 -0.001824 -0.004580 0.000000 0.003763 0.000000
# 2 -0.001824 0.008740 -0.000715 0.000000 -0.000812 0.000000
# 3 -0.004580 -0.000715 0.012878 0.000000 0.002498 0.000000
# 4 0.000000 0.000000 0.000000 0.084328 0.000000 0.034126
# 5 0.003763 -0.000812 0.002498 0.000000 0.027194 0.000000
# 6 0.000000 0.000000 0.000000 0.034126 0.000000 0.057657
#
#
# Mechanical properties :
#
#
# Convention : Reuss Voigt Hill
#
# Bulk Modulus (GPa) = 56.89319 63.10084 59.99702
# Shear Modulus (GPa) = 22.61501 33.04398 27.82950
#
# Velocity S-wave (km/s) = 3.07554 3.71766 3.41174
# Velocity P-wave (km/s) = 6.03391 6.69481 6.37294
#
# Compressibility (1/GPa) = 0.01757680
#
# Stress axis : x y z
#
# Youngs Moduli (GPa) = 98.06395 114.41859 77.65131
#
# Poissons Ratio (x) = 0.20867 0.35568
# Poissons Ratio (y) = 0.17884 0.05553
# Poissons Ratio (z) = 0.44918 0.08182
#
# Static dielectric constant tensor:
#      x y z
#    x 1.927970 0.000000 -0.036590 
#    y 0.000000 1.842970 0.000000 
#    z -0.036590 0.000000 2.043860 
# 
# From -- ./inp_files/129597.got.cif
#   From: 2010.05.17/outbox.cif.g08.bks.cpg/sg12_65_cif.got.tgz:129597.got - 2010.06.03 13:09:07.
