data_PCOD9215393
_publ_section_title
;
Structure prediction by ZEFSAII (Michael W. Deem and Ramdas Pophale) SiO2 
 PCOD9215393
Probable space group: C 2/M
;
_chemical_formula_sum "Si O2"
_cell_formula_units_Z 40
_cell_length_a 7.299293
_cell_length_b 13.261642
_cell_length_c 20.449230
_cell_angle_alpha 90.000000
_cell_angle_beta 132.693219
_cell_angle_gamma 90.000000
_cell_volume 1454.920801
_symmetry_space_group_name_H-M "C 2/M"
_symmetry_group_IT_number 12
_symmetry_cell_setting 'monoclinic'
loop_
_space_group_symop_operation_xyz
x,y,z
-x,y,-z
-x,-y,-z
x,-y,z
1/2+x,1/2+y,z
1/2-x,1/2+y,-z
1/2-x,1/2-y,-z
1/2+x,1/2-y,z
loop_
_atom_site_type_symbol
_atom_site_label
_atom_site_fract_x
_atom_site_fract_y
_atom_site_fract_z
Si Si1 0.564832 0.175222 0.215876
Si Si2 0.868084 0.611994 0.574449
Si Si3 0.405140 0.386889 0.825593
Si Si4 0.364371 0.336252 0.618818
Si Si5 0.653623 0.881098 0.976411
O O1 0.541799 0.297147 0.211760
O O2 0.379486 0.123136 0.221581
O O3 0.454963 0.154132 0.117660
O O4 0.849527 0.143645 0.294033
O O5 0.831647 0.500000 0.593869
O O6 0.695064 0.623558 0.468283
O O7 0.825466 0.714269 0.605260
O O8 0.149485 0.619761 0.613390
O O9 0.465830 0.500000 0.817683
O O10 0.563561 0.368847 0.930842
O O11 0.611943 0.000000 0.964766
O O12 0.500000 0.836638 0.000000
#
# Coordination Sequence:
#
# PCOD9215393 Si02
#       5
#     8   8   8   8   8
#     4  12  23  41  66  92 128 167 211 268 312 364
#     4  10  22  43  66  91 132 169 200 259 322 372
#     4  11  25  42  62  92 127 166 212 260 316 374
#     4  10  22  41  65  97 126 163 217 255 308 388
#     4  10  22  41  65  93 127 170 216 260 315 376
#
# _framework density 27.492906000000001
#
# number of rings (size 3 to 8) (size 9 to 14) (size 15 to 20)
#    0.000    1.400    0.000    5.400    0.000    5.600 
#    0.000   12.000    0.000    0.000    0.000    0.000 
#    0.000    0.000    0.000    0.000    0.000    0.000 
#
# Total GULP energy -112261.843899 kJ/mol
# GULP energy per Si atom -5613.092195 kJ/mol
# Density = 2.743033 g / cm^3
# Si number density = 27.492906 Si / 1000 Ang^3
#
#
#
# Elastic Constant Matrix: (Units=GPa)
#
#
# Indices 1 2 3 4 5 6 
#
# 1 64.8019 10.4680 21.6277 0.0000 34.3881 0.0000
# 2 10.4680 169.4221 29.8121 0.0000 11.1956 0.0000
# 3 21.6277 29.8121 190.6960 0.0000 31.4035 0.0000
# 4 0.0000 0.0000 0.0000 32.8539 0.0000 -0.0508
# 5 34.3881 11.1956 31.4035 0.0000 48.1412 0.0000
# 6 0.0000 0.0000 0.0000 -0.0508 0.0000 28.7815
#
#
#
# Elastic Compliance Matrix: (Units=1/GPa)
#
#
# Indices 1 2 3 4 5 6 
#
# 1 0.024880 -0.000391 0.000169 0.000000 -0.017791 0.000000
# 2 -0.000391 0.006110 -0.000810 0.000000 -0.000613 0.000000
# 3 0.000169 -0.000810 0.005983 0.000000 -0.003835 0.000000
# 4 0.000000 0.000000 0.000000 0.030438 0.000000 0.000054
# 5 -0.017791 -0.000613 -0.003835 0.000000 0.036125 0.000000
# 6 0.000000 0.000000 0.000000 0.000054 0.000000 0.034745
#
#
# Mechanical properties :
#
#
# Convention : Reuss Voigt Hill
#
# Bulk Modulus (GPa) = 28.64629 60.97063 44.80846
# Shear Modulus (GPa) = 32.89909 46.15612 39.52760
#
# Velocity S-wave (km/s) = 3.46300 4.10181 3.79587
# Velocity P-wave (km/s) = 5.14120 6.68267 5.96197
#
# Compressibility (1/GPa) = 0.03490854
#
# Stress axis : x y z
#
# Youngs Moduli (GPa) = 40.19356 163.67673 167.14136
#
# Poissons Ratio (x) = 0.06406 -0.02830
# Poissons Ratio (y) = 0.01573 0.13535
# Poissons Ratio (z) = -0.00681 0.13254
#
# Static dielectric constant tensor:
#      x y z
#    x 2.136830 0.000000 -0.029730 
#    y 0.000000 2.100010 0.000000 
#    z -0.029730 0.000000 2.170820 
# 
# From -- ./inp_files/356036.got.cif
#   From: 2010.05.17/outbox.cif.g08.bks.cpg/sg12_179_cif.got.tgz:356036.got - 2010.06.03 13:09:07.
