data_PCOD9215964
_publ_section_title
;
Structure prediction by ZEFSAII (Michael W. Deem and Ramdas Pophale) SiO2 
 PCOD9215964
Probable space group: C 2/M
;
_chemical_formula_sum "Si O2"
_cell_formula_units_Z 56
_cell_length_a 11.381785
_cell_length_b 14.407146
_cell_length_c 24.766229
_cell_angle_alpha 90.000000
_cell_angle_beta 41.513329
_cell_angle_gamma 90.000000
_cell_volume 2691.701894
_symmetry_space_group_name_H-M "C 2/M"
_symmetry_group_IT_number 12
_symmetry_cell_setting 'monoclinic'
loop_
_space_group_symop_operation_xyz
x,y,z
-x,y,-z
-x,-y,-z
x,-y,z
1/2+x,1/2+y,z
1/2-x,1/2+y,-z
1/2-x,1/2-y,-z
1/2+x,1/2-y,z
loop_
_atom_site_type_symbol
_atom_site_label
_atom_site_fract_x
_atom_site_fract_y
_atom_site_fract_z
Si Si1 0.657600 0.110168 0.489365
Si Si2 0.259476 0.599308 0.958728
Si Si3 0.847608 0.640283 0.118070
Si Si4 0.568989 0.898670 0.248430
Si Si5 0.065187 0.152246 0.919805
Si Si6 0.471298 0.751386 0.372035
Si Si7 0.760297 0.605452 0.271729
O O1 0.500000 0.110979 0.500000
O O2 0.594182 0.171121 0.562729
O O3 0.822293 0.172808 0.411717
O O4 0.698685 0.000000 0.486101
O O5 0.321145 0.500000 0.959353
O O6 0.262817 0.597777 0.892973
O O7 0.397286 0.667696 0.938569
O O8 0.053635 0.610515 0.044223
O O9 0.849017 0.747368 0.101429
O O10 0.778197 0.619302 0.201280
O O11 0.775664 0.901160 0.162981
O O12 0.527606 0.812398 0.301247
O O13 0.450356 0.888130 0.235446
O O14 0.519808 0.000000 0.289511
O O15 0.000000 0.116463 0.000000
O O16 0.635131 0.687980 0.335905
O O17 0.693428 0.500000 0.305046
#
# Coordination Sequence:
#
# PCOD9215964 Si02
#       7
#     8   8   8   8   8   8   8
#     4  10  22  42  68  99 130 162 202 249 307 375
#     4  11  23  39  59  85 116 159 216 268 320 369
#     4  11  22  38  61  84 118 162 211 266 317 368
#     4  11  25  42  61  92 130 168 212 262 315 368
#     4  12  24  39  62  88 121 167 219 265 315 368
#     4  11  22  41  68  95 129 167 204 252 308 375
#     4  11  23  40  63  92 126 165 211 257 309 372
#
# _framework density 20.804680999999999
#
# number of rings (size 3 to 8) (size 9 to 14) (size 15 to 20)
#    0.000    1.000    2.857    5.143    2.000    2.286 
#    2.571    0.000    0.000    6.857    0.000    0.000 
#    0.000    0.000    0.000    0.000    0.000    0.000 
#
# Total GULP energy -156224.564612 kJ/mol
# GULP energy per Si atom -5579.448736 kJ/mol
# Density = 2.075733 g / cm^3
# Si number density = 20.804681 Si / 1000 Ang^3
#
#
#
# Elastic Constant Matrix: (Units=GPa)
#
#
# Indices 1 2 3 4 5 6 
#
# 1 93.3852 29.3330 28.2191 0.0000 -12.3561 0.0000
# 2 29.3330 147.5042 40.7667 0.0000 4.3537 0.0000
# 3 28.2191 40.7667 81.9746 0.0000 -3.0561 -0.0001
# 4 0.0000 0.0000 0.0000 27.0069 0.0000 -5.9248
# 5 -12.3561 4.3537 -3.0561 0.0000 23.5265 0.0000
# 6 0.0000 0.0000 -0.0001 -5.9248 0.0000 23.0796
#
#
#
# Elastic Compliance Matrix: (Units=1/GPa)
#
#
# Indices 1 2 3 4 5 6 
#
# 1 0.013228 -0.001908 -0.003349 0.000000 0.006865 0.000000
# 2 -0.001908 0.008227 -0.003546 0.000000 -0.002985 0.000000
# 3 -0.003349 -0.003546 0.015147 0.000000 0.000865 0.000000
# 4 0.000000 0.000000 0.000000 0.039237 0.000000 0.010073
# 5 0.006865 -0.002985 0.000865 0.000000 0.046776 0.000000
# 6 0.000000 0.000000 0.000000 0.010073 0.000000 0.045914
#
#
# Mechanical properties :
#
#
# Convention : Reuss Voigt Hill
#
# Bulk Modulus (GPa) = 52.63925 57.72241 55.18083
# Shear Modulus (GPa) = 25.97854 29.69229 27.83541
#
# Velocity S-wave (km/s) = 3.53751 3.78192 3.66175
# Velocity P-wave (km/s) = 6.48397 6.84658 6.66774
#
# Compressibility (1/GPa) = 0.01899723
#
# Stress axis : x y z
#
# Youngs Moduli (GPa) = 75.59797 121.55212 66.01777
#
# Poissons Ratio (x) = 0.23187 0.22109
# Poissons Ratio (y) = 0.14421 0.23409
# Poissons Ratio (z) = 0.25318 0.43102
#
# Static dielectric constant tensor:
#      x y z
#    x 1.695200 0.000000 -0.004800 
#    y 0.000000 1.805350 0.000000 
#    z -0.004800 0.000000 1.748160 
# 
# From -- ./inp_files/358170.got.cif
#   From: 2010.05.17/outbox.cif.g08.bks.cpg/sg12_180_cif.got.tgz:358170.got - 2010.06.03 13:09:07.
