data_PCOD9215472
_publ_section_title
;
Structure prediction by ZEFSAII (Michael W. Deem and Ramdas Pophale) SiO2 
 PCOD9215472
Probable space group: C 2/M
;
_chemical_formula_sum "Si O2"
_cell_formula_units_Z 48
_cell_length_a 9.206627
_cell_length_b 15.092458
_cell_length_c 26.574161
_cell_angle_alpha 90.000000
_cell_angle_beta 141.736991
_cell_angle_gamma 90.000000
_cell_volume 2286.660544
_symmetry_space_group_name_H-M "C 2/M"
_symmetry_group_IT_number 12
_symmetry_cell_setting 'monoclinic'
loop_
_space_group_symop_operation_xyz
x,y,z
-x,y,-z
-x,-y,-z
x,-y,z
1/2+x,1/2+y,z
1/2-x,1/2+y,-z
1/2-x,1/2-y,-z
1/2+x,1/2-y,z
loop_
_atom_site_type_symbol
_atom_site_label
_atom_site_fract_x
_atom_site_fract_y
_atom_site_fract_z
Si Si1 0.814349 0.105623 0.793861
Si Si2 0.439548 0.104798 0.170608
Si Si3 0.464800 0.606253 0.332320
Si Si4 0.640354 0.342783 0.485976
Si Si5 0.744929 0.269563 0.940022
Si Si6 0.845228 0.601957 0.358365
O O1 0.634072 0.114578 0.791068
O O2 0.707876 0.138258 0.711695
O O3 0.041534 0.163473 0.868391
O O4 0.869145 0.000000 0.805823
O O5 0.292561 0.176148 0.099138
O O6 0.714203 0.128715 0.240237
O O7 0.405608 0.000000 0.147947
O O8 0.477156 0.500000 0.336312
O O9 0.483008 0.631896 0.395539
O O10 0.682957 0.642534 0.358409
O O11 0.500000 0.343539 0.500000
O O12 0.750000 0.250000 0.500000
O O13 0.879379 0.398572 0.555572
O O14 0.750000 0.250000 0.000000
O O15 0.000000 0.309433 0.000000
O O16 0.770411 0.500000 0.335372
#
# Coordination Sequence:
#
# PCOD9215472 Si02
#       6
#     8   8   8   8   8   8
#     4  10  23  44  68  96 132 175 220 269 325 392
#     4  10  23  44  69  95 131 177 221 266 325 395
#     4  10  22  41  66  95 128 169 213 262 318 380
#     4  12  25  40  61  93 129 173 216 263 315 374
#     4  12  26  44  67 100 130 169 213 271 336 394
#     4  10  22  41  66  95 129 168 212 264 318 379
#
# _framework density 20.991311
#
# number of rings (size 3 to 8) (size 9 to 14) (size 15 to 20)
#    0.000    1.333    1.667    3.000    4.667    5.333 
#    0.000    0.000    0.000    0.000    0.000    0.000 
#    0.000    0.000    0.000    0.000    0.000    0.000 
#
# Total GULP energy -134012.567282 kJ/mol
# GULP energy per Si atom -5583.856970 kJ/mol
# Density = 2.094353 g / cm^3
# Si number density = 20.991311 Si / 1000 Ang^3
#
#
#
# Elastic Constant Matrix: (Units=GPa)
#
#
# Indices 1 2 3 4 5 6 
#
# 1 112.6969 13.4594 8.5813 -0.0006 -2.4044 0.0003
# 2 13.4594 48.2448 13.7320 -0.0005 -2.8848 0.0002
# 3 8.5813 13.7320 66.0389 0.0006 -7.6288 -0.0003
# 4 -0.0006 -0.0005 0.0006 78.1951 0.0002 -16.7158
# 5 -2.4044 -2.8848 -7.6288 0.0002 44.3153 -0.0001
# 6 0.0003 0.0002 -0.0003 -16.7158 -0.0001 34.7819
#
#
#
# Elastic Compliance Matrix: (Units=1/GPa)
#
#
# Indices 1 2 3 4 5 6 
#
# 1 0.009212 -0.002363 -0.000679 0.000000 0.000229 0.000000
# 2 -0.002363 0.022657 -0.004335 0.000000 0.000600 0.000000
# 3 -0.000679 -0.004335 0.016422 0.000000 0.002508 0.000000
# 4 0.000000 0.000000 0.000000 0.014253 0.000000 0.006850
# 5 0.000229 0.000600 0.002508 0.000000 0.023049 0.000000
# 6 0.000000 0.000000 0.000000 0.006850 0.000000 0.032043
#
#
# Mechanical properties :
#
#
# Convention : Reuss Voigt Hill
#
# Bulk Modulus (GPa) = 29.81806 33.16954 31.49380
# Shear Modulus (GPa) = 34.82679 44.20565 39.51622
#
# Velocity S-wave (km/s) = 4.07763 4.59399 4.34349
# Velocity P-wave (km/s) = 6.03367 6.63140 6.33959
#
# Compressibility (1/GPa) = 0.03353673
#
# Stress axis : x y z
#
# Youngs Moduli (GPa) = 108.55194 44.13736 60.89421
#
# Poissons Ratio (x) = 0.10430 0.04136
# Poissons Ratio (y) = 0.25651 0.26396
# Poissons Ratio (z) = 0.07373 0.19132
#
# Static dielectric constant tensor:
#      x y z
#    x 1.754960 0.000000 -0.032460 
#    y 0.000000 2.283900 0.000010 
#    z -0.032460 0.000010 2.612550 
# 
# From -- ./inp_files/356362.got.cif
#   From: 2010.05.17/outbox.cif.g08.bks.cpg/sg12_179_cif.got.tgz:356362.got - 2010.06.03 13:09:07.
