data_PCOD9215937
_publ_section_title
;
Structure prediction by ZEFSAII (Michael W. Deem and Ramdas Pophale) SiO2 
 PCOD9215937
Probable space group: C 2/M
;
_chemical_formula_sum "Si O2"
_cell_formula_units_Z 38
_cell_length_a 9.407978
_cell_length_b 19.214169
_cell_length_c 10.267856
_cell_angle_alpha 90.000000
_cell_angle_beta 72.260079
_cell_angle_gamma 90.000000
_cell_volume 1767.826288
_symmetry_space_group_name_H-M "C 2/M"
_symmetry_group_IT_number 12
_symmetry_cell_setting 'monoclinic'
loop_
_space_group_symop_operation_xyz
x,y,z
-x,y,-z
-x,-y,-z
x,-y,z
1/2+x,1/2+y,z
1/2-x,1/2+y,-z
1/2-x,1/2-y,-z
1/2+x,1/2-y,z
loop_
_atom_site_type_symbol
_atom_site_label
_atom_site_fract_x
_atom_site_fract_y
_atom_site_fract_z
Si Si1 0.076885 0.079647 0.111339
Si Si2 0.945987 0.744245 0.313610
Si Si3 0.000000 0.000000 0.500000
Si Si4 0.500000 0.873717 0.500000
Si Si5 0.244996 0.292208 0.867559
Si Si6 0.325298 0.606273 0.398565
O O1 0.214305 0.128273 0.111829
O O2 0.946727 0.081628 0.256560
O O3 0.122782 0.000000 0.080115
O O4 0.000000 0.106040 0.000000
O O5 0.940679 0.676032 0.401802
O O6 0.896197 0.725134 0.181202
O O7 0.854963 0.810592 0.393161
O O8 0.116887 0.767616 0.259881
O O9 0.126062 0.061803 0.490381
O O10 0.346746 0.909923 0.587585
O O11 0.250000 0.250000 0.000000
#
# Coordination Sequence:
#
# PCOD9215937 Si02
#       6
#     8   8   2   4   8   8
#     4  10  22  42  68  95 130 176 227 271 338 411
#     4  11  23  40  66  96 135 168 224 281 339 392
#     4  12  26  42  70  88 136 176 236 260 338 416
#     4  12  25  39  64  99 137 170 222 286 338 393
#     4  11  22  40  68  99 130 172 224 284 334 399
#     4  11  24  42  64  97 129 180 221 273 332 409
#
# _framework density 21.495325999999999
#
# number of rings (size 3 to 8) (size 9 to 14) (size 15 to 20)
#    0.000    1.053    3.158    4.421    5.895    0.421 
#    0.000    0.000    2.316    2.526    0.000    0.000 
#    0.000    0.000    0.000    0.000    0.000    0.000 
#
# Total GULP energy -105854.207310 kJ/mol
# GULP energy per Si atom -5571.274069 kJ/mol
# Density = 2.144640 g / cm^3
# Si number density = 21.495326 Si / 1000 Ang^3
#
#
#
# Elastic Constant Matrix: (Units=GPa)
#
#
# Indices 1 2 3 4 5 6 
#
# 1 79.0661 32.5889 -2.5053 0.0000 3.6457 0.0000
# 2 32.5889 104.7780 4.5180 0.0000 15.3957 0.0000
# 3 -2.5053 4.5180 33.7603 0.0000 6.9210 0.0000
# 4 0.0000 0.0000 0.0000 26.2046 0.0000 13.2108
# 5 3.6457 15.3957 6.9210 0.0000 38.0220 0.0000
# 6 0.0000 0.0000 0.0000 13.2108 0.0000 20.7429
#
#
#
# Elastic Compliance Matrix: (Units=1/GPa)
#
#
# Indices 1 2 3 4 5 6 
#
# 1 0.014605 -0.004640 0.001669 0.000000 0.000175 0.000000
# 2 -0.004640 0.011631 -0.001066 0.000000 -0.004071 0.000000
# 3 0.001669 -0.001066 0.030988 0.000000 -0.005369 0.000000
# 4 0.000000 0.000000 0.000000 0.056209 0.000000 -0.035799
# 5 0.000175 -0.004071 -0.005369 0.000000 0.028909 0.000000
# 6 0.000000 0.000000 0.000000 -0.035799 0.000000 0.071009
#
#
# Mechanical properties :
#
#
# Convention : Reuss Voigt Hill
#
# Bulk Modulus (GPa) = 20.34637 31.86752 26.10695
# Shear Modulus (GPa) = 21.02520 29.19406 25.10963
#
# Velocity S-wave (km/s) = 3.13090 3.68932 3.42152
# Velocity P-wave (km/s) = 4.74932 5.74505 5.27075
#
# Compressibility (1/GPa) = 0.04914882
#
# Stress axis : x y z
#
# Youngs Moduli (GPa) = 68.46952 85.97458 32.27080
#
# Poissons Ratio (x) = 0.39894 -0.05386
# Poissons Ratio (y) = 0.31771 0.03441
# Poissons Ratio (z) = -0.11427 0.09169
#
# Static dielectric constant tensor:
#      x y z
#    x 1.792910 0.000000 0.019770 
#    y 0.000000 1.795380 0.000000 
#    z 0.019770 0.000000 1.842280 
# 
# From -- ./inp_files/120090.got.cif
#   From: 2010.05.17/outbox.cif.g08.bks.cpg/sg12_61_cif.got.tgz:120090.got - 2010.06.03 13:09:07.
