data_PCOD9215412
_publ_section_title
;
Structure prediction by ZEFSAII (Michael W. Deem and Ramdas Pophale) SiO2 
 PCOD9215412
Probable space group: C 2/M
;
_chemical_formula_sum "Si O2"
_cell_formula_units_Z 40
_cell_length_a 25.650609
_cell_length_b 10.071916
_cell_length_c 16.624640
_cell_angle_alpha 90.000000
_cell_angle_beta 155.633860
_cell_angle_gamma 90.000000
_cell_volume 1771.967047
_symmetry_space_group_name_H-M "C 2/M"
_symmetry_group_IT_number 12
_symmetry_cell_setting 'monoclinic'
loop_
_space_group_symop_operation_xyz
x,y,z
-x,y,-z
-x,-y,-z
x,-y,z
1/2+x,1/2+y,z
1/2-x,1/2+y,-z
1/2-x,1/2-y,-z
1/2+x,1/2-y,z
loop_
_atom_site_type_symbol
_atom_site_label
_atom_site_fract_x
_atom_site_fract_y
_atom_site_fract_z
Si Si1 0.551885 0.639605 0.482647
Si Si2 0.650041 0.848422 0.818011
Si Si3 0.278217 0.287501 0.833087
Si Si4 0.747274 0.146772 0.609069
Si Si5 0.939588 0.157741 0.738675
O O1 0.500000 0.630929 0.500000
O O2 0.516321 0.500000 0.391746
O O3 0.482937 0.773117 0.355991
O O4 0.701354 0.654969 0.702792
O O5 0.692955 0.850372 0.784425
O O6 0.650055 0.000000 0.847632
O O7 0.750000 0.750000 0.000000
O O8 0.278983 0.356985 0.747583
O O9 0.420442 0.282263 0.063752
O O10 0.871626 0.171983 0.729890
O O11 0.649890 0.262800 0.448485
O O12 0.698083 0.000000 0.516006
O O13 0.947370 0.000000 0.734193
#
# Coordination Sequence:
#
# PCOD9215412 Si02
#       5
#     8   8   8   8   8
#     4   9  21  41  62  88 123 162 208 264 319 374
#     4  11  24  41  63  93 131 171 218 269 320 380
#     4  11  23  40  68  96 125 172 216 262 319 385
#     4  10  22  41  65  95 130 167 213 264 316 383
#     4  10  22  41  65  96 132 168 209 261 321 384
#
# _framework density 22.573782999999999
#
# number of rings (size 3 to 8) (size 9 to 14) (size 15 to 20)
#    0.000    1.800    0.000    3.000    2.800    9.200 
#    0.000    0.000    0.000    6.000    0.000    0.000 
#    0.000    0.000    0.000    0.000    0.000    0.000 
#
# Total GULP energy -111626.999480 kJ/mol
# GULP energy per Si atom -5581.349974 kJ/mol
# Density = 2.252240 g / cm^3
# Si number density = 22.573783 Si / 1000 Ang^3
#
#
#
# Elastic Constant Matrix: (Units=GPa)
#
#
# Indices 1 2 3 4 5 6 
#
# 1 124.1527 3.8890 13.7934 0.0000 5.6191 0.0000
# 2 3.8890 152.8372 58.7111 0.0000 5.1476 0.0000
# 3 13.7934 58.7111 124.3228 0.0000 18.1780 0.0000
# 4 0.0000 0.0000 0.0000 15.5951 0.0000 -27.3687
# 5 5.6191 5.1476 18.1780 0.0000 32.4771 0.0000
# 6 0.0000 0.0000 0.0000 -27.3687 0.0000 -49.1044
#
#
#
# Elastic Compliance Matrix: (Units=1/GPa)
#
#
# Indices 1 2 3 4 5 6 
#
# 1 0.008187 0.000145 -0.000835 0.000000 -0.000972 0.000000
# 2 0.000145 0.008021 -0.003937 0.000000 0.000907 0.000000
# 3 -0.000835 -0.003937 0.010764 0.000000 -0.005256 0.000000
# 4 0.000000 0.000000 0.000000 0.032416 0.000000 -0.018067
# 5 -0.000972 0.000907 -0.005256 0.000000 0.033757 0.000000
# 6 0.000000 0.000000 0.000000 -0.018067 0.000000 -0.010295
#
#
# Mechanical properties :
#
#
# Convention : Reuss Voigt Hill
#
# Bulk Modulus (GPa) = 56.43613 61.56663 59.00138
# Shear Modulus (GPa) = 51.01612 21.45484 36.23548
#
# Velocity S-wave (km/s) = 4.75907 3.08625 4.01084
# Velocity P-wave (km/s) = 7.43326 6.32714 6.90239
#
# Compressibility (1/GPa) = 0.01771915
#
# Stress axis : x y z
#
# Youngs Moduli (GPa) = 122.14798 124.67489 92.90431
#
# Poissons Ratio (x) = -0.01809 0.07754
# Poissons Ratio (y) = -0.01772 0.36572
# Poissons Ratio (z) = 0.10195 0.49079
#
# Static dielectric constant tensor:
#      x y z
#    x 1.883150 0.000000 -0.005150 
#    y 0.000000 1.864860 0.000000 
#    z -0.005150 0.000000 1.824410 
# 
# From -- ./inp_files/329772.got.cif
#   From: 2010.05.17/outbox.cif.g08.bks.cpg/sg12_165_cif.got.tgz:329772.got - 2010.06.03 13:09:07.
