data_PCOD9215138
_publ_section_title
;
Structure prediction by ZEFSAII (Michael W. Deem and Ramdas Pophale) SiO2 
 PCOD9215138
Probable space group: C 2/M
;
_chemical_formula_sum "Si O2"
_cell_formula_units_Z 60
_cell_length_a 18.960129
_cell_length_b 27.209652
_cell_length_c 6.034384
_cell_angle_alpha 90.000000
_cell_angle_beta 65.336085
_cell_angle_gamma 90.000000
_cell_volume 2829.122546
_symmetry_space_group_name_H-M "C 2/M"
_symmetry_group_IT_number 12
_symmetry_cell_setting 'monoclinic'
loop_
_space_group_symop_operation_xyz
x,y,z
-x,y,-z
-x,-y,-z
x,-y,z
1/2+x,1/2+y,z
1/2-x,1/2+y,-z
1/2-x,1/2-y,-z
1/2+x,1/2-y,z
loop_
_atom_site_type_symbol
_atom_site_label
_atom_site_fract_x
_atom_site_fract_y
_atom_site_fract_z
Si Si1 0.191696 0.379064 0.800409
Si Si2 0.000000 0.360222 0.500000
Si Si3 0.409810 0.298622 0.547899
Si Si4 0.561640 0.946286 0.112570
Si Si5 0.154186 0.109946 0.643574
Si Si6 0.790102 0.170967 0.054339
Si Si7 0.519838 0.555801 0.726136
Si Si8 0.858272 0.698228 0.469722
O O1 0.256856 0.392616 0.538508
O O2 0.145821 0.333540 0.749355
O O3 0.142648 0.427168 0.913061
O O4 0.235686 0.358329 0.955578
O O5 0.967909 0.398788 0.718940
O O6 0.926623 0.327820 0.521755
O O7 0.500000 0.296200 0.500000
O O8 0.389193 0.348846 0.448428
O O9 0.385619 0.254188 0.417736
O O10 0.350127 0.295845 0.835389
O O11 0.568267 0.000000 0.217402
O O12 0.500000 0.951710 0.000000
O O13 0.156609 0.131500 0.886857
O O14 0.112055 0.060222 0.632471
O O15 0.727545 0.196358 0.302181
O O16 0.500000 0.574267 0.500000
O O17 0.489632 0.500000 0.770446
O O18 0.500000 0.578727 0.000000
#
# Coordination Sequence:
#
# PCOD9215138 Si02
#       8
#     8   4   8   8   8   8   8   8
#     4  10  22  41  62  89 123 169 210 263 325 394
#     4  12  21  40  64  92 124 166 211 262 322 402
#     4  11  24  39  61  97 124 167 216 268 329 396
#     4  11  23  40  65  93 122 160 208 268 326 382
#     4  10  24  40  63  91 131 166 216 274 328 394
#     4  10  23  41  61  87 130 171 208 270 328 384
#     4  10  23  43  71 100 131 178 226 278 343 407
#     4  11  22  40  64  89 126 167 219 257 325 401
#
# _framework density 21.207989000000001
#
# number of rings (size 3 to 8) (size 9 to 14) (size 15 to 20)
#    0.000    1.467    3.333    1.000    5.600    6.400 
#    0.000    2.000    0.000    0.000    0.000    0.000 
#    0.000    0.000    0.000    0.000    0.000    0.000 
#
# Total GULP energy -167107.813574 kJ/mol
# GULP energy per Si atom -5570.260452 kJ/mol
# Density = 2.115972 g / cm^3
# Si number density = 21.207989 Si / 1000 Ang^3
#
#
#
# Elastic Constant Matrix: (Units=GPa)
#
#
# Indices 1 2 3 4 5 6 
#
# 1 109.6714 22.8962 19.2334 0.0000 -2.4253 0.0000
# 2 22.8962 66.7144 10.2999 0.0000 -9.1659 0.0000
# 3 19.2334 10.2999 54.1787 0.0000 9.5143 0.0000
# 4 0.0000 0.0000 0.0000 29.2558 0.0000 -6.6856
# 5 -2.4253 -9.1659 9.5143 0.0000 28.4358 0.0000
# 6 0.0000 0.0000 0.0000 -6.6856 0.0000 25.8071
#
#
#
# Elastic Compliance Matrix: (Units=1/GPa)
#
#
# Indices 1 2 3 4 5 6 
#
# 1 0.010323 -0.002889 -0.003301 0.000000 0.001054 0.000000
# 2 -0.002889 0.017404 -0.003426 0.000000 0.006510 0.000000
# 3 -0.003301 -0.003426 0.021805 0.000000 -0.008682 0.000000
# 4 0.000000 0.000000 0.000000 0.036332 0.000000 0.009412
# 5 0.001054 0.006510 -0.008682 0.000000 0.040260 0.000000
# 6 0.000000 0.000000 0.000000 0.009412 0.000000 0.041187
#
#
# Mechanical properties :
#
#
# Convention : Reuss Voigt Hill
#
# Bulk Modulus (GPa) = 33.00209 37.26929 35.13569
# Shear Modulus (GPa) = 25.42664 28.57540 27.00102
#
# Velocity S-wave (km/s) = 3.46630 3.67466 3.57200
# Velocity P-wave (km/s) = 5.62274 5.96788 5.79788
#
# Compressibility (1/GPa) = 0.03030111
#
# Stress axis : x y z
#
# Youngs Moduli (GPa) = 96.86775 57.45790 45.86063
#
# Poissons Ratio (x) = 0.16597 0.15137
# Poissons Ratio (y) = 0.27981 0.15714
# Poissons Ratio (z) = 0.31973 0.19688
#
# Static dielectric constant tensor:
#      x y z
#    x 2.006580 0.000000 -0.053470 
#    y 0.000000 1.867960 0.000000 
#    z -0.053470 0.000000 1.935500 
# 
# From -- ./inp_files/18299.got.cif
#   From: 2010.05.17/outbox.cif.g08.bks.cpg/sg12_10_cif.got.tgz:18299.got - 2010.06.03 13:09:07.
