data_PCOD9215504
_publ_section_title
;
Structure prediction by ZEFSAII (Michael W. Deem and Ramdas Pophale) SiO2 
 PCOD9215504
Probable space group: C 2/M
;
_chemical_formula_sum "Si O2"
_cell_formula_units_Z 56
_cell_length_a 13.081128
_cell_length_b 13.857308
_cell_length_c 30.063469
_cell_angle_alpha 90.000000
_cell_angle_beta 28.342383
_cell_angle_gamma 90.000000
_cell_volume 2587.131021
_symmetry_space_group_name_H-M "C 2/M"
_symmetry_group_IT_number 12
_symmetry_cell_setting 'monoclinic'
loop_
_space_group_symop_operation_xyz
x,y,z
-x,y,-z
-x,-y,-z
x,-y,z
1/2+x,1/2+y,z
1/2-x,1/2+y,-z
1/2-x,1/2-y,-z
1/2+x,1/2-y,z
loop_
_atom_site_type_symbol
_atom_site_label
_atom_site_fract_x
_atom_site_fract_y
_atom_site_fract_z
Si Si1 0.075470 0.328411 0.617873
Si Si2 0.826708 0.394238 0.105847
Si Si3 0.999477 0.236214 0.895092
Si Si4 0.553060 0.390148 0.592546
Si Si5 0.147152 0.665257 0.693174
Si Si6 0.167810 0.888201 0.899607
Si Si7 0.872234 0.835889 0.245405
O O1 0.256601 0.367255 0.515287
O O2 0.051371 0.209926 0.622598
O O3 0.134965 0.353483 0.645617
O O4 0.848530 0.376145 0.690211
O O5 0.865243 0.500000 0.110776
O O6 0.588204 0.390955 0.176249
O O7 0.866151 0.313897 0.128028
O O8 0.000000 0.380354 0.000000
O O9 0.065075 0.133955 0.891168
O O10 0.052710 0.235179 0.823259
O O11 0.750000 0.250000 0.000000
O O12 0.579631 0.500000 0.601550
O O13 0.330510 0.389932 0.649888
O O14 0.197423 0.777025 0.684216
O O15 0.909829 0.649185 0.804185
O O16 0.184657 0.000000 0.902710
O O17 0.000000 0.845045 0.000000
#
# Coordination Sequence:
#
# PCOD9215504 Si02
#       7
#     8   8   8   8   8   8   8
#     4  10  22  41  66  99 132 165 215 267 325 393
#     4  11  23  39  59  88 122 165 219 267 316 380
#     4  12  22  39  63  84 123 172 212 263 320 373
#     4  10  23  42  69 100 130 166 212 270 328 390
#     4  11  21  41  66  93 128 170 212 266 326 381
#     4  11  23  38  60  92 126 164 215 267 317 377
#     4  11  21  39  63  87 124 170 212 261 318 380
#
# _framework density 21.645599000000001
#
# number of rings (size 3 to 8) (size 9 to 14) (size 15 to 20)
#    0.000    1.143    4.286    2.143    0.000    3.429 
#    0.000    7.143    0.000   11.143    0.000    0.000 
#    0.000    0.000    0.000    0.000    0.000    0.000 
#
# Total GULP energy -156203.662347 kJ/mol
# GULP energy per Si atom -5578.702227 kJ/mol
# Density = 2.159633 g / cm^3
# Si number density = 21.645599 Si / 1000 Ang^3
#
#
#
# Elastic Constant Matrix: (Units=GPa)
#
#
# Indices 1 2 3 4 5 6 
#
# 1 67.3948 -1.6491 13.9114 -0.0007 -7.7836 -0.0010
# 2 -1.6491 76.0210 -3.1645 -0.0046 -5.0228 -0.0013
# 3 13.9114 -3.1645 94.2508 0.0067 -16.6720 -0.0045
# 4 -0.0007 -0.0046 0.0067 -13.7320 -0.0024 -5.1838
# 5 -7.7836 -5.0228 -16.6720 -0.0024 30.2547 -0.0007
# 6 -0.0010 -0.0013 -0.0045 -5.1838 -0.0007 12.1575
#
#
#
# Elastic Compliance Matrix: (Units=1/GPa)
#
#
# Indices 1 2 3 4 5 6 
#
# 1 0.015568 0.000473 -0.001728 -0.000002 0.003131 0.000000
# 2 0.000473 0.013388 0.000880 -0.000005 0.002829 0.000000
# 3 -0.001728 0.000880 0.012013 0.000002 0.006321 0.000006
# 4 -0.000002 -0.000005 0.000002 -0.062726 -0.000006 -0.026746
# 5 0.003131 0.002829 0.006321 -0.000006 0.037811 0.000003
# 6 0.000000 0.000000 0.000006 -0.026746 0.000003 0.070850
#
#
# Mechanical properties :
#
#
# Convention : Reuss Voigt Hill
#
# Bulk Modulus (GPa) = 24.86423 28.42914 26.64668
# Shear Modulus (GPa) = 49.47545 20.97395 35.22470
#
# Velocity S-wave (km/s) = 4.78609 3.11621 4.03840
# Velocity P-wave (km/s) = 6.48492 5.10980 5.83799
#
# Compressibility (1/GPa) = 0.04021842
#
# Stress axis : x y z
#
# Youngs Moduli (GPa) = 64.23494 74.69330 83.24468
#
# Poissons Ratio (x) = -0.03530 0.14385
# Poissons Ratio (y) = -0.03036 -0.07327
# Poissons Ratio (z) = 0.11100 -0.06575
#
# Static dielectric constant tensor:
#      x y z
#    x 1.796960 0.000000 -0.004520 
#    y 0.000000 1.855760 0.000000 
#    z -0.004520 0.000000 1.805160 
# 
# From -- ./inp_files/374192.got.cif
#   From: 2010.05.17/outbox.cif.g08.bks.cpg/sg12_188_cif.got.tgz:374192.got - 2010.06.03 13:09:07.
