data_PCOD9215011
_publ_section_title
;
Structure prediction by ZEFSAII (Michael W. Deem and Ramdas Pophale) SiO2 
 PCOD9215011
Probable space group: C 2/M
;
_chemical_formula_sum "Si O2"
_cell_formula_units_Z 22
_cell_length_a 10.229769
_cell_length_b 15.820972
_cell_length_c 6.463338
_cell_angle_alpha 90.000000
_cell_angle_beta 97.117822
_cell_angle_gamma 90.000000
_cell_volume 1037.996714
_symmetry_space_group_name_H-M "C 2/M"
_symmetry_group_IT_number 12
_symmetry_cell_setting 'monoclinic'
loop_
_space_group_symop_operation_xyz
x,y,z
-x,y,-z
-x,-y,-z
x,-y,z
1/2+x,1/2+y,z
1/2-x,1/2+y,-z
1/2-x,1/2-y,-z
1/2+x,1/2-y,z
loop_
_atom_site_type_symbol
_atom_site_label
_atom_site_fract_x
_atom_site_fract_y
_atom_site_fract_z
Si Si1 0.500000 0.701456 0.000000
Si Si2 0.409514 0.844866 0.682513
Si Si3 0.000000 0.500000 0.000000
Si Si4 0.126449 0.099941 0.670197
O O1 0.422969 0.762580 0.828560
O O2 0.596622 0.643779 0.883061
O O3 0.500000 0.834552 0.500000
O O4 0.257478 0.861176 0.598183
O O5 0.458523 0.925377 0.823967
O O6 0.000000 0.111540 0.500000
O O7 0.146022 0.000000 0.704864
#
# Coordination Sequence:
#
# PCOD9215011 Si02
#       4
#     4   8   2   8
#     4  11  25  43  69 102 136 182 223 275 331 407
#     4  11  24  45  72 100 134 176 231 278 332 397
#     4  10  22  40  68 100 128 172 222 276 326 398
#     4  11  25  45  68 101 138 180 220 280 339 397
#
# _framework density 21.194673000000002
#
# number of rings (size 3 to 8) (size 9 to 14) (size 15 to 20)
#    0.000    1.091    1.818    3.273    0.000   11.636 
#    6.545    0.000    0.000    0.000    0.000    0.000 
#    0.000    0.000    0.000    0.000    0.000    0.000 
#
# Total GULP energy -61317.749948 kJ/mol
# GULP energy per Si atom -5574.340904 kJ/mol
# Density = 2.114643 g / cm^3
# Si number density = 21.194673 Si / 1000 Ang^3
#
#
#
# Elastic Constant Matrix: (Units=GPa)
#
#
# Indices 1 2 3 4 5 6 
#
# 1 166.2191 68.7775 82.3347 0.0000 -24.3063 0.0000
# 2 68.7775 116.8783 55.6836 0.0000 -0.7346 0.0000
# 3 82.3347 55.6836 117.3772 0.0000 -9.2615 0.0000
# 4 0.0000 0.0000 0.0000 -9.1728 0.0000 -22.3512
# 5 -24.3063 -0.7346 -9.2615 0.0000 28.6849 0.0000
# 6 0.0000 0.0000 0.0000 -22.3512 0.0000 -8.9031
#
#
#
# Elastic Compliance Matrix: (Units=1/GPa)
#
#
# Indices 1 2 3 4 5 6 
#
# 1 0.011668 -0.004156 -0.005584 0.000000 0.007978 0.000000
# 2 -0.004156 0.012593 -0.003398 0.000000 -0.004296 0.000000
# 3 -0.005584 -0.003398 0.014025 0.000000 -0.000290 0.000000
# 4 0.000000 0.000000 0.000000 0.021304 0.000000 -0.053483
# 5 0.007978 -0.004296 -0.000290 0.000000 0.041418 0.000000
# 6 0.000000 0.000000 0.000000 -0.053483 0.000000 0.021949
#
#
# Mechanical properties :
#
#
# Convention : Reuss Voigt Hill
#
# Bulk Modulus (GPa) = 83.25234 90.45178 86.85206
# Shear Modulus (GPa) = 32.62916 15.03371 23.83144
#
# Velocity S-wave (km/s) = 3.92790 2.66619 3.35686
# Velocity P-wave (km/s) = 7.74186 7.22823 7.48945
#
# Compressibility (1/GPa) = 0.01201167
#
# Stress axis : x y z
#
# Youngs Moduli (GPa) = 85.70352 79.40676 71.29915
#
# Poissons Ratio (x) = 0.33000 0.39811
# Poissons Ratio (y) = 0.35617 0.24228
# Poissons Ratio (z) = 0.47854 0.26984
#
# Static dielectric constant tensor:
#      x y z
#    x 1.760040 0.000000 0.025820 
#    y 0.000000 1.752110 0.000000 
#    z 0.025820 0.000000 1.725150 
# 
# From -- ./inp_files/4749.got.cif
#   From: 2010.05.17/outbox.cif.g08.bks.cpg/sg12_3_cif.got.tgz:4749.got - 2010.06.03 13:09:07.
