data_PCOD9215109
_publ_section_title
;
Structure prediction by ZEFSAII (Michael W. Deem and Ramdas Pophale) SiO2 
 PCOD9215109
Probable space group: C 2/M
;
_chemical_formula_sum "Si O2"
_cell_formula_units_Z 32
_cell_length_a 15.918749
_cell_length_b 17.332139
_cell_length_c 11.830026
_cell_angle_alpha 90.000000
_cell_angle_beta 151.210962
_cell_angle_gamma 90.000000
_cell_volume 1571.884595
_symmetry_space_group_name_H-M "C 2/M"
_symmetry_group_IT_number 12
_symmetry_cell_setting 'monoclinic'
loop_
_space_group_symop_operation_xyz
x,y,z
-x,y,-z
-x,-y,-z
x,-y,z
1/2+x,1/2+y,z
1/2-x,1/2+y,-z
1/2-x,1/2-y,-z
1/2+x,1/2-y,z
loop_
_atom_site_type_symbol
_atom_site_label
_atom_site_fract_x
_atom_site_fract_y
_atom_site_fract_z
Si Si1 0.209740 0.260771 0.266770
Si Si2 0.465435 0.000000 0.094391
Si Si3 0.475816 0.500000 0.839320
Si Si4 0.301489 0.130467 0.529340
Si Si5 0.000000 0.859143 0.500000
Si Si6 0.905251 0.000000 0.246600
O O1 0.303778 0.181798 0.418255
O O2 0.218873 0.314194 0.388003
O O3 0.327448 0.305270 0.311697
O O4 0.000000 0.249402 0.000000
O O5 0.542181 0.074226 0.249534
O O6 0.500000 0.000000 0.000000
O O7 0.262595 0.000000 0.873657
O O8 0.361921 0.574530 0.676777
O O9 0.629138 0.500000 0.927746
O O10 0.500000 0.500000 0.000000
O O11 0.996567 0.919967 0.391566
#
# Coordination Sequence:
#
# PCOD9215109 Si02
#       6
#     8   4   4   8   4   4
#     4  11  22  41  65  95 132 173 208 275 342 384
#     4  11  22  41  71  96 129 173 220 284 333 380
#     4  11  22  42  63  89 136 180 216 270 333 390
#     4  10  22  41  61  94 130 168 222 263 329 405
#     4  11  22  40  68 103 130 160 230 283 324 402
#     4  11  22  39  68 104 125 168 232 275 326 401
#
# _framework density 20.357728000000002
#
# number of rings (size 3 to 8) (size 9 to 14) (size 15 to 20)
#    0.000    1.250    2.500    4.500    3.500    0.000 
#    9.000    5.625    0.000    0.000    0.000    0.000 
#    0.000    0.000    0.000    0.000    0.000    0.000 
#
# Total GULP energy -89106.337212 kJ/mol
# GULP energy per Si atom -5569.146076 kJ/mol
# Density = 2.031139 g / cm^3
# Si number density = 20.357728 Si / 1000 Ang^3
#
#
#
# Elastic Constant Matrix: (Units=GPa)
#
#
# Indices 1 2 3 4 5 6 
#
# 1 98.9766 23.6934 41.1116 0.0000 -13.1620 0.0000
# 2 23.6934 117.6387 34.7753 0.0000 -3.9572 0.0000
# 3 41.1116 34.7753 98.3720 0.0000 -5.4158 0.0000
# 4 0.0000 0.0000 0.0000 60.5398 0.0000 18.9096
# 5 -13.1620 -3.9572 -5.4158 0.0000 32.2136 0.0000
# 6 0.0000 0.0000 0.0000 18.9096 0.0000 31.4705
#
#
#
# Elastic Compliance Matrix: (Units=1/GPa)
#
#
# Indices 1 2 3 4 5 6 
#
# 1 0.012921 -0.001039 -0.004793 0.000000 0.004346 0.000000
# 2 -0.001039 0.009588 -0.002941 0.000000 0.000259 0.000000
# 3 -0.004793 -0.002941 0.013203 0.000000 -0.000100 0.000000
# 4 0.000000 0.000000 0.000000 0.020334 0.000000 -0.012218
# 5 0.004346 0.000259 -0.000100 0.000000 0.032833 0.000000
# 6 0.000000 0.000000 0.000000 -0.012218 0.000000 0.039117
#
#
# Mechanical properties :
#
#
# Convention : Reuss Voigt Hill
#
# Bulk Modulus (GPa) = 55.05096 57.12756 56.08926
# Shear Modulus (GPa) = 32.98174 39.20523 36.09349
#
# Velocity S-wave (km/s) = 4.02942 4.39317 4.21522
# Velocity P-wave (km/s) = 6.98204 7.33867 7.16257
#
# Compressibility (1/GPa) = 0.01816499
#
# Stress axis : x y z
#
# Youngs Moduli (GPa) = 77.39292 104.29732 75.74133
#
# Poissons Ratio (x) = 0.10839 0.36305
# Poissons Ratio (y) = 0.08043 0.22274
# Poissons Ratio (z) = 0.37097 0.30672
#
# Static dielectric constant tensor:
#      x y z
#    x 1.723610 0.000000 -0.008740 
#    y 0.000000 1.709510 0.000000 
#    z -0.008740 0.000000 1.782310 
# 
# From -- ./inp_files/46501.got.cif
#   From: 2010.05.17/outbox.cif.g08.bks.cpg/sg12_24_cif.got.tgz:46501.got - 2010.06.03 13:09:07.
