data_PCOD9215677
_publ_section_title
;
Structure prediction by ZEFSAII (Michael W. Deem and Ramdas Pophale) SiO2 
 PCOD9215677
Probable space group: C 2/M
;
_chemical_formula_sum "Si O2"
_cell_formula_units_Z 58
_cell_length_a 27.899307
_cell_length_b 18.878639
_cell_length_c 13.016284
_cell_angle_alpha 90.000000
_cell_angle_beta 152.197001
_cell_angle_gamma 90.000000
_cell_volume 3197.719222
_symmetry_space_group_name_H-M "C 2/M"
_symmetry_group_IT_number 12
_symmetry_cell_setting 'monoclinic'
loop_
_space_group_symop_operation_xyz
x,y,z
-x,y,-z
-x,-y,-z
x,-y,z
1/2+x,1/2+y,z
1/2-x,1/2+y,-z
1/2-x,1/2-y,-z
1/2+x,1/2-y,z
loop_
_atom_site_type_symbol
_atom_site_label
_atom_site_fract_x
_atom_site_fract_y
_atom_site_fract_z
Si Si1 0.000000 0.500000 0.500000
Si Si2 0.380104 0.663561 0.993143
Si Si3 0.097650 0.805594 0.315414
Si Si4 0.117669 0.339492 0.226458
Si Si5 0.310009 0.417544 0.665103
Si Si6 0.690846 0.922031 0.965694
Si Si7 0.097895 0.084366 0.754683
Si Si8 0.716276 0.189835 0.192303
O O1 0.914022 0.438841 0.297190
O O2 0.480292 0.694097 0.125863
O O3 0.408932 0.623802 0.150872
O O4 0.330137 0.609624 0.817850
O O5 0.307160 0.729393 0.880396
O O6 0.126094 0.732933 0.309655
O O7 0.123088 0.869608 0.286032
O O8 0.166420 0.815937 0.547315
O O9 0.192954 0.397742 0.416061
O O10 0.155434 0.325296 0.182693
O O11 0.000000 0.361225 0.000000
O O12 0.331785 0.500000 0.694573
O O13 0.715563 0.000000 0.060138
O O14 0.790204 0.902803 0.084809
O O15 0.683725 0.863860 0.041386
O O16 0.000000 0.105232 0.500000
O O17 0.091308 0.000000 0.758543
#
# Coordination Sequence:
#
# PCOD9215677 Si02
#       8
#     2   8   8   8   8   8   8   8
#     4   8  20  48  66  84 130 172 206 274 328 368
#     4  12  22  38  63  95 119 163 210 258 319 382
#     4  11  21  40  62  88 129 169 201 257 316 373
#     4  11  20  41  62  86 127 174 202 258 316 366
#     4  11  23  38  59  91 127 163 210 258 311 380
#     4   9  21  44  63  88 123 169 211 262 325 381
#     4  10  22  42  62  86 126 161 203 272 333 371
#     4  11  21  37  65  90 119 163 215 250 309 385
#
# _framework density 18.137927999999999
#
# number of rings (size 3 to 8) (size 9 to 14) (size 15 to 20)
#    0.414    0.966    4.138    2.483    0.000    4.690 
#    6.207    0.000    0.000    0.000    0.000    0.000 
#    0.000    0.000    0.000    0.000    0.000    0.000 
#
# Total GULP energy -161500.369825 kJ/mol
# GULP energy per Si atom -5568.978270 kJ/mol
# Density = 1.809664 g / cm^3
# Si number density = 18.137928 Si / 1000 Ang^3
#
#
#
# Elastic Constant Matrix: (Units=GPa)
#
#
# Indices 1 2 3 4 5 6 
#
# 1 46.9471 32.5683 33.1278 0.0000 -9.7758 0.0000
# 2 32.5683 80.3605 30.4862 0.0000 -15.7337 0.0000
# 3 33.1278 30.4862 120.6867 0.0000 -6.4853 0.0000
# 4 0.0000 0.0000 0.0000 -28.3151 0.0000 -13.0813
# 5 -9.7758 -15.7337 -6.4853 0.0000 28.4344 0.0000
# 6 0.0000 0.0000 0.0000 -13.0813 0.0000 26.2926
#
#
#
# Elastic Compliance Matrix: (Units=1/GPa)
#
#
# Indices 1 2 3 4 5 6 
#
# 1 0.034055 -0.010482 -0.006462 0.000000 0.004434 0.000000
# 2 -0.010482 0.018474 -0.001451 0.000000 0.006287 0.000000
# 3 -0.006462 -0.001451 0.010391 0.000000 -0.000655 0.000000
# 4 0.000000 0.000000 0.000000 -0.028716 0.000000 -0.014287
# 5 0.004434 0.006287 -0.000655 0.000000 0.040023 0.000000
# 6 0.000000 0.000000 0.000000 -0.014287 0.000000 0.030925
#
#
# Mechanical properties :
#
#
# Convention : Reuss Voigt Hill
#
# Bulk Modulus (GPa) = 38.27128 48.92877 43.60003
# Shear Modulus (GPa) = 33.18888 15.40318 24.29603
#
# Velocity S-wave (km/s) = 4.28226 2.91731 3.66391
# Velocity P-wave (km/s) = 6.75250 6.19533 6.47991
#
# Compressibility (1/GPa) = 0.02612925
#
# Stress axis : x y z
#
# Youngs Moduli (GPa) = 29.36388 54.13094 96.23615
#
# Poissons Ratio (x) = 0.56741 0.62186
# Poissons Ratio (y) = 0.30780 0.13968
# Poissons Ratio (z) = 0.18974 0.07857
#
# Static dielectric constant tensor:
#      x y z
#    x 1.613550 0.000000 0.020050 
#    y 0.000000 1.606910 0.000000 
#    z 0.020050 0.000000 1.645510 
# 
# From -- ./inp_files/184464.got.cif
#   From: 2010.05.17/outbox.cif.g08.bks.cpg/sg12_93_cif.got.tgz:184464.got - 2010.06.03 13:09:07.
