data_PCOD9215829
_publ_section_title
;
Structure prediction by ZEFSAII (Michael W. Deem and Ramdas Pophale) SiO2 
 PCOD9215829
Probable space group: C 2/M
;
_chemical_formula_sum "Si O2"
_cell_formula_units_Z 48
_cell_length_a 29.197189
_cell_length_b 9.008794
_cell_length_c 14.781722
_cell_angle_alpha 90.000000
_cell_angle_beta 38.468568
_cell_angle_gamma 90.000000
_cell_volume 2418.703339
_symmetry_space_group_name_H-M "C 2/M"
_symmetry_group_IT_number 12
_symmetry_cell_setting 'monoclinic'
loop_
_space_group_symop_operation_xyz
x,y,z
-x,y,-z
-x,-y,-z
x,-y,z
1/2+x,1/2+y,z
1/2-x,1/2+y,-z
1/2-x,1/2-y,-z
1/2+x,1/2-y,z
loop_
_atom_site_type_symbol
_atom_site_label
_atom_site_fract_x
_atom_site_fract_y
_atom_site_fract_z
Si Si1 0.499329 0.177504 0.607010
Si Si2 0.262672 0.171612 0.885040
Si Si3 0.728763 0.821459 0.628014
Si Si4 0.569722 0.821308 0.954320
Si Si5 0.905443 0.170771 0.896610
Si Si6 0.150187 0.177536 0.406844
O O1 0.500000 0.219889 0.500000
O O2 0.430999 0.243084 0.767653
O O3 0.571884 0.245109 0.541440
O O4 0.499754 0.000000 0.611813
O O5 0.318416 0.260931 0.736156
O O6 0.286372 0.000000 0.859095
O O7 0.250000 0.250000 0.000000
O O8 0.182843 0.173551 0.961079
O O9 0.750000 0.750000 0.500000
O O10 0.647371 0.776618 0.788294
O O11 0.790477 0.783944 0.607527
O O12 0.728114 0.000000 0.619800
O O13 0.571279 0.000000 0.963056
O O14 0.500000 0.782990 0.000000
O O15 0.563499 0.747194 0.061845
O O16 0.929390 0.000000 0.852852
O O17 0.142380 0.000000 0.415729
#
# Coordination Sequence:
#
# PCOD9215829 Si02
#       6
#     8   8   8   8   8   8
#     4  11  25  43  64  91 125 168 213 258 311 371
#     4  11  23  39  63  93 124 163 206 254 310 370
#     4  10  23  41  63  93 127 163 204 254 311 369
#     4  10  22  42  66  93 124 164 209 254 308 371
#     4  11  24  41  63  93 127 164 206 258 313 368
#     4  11  23  41  64  92 127 164 206 258 310 369
#
# _framework density 19.845343
#
# number of rings (size 3 to 8) (size 9 to 14) (size 15 to 20)
#    0.000    1.333    1.667    3.000    2.333    8.333 
#    0.000    0.000    0.000    0.000    0.000    0.000 
#    0.000    0.000    0.000    0.000    0.000    0.000 
#
# Total GULP energy -134222.005590 kJ/mol
# GULP energy per Si atom -5592.583566 kJ/mol
# Density = 1.980017 g / cm^3
# Si number density = 19.845343 Si / 1000 Ang^3
#
#
#
# Elastic Constant Matrix: (Units=GPa)
#
#
# Indices 1 2 3 4 5 6 
#
# 1 86.1845 32.5701 8.2506 0.0000 4.4177 0.0000
# 2 32.5701 52.7331 19.9997 0.0002 4.9221 0.0000
# 3 8.2506 19.9997 76.9051 0.0001 3.6818 0.0000
# 4 0.0000 0.0002 0.0001 39.3756 0.0000 4.9111
# 5 4.4177 4.9221 3.6818 0.0000 40.4578 0.0000
# 6 0.0000 0.0000 0.0000 4.9111 0.0000 27.2634
#
#
#
# Elastic Compliance Matrix: (Units=1/GPa)
#
#
# Indices 1 2 3 4 5 6 
#
# 1 0.015204 -0.009685 0.000915 0.000000 -0.000565 0.000000
# 2 -0.009685 0.027382 -0.005999 0.000000 -0.001728 0.000000
# 3 0.000915 -0.005999 0.014498 0.000000 -0.000689 0.000000
# 4 0.000000 0.000000 0.000000 0.025980 0.000000 -0.004680
# 5 -0.000565 -0.001728 -0.000689 0.000000 0.025052 0.000000
# 6 0.000000 0.000000 0.000000 -0.004680 0.000000 0.037522
#
#
# Mechanical properties :
#
#
# Convention : Reuss Voigt Hill
#
# Bulk Modulus (GPa) = 36.30397 37.49596 36.89996
# Shear Modulus (GPa) = 27.12097 31.75286 29.43691
#
# Velocity S-wave (km/s) = 3.70079 4.00436 3.85556
# Velocity P-wave (km/s) = 6.04932 6.34941 6.20118
#
# Compressibility (1/GPa) = 0.02754520
#
# Stress axis : x y z
#
# Youngs Moduli (GPa) = 65.77001 36.52064 68.97487
#
# Poissons Ratio (x) = 0.35370 -0.06308
# Poissons Ratio (y) = 0.63698 0.41379
# Poissons Ratio (z) = -0.06015 0.21909
#
# Static dielectric constant tensor:
#      x y z
#    x 1.690000 0.000000 -0.026370 
#    y 0.000000 1.667050 0.000000 
#    z -0.026370 0.000000 1.691950 
# 
# From -- ./inp_files/244688.got.cif
#   From: 2010.05.17/outbox.cif.g08.bks.cpg/sg12_123_cif.got.tgz:244688.got - 2010.06.03 13:09:07.
