data_PCOD9215750
_publ_section_title
;
Structure prediction by ZEFSAII (Michael W. Deem and Ramdas Pophale) SiO2 
 PCOD9215750
Probable space group: C 2/M
;
_chemical_formula_sum "Si O2"
_cell_formula_units_Z 40
_cell_length_a 8.889481
_cell_length_b 16.857077
_cell_length_c 22.615374
_cell_angle_alpha 90.000000
_cell_angle_beta 144.953742
_cell_angle_gamma 90.000000
_cell_volume 1946.050353
_symmetry_space_group_name_H-M "C 2/M"
_symmetry_group_IT_number 12
_symmetry_cell_setting 'monoclinic'
loop_
_space_group_symop_operation_xyz
x,y,z
-x,y,-z
-x,-y,-z
x,-y,z
1/2+x,1/2+y,z
1/2-x,1/2+y,-z
1/2-x,1/2-y,-z
1/2+x,1/2-y,z
loop_
_atom_site_type_symbol
_atom_site_label
_atom_site_fract_x
_atom_site_fract_y
_atom_site_fract_z
Si Si1 0.405997 0.591253 0.703046
Si Si2 0.046689 0.255347 0.577630
Si Si3 0.347826 0.172089 0.780565
Si Si4 0.304236 0.409517 0.079653
Si Si5 0.604552 0.705363 0.094684
O O1 0.312259 0.500000 0.669944
O O2 0.661745 0.601776 0.743514
O O3 0.514647 0.607231 0.804563
O O4 0.191067 0.658659 0.617835
O O5 0.750000 0.250000 0.500000
O O6 0.000000 0.213890 0.500000
O O7 0.206779 0.212476 0.679824
O O8 0.345026 0.231852 0.836496
O O9 0.637063 0.160208 0.846480
O O10 0.355277 0.500000 0.078033
O O11 0.392480 0.352970 0.055219
O O12 0.000000 0.406192 0.000000
O O13 0.500000 0.742682 0.000000
#
# Coordination Sequence:
#
# PCOD9215750 Si02
#       5
#     8   8   8   8   8
#     4  11  24  44  69  98 135 175 219 273 333 396
#     4  12  23  43  70  93 125 174 218 276 333 389
#     4  12  23  42  63  98 134 167 225 270 328 390
#     4  10  22  42  64  93 139 182 216 266 333 394
#     4  12  23  37  66  97 134 174 225 269 325 394
#
# _framework density 20.554452999999999
#
# number of rings (size 3 to 8) (size 9 to 14) (size 15 to 20)
#    0.000    0.600    6.000    1.800    0.000    3.200 
#    0.000    0.000    0.000    1.200    0.000    0.000 
#    0.000    0.000    0.000    0.000    0.000    0.000 
#
# Total GULP energy -111524.802924 kJ/mol
# GULP energy per Si atom -5576.240146 kJ/mol
# Density = 2.050767 g / cm^3
# Si number density = 20.554453 Si / 1000 Ang^3
#
#
#
# Elastic Constant Matrix: (Units=GPa)
#
#
# Indices 1 2 3 4 5 6 
#
# 1 132.5700 12.3782 22.2123 0.0001 -2.2181 -0.0001
# 2 12.3782 66.1673 19.6105 0.0029 -12.9055 0.0012
# 3 22.2123 19.6105 111.8693 0.0074 -21.2278 0.0024
# 4 0.0001 0.0029 0.0074 -153.7117 0.0033 -56.8307
# 5 -2.2181 -12.9055 -21.2278 0.0033 54.6704 0.0011
# 6 -0.0001 0.0012 0.0024 -56.8307 0.0011 4.4578
#
#
#
# Elastic Compliance Matrix: (Units=1/GPa)
#
#
# Indices 1 2 3 4 5 6 
#
# 1 0.007886 -0.001143 -0.001464 0.000000 -0.000518 0.000000
# 2 -0.001143 0.016542 -0.002095 0.000000 0.003045 0.000000
# 3 -0.001464 -0.002095 0.010247 0.000000 0.003425 0.000000
# 4 0.000000 0.000000 0.000000 -0.001139 0.000001 -0.014516
# 5 -0.000518 0.003045 0.003425 0.000001 0.020319 0.000000
# 6 0.000000 0.000000 0.000000 -0.014516 0.000000 0.039263
#
#
# Mechanical properties :
#
#
# Convention : Reuss Voigt Hill
#
# Bulk Modulus (GPa) = 39.56959 46.55653 43.06306
# Shear Modulus (GPa) = 45.06726 -1.82300 21.62213
#
# Velocity S-wave (km/s) = 4.68758 -0.94278 3.24689
# Velocity P-wave (km/s) = 6.97071 4.63836 5.92052
#
# Compressibility (1/GPa) = 0.02527194
#
# Stress axis : x y z
#
# Youngs Moduli (GPa) = 126.79930 60.45291 97.59140
#
# Poissons Ratio (x) = 0.06907 0.14287
# Poissons Ratio (y) = 0.14487 0.20446
# Poissons Ratio (z) = 0.18563 0.12665
#
# Static dielectric constant tensor:
#      x y z
#    x 1.657320 0.000000 -0.028950 
#    y 0.000000 1.754020 0.000000 
#    z -0.028950 0.000000 1.676150 
# 
# From -- ./inp_files/300970.got.cif
#   From: 2010.05.17/outbox.cif.g08.bks.cpg/sg12_151_cif.got.tgz:300970.got - 2010.06.03 13:09:07.
