data_PCOD9215311
_publ_section_title
;
Structure prediction by ZEFSAII (Michael W. Deem and Ramdas Pophale) SiO2 
 PCOD9215311
Probable space group: C 2/M
;
_chemical_formula_sum "Si O2"
_cell_formula_units_Z 56
_cell_length_a 28.284632
_cell_length_b 8.798683
_cell_length_c 20.975305
_cell_angle_alpha 90.000000
_cell_angle_beta 146.809430
_cell_angle_gamma 90.000000
_cell_volume 2857.600481
_symmetry_space_group_name_H-M "C 2/M"
_symmetry_group_IT_number 12
_symmetry_cell_setting 'monoclinic'
loop_
_space_group_symop_operation_xyz
x,y,z
-x,y,-z
-x,-y,-z
x,-y,z
1/2+x,1/2+y,z
1/2-x,1/2+y,-z
1/2-x,1/2-y,-z
1/2+x,1/2-y,z
loop_
_atom_site_type_symbol
_atom_site_label
_atom_site_fract_x
_atom_site_fract_y
_atom_site_fract_z
Si Si1 0.266301 0.317276 0.328428
Si Si2 0.036454 0.679697 0.219641
Si Si3 0.083012 0.182170 0.136350
Si Si4 0.834653 0.321944 0.168046
Si Si5 0.900689 0.821073 0.368794
Si Si6 0.322688 0.682602 0.535255
Si Si7 0.133794 0.821826 0.929595
O O1 0.254708 0.500000 0.315579
O O2 0.174014 0.240412 0.211812
O O3 0.336840 0.279343 0.354546
O O4 0.300795 0.274112 0.437817
O O5 0.049187 0.500000 0.234709
O O6 0.073174 0.747549 0.195543
O O7 0.087406 0.753661 0.336417
O O8 0.936469 0.724336 0.112580
O O9 0.084263 0.000000 0.142356
O O10 0.000000 0.226276 0.000000
O O11 0.844345 0.500000 0.163174
O O12 0.881040 0.277767 0.284988
O O13 0.868699 0.223408 0.147533
O O14 0.732359 0.291472 0.061012
O O15 0.000000 0.804327 0.500000
O O16 0.885653 0.000000 0.337003
O O17 0.322600 0.500000 0.539298
O O18 0.250000 0.750000 0.500000
O O19 0.115125 0.000000 0.917385
#
# Coordination Sequence:
#
# PCOD9215311 Si02
#       7
#     8   8   8   8   8   8   8
#     4  10  23  42  64  92 124 166 214 259 314 377
#     4  12  25  40  63  95 127 163 208 257 312 376
#     4  11  25  43  64  92 127 168 212 260 318 379
#     4  10  22  41  64  93 124 159 208 261 315 371
#     4  10  23  42  64  91 125 169 213 255 313 377
#     4  11  22  39  63  91 124 162 206 257 310 368
#     4  10  22  41  65  91 125 164 204 257 314 373
#
# _framework density 19.596862000000002
#
# number of rings (size 3 to 8) (size 9 to 14) (size 15 to 20)
#    0.000    1.429    1.429    3.000    4.000    4.286 
#    0.000    0.000    0.000    0.000    0.000    0.000 
#    0.000    0.000    0.000    0.000    0.000    0.000 
#
# Total GULP energy -156577.034605 kJ/mol
# GULP energy per Si atom -5592.036950 kJ/mol
# Density = 1.955226 g / cm^3
# Si number density = 19.596862 Si / 1000 Ang^3
#
#
#
# Elastic Constant Matrix: (Units=GPa)
#
#
# Indices 1 2 3 4 5 6 
#
# 1 40.7949 10.0968 11.5024 0.0000 21.9279 0.0000
# 2 10.0968 40.5943 28.6320 0.0000 7.0698 0.0000
# 3 11.5024 28.6320 67.1704 0.0000 1.4274 0.0000
# 4 0.0000 0.0000 0.0000 26.7023 0.0000 6.3160
# 5 21.9279 7.0698 1.4274 0.0000 25.3341 0.0000
# 6 0.0000 0.0000 0.0000 6.3160 0.0000 26.3630
#
#
#
# Elastic Compliance Matrix: (Units=1/GPa)
#
#
# Indices 1 2 3 4 5 6 
#
# 1 0.049408 0.000634 -0.007828 0.000000 -0.042501 0.000000
# 2 0.000634 0.037406 -0.015839 0.000000 -0.010095 0.000000
# 3 -0.007828 -0.015839 0.022769 0.000000 0.009912 0.000000
# 4 0.000000 0.000000 0.000000 0.039700 0.000000 -0.009511
# 5 -0.042501 -0.010095 0.009912 0.000000 0.078518 0.000000
# 6 0.000000 0.000000 0.000000 -0.009511 0.000000 0.040211
#
#
# Mechanical properties :
#
#
# Convention : Reuss Voigt Hill
#
# Bulk Modulus (GPa) = 15.74367 27.66909 21.70638
# Shear Modulus (GPa) = 14.91437 22.23512 18.57474
#
# Velocity S-wave (km/s) = 2.76172 3.37208 3.08205
# Velocity P-wave (km/s) = 4.26857 5.41396 4.87502
#
# Compressibility (1/GPa) = 0.06351759
#
# Stress axis : x y z
#
# Youngs Moduli (GPa) = 20.23966 26.73394 43.92008
#
# Poissons Ratio (x) = -0.01695 0.34380
# Poissons Ratio (y) = -0.01283 0.69563
# Poissons Ratio (z) = 0.15843 0.42343
#
# Static dielectric constant tensor:
#      x y z
#    x 1.663440 0.000000 0.010630 
#    y 0.000000 1.659790 0.000000 
#    z 0.010630 0.000000 1.684810 
# 
# From -- ./inp_files/329622.got.cif
#   From: 2010.05.17/outbox.cif.g08.bks.cpg/sg12_165_cif.got.tgz:329622.got - 2010.06.03 13:09:07.
