data_PCOD9215483
_publ_section_title
;
Structure prediction by ZEFSAII (Michael W. Deem and Ramdas Pophale) SiO2 
 PCOD9215483
Probable space group: C 2/M
;
_chemical_formula_sum "Si O2"
_cell_formula_units_Z 48
_cell_length_a 27.505749
_cell_length_b 8.431043
_cell_length_c 9.621413
_cell_angle_alpha 90.000000
_cell_angle_beta 89.213153
_cell_angle_gamma 90.000000
_cell_volume 2231.015987
_symmetry_space_group_name_H-M "C 2/M"
_symmetry_group_IT_number 12
_symmetry_cell_setting 'monoclinic'
loop_
_space_group_symop_operation_xyz
x,y,z
-x,y,-z
-x,-y,-z
x,-y,z
1/2+x,1/2+y,z
1/2-x,1/2+y,-z
1/2-x,1/2-y,-z
1/2+x,1/2-y,z
loop_
_atom_site_type_symbol
_atom_site_label
_atom_site_fract_x
_atom_site_fract_y
_atom_site_fract_z
Si Si1 0.650606 0.682254 0.918377
Si Si2 0.644880 0.315647 0.434401
Si Si3 0.303483 0.815888 0.816630
Si Si4 0.047327 0.690874 0.909980
Si Si5 0.548443 0.190462 0.583910
Si Si6 0.707549 0.184266 0.672936
O O1 0.654733 0.500000 0.873254
O O2 0.595771 0.724308 0.961768
O O3 0.665644 0.794236 0.790391
O O4 0.685619 0.716461 0.046189
O O5 0.646337 0.500000 0.397270
O O6 0.653604 0.213511 0.296035
O O7 0.595164 0.272772 0.514362
O O8 0.688636 0.275092 0.538594
O O9 0.254910 0.758102 0.742004
O O10 0.299780 0.000000 0.853481
O O11 0.053402 0.500000 0.921466
O O12 0.042309 0.730514 0.746697
O O13 0.000000 0.735421 0.000000
O O14 0.500000 0.230722 0.500000
O O15 0.555751 0.000000 0.574509
O O16 0.714933 0.000000 0.640131
#
# Coordination Sequence:
#
# PCOD9215483 Si02
#       6
#     8   8   8   8   8   8
#     4  12  25  43  66  98 135 172 216 270 327 385
#     4  12  25  43  66  98 135 172 216 270 327 385
#     4  12  26  44  67  96 131 174 220 269 323 387
#     4  10  22  41  66  96 130 171 217 265 322 386
#     4  10  22  41  66  96 130 171 217 265 322 386
#     4  12  24  44  69  96 131 174 220 267 323 387
#
# _framework density 21.514862999999998
#
# number of rings (size 3 to 8) (size 9 to 14) (size 15 to 20)
#    0.000    0.667    1.667    7.000    2.333    0.667 
#    0.000    0.000    0.000    0.000    0.000    0.000 
#    0.000    0.000    0.000    0.000    0.000    0.000 
#
# Total GULP energy -134438.022485 kJ/mol
# GULP energy per Si atom -5601.584270 kJ/mol
# Density = 2.146589 g / cm^3
# Si number density = 21.514863 Si / 1000 Ang^3
#
#
#
# Elastic Constant Matrix: (Units=GPa)
#
#
# Indices 1 2 3 4 5 6 
#
# 1 80.0612 19.3141 -0.6704 0.0000 1.8557 0.0000
# 2 19.3141 67.5798 -11.3860 0.0000 3.2344 0.0000
# 3 -0.6704 -11.3860 40.6623 0.0000 2.4868 0.0000
# 4 0.0000 0.0000 0.0000 25.4296 0.0000 0.7773
# 5 1.8557 3.2344 2.4868 0.0000 41.3442 0.0000
# 6 0.0000 0.0000 0.0000 0.7773 0.0000 29.8580
#
#
#
# Elastic Compliance Matrix: (Units=1/GPa)
#
#
# Indices 1 2 3 4 5 6 
#
# 1 0.013449 -0.003980 -0.000878 0.000000 -0.000239 0.000000
# 2 -0.003980 0.016799 0.004725 0.000000 -0.001420 0.000000
# 3 -0.000878 0.004725 0.026017 0.000000 -0.001895 0.000000
# 4 0.000000 0.000000 0.000000 0.039356 0.000000 -0.001025
# 5 -0.000239 -0.001420 -0.001895 0.000000 0.024423 0.000000
# 6 0.000000 0.000000 0.000000 -0.001025 0.000000 0.033519
#
#
# Mechanical properties :
#
#
# Convention : Reuss Voigt Hill
#
# Bulk Modulus (GPa) = 17.85750 22.53539 20.19645
# Shear Modulus (GPa) = 28.98642 31.39607 30.19124
#
# Velocity S-wave (km/s) = 3.67451 3.82419 3.75009
# Velocity P-wave (km/s) = 5.13038 5.47689 5.30646
#
# Compressibility (1/GPa) = 0.05599887
#
# Stress axis : x y z
#
# Youngs Moduli (GPa) = 74.35598 59.52773 38.43591
#
# Poissons Ratio (x) = 0.23693 0.03375
# Poissons Ratio (y) = 0.29595 -0.18162
# Poissons Ratio (z) = 0.06529 -0.28128
#
# Static dielectric constant tensor:
#      x y z
#    x 1.790120 0.000000 -0.024920 
#    y 0.000000 1.734760 0.000000 
#    z -0.024920 0.000000 1.762820 
# 
# From -- ./inp_files/108754.got.cif
#   From: 2010.05.17/outbox.cif.g08.bks.cpg/sg12_55_cif.got.tgz:108754.got - 2010.06.03 13:09:07.
