data_PCOD9215419
_publ_section_title
;
Structure prediction by ZEFSAII (Michael W. Deem and Ramdas Pophale) SiO2 
 PCOD9215419
Probable space group: C 2/M
;
_chemical_formula_sum "Si O2"
_cell_formula_units_Z 64
_cell_length_a 8.058384
_cell_length_b 31.495439
_cell_length_c 16.147186
_cell_angle_alpha 90.000000
_cell_angle_beta 137.501285
_cell_angle_gamma 90.000000
_cell_volume 2768.631712
_symmetry_space_group_name_H-M "C 2/M"
_symmetry_group_IT_number 12
_symmetry_cell_setting 'monoclinic'
loop_
_space_group_symop_operation_xyz
x,y,z
-x,y,-z
-x,-y,-z
x,-y,z
1/2+x,1/2+y,z
1/2-x,1/2+y,-z
1/2-x,1/2-y,-z
1/2+x,1/2-y,z
loop_
_atom_site_type_symbol
_atom_site_label
_atom_site_fract_x
_atom_site_fract_y
_atom_site_fract_z
Si Si1 0.333110 0.316428 0.009167
Si Si2 0.136024 0.547878 0.423826
Si Si3 0.767590 0.133315 0.570959
Si Si4 0.180161 0.594548 0.993538
Si Si5 0.166839 0.547043 0.240188
Si Si6 0.475206 0.720423 0.611661
Si Si7 0.482939 0.252152 0.793052
Si Si8 0.570705 0.430694 0.250567
O O1 0.146765 0.284896 0.893433
O O2 0.500000 0.337091 0.000000
O O3 0.203408 0.355045 0.005751
O O4 0.502036 0.288806 0.132430
O O5 0.215764 0.500000 0.479847
O O6 0.234122 0.589963 0.506222
O O7 0.211914 0.551548 0.355070
O O8 0.841565 0.550245 0.335385
O O9 0.500000 0.149569 0.500000
O O10 0.904311 0.171334 0.576357
O O11 0.895136 0.117253 0.701960
O O12 0.432443 0.572131 0.112230
O O13 0.000000 0.579878 0.000000
O O14 0.040808 0.580781 0.860152
O O15 0.062512 0.500000 0.189953
O O16 0.395073 0.550389 0.259007
O O17 0.250000 0.750000 0.500000
O O18 0.575602 0.726352 0.743054
O O19 0.726384 0.734840 0.662829
#
# Coordination Sequence:
#
# PCOD9215419 Si02
#       8
#     8   8   8   8   8   8   8   8
#     4  11  24  42  68  97 128 173 220 283 333 397
#     4  10  23  43  68  98 130 175 229 276 330 405
#     4  10  23  43  68  93 129 174 222 275 335 402
#     4  10  24  39  64  97 129 169 215 270 338 404
#     4  10  23  42  63  96 136 171 219 276 333 404
#     4  12  25  45  66  96 135 178 221 281 344 409
#     4  11  25  43  67  97 130 171 224 276 337 406
#     4  10  22  41  65  96 129 177 213 277 335 400
#
# _framework density 23.116112000000001
#
# number of rings (size 3 to 8) (size 9 to 14) (size 15 to 20)
#    0.000    1.500    1.250    2.250    7.000    8.000 
#    2.250    2.500    0.000    0.000    0.000    0.000 
#    0.000    0.000    0.000    0.000    0.000    0.000 
#
# Total GULP energy -178508.477558 kJ/mol
# GULP energy per Si atom -5578.389924 kJ/mol
# Density = 2.306350 g / cm^3
# Si number density = 23.116112 Si / 1000 Ang^3
#
#
#
# Elastic Constant Matrix: (Units=GPa)
#
#
# Indices 1 2 3 4 5 6 
#
# 1 71.2245 7.4104 24.0279 0.0000 -6.8580 0.0000
# 2 7.4104 113.3982 50.6387 0.0000 11.6481 0.0000
# 3 24.0279 50.6387 102.3207 0.0000 -3.3473 0.0000
# 4 0.0000 0.0000 0.0000 21.4788 0.0000 0.5270
# 5 -6.8580 11.6481 -3.3473 0.0000 22.9843 0.0000
# 6 0.0000 0.0000 0.0000 0.5270 0.0000 18.6523
#
#
#
# Elastic Compliance Matrix: (Units=1/GPa)
#
#
# Indices 1 2 3 4 5 6 
#
# 1 0.015635 0.000184 -0.003630 0.000000 0.004043 0.000000
# 2 0.000184 0.012409 -0.006419 0.000000 -0.007169 0.000000
# 3 -0.003630 -0.006419 0.013940 0.000000 0.004200 0.000000
# 4 0.000000 0.000000 0.000000 0.046590 0.000000 -0.001316
# 5 0.004043 -0.007169 0.004200 0.000000 0.048959 0.000000
# 6 0.000000 0.000000 0.000000 -0.001316 0.000000 0.053650
#
#
# Mechanical properties :
#
#
# Convention : Reuss Voigt Hill
#
# Bulk Modulus (GPa) = 44.93686 50.12193 47.52939
# Shear Modulus (GPa) = 22.90092 26.28084 24.59088
#
# Velocity S-wave (km/s) = 3.15094 3.37546 3.26513
# Velocity P-wave (km/s) = 5.72011 6.07630 5.90089
#
# Compressibility (1/GPa) = 0.02225345
#
# Stress axis : x y z
#
# Youngs Moduli (GPa) = 63.95907 80.58449 71.73611
#
# Poissons Ratio (x) = -0.01484 0.26043
# Poissons Ratio (y) = -0.01178 0.46049
# Poissons Ratio (z) = 0.23220 0.51729
#
# Static dielectric constant tensor:
#      x y z
#    x -3.043230 0.000000 -0.674040 
#    y 0.000000 1.826070 0.000000 
#    z -0.674040 0.000000 1.827720 
# 
# From -- ./inp_files/260402.got.cif
#   From: 2010.05.17/outbox.cif.g08.bks.cpg/sg12_131_cif.got.tgz:260402.got - 2010.06.03 13:09:07.
