data_PCOD9215478
_publ_section_title
;
Structure prediction by ZEFSAII (Michael W. Deem and Ramdas Pophale) SiO2 
 PCOD9215478
Probable space group: C 2/M
;
_chemical_formula_sum "Si O2"
_cell_formula_units_Z 36
_cell_length_a 13.899771
_cell_length_b 11.682083
_cell_length_c 13.405952
_cell_angle_alpha 90.000000
_cell_angle_beta 137.017055
_cell_angle_gamma 90.000000
_cell_volume 1484.124217
_symmetry_space_group_name_H-M "C 2/M"
_symmetry_group_IT_number 12
_symmetry_cell_setting 'monoclinic'
loop_
_space_group_symop_operation_xyz
x,y,z
-x,y,-z
-x,-y,-z
x,-y,z
1/2+x,1/2+y,z
1/2-x,1/2+y,-z
1/2-x,1/2-y,-z
1/2+x,1/2-y,z
loop_
_atom_site_type_symbol
_atom_site_label
_atom_site_fract_x
_atom_site_fract_y
_atom_site_fract_z
Si Si1 0.716653 0.621910 0.942192
Si Si2 0.216331 0.626161 0.239213
Si Si3 0.804363 0.368758 0.483597
Si Si4 0.442720 0.339747 0.846312
Si Si5 0.500000 0.241160 0.500000
O O1 0.771768 0.500000 0.027866
O O2 0.761017 0.621702 0.861630
O O3 0.550996 0.621478 0.844277
O O4 0.750000 0.750000 0.000000
O O5 0.194327 0.500000 0.259949
O O6 0.084023 0.703996 0.167548
O O7 0.364249 0.678419 0.387292
O O8 0.796634 0.500000 0.519447
O O9 0.750000 0.250000 0.500000
O O10 0.709389 0.377287 0.310171
O O11 0.962083 0.337050 0.566636
O O12 0.500000 0.373605 0.000000
#
# Coordination Sequence:
#
# PCOD9215478 Si02
#       5
#     8   8   8   8   4
#     4  11  23  41  62  92 129 171 214 264 325 392
#     4  10  22  41  66  95 135 176 219 270 332 399
#     4  11  25  45  70  99 135 179 224 277 333 400
#     4  11  23  42  68 100 134 170 227 275 336 391
#     4  10  22  42  66  96 131 170 229 268 331 390
#
# _framework density 24.256729
#
# number of rings (size 3 to 8) (size 9 to 14) (size 15 to 20)
#    0.000    1.333    2.222    2.667    0.000    9.333 
#    0.000    3.333    0.000    0.000    0.000    0.000 
#    0.000    0.000    0.000    0.000    0.000    0.000 
#
# Total GULP energy -100201.742958 kJ/mol
# GULP energy per Si atom -5566.763498 kJ/mol
# Density = 2.420152 g / cm^3
# Si number density = 24.256729 Si / 1000 Ang^3
#
#
#
# Elastic Constant Matrix: (Units=GPa)
#
#
# Indices 1 2 3 4 5 6 
#
# 1 100.6181 49.8410 -3.9806 0.0000 -9.1500 0.0000
# 2 49.8410 275.6119 34.9604 0.0000 -3.5930 0.0000
# 3 -3.9806 34.9604 63.1874 0.0000 -13.6708 0.0000
# 4 0.0000 0.0000 0.0000 7.4048 0.0000 -11.4714
# 5 -9.1500 -3.5930 -13.6708 0.0000 31.8037 0.0000
# 6 0.0000 0.0000 0.0000 -11.4714 0.0000 -2.0142
#
#
#
# Elastic Compliance Matrix: (Units=1/GPa)
#
#
# Indices 1 2 3 4 5 6 
#
# 1 0.011664 -0.002437 0.003031 0.000000 0.004384 0.000000
# 2 -0.002437 0.004420 -0.002913 0.000000 -0.001454 0.000000
# 3 0.003031 -0.002913 0.019566 0.000000 0.008953 0.000000
# 4 0.000000 0.000000 0.000000 0.013748 0.000000 -0.078299
# 5 0.004384 -0.001454 0.008953 0.000000 0.036388 0.000000
# 6 0.000000 0.000000 0.000000 -0.078299 0.000000 -0.050542
#
#
# Mechanical properties :
#
#
# Convention : Reuss Voigt Hill
#
# Bulk Modulus (GPa) = 32.24527 66.78429 49.51478
# Shear Modulus (GPa) = 99.56509 31.34531 65.45520
#
# Velocity S-wave (km/s) = 6.41370 3.59866 5.20028
# Velocity P-wave (km/s) = 8.25648 6.69770 7.51760
#
# Compressibility (1/GPa) = 0.03101230
#
# Stress axis : x y z
#
# Youngs Moduli (GPa) = 85.73283 226.26858 51.10930
#
# Poissons Ratio (x) = 0.55135 -0.15493
# Poissons Ratio (y) = 0.20890 0.14890
# Poissons Ratio (z) = -0.25989 0.65920
#
# Static dielectric constant tensor:
#      x y z
#    x 1.800990 0.000000 0.004970 
#    y 0.000000 12.091760 0.000000 
#    z 0.004970 0.000000 1.987490 
# 
# From -- ./inp_files/213597.got.cif
#   From: 2010.05.17/outbox.cif.g08.bks.cpg/sg12_107_cif.got.tgz:213597.got - 2010.06.03 13:09:07.
