data_PCOD9215497
_publ_section_title
;
Structure prediction by ZEFSAII (Michael W. Deem and Ramdas Pophale) SiO2 
 PCOD9215497
Probable space group: C 2/M
;
_chemical_formula_sum "Si O2"
_cell_formula_units_Z 40
_cell_length_a 14.000435
_cell_length_b 26.238606
_cell_length_c 5.738077
_cell_angle_alpha 90.000000
_cell_angle_beta 70.536947
_cell_angle_gamma 90.000000
_cell_volume 1987.441169
_symmetry_space_group_name_H-M "C 2/M"
_symmetry_group_IT_number 12
_symmetry_cell_setting 'monoclinic'
loop_
_space_group_symop_operation_xyz
x,y,z
-x,y,-z
-x,-y,-z
x,-y,z
1/2+x,1/2+y,z
1/2-x,1/2+y,-z
1/2-x,1/2-y,-z
1/2+x,1/2-y,z
loop_
_atom_site_type_symbol
_atom_site_label
_atom_site_fract_x
_atom_site_fract_y
_atom_site_fract_z
Si Si1 0.122911 0.058312 0.920692
Si Si2 0.252745 0.865314 0.531650
Si Si3 0.827009 0.775189 0.116629
Si Si4 0.101051 0.149948 0.271383
Si Si5 0.058689 0.310015 0.703262
O O1 0.190759 0.084155 0.660269
O O2 0.154061 0.000000 0.931967
O O3 0.133133 0.097524 0.122755
O O4 0.000000 0.058325 0.000000
O O5 0.233708 0.824084 0.746040
O O6 0.193582 0.840441 0.365596
O O7 0.371498 0.860615 0.386381
O O8 0.870121 0.738572 0.282984
O O9 0.750000 0.750000 0.000000
O O10 0.913973 0.802985 0.891853
O O11 0.000000 0.142333 0.500000
O O12 0.000000 0.302190 0.500000
O O13 0.000000 0.316173 0.000000
#
# Coordination Sequence:
#
# PCOD9215497 Si02
#       5
#     8   8   8   8   8
#     4  10  22  41  66  98 130 165 214 276 354 423
#     4  11  24  42  62  92 133 172 221 278 336 401
#     4  11  24  40  61  92 137 180 228 274 330 393
#     4  11  23  37  62  96 132 177 215 273 336 408
#     4  12  28  43  66  97 136 188 236 281 325 388
#
# _framework density 20.126383000000001
#
# number of rings (size 3 to 8) (size 9 to 14) (size 15 to 20)
#    0.000    1.000    4.000    1.800    8.400    1.200 
#    0.000    0.000    0.000    1.200    0.000    0.000 
#    0.000    0.000    0.000    0.000    0.000    0.000 
#
# Total GULP energy -111385.683403 kJ/mol
# GULP energy per Si atom -5569.284170 kJ/mol
# Density = 2.008057 g / cm^3
# Si number density = 20.126383 Si / 1000 Ang^3
#
#
#
# Elastic Constant Matrix: (Units=GPa)
#
#
# Indices 1 2 3 4 5 6 
#
# 1 91.2140 40.5480 44.0257 0.0000 15.9374 0.0000
# 2 40.5480 119.5991 51.4172 0.0000 -0.4796 0.0000
# 3 44.0257 51.4172 109.2213 0.0000 -1.4642 0.0000
# 4 0.0000 0.0000 0.0000 23.9811 0.0000 4.3653
# 5 15.9374 -0.4796 -1.4642 0.0000 43.7794 0.0000
# 6 0.0000 0.0000 0.0000 4.3653 0.0000 34.9606
#
#
#
# Elastic Compliance Matrix: (Units=1/GPa)
#
#
# Indices 1 2 3 4 5 6 
#
# 1 0.015838 -0.003278 -0.004921 0.000000 -0.005966 0.000000
# 2 -0.003278 0.011161 -0.003917 0.000000 0.001185 0.000000
# 3 -0.004921 -0.003917 0.013013 0.000000 0.002184 0.000000
# 4 0.000000 0.000000 0.000000 0.042669 0.000000 -0.005328
# 5 -0.005966 0.001185 0.002184 0.000000 0.025100 0.000000
# 6 0.000000 0.000000 0.000000 -0.005328 0.000000 0.029269
#
#
# Mechanical properties :
#
#
# Convention : Reuss Voigt Hill
#
# Bulk Modulus (GPa) = 63.37182 65.77956 64.57569
# Shear Modulus (GPa) = 30.02246 32.81378 31.41812
#
# Velocity S-wave (km/s) = 3.86644 4.04218 3.95529
# Velocity P-wave (km/s) = 7.17550 7.38511 7.28106
#
# Compressibility (1/GPa) = 0.01577988
#
# Stress axis : x y z
#
# Youngs Moduli (GPa) = 63.13932 89.59458 76.84841
#
# Poissons Ratio (x) = 0.29369 0.37817
# Poissons Ratio (y) = 0.20697 0.30103
# Poissons Ratio (z) = 0.31071 0.35096
#
# Static dielectric constant tensor:
#      x y z
#    x 1.776640 0.000000 -0.084890 
#    y 0.000000 1.703420 0.000000 
#    z -0.084890 0.000000 1.857540 
# 
# From -- ./inp_files/11525.got.cif
#   From: 2010.05.17/outbox.cif.g08.bks.cpg/sg12_6_cif.got.tgz:11525.got - 2010.06.03 13:09:07.
