data_PCOD9215618
_publ_section_title
;
Structure prediction by ZEFSAII (Michael W. Deem and Ramdas Pophale) SiO2 
 PCOD9215618
Probable space group: C 2/M
;
_chemical_formula_sum "Si O2"
_cell_formula_units_Z 48
_cell_length_a 18.667635
_cell_length_b 13.881051
_cell_length_c 8.458322
_cell_angle_alpha 90.000000
_cell_angle_beta 96.827711
_cell_angle_gamma 90.000000
_cell_volume 2176.230687
_symmetry_space_group_name_H-M "C 2/M"
_symmetry_group_IT_number 12
_symmetry_cell_setting 'monoclinic'
loop_
_space_group_symop_operation_xyz
x,y,z
-x,y,-z
-x,-y,-z
x,-y,z
1/2+x,1/2+y,z
1/2-x,1/2+y,-z
1/2-x,1/2-y,-z
1/2+x,1/2-y,z
loop_
_atom_site_type_symbol
_atom_site_label
_atom_site_fract_x
_atom_site_fract_y
_atom_site_fract_z
Si Si1 0.700834 0.233515 0.136435
Si Si2 0.617189 0.387753 0.320505
Si Si3 0.571035 0.114829 0.110545
Si Si4 0.155759 0.207018 0.657016
Si Si5 0.963048 0.886396 0.160293
Si Si6 0.584376 0.888433 0.480325
O O1 0.657476 0.323176 0.199783
O O2 0.643415 0.156224 0.059110
O O3 0.759653 0.201436 0.281573
O O4 0.750000 0.250000 0.000000
O O5 0.629456 0.500000 0.289224
O O6 0.642336 0.359573 0.501367
O O7 0.531070 0.371287 0.293444
O O8 0.581680 0.142928 0.296465
O O9 0.568557 0.000000 0.106434
O O10 0.500000 0.149271 0.000000
O O11 0.104693 0.171901 0.788588
O O12 0.129979 0.313894 0.596281
O O13 0.943723 0.000000 0.151062
O O14 0.000000 0.864181 0.000000
O O15 0.500000 0.886875 0.500000
O O16 0.609402 0.000000 0.500408
#
# Coordination Sequence:
#
# PCOD9215618 Si02
#       6
#     8   8   8   8   8   8
#     4  12  28  44  65 101 141 181 225 280 351 410
#     4  11  24  44  68  98 135 181 231 277 334 406
#     4  10  24  47  73  98 131 179 235 285 335 404
#     4  12  24  43  67 104 138 178 222 286 350 409
#     4  10  22  42  70 100 133 177 226 275 331 403
#     4  10  22  41  69 103 134 176 232 287 339 400
#
# _framework density 22.056484999999999
#
# number of rings (size 3 to 8) (size 9 to 14) (size 15 to 20)
#    0.000    1.167    1.667    3.500    2.333    4.667 
#    0.000    0.000    0.000    0.500    0.000    0.000 
#    0.000    0.000    0.000    0.000    0.000    0.000 
#
# Total GULP energy -134202.944278 kJ/mol
# GULP energy per Si atom -5591.789345 kJ/mol
# Density = 2.200628 g / cm^3
# Si number density = 22.056485 Si / 1000 Ang^3
#
#
#
# Elastic Constant Matrix: (Units=GPa)
#
#
# Indices 1 2 3 4 5 6 
#
# 1 100.1239 26.0639 31.2340 0.0000 19.9620 0.0000
# 2 26.0639 100.8381 20.6615 0.0000 9.1167 0.0000
# 3 31.2340 20.6615 63.8141 0.0000 1.1425 0.0000
# 4 0.0000 0.0000 0.0000 75.7968 0.0000 -99.2946
# 5 19.9620 9.1167 1.1425 0.0000 51.8324 0.0000
# 6 0.0000 0.0000 0.0000 -99.2946 0.0000 198.0520
#
#
#
# Elastic Compliance Matrix: (Units=1/GPa)
#
#
# Indices 1 2 3 4 5 6 
#
# 1 0.013186 -0.001804 -0.005787 0.000000 -0.004634 0.000000
# 2 -0.001804 0.011037 -0.002670 0.000000 -0.001188 0.000000
# 3 -0.005787 -0.002670 0.019327 0.000000 0.002272 0.000000
# 4 0.000000 0.000000 0.000000 0.038440 0.000000 0.019272
# 5 -0.004634 -0.001188 0.002272 0.000000 0.021236 0.000000
# 6 0.000000 0.000000 0.000000 0.019272 0.000000 0.014711
#
#
# Mechanical properties :
#
#
# Convention : Reuss Voigt Hill
#
# Bulk Modulus (GPa) = 43.42213 46.74387 45.08300
# Shear Modulus (GPa) = 34.21493 77.59068 55.90281
#
# Velocity S-wave (km/s) = 3.94285 5.93755 5.03987
# Velocity P-wave (km/s) = 6.36063 8.26104 7.37233
#
# Compressibility (1/GPa) = 0.02302973
#
# Stress axis : x y z
#
# Youngs Moduli (GPa) = 75.83654 90.60056 51.74187
#
# Poissons Ratio (x) = 0.16341 0.29944
# Poissons Ratio (y) = 0.13678 0.13813
# Poissons Ratio (z) = 0.43888 0.24187
#
# Static dielectric constant tensor:
#      x y z
#    x 1.769910 0.000000 0.021750 
#    y 0.000000 1.824270 0.000000 
#    z 0.021750 0.000000 1.985140 
# 
# From -- ./inp_files/73598.got.cif
#   From: 2010.05.17/outbox.cif.g08.bks.cpg/sg12_37_cif.got.tgz:73598.got - 2010.06.03 13:09:07.
