data_PCOD9215585
_publ_section_title
;
Structure prediction by ZEFSAII (Michael W. Deem and Ramdas Pophale) SiO2 
 PCOD9215585
Probable space group: C 2/M
;
_chemical_formula_sum "Si O2"
_cell_formula_units_Z 48
_cell_length_a 9.835053
_cell_length_b 27.947995
_cell_length_c 13.574653
_cell_angle_alpha 90.000000
_cell_angle_beta 145.386517
_cell_angle_gamma 90.000000
_cell_volume 2119.498208
_symmetry_space_group_name_H-M "C 2/M"
_symmetry_group_IT_number 12
_symmetry_cell_setting 'monoclinic'
loop_
_space_group_symop_operation_xyz
x,y,z
-x,y,-z
-x,-y,-z
x,-y,z
1/2+x,1/2+y,z
1/2-x,1/2+y,-z
1/2-x,1/2-y,-z
1/2+x,1/2-y,z
loop_
_atom_site_type_symbol
_atom_site_label
_atom_site_fract_x
_atom_site_fract_y
_atom_site_fract_z
Si Si1 0.245926 0.395376 0.309368
Si Si2 0.168966 0.500000 0.234348
Si Si3 0.029365 0.348230 0.353947
Si Si4 0.415008 0.594046 0.838384
Si Si5 0.735982 0.243998 0.873639
Si Si6 0.431136 0.349309 0.241026
Si Si7 0.603146 0.500000 0.843010
O O1 0.500000 0.377139 0.500000
O O2 0.052615 0.367924 0.256666
O O3 0.266507 0.385550 0.206088
O O4 0.221620 0.450821 0.319610
O O5 0.343791 0.500000 0.242522
O O6 0.882010 0.500000 0.044838
O O7 0.290268 0.350773 0.559574
O O8 0.847077 0.382638 0.303552
O O9 0.936800 0.294486 0.281266
O O10 0.563987 0.634615 0.869057
O O11 0.461998 0.546506 0.800547
O O12 0.500000 0.584042 0.000000
O O13 0.667679 0.296908 0.796828
O O14 0.750000 0.250000 0.000000
O O15 0.000000 0.229507 0.000000
#
# Coordination Sequence:
#
# PCOD9215585 Si02
#       7
#     8   4   8   8   8   8   4
#     4  10  22  41  68  94 126 169 221 267 323 393
#     4  11  21  42  65  97 127 170 220 268 326 388
#     4  11  24  43  67  99 134 175 215 275 335 390
#     4  12  24  43  65  97 135 172 222 275 334 391
#     4  12  25  42  66  99 133 173 221 270 326 392
#     4  11  24  44  68  94 133 177 223 269 329 394
#     4  11  25  40  66  94 130 176 217 270 332 397
#
# _framework density 22.646868999999999
#
# number of rings (size 3 to 8) (size 9 to 14) (size 15 to 20)
#    0.000    0.833    1.667    6.000    0.000    2.000 
#    0.000    7.500    0.000    0.000    0.000    0.000 
#    0.000    0.000    0.000    0.000    0.000    0.000 
#
# Total GULP energy -134089.202448 kJ/mol
# GULP energy per Si atom -5587.050102 kJ/mol
# Density = 2.259532 g / cm^3
# Si number density = 22.646869 Si / 1000 Ang^3
#
#
#
# Elastic Constant Matrix: (Units=GPa)
#
#
# Indices 1 2 3 4 5 6 
#
# 1 91.3210 11.1074 -7.6038 0.0000 2.0886 0.0000
# 2 11.1074 125.9819 -7.9062 0.0000 12.9519 0.0000
# 3 -7.6038 -7.9062 66.1623 0.0000 5.0207 0.0000
# 4 0.0000 0.0000 0.0000 30.0007 0.0000 7.0753
# 5 2.0886 12.9519 5.0207 0.0000 10.7016 0.0000
# 6 0.0000 0.0000 0.0000 7.0753 0.0000 47.0941
#
#
#
# Elastic Compliance Matrix: (Units=1/GPa)
#
#
# Indices 1 2 3 4 5 6 
#
# 1 0.011193 -0.000699 0.001353 0.000000 -0.001973 0.000000
# 2 -0.000699 0.009368 0.001959 0.000000 -0.012121 0.000000
# 3 0.001353 0.001959 0.016284 0.000000 -0.010274 0.000000
# 4 0.000000 0.000000 0.000000 0.034557 0.000000 -0.005192
# 5 -0.001973 -0.012121 -0.010274 0.000000 0.113319 0.000000
# 6 0.000000 0.000000 0.000000 -0.005192 0.000000 0.022014
#
#
# Mechanical properties :
#
#
# Convention : Reuss Voigt Hill
#
# Bulk Modulus (GPa) = 23.77007 30.51777 27.14392
# Shear Modulus (GPa) = 23.19821 36.75046 29.97434
#
# Velocity S-wave (km/s) = 3.20401 4.03272 3.64201
# Velocity P-wave (km/s) = 4.91999 5.93199 5.44954
#
# Compressibility (1/GPa) = 0.04206971
#
# Stress axis : x y z
#
# Youngs Moduli (GPa) = 89.34029 106.74249 61.41169
#
# Poissons Ratio (x) = 0.07463 -0.08306
# Poissons Ratio (y) = 0.06246 -0.12030
# Poissons Ratio (z) = -0.12084 -0.20910
#
# Static dielectric constant tensor:
#      x y z
#    x 1.852600 0.000000 -0.024470 
#    y 0.000000 1.811260 0.000000 
#    z -0.024470 0.000000 1.853710 
# 
# From -- ./inp_files/200263.got.cif
#   From: 2010.05.17/outbox.cif.g08.bks.cpg/sg12_101_cif.got.tgz:200263.got - 2010.06.03 13:09:07.
