data_PCOD9215904
_publ_section_title
;
Structure prediction by ZEFSAII (Michael W. Deem and Ramdas Pophale) SiO2 
 PCOD9215904
Probable space group: C 2/M
;
_chemical_formula_sum "Si O2"
_cell_formula_units_Z 44
_cell_length_a 18.041917
_cell_length_b 17.974208
_cell_length_c 6.419919
_cell_angle_alpha 90.000000
_cell_angle_beta 106.347098
_cell_angle_gamma 90.000000
_cell_volume 1997.747427
_symmetry_space_group_name_H-M "C 2/M"
_symmetry_group_IT_number 12
_symmetry_cell_setting 'monoclinic'
loop_
_space_group_symop_operation_xyz
x,y,z
-x,y,-z
-x,-y,-z
x,-y,z
1/2+x,1/2+y,z
1/2-x,1/2+y,-z
1/2-x,1/2-y,-z
1/2+x,1/2-y,z
loop_
_atom_site_type_symbol
_atom_site_label
_atom_site_fract_x
_atom_site_fract_y
_atom_site_fract_z
Si Si1 0.940058 0.256286 0.260531
Si Si2 0.270321 0.085892 0.026797
Si Si3 0.651334 0.417958 0.301793
Si Si4 0.000000 0.866466 0.000000
Si Si5 0.710940 0.701519 0.653269
Si Si6 0.945624 0.418747 0.253089
O O1 0.851723 0.249946 0.270408
O O2 0.957343 0.336519 0.170187
O O3 0.000000 0.250009 0.500000
O O4 0.955620 0.188403 0.120867
O O5 0.264984 0.151064 0.847970
O O6 0.258360 0.000000 0.937232
O O7 0.204587 0.101559 0.145418
O O8 0.352945 0.082856 0.208272
O O9 0.674918 0.500000 0.387716
O O10 0.563215 0.414848 0.164496
O O11 0.662224 0.359941 0.492134
O O12 0.750000 0.750000 0.500000
O O13 0.960201 0.500000 0.163968
O O14 0.000000 0.418776 0.500000
#
# Coordination Sequence:
#
# PCOD9215904 Si02
#       6
#     8   8   8   4   8   8
#     4  11  23  41  64  95 134 174 220 280 335 399
#     4  10  22  42  67  97 136 177 221 276 339 404
#     4  11  24  42  65  97 136 179 225 275 333 403
#     4  12  23  42  67  94 130 180 228 270 335 398
#     4  12  25  40  65 101 134 179 225 276 336 400
#     4   9  20  40  67  95 126 171 222 278 342 403
#
# _framework density 22.024804
#
# number of rings (size 3 to 8) (size 9 to 14) (size 15 to 20)
#    0.000    1.273    3.636    1.909    2.545    1.455 
#    0.000    2.273    0.000    4.364    0.000    0.000 
#    0.000    0.000    0.000    0.000    0.000    0.000 
#
# Total GULP energy -122697.368597 kJ/mol
# GULP energy per Si atom -5577.153118 kJ/mol
# Density = 2.197467 g / cm^3
# Si number density = 22.024804 Si / 1000 Ang^3
#
#
#
# Elastic Constant Matrix: (Units=GPa)
#
#
# Indices 1 2 3 4 5 6 
#
# 1 110.1421 21.4510 55.3369 0.0000 10.3383 0.0000
# 2 21.4510 140.2678 50.2749 0.0000 -8.7424 0.0000
# 3 55.3369 50.2749 57.5219 0.0000 9.5782 0.0000
# 4 0.0000 0.0000 0.0000 -711.9275 0.0000 491.7682
# 5 10.3383 -8.7424 9.5782 0.0000 43.0047 0.0000
# 6 0.0000 0.0000 0.0000 491.7682 0.0000 -290.9277
#
#
#
# Elastic Compliance Matrix: (Units=1/GPa)
#
#
# Indices 1 2 3 4 5 6 
#
# 1 0.020392 0.006043 -0.025223 0.000000 0.001944 0.000000
# 2 0.006043 0.012995 -0.018038 0.000000 0.005206 0.000000
# 3 -0.025223 -0.018038 0.059212 0.000000 -0.010791 0.000000
# 4 0.000000 0.000000 0.000000 0.008380 0.000000 0.014165
# 5 0.001944 0.005206 -0.010791 0.000000 0.026248 0.000000
# 6 0.000000 0.000000 0.000000 0.014165 0.000000 0.020507
#
#
# Mechanical properties :
#
#
# Convention : Reuss Voigt Hill
#
# Bulk Modulus (GPa) = 55.05717 62.45083 58.75400
# Shear Modulus (GPa) = 21.90837 -179.91216 -79.00190
#
# Velocity S-wave (km/s) = 3.15733 -9.04784 -5.99561
# Velocity P-wave (km/s) = 6.19223 8.98527 4.60387
#
# Compressibility (1/GPa) = 0.01816294
#
# Stress axis : x y z
#
# Youngs Moduli (GPa) = 49.03866 76.95414 16.88855
#
# Poissons Ratio (x) = -0.46503 0.42598
# Poissons Ratio (y) = -0.29634 0.30464
# Poissons Ratio (z) = 1.23689 1.38810
#
# Static dielectric constant tensor:
#      x y z
#    x 1.796830 0.000000 -0.012910 
#    y 0.000000 1.811750 0.000000 
#    z -0.012910 0.000000 1.810870 
# 
# From -- ./inp_files/16159.got.cif
#   From: 2010.05.17/outbox.cif.g08.bks.cpg/sg12_9_cif.got.tgz:16159.got - 2010.06.03 13:09:07.
