data_PCOD9215476
_publ_section_title
;
Structure prediction by ZEFSAII (Michael W. Deem and Ramdas Pophale) SiO2 
 PCOD9215476
Probable space group: C 2/M
;
_chemical_formula_sum "Si O2"
_cell_formula_units_Z 48
_cell_length_a 11.588870
_cell_length_b 23.807531
_cell_length_c 9.710530
_cell_angle_alpha 90.000000
_cell_angle_beta 63.782671
_cell_angle_gamma 90.000000
_cell_volume 2403.539393
_symmetry_space_group_name_H-M "C 2/M"
_symmetry_group_IT_number 12
_symmetry_cell_setting 'monoclinic'
loop_
_space_group_symop_operation_xyz
x,y,z
-x,y,-z
-x,-y,-z
x,-y,z
1/2+x,1/2+y,z
1/2-x,1/2+y,-z
1/2-x,1/2-y,-z
1/2+x,1/2-y,z
loop_
_atom_site_type_symbol
_atom_site_label
_atom_site_fract_x
_atom_site_fract_y
_atom_site_fract_z
Si Si1 0.292510 0.176925 0.842327
Si Si2 0.344210 0.500000 0.591671
Si Si3 0.912888 0.798245 0.839081
Si Si4 0.718237 0.374403 0.319673
Si Si5 0.200666 0.806893 0.599973
Si Si6 0.916372 0.500000 0.405363
Si Si7 0.506367 0.902704 0.843136
O O1 0.357381 0.236368 0.842950
O O2 0.289494 0.172620 0.678808
O O3 0.378071 0.129366 0.868483
O O4 0.152431 0.178625 0.987507
O O5 0.500000 0.500000 0.500000
O O6 0.308252 0.440870 0.683018
O O7 0.241668 0.500000 0.515313
O O8 0.862510 0.838363 0.744097
O O9 0.064713 0.795222 0.743343
O O10 0.686404 0.353989 0.490338
O O11 0.869332 0.362097 0.217338
O O12 0.250000 0.750000 0.500000
O O13 0.959420 0.446813 0.292445
O O14 0.000000 0.500000 0.500000
O O15 0.500000 0.927700 0.000000
#
# Coordination Sequence:
#
# PCOD9215476 Si02
#       7
#     8   4   8   8   8   4   8
#     4  11  25  38  65  90 130 170 214 266 329 395
#     4  10  22  41  66  95 130 175 215 270 334 394
#     4  11  23  42  60  90 130 171 215 265 324 396
#     4  11  23  41  67  94 126 169 223 267 321 395
#     4  12  24  39  61  94 130 170 215 272 329 389
#     4  10  25  43  70 103 134 166 227 290 333 385
#     4  11  23  44  67  94 130 177 218 262 333 399
#
# _framework density 19.970549999999999
#
# number of rings (size 3 to 8) (size 9 to 14) (size 15 to 20)
#    0.000    1.000    3.333    3.250    4.667    1.333 
#    0.000    0.000    0.000    0.000    0.000    7.000 
#    0.000    0.000    0.000    0.000    0.000    0.000 
#
# Total GULP energy -133977.302676 kJ/mol
# GULP energy per Si atom -5582.387611 kJ/mol
# Density = 1.992510 g / cm^3
# Si number density = 19.970550 Si / 1000 Ang^3
#
#
#
# Elastic Constant Matrix: (Units=GPa)
#
#
# Indices 1 2 3 4 5 6 
#
# 1 113.8077 19.5575 50.3768 0.0000 -3.2219 0.0000
# 2 19.5575 69.3274 14.1730 0.0000 6.0878 0.0000
# 3 50.3768 14.1730 107.3843 0.0000 15.7253 0.0000
# 4 0.0000 0.0000 0.0000 -20.1241 0.0000 -6.9115
# 5 -3.2219 6.0878 15.7253 0.0000 50.9240 0.0000
# 6 0.0000 0.0000 0.0000 -6.9115 0.0000 19.1222
#
#
#
# Elastic Compliance Matrix: (Units=1/GPa)
#
#
# Indices 1 2 3 4 5 6 
#
# 1 0.011760 -0.002415 -0.005603 0.000000 0.002763 0.000000
# 2 -0.002415 0.015393 -0.000636 0.000000 -0.001797 0.000000
# 3 -0.005603 -0.000636 0.012637 0.000000 -0.004181 0.000000
# 4 0.000000 0.000000 0.000000 -0.044204 0.000000 -0.015977
# 5 0.002763 -0.001797 -0.004181 0.000000 0.021318 0.000000
# 6 0.000000 0.000000 0.000000 -0.015977 0.000000 0.046520
#
#
# Mechanical properties :
#
#
# Convention : Reuss Voigt Hill
#
# Bulk Modulus (GPa) = 44.47689 50.97045 47.72367
# Shear Modulus (GPa) = 56.67325 23.74523 40.20924
#
# Velocity S-wave (km/s) = 5.33292 3.45195 4.49199
# Velocity P-wave (km/s) = 7.76142 6.43942 7.13112
#
# Compressibility (1/GPa) = 0.02248359
#
# Stress axis : x y z
#
# Youngs Moduli (GPa) = 85.03398 64.96348 79.13323
#
# Poissons Ratio (x) = 0.15687 0.44337
# Poissons Ratio (y) = 0.20533 0.05031
# Poissons Ratio (z) = 0.47643 0.04130
#
# Static dielectric constant tensor:
#      x y z
#    x 1.741950 0.000000 -0.014900 
#    y 0.000000 1.683660 0.000000 
#    z -0.014900 0.000000 1.722610 
# 
# From -- ./inp_files/51405.got.cif
#   From: 2010.05.17/outbox.cif.g08.bks.cpg/sg12_26_cif.got.tgz:51405.got - 2010.06.03 13:09:07.
