data_PCOD9215400
_publ_section_title
;
Structure prediction by ZEFSAII (Michael W. Deem and Ramdas Pophale) SiO2 
 PCOD9215400
Probable space group: C 2/M
;
_chemical_formula_sum "Si O2"
_cell_formula_units_Z 58
_cell_length_a 15.741366
_cell_length_b 12.253197
_cell_length_c 18.049733
_cell_angle_alpha 90.000000
_cell_angle_beta 132.386352
_cell_angle_gamma 90.000000
_cell_volume 2571.468986
_symmetry_space_group_name_H-M "C 2/M"
_symmetry_group_IT_number 12
_symmetry_cell_setting 'monoclinic'
loop_
_space_group_symop_operation_xyz
x,y,z
-x,y,-z
-x,-y,-z
x,-y,z
1/2+x,1/2+y,z
1/2-x,1/2+y,-z
1/2-x,1/2-y,-z
1/2+x,1/2-y,z
loop_
_atom_site_type_symbol
_atom_site_label
_atom_site_fract_x
_atom_site_fract_y
_atom_site_fract_z
Si Si1 0.000000 0.000000 0.000000
Si Si2 0.731186 0.293435 0.125306
Si Si3 0.731381 0.789494 0.372534
Si Si4 0.032187 0.168272 0.907871
Si Si5 0.902692 0.883702 0.203877
Si Si6 0.437600 0.719760 0.592664
Si Si7 0.602152 0.125713 0.157392
Si Si8 0.637627 0.125362 0.656773
O O1 0.045986 0.096864 0.083442
O O2 0.827340 0.221238 0.141566
O O3 0.665422 0.195560 0.130803
O O4 0.797076 0.363481 0.225658
O O5 0.655910 0.353708 0.018732
O O6 0.636041 0.765069 0.380006
O O7 0.844150 0.830645 0.482374
O O8 0.677273 0.864104 0.276641
O O9 0.781864 0.685389 0.356641
O O10 0.013715 0.119056 0.816994
O O11 0.007601 0.296309 0.894314
O O12 0.970736 0.863711 0.319120
O O13 0.841289 0.000000 0.169960
O O14 0.516726 0.810866 0.599091
O O15 0.580315 0.000000 0.127033
O O16 0.619082 0.000000 0.627063
#
# Coordination Sequence:
#
# PCOD9215400 Si02
#       8
#     2   8   8   8   8   8   8   8
#     4  12  24  40  70  92 132 158 212 274 328 380
#     4  10  23  41  60  92 127 166 213 262 326 392
#     4  10  22  41  65  93 133 174 219 275 341 403
#     4  12  23  41  64  95 126 166 212 267 322 388
#     4  11  23  40  62  87 126 165 211 262 322 392
#     4  10  22  42  62  95 135 169 220 278 335 406
#     4  11  23  41  64  91 128 170 218 266 324 400
#     4  10  23  41  69 101 134 173 226 286 342 403
#
# _framework density 22.555202000000001
#
# number of rings (size 3 to 8) (size 9 to 14) (size 15 to 20)
#    0.000    1.379    3.448    1.241    0.966    4.414 
#    0.000    2.759    0.000    4.966    0.000    0.000 
#    0.000    0.000    0.000    0.000    0.000    0.000 
#
# Total GULP energy -161513.701073 kJ/mol
# GULP energy per Si atom -5569.437968 kJ/mol
# Density = 2.250387 g / cm^3
# Si number density = 22.555202 Si / 1000 Ang^3
#
#
#
# Elastic Constant Matrix: (Units=GPa)
#
#
# Indices 1 2 3 4 5 6 
#
# 1 81.7642 19.0514 -8.9868 0.0000 -3.1387 0.0000
# 2 19.0514 110.0827 -2.7480 0.0000 -6.4495 0.0000
# 3 -8.9868 -2.7480 104.5333 0.0000 -4.9956 0.0000
# 4 0.0000 0.0000 0.0000 9.4975 0.0000 0.0682
# 5 -3.1387 -6.4495 -4.9956 0.0000 35.1765 0.0000
# 6 0.0000 0.0000 0.0000 0.0682 0.0000 4.4627
#
#
#
# Elastic Compliance Matrix: (Units=1/GPa)
#
#
# Indices 1 2 3 4 5 6 
#
# 1 0.012886 -0.002149 0.001095 0.000000 0.000911 0.000000
# 2 -0.002149 0.009552 0.000142 0.000000 0.001580 0.000000
# 3 0.001095 0.000142 0.009736 0.000000 0.001506 0.000000
# 4 0.000000 0.000000 0.000000 0.105303 0.000000 -0.001610
# 5 0.000911 0.001580 0.001506 0.000000 0.029013 0.000000
# 6 0.000000 0.000000 0.000000 -0.001610 0.000000 0.224102
#
#
# Mechanical properties :
#
#
# Convention : Reuss Voigt Hill
#
# Bulk Modulus (GPa) = 32.94972 34.55704 33.75338
# Shear Modulus (GPa) = 12.42130 29.09824 20.75977
#
# Velocity S-wave (km/s) = 2.34926 3.59568 3.03710
# Velocity P-wave (km/s) = 4.69030 5.70902 5.22455
#
# Compressibility (1/GPa) = 0.03034927
#
# Stress axis : x y z
#
# Youngs Moduli (GPa) = 77.60091 104.68824 102.70971
#
# Poissons Ratio (x) = 0.22502 -0.11246
# Poissons Ratio (y) = 0.16680 -0.01457
# Poissons Ratio (z) = -0.08497 -0.01485
#
# Static dielectric constant tensor:
#      x y z
#    x 1.975110 0.000000 0.043560 
#    y 0.000000 1.940560 0.000000 
#    z 0.043560 0.000000 1.840740 
# 
# From -- ./inp_files/315987.got.cif
#   From: 2010.05.17/outbox.cif.g08.bks.cpg/sg12_158_cif.got.tgz:315987.got - 2010.06.03 13:09:07.
