data_PCOD9215561
_publ_section_title
;
Structure prediction by ZEFSAII (Michael W. Deem and Ramdas Pophale) SiO2 
 PCOD9215561
Probable space group: C 2/M
;
_chemical_formula_sum "Si O2"
_cell_formula_units_Z 40
_cell_length_a 13.382639
_cell_length_b 19.372272
_cell_length_c 11.551607
_cell_angle_alpha 90.000000
_cell_angle_beta 141.890691
_cell_angle_gamma 90.000000
_cell_volume 1848.268731
_symmetry_space_group_name_H-M "C 2/M"
_symmetry_group_IT_number 12
_symmetry_cell_setting 'monoclinic'
loop_
_space_group_symop_operation_xyz
x,y,z
-x,y,-z
-x,-y,-z
x,-y,z
1/2+x,1/2+y,z
1/2-x,1/2+y,-z
1/2-x,1/2-y,-z
1/2+x,1/2-y,z
loop_
_atom_site_type_symbol
_atom_site_label
_atom_site_fract_x
_atom_site_fract_y
_atom_site_fract_z
Si Si1 0.903837 0.126888 0.300880
Si Si2 0.304780 0.078947 0.325572
Si Si3 0.131681 0.711755 0.982731
Si Si4 0.641000 0.304501 0.331854
Si Si5 0.166829 0.425379 0.909823
O O1 0.032323 0.160030 0.331250
O O2 0.000000 0.102983 0.500000
O O3 0.758930 0.183069 0.194301
O O4 0.805599 0.073181 0.133412
O O5 0.500000 0.083803 0.500000
O O6 0.233451 0.137599 0.342263
O O7 0.257511 0.088290 0.147427
O O8 0.261101 0.000000 0.319901
O O9 0.067799 0.641528 0.860843
O O10 0.982562 0.761927 0.862134
O O11 0.250000 0.750000 0.000000
O O12 0.750000 0.250000 0.500000
O O13 0.082685 0.500000 0.827466
#
# Coordination Sequence:
#
# PCOD9215561 Si02
#       5
#     8   8   8   8   8
#     4   9  21  41  59  89 133 177 217 271 327 395
#     4  10  22  41  67  99 137 174 219 281 339 397
#     4   8  18  38  58  88 130 165 214 272 319 398
#     4  11  22  38  64  98 127 179 219 270 340 404
#     4   9  19  38  66  93 128 174 216 274 340 387
#
# _framework density 21.641874999999999
#
# number of rings (size 3 to 8) (size 9 to 14) (size 15 to 20)
#    1.200    1.400    0.000    1.200    0.000    6.000 
#    3.600    2.000    0.000    0.000    0.000    5.600 
#    0.000    3.600    0.000    0.000    0.000    0.000 
#
# Total GULP energy -111379.798834 kJ/mol
# GULP energy per Si atom -5568.989942 kJ/mol
# Density = 2.159262 g / cm^3
# Si number density = 21.641875 Si / 1000 Ang^3
#
#
#
# Elastic Constant Matrix: (Units=GPa)
#
#
# Indices 1 2 3 4 5 6 
#
# 1 76.3528 63.2346 38.9504 0.0000 -2.5405 0.0000
# 2 63.2346 147.2251 37.9276 0.0000 3.4580 0.0000
# 3 38.9504 37.9276 126.4218 0.0000 -23.9317 0.0000
# 4 0.0000 0.0000 0.0000 16.6125 0.0000 8.9854
# 5 -2.5405 3.4580 -23.9317 0.0000 30.1001 0.0000
# 6 0.0000 0.0000 0.0000 8.9854 0.0000 26.4519
#
#
#
# Elastic Compliance Matrix: (Units=1/GPa)
#
#
# Indices 1 2 3 4 5 6 
#
# 1 0.022339 -0.008420 -0.004492 0.000000 -0.000719 0.000000
# 2 -0.008420 0.010783 -0.001189 0.000000 -0.002895 0.000000
# 3 -0.004492 -0.001189 0.011307 0.000000 0.008747 0.000000
# 4 0.000000 0.000000 0.000000 0.073745 0.000000 -0.025050
# 5 -0.000719 -0.002895 0.008747 0.000000 0.040449 0.000000
# 6 0.000000 0.000000 0.000000 -0.025050 0.000000 0.046314
#
#
# Mechanical properties :
#
#
# Convention : Reuss Voigt Hill
#
# Bulk Modulus (GPa) = 61.63206 70.02499 65.82853
# Shear Modulus (GPa) = 20.96020 28.62538 24.79279
#
# Velocity S-wave (km/s) = 3.11545 3.64082 3.38833
# Velocity P-wave (km/s) = 6.44060 7.07818 6.76690
#
# Compressibility (1/GPa) = 0.01622532
#
# Stress axis : x y z
#
# Youngs Moduli (GPa) = 44.76541 92.73689 88.44444
#
# Poissons Ratio (x) = 0.78089 0.39733
# Poissons Ratio (y) = 0.37695 0.10513
# Poissons Ratio (z) = 0.20110 0.11023
#
# Static dielectric constant tensor:
#      x y z
#    x 1.796440 0.000000 -0.003210 
#    y 0.000000 1.859110 0.000000 
#    z -0.003210 0.000000 1.847820 
# 
# From -- ./inp_files/147301.got.cif
#   From: 2010.05.17/outbox.cif.g08.bks.cpg/sg12_74_cif.got.tgz:147301.got - 2010.06.03 13:09:07.
