data_PCOD9215177
_publ_section_title
;
Structure prediction by ZEFSAII (Michael W. Deem and Ramdas Pophale) SiO2 
 PCOD9215177
Probable space group: C 2/M
;
_chemical_formula_sum "Si O2"
_cell_formula_units_Z 48
_cell_length_a 12.907577
_cell_length_b 14.267202
_cell_length_c 23.724917
_cell_angle_alpha 90.000000
_cell_angle_beta 142.280418
_cell_angle_gamma 90.000000
_cell_volume 2672.981042
_symmetry_space_group_name_H-M "C 2/M"
_symmetry_group_IT_number 12
_symmetry_cell_setting 'monoclinic'
loop_
_space_group_symop_operation_xyz
x,y,z
-x,y,-z
-x,-y,-z
x,-y,z
1/2+x,1/2+y,z
1/2-x,1/2+y,-z
1/2-x,1/2-y,-z
1/2+x,1/2-y,z
loop_
_atom_site_type_symbol
_atom_site_label
_atom_site_fract_x
_atom_site_fract_y
_atom_site_fract_z
Si Si1 0.173683 0.890570 0.092340
Si Si2 0.153659 0.612379 0.606251
Si Si3 0.404739 0.206551 0.102493
Si Si4 0.905130 0.612328 0.287800
Si Si5 0.000051 0.786780 0.746082
Si Si6 0.134164 0.388708 0.109162
O O1 0.315739 0.858136 0.110835
O O2 0.223544 0.877576 0.178346
O O3 0.160332 0.000000 0.077860
O O4 0.000000 0.842431 0.000000
O O5 0.166628 0.500000 0.609075
O O6 0.108466 0.634504 0.652170
O O7 0.331740 0.654198 0.662126
O O8 0.000000 0.643277 0.500000
O O9 0.502381 0.274789 0.186932
O O10 0.532740 0.150601 0.118785
O O11 0.250000 0.250000 0.000000
O O12 0.953173 0.500000 0.301756
O O13 0.006771 0.691070 0.295014
O O14 0.184943 0.835504 0.816831
O O15 0.166226 0.500000 0.126671
O O16 0.000000 0.374929 0.000000
#
# Coordination Sequence:
#
# PCOD9215177 Si02
#       6
#     8   8   8   8   8   8
#     4   9  19  32  51  75 105 147 191 226 271 331
#     4  10  22  41  63  88 115 149 198 252 298 341
#     4  11  22  33  52  76 115 152 191 232 275 343
#     4   9  20  37  57  83 116 148 189 242 291 343
#     4  11  22  37  62  84 115 156 196 239 291 351
#     4  11  23  37  52  80 119 157 194 237 290 345
#
# _framework density 17.957477999999998
#
# number of rings (size 3 to 8) (size 9 to 14) (size 15 to 20)
#    0.000    1.833    1.667    2.000    7.000    1.333 
#    0.000    0.000    0.000    0.500    0.000    0.000 
#    0.000    0.000    0.000    0.000    0.000    0.000 
#
# Total GULP energy -133601.557464 kJ/mol
# GULP energy per Si atom -5566.731561 kJ/mol
# Density = 1.791661 g / cm^3
# Si number density = 17.957478 Si / 1000 Ang^3
#
#
#
# Elastic Constant Matrix: (Units=GPa)
#
#
# Indices 1 2 3 4 5 6 
#
# 1 121.6405 46.8122 63.8172 0.0000 -8.5331 0.0000
# 2 46.8122 86.0249 44.5746 0.0000 -6.4166 0.0000
# 3 63.8172 44.5746 117.5154 0.0000 4.5738 0.0000
# 4 0.0000 0.0000 0.0000 19.4387 0.0000 0.3468
# 5 -8.5331 -6.4166 4.5738 0.0000 24.1265 0.0000
# 6 0.0000 0.0000 0.0000 0.3468 0.0000 30.0825
#
#
#
# Elastic Compliance Matrix: (Units=1/GPa)
#
#
# Indices 1 2 3 4 5 6 
#
# 1 0.013062 -0.003713 -0.005870 0.000000 0.004745 0.000000
# 2 -0.003713 0.016128 -0.004249 0.000000 0.003782 0.000000
# 3 -0.005870 -0.004249 0.013533 0.000000 -0.005772 0.000000
# 4 0.000000 0.000000 0.000000 0.051454 0.000000 -0.000593
# 5 0.004745 0.003782 -0.005772 0.000000 0.045227 0.000000
# 6 0.000000 0.000000 0.000000 -0.000593 0.000000 0.033249
#
#
# Mechanical properties :
#
#
# Convention : Reuss Voigt Hill
#
# Bulk Modulus (GPa) = 66.39409 70.62098 68.50754
# Shear Modulus (GPa) = 24.35027 26.06133 25.20580
#
# Velocity S-wave (km/s) = 3.68638 3.81370 3.75058
# Velocity P-wave (km/s) = 7.42781 7.66841 7.54907
#
# Compressibility (1/GPa) = 0.01506158
#
# Stress axis : x y z
#
# Youngs Moduli (GPa) = 76.55712 62.00249 73.89106
#
# Poissons Ratio (x) = 0.23019 0.43374
# Poissons Ratio (y) = 0.28422 0.31394
# Poissons Ratio (z) = 0.44939 0.26343
#
# Static dielectric constant tensor:
#      x y z
#    x 1.617120 0.000000 0.045330 
#    y 0.000000 1.669570 0.000000 
#    z 0.045330 0.000000 1.779870 
# 
# From -- ./inp_files/204270.got.cif
#   From: 2010.05.17/outbox.cif.g08.bks.cpg/sg12_103_cif.got.tgz:204270.got - 2010.06.03 13:09:07.
