data_PCOD9215246
_publ_section_title
;
Structure prediction by ZEFSAII (Michael W. Deem and Ramdas Pophale) SiO2 
 PCOD9215246
Probable space group: C 2/M
;
_chemical_formula_sum "Si O2"
_cell_formula_units_Z 60
_cell_length_a 23.727913
_cell_length_b 7.900471
_cell_length_c 12.527148
_cell_angle_alpha 90.000000
_cell_angle_beta 92.273535
_cell_angle_gamma 90.000000
_cell_volume 2346.511747
_symmetry_space_group_name_H-M "C 2/M"
_symmetry_group_IT_number 12
_symmetry_cell_setting 'monoclinic'
loop_
_space_group_symop_operation_xyz
x,y,z
-x,y,-z
-x,-y,-z
x,-y,z
1/2+x,1/2+y,z
1/2-x,1/2+y,-z
1/2-x,1/2-y,-z
1/2+x,1/2-y,z
loop_
_atom_site_type_symbol
_atom_site_label
_atom_site_fract_x
_atom_site_fract_y
_atom_site_fract_z
Si Si1 0.406580 0.798228 0.340573
Si Si2 0.947679 0.301004 0.114431
Si Si3 0.445984 0.310863 0.798548
Si Si4 0.922393 0.193496 0.572632
Si Si5 0.831256 0.702899 0.017332
Si Si6 0.659642 0.500000 0.123155
Si Si7 0.702567 0.193242 0.412416
Si Si8 0.786510 0.701440 0.254058
O O1 0.435486 0.736700 0.234456
O O2 0.434675 0.754997 0.454739
O O3 0.341129 0.743490 0.327881
O O4 0.404789 0.000000 0.333522
O O5 0.936391 0.500000 0.111545
O O6 0.896916 0.231667 0.038945
O O7 0.014859 0.279244 0.111580
O O8 0.471250 0.500000 0.798210
O O9 0.446350 0.222781 0.682459
O O10 0.381525 0.353012 0.822989
O O11 0.854637 0.203355 0.580340
O O12 0.940228 0.000000 0.579821
O O13 0.828884 0.500000 0.988527
O O14 0.806162 0.723877 0.134454
O O15 0.807042 0.846685 0.938177
O O16 0.750000 0.250000 0.500000
O O17 0.732131 0.210406 0.299455
O O18 0.686813 0.000000 0.433457
O O19 0.775438 0.500000 0.267820
#
# Coordination Sequence:
#
# PCOD9215246 Si02
#       8
#     8   8   8   8   8   4   8   8
#     4   9  18  33  55  81 118 155 190 233 280 354
#     4   9  19  36  56  85 121 151 191 242 300 352
#     4   9  23  39  53  78 111 157 197 246 287 342
#     4  11  22  38  54  77 114 160 199 231 287 339
#     4   9  20  37  62  93 119 150 192 251 309 357
#     4  10  22  41  64  85 116 155 202 258 308 353
#     4  12  23  34  56  89 120 152 189 232 286 352
#     4   9  18  35  56  88 123 146 181 238 296 349
#
# _framework density 25.569870999999999
#
# number of rings (size 3 to 8) (size 9 to 14) (size 15 to 20)
#    0.400    1.867    1.333    3.200    1.867    3.733 
#    2.400    4.000    0.000    0.800    0.000    0.000 
#    0.000    0.000    0.000    0.000    0.000    0.000 
#
# Total GULP energy -167072.306636 kJ/mol
# GULP energy per Si atom -5569.076888 kJ/mol
# Density = 2.551167 g / cm^3
# Si number density = 25.569871 Si / 1000 Ang^3
#
#
#
# Elastic Constant Matrix: (Units=GPa)
#
#
# Indices 1 2 3 4 5 6 
#
# 1 73.3342 -6.8414 23.5299 0.0000 12.0263 0.0000
# 2 -6.8414 65.3933 13.8071 0.0000 -1.0692 0.0000
# 3 23.5299 13.8071 85.4847 0.0000 3.1425 0.0000
# 4 0.0000 0.0000 0.0000 12.4839 0.0000 -13.3757
# 5 12.0263 -1.0692 3.1425 0.0000 40.0248 0.0000
# 6 0.0000 0.0000 0.0000 -13.3757 0.0000 19.4620
#
#
#
# Elastic Compliance Matrix: (Units=1/GPa)
#
#
# Indices 1 2 3 4 5 6 
#
# 1 0.016106 0.002604 -0.004692 0.000000 -0.004402 0.000000
# 2 0.002604 0.016269 -0.003341 0.000000 -0.000085 0.000000
# 3 -0.004692 -0.003341 0.013520 0.000000 0.000259 0.000000
# 4 0.000000 0.000000 0.000000 0.303850 0.000000 0.208828
# 5 -0.004402 -0.000085 0.000259 0.000000 0.026284 0.000000
# 6 0.000000 0.000000 0.000000 0.208828 0.000000 0.194904
#
#
# Mechanical properties :
#
#
# Convention : Reuss Voigt Hill
#
# Bulk Modulus (GPa) = 28.54237 31.68925 30.11581
# Shear Modulus (GPa) = 8.42503 27.30858 17.86680
#
# Velocity S-wave (km/s) = 1.81716 3.27157 2.64625
# Velocity P-wave (km/s) = 3.94835 5.16633 4.59785
#
# Compressibility (1/GPa) = 0.03503564
#
# Stress axis : x y z
#
# Youngs Moduli (GPa) = 62.08693 61.46837 73.96648
#
# Poissons Ratio (x) = -0.16005 0.34706
# Poissons Ratio (y) = -0.16166 0.24713
# Poissons Ratio (z) = 0.29132 0.20538
#
# Static dielectric constant tensor:
#      x y z
#    x 2.142570 0.000000 0.007810 
#    y 0.000000 2.038840 0.000000 
#    z 0.007810 0.000000 2.109230 
# 
# From -- ./inp_files/180933.got.cif
#   From: 2010.05.17/outbox.cif.g08.bks.cpg/sg12_91_cif.got.tgz:180933.got - 2010.06.03 13:09:07.
