data_PCOD9215692
_publ_section_title
;
Structure prediction by ZEFSAII (Michael W. Deem and Ramdas Pophale) SiO2 
 PCOD9215692
Probable space group: C 2/M
;
_chemical_formula_sum "Si O2"
_cell_formula_units_Z 64
_cell_length_a 33.221627
_cell_length_b 17.818096
_cell_length_c 12.525636
_cell_angle_alpha 90.000000
_cell_angle_beta 149.997035
_cell_angle_gamma 90.000000
_cell_volume 3707.583218
_symmetry_space_group_name_H-M "C 2/M"
_symmetry_group_IT_number 12
_symmetry_cell_setting 'monoclinic'
loop_
_space_group_symop_operation_xyz
x,y,z
-x,y,-z
-x,-y,-z
x,-y,z
1/2+x,1/2+y,z
1/2-x,1/2+y,-z
1/2-x,1/2-y,-z
1/2+x,1/2-y,z
loop_
_atom_site_type_symbol
_atom_site_label
_atom_site_fract_x
_atom_site_fract_y
_atom_site_fract_z
Si Si1 0.654469 0.678421 0.993815
Si Si2 0.496373 0.414924 0.620881
Si Si3 0.810317 0.411855 0.424266
Si Si4 0.582328 0.911195 0.126846
Si Si5 0.686105 0.913973 0.953298
Si Si6 0.406187 0.161116 0.076005
Si Si7 0.841444 0.817467 0.255487
Si Si8 0.093939 0.654447 0.547035
O O1 0.576688 0.627477 0.840267
O O2 0.637566 0.760002 0.002951
O O3 0.660969 0.684563 0.879585
O O4 0.733156 0.638131 0.219867
O O5 0.500000 0.417522 0.500000
O O6 0.492784 0.500000 0.652377
O O7 0.416847 0.368218 0.464087
O O8 0.791704 0.500000 0.366690
O O9 0.845479 0.400649 0.623126
O O10 0.878917 0.388124 0.497331
O O11 0.577458 0.000000 0.088578
O O12 0.500000 0.891856 0.000000
O O13 0.592543 0.863698 0.043588
O O14 0.640894 0.899072 0.960111
O O15 0.623688 0.893883 0.715800
O O16 0.713267 0.000000 0.005099
O O17 0.760622 0.856904 0.110617
O O18 0.498540 0.167580 0.328088
O O19 0.859338 0.733862 0.337395
#
# Coordination Sequence:
#
# PCOD9215692 Si02
#       8
#     8   8   8   8   8   8   8   8
#     4  11  21  37  58  86 123 153 196 245 297 351
#     4   9  18  31  54  80 112 156 198 237 279 342
#     4  11  23  39  64  89 114 155 203 251 294 343
#     4  10  22  42  63  85 117 157 201 249 298 349
#     4  12  25  36  56  89 124 160 199 241 289 361
#     4  12  24  39  61  87 120 159 197 243 300 357
#     4  11  21  38  55  83 125 164 191 232 299 358
#     4  12  22  37  59  87 120 156 195 236 298 360
#
# _framework density 17.261918000000001
#
# number of rings (size 3 to 8) (size 9 to 14) (size 15 to 20)
#    0.000    1.000    5.000    3.000    0.000    3.500 
#    0.000    0.000    0.000    0.000    0.000    0.000 
#    0.000    6.000    0.000    0.000    0.000    0.000 
#
# Total GULP energy -178823.973522 kJ/mol
# GULP energy per Si atom -5588.249173 kJ/mol
# Density = 1.722263 g / cm^3
# Si number density = 17.261918 Si / 1000 Ang^3
#
#
#
# Elastic Constant Matrix: (Units=GPa)
#
#
# Indices 1 2 3 4 5 6 
#
# 1 93.1024 37.9546 35.0467 0.0000 1.0728 0.0000
# 2 37.9546 80.3141 23.4154 0.0000 1.1523 0.0000
# 3 35.0467 23.4154 74.3777 0.0000 13.3991 0.0000
# 4 0.0000 0.0000 0.0000 22.0459 0.0000 3.0871
# 5 1.0728 1.1523 13.3991 0.0000 23.0531 0.0000
# 6 0.0000 0.0000 0.0000 3.0871 0.0000 20.7974
#
#
#
# Elastic Compliance Matrix: (Units=1/GPa)
#
#
# Indices 1 2 3 4 5 6 
#
# 1 0.015191 -0.005479 -0.005981 0.000000 0.003043 0.000000
# 2 -0.005479 0.015771 -0.002555 0.000000 0.000952 0.000000
# 3 -0.005981 -0.002555 0.018982 0.000000 -0.010627 0.000000
# 4 0.000000 0.000000 0.000000 0.046323 0.000000 -0.006876
# 5 0.003043 0.000952 -0.010627 0.000000 0.049366 0.000000
# 6 0.000000 0.000000 0.000000 -0.006876 0.000000 0.049103
#
#
# Mechanical properties :
#
#
# Convention : Reuss Voigt Hill
#
# Bulk Modulus (GPa) = 45.63247 48.95862 47.29554
# Shear Modulus (GPa) = 21.73240 23.27111 22.50176
#
# Velocity S-wave (km/s) = 3.55206 3.67566 3.61439
# Velocity P-wave (km/s) = 6.58146 6.81452 6.69900
#
# Compressibility (1/GPa) = 0.02191422
#
# Stress axis : x y z
#
# Youngs Moduli (GPa) = 65.82909 63.40572 52.68112
#
# Poissons Ratio (x) = 0.34738 0.31511
# Poissons Ratio (y) = 0.36065 0.13460
# Poissons Ratio (z) = 0.39375 0.16200
#
# Static dielectric constant tensor:
#      x y z
#    x 1.564310 0.000000 0.012640 
#    y 0.000000 1.584140 0.000000 
#    z 0.012640 0.000000 1.577270 
# 
# From -- ./inp_files/190088.got.cif
#   From: 2010.05.17/outbox.cif.g08.bks.cpg/sg12_96_cif.got.tgz:190088.got - 2010.06.03 13:09:07.
