data_PCOD9215797
_publ_section_title
;
Structure prediction by ZEFSAII (Michael W. Deem and Ramdas Pophale) SiO2 
 PCOD9215797
Probable space group: C 2/M
;
_chemical_formula_sum "Si O2"
_cell_formula_units_Z 16
_cell_length_a 17.618919
_cell_length_b 8.130924
_cell_length_c 7.667938
_cell_angle_alpha 90.000000
_cell_angle_beta 148.456076
_cell_angle_gamma 90.000000
_cell_volume 574.679485
_symmetry_space_group_name_H-M "C 2/M"
_symmetry_group_IT_number 12
_symmetry_cell_setting 'monoclinic'
loop_
_space_group_symop_operation_xyz
x,y,z
-x,y,-z
-x,-y,-z
x,-y,z
1/2+x,1/2+y,z
1/2-x,1/2+y,-z
1/2-x,1/2-y,-z
1/2+x,1/2-y,z
loop_
_atom_site_type_symbol
_atom_site_label
_atom_site_fract_x
_atom_site_fract_y
_atom_site_fract_z
Si Si1 0.432812 0.000000 0.560126
Si Si2 0.174991 0.000000 0.828307
Si Si3 0.648748 0.313195 0.455673
O O1 0.500000 0.000000 0.500000
O O2 0.463446 0.833993 0.725609
O O3 0.259754 0.000000 0.175277
O O4 0.215463 0.848663 0.779065
O O5 0.000000 0.000000 0.500000
O O6 0.600813 0.500000 0.322004
O O7 0.750000 0.250000 0.500000
#
# Coordination Sequence:
#
# PCOD9215797 Si02
#       3
#     4   4   8
#     4  12  23  42  71  96 128 172 220 268 321 388
#     4  10  23  44  67  94 132 170 216 272 323 378
#     4  10  22  42  65  96 134 171 215 268 327 386
#
# _framework density 27.841605999999999
#
# number of rings (size 3 to 8) (size 9 to 14) (size 15 to 20)
#    1.500    0.000    2.500    3.000    0.000    0.000 
#    0.000   15.000    0.000    0.000    0.000    0.000 
#    0.000    0.000    0.000    0.000    0.000    0.000 
#
# Total GULP energy -44659.898103 kJ/mol
# GULP energy per Si atom -5582.487263 kJ/mol
# Density = 2.777824 g / cm^3
# Si number density = 27.841606 Si / 1000 Ang^3
#
#
#
# Elastic Constant Matrix: (Units=GPa)
#
#
# Indices 1 2 3 4 5 6 
#
# 1 226.0608 92.1004 33.6289 0.0000 22.5403 0.0000
# 2 92.1004 316.1515 -1.2858 0.0000 16.3649 0.0000
# 3 33.6289 -1.2858 129.9643 0.0000 -13.2335 0.0000
# 4 0.0000 0.0000 0.0000 -22.4477 0.0000 -7.0954
# 5 22.5403 16.3649 -13.2335 0.0000 53.6314 0.0000
# 6 0.0000 0.0000 0.0000 -7.0954 0.0000 73.4282
#
#
#
# Elastic Compliance Matrix: (Units=1/GPa)
#
#
# Indices 1 2 3 4 5 6 
#
# 1 0.005507 -0.001494 -0.001671 0.000000 -0.002271 0.000000
# 2 -0.001494 0.003619 0.000383 0.000000 -0.000382 0.000000
# 3 -0.001671 0.000383 0.008401 0.000000 0.002658 0.000000
# 4 0.000000 0.000000 0.000000 -0.043228 0.000000 -0.004177
# 5 -0.002271 -0.000382 0.002658 0.000000 0.020373 0.000000
# 6 0.000000 0.000000 0.000000 -0.004177 0.000000 0.013215
#
#
# Mechanical properties :
#
#
# Convention : Reuss Voigt Hill
#
# Bulk Modulus (GPa) = 83.57397 102.34039 92.95718
# Shear Modulus (GPa) = 286.71215 57.43792 172.07504
#
# Velocity S-wave (km/s) = 10.15890 4.54698 7.87014
# Velocity P-wave (km/s) = 12.94941 8.02525 10.77246
#
# Compressibility (1/GPa) = 0.01196545
#
# Stress axis : x y z
#
# Youngs Moduli (GPa) = 181.58318 276.28292 119.02942
#
# Poissons Ratio (x) = 0.41264 0.19890
# Poissons Ratio (y) = 0.27120 -0.04563
# Poissons Ratio (z) = 0.30343 -0.10592
#
# Static dielectric constant tensor:
#      x y z
#    x 2.059190 0.000000 0.047800 
#    y 0.000000 2.302190 0.000000 
#    z 0.047800 0.000000 2.235770 
# 
# From -- ./inp_files/8688.got.cif
#   From: 2010.05.17/outbox.cif.g08.bks.cpg/sg12_5_cif.got.tgz:8688.got - 2010.06.03 13:09:07.
