data_PCOD9215423
_publ_section_title
;
Structure prediction by ZEFSAII (Michael W. Deem and Ramdas Pophale) SiO2 
 PCOD9215423
Probable space group: C 2/M
;
_chemical_formula_sum "Si O2"
_cell_formula_units_Z 42
_cell_length_a 17.436798
_cell_length_b 13.071920
_cell_length_c 7.955291
_cell_angle_alpha 90.000000
_cell_angle_beta 109.451475
_cell_angle_gamma 90.000000
_cell_volume 1709.774415
_symmetry_space_group_name_H-M "C 2/M"
_symmetry_group_IT_number 12
_symmetry_cell_setting 'monoclinic'
loop_
_space_group_symop_operation_xyz
x,y,z
-x,y,-z
-x,-y,-z
x,-y,z
1/2+x,1/2+y,z
1/2-x,1/2+y,-z
1/2-x,1/2-y,-z
1/2+x,1/2-y,z
loop_
_atom_site_type_symbol
_atom_site_label
_atom_site_fract_x
_atom_site_fract_y
_atom_site_fract_z
Si Si1 0.019962 0.383614 0.816305
Si Si2 0.843326 0.617202 0.537098
Si Si3 0.155496 0.782010 0.932446
Si Si4 0.500000 0.500000 0.000000
Si Si5 0.099565 0.884164 0.222143
Si Si6 0.193326 0.834933 0.625678
O O1 0.042525 0.500000 0.789597
O O2 0.936264 0.360207 0.656393
O O3 0.092675 0.307038 0.836680
O O4 0.000000 0.379782 0.000000
O O5 0.837193 0.500000 0.468482
O O6 0.810713 0.710800 0.401063
O O7 0.783775 0.624216 0.655502
O O8 0.157503 0.861624 0.779164
O O9 0.250000 0.750000 0.000000
O O10 0.134828 0.811370 0.108668
O O11 0.496380 0.402828 0.850599
O O12 0.140611 0.874848 0.429396
O O13 0.109557 0.000000 0.146206
#
# Coordination Sequence:
#
# PCOD9215423 Si02
#       6
#     8   8   8   2   8   8
#     4  10  22  41  67  96 136 179 219 277 341 410
#     4  10  22  41  65  96 133 176 224 273 338 407
#     4  12  26  42  68 103 135 173 229 282 344 410
#     4   8  24  48  70  92 130 188 220 296 346 400
#     4  10  24  46  68  93 135 176 227 282 345 404
#     4  11  23  42  70 100 133 182 224 279 344 415
#
# _framework density 24.564644999999999
#
# number of rings (size 3 to 8) (size 9 to 14) (size 15 to 20)
#    0.571    0.952    0.000    5.143    4.000    3.810 
#    0.000    2.857    0.000    0.000    0.000    0.000 
#    0.000    0.000    0.000    0.000    0.000    0.000 
#
# Total GULP energy -117027.413810 kJ/mol
# GULP energy per Si atom -5572.733991 kJ/mol
# Density = 2.450873 g / cm^3
# Si number density = 24.564645 Si / 1000 Ang^3
#
#
#
# Elastic Constant Matrix: (Units=GPa)
#
#
# Indices 1 2 3 4 5 6 
#
# 1 118.3427 40.8173 53.9553 0.0000 4.7843 0.0000
# 2 40.8173 95.0269 19.1700 0.0000 18.8468 0.0000
# 3 53.9553 19.1700 125.9805 0.0000 8.1213 0.0000
# 4 0.0000 0.0000 0.0000 25.4422 0.0000 12.4892
# 5 4.7843 18.8468 8.1213 0.0000 47.7137 0.0000
# 6 0.0000 0.0000 0.0000 12.4892 0.0000 6.8136
#
#
#
# Elastic Compliance Matrix: (Units=1/GPa)
#
#
# Indices 1 2 3 4 5 6 
#
# 1 0.012028 -0.004517 -0.004551 0.000000 0.001353 0.000000
# 2 -0.004517 0.013387 0.000211 0.000000 -0.004871 0.000000
# 3 -0.004551 0.000211 0.009940 0.000000 -0.001319 0.000000
# 4 0.000000 0.000000 0.000000 0.392195 0.000000 -0.718886
# 5 0.001353 -0.004871 -0.001319 0.000000 0.022971 0.000000
# 6 0.000000 0.000000 0.000000 -0.718886 0.000000 1.464474
#
#
# Mechanical properties :
#
#
# Convention : Reuss Voigt Hill
#
# Bulk Modulus (GPa) = 56.68432 63.02615 59.85524
# Shear Modulus (GPa) = 2.57920 31.02105 16.80012
#
# Velocity S-wave (km/s) = 1.02579 3.55749 2.61801
# Velocity P-wave (km/s) = 4.95264 6.52589 5.79292
#
# Compressibility (1/GPa) = 0.01764156
#
# Stress axis : x y z
#
# Youngs Moduli (GPa) = 83.13734 74.70051 100.60470
#
# Poissons Ratio (x) = 0.33740 0.45789
# Poissons Ratio (y) = 0.37550 -0.02127
# Poissons Ratio (z) = 0.37839 -0.01579
#
# Static dielectric constant tensor:
#      x y z
#    x 1.982410 0.000000 0.034290 
#    y 0.000000 2.063510 0.000000 
#    z 0.034290 0.000000 2.009690 
# 
# From -- ./inp_files/73293.got.cif
#   From: 2010.05.17/outbox.cif.g08.bks.cpg/sg12_37_cif.got.tgz:73293.got - 2010.06.03 13:09:07.
