data_PCOD9215305
_publ_section_title
;
Structure prediction by ZEFSAII (Michael W. Deem and Ramdas Pophale) SiO2 
 PCOD9215305
Probable space group: C 2/M
;
_chemical_formula_sum "Si O2"
_cell_formula_units_Z 48
_cell_length_a 16.169979
_cell_length_b 8.657028
_cell_length_c 30.047005
_cell_angle_alpha 90.000000
_cell_angle_beta 145.082829
_cell_angle_gamma 90.000000
_cell_volume 2407.535774
_symmetry_space_group_name_H-M "C 2/M"
_symmetry_group_IT_number 12
_symmetry_cell_setting 'monoclinic'
loop_
_space_group_symop_operation_xyz
x,y,z
-x,y,-z
-x,-y,-z
x,-y,z
1/2+x,1/2+y,z
1/2-x,1/2+y,-z
1/2-x,1/2-y,-z
1/2+x,1/2-y,z
loop_
_atom_site_type_symbol
_atom_site_label
_atom_site_fract_x
_atom_site_fract_y
_atom_site_fract_z
Si Si1 0.940107 0.313316 0.190786
Si Si2 0.092945 0.683151 0.664011
Si Si3 0.373641 0.313618 0.910940
Si Si4 0.905738 0.817367 0.659390
Si Si5 0.102747 0.684113 0.177454
Si Si6 0.598624 0.320592 0.499614
O O1 0.951485 0.500000 0.199918
O O2 0.782689 0.264848 0.139040
O O3 0.058639 0.236143 0.275033
O O4 0.974007 0.273240 0.154573
O O5 0.107583 0.500000 0.666114
O O6 0.016399 0.726452 0.676577
O O7 0.991658 0.749528 0.580611
O O8 0.249225 0.761410 0.733931
O O9 0.373080 0.500000 0.909781
O O10 0.401042 0.256243 0.873137
O O11 0.500000 0.262212 0.000000
O O12 0.745394 0.770807 0.573813
O O13 0.927328 0.000000 0.664053
O O14 0.105157 0.500000 0.173940
O O15 0.500000 0.314874 0.500000
O O16 0.633501 0.500000 0.505288
#
# Coordination Sequence:
#
# PCOD9215305 Si02
#       6
#     8   8   8   8   8   8
#     4  10  22  41  64  92 130 170 208 259 319 374
#     4  12  24  40  62  88 123 165 210 262 316 371
#     4  10  22  42  67  94 127 169 212 257 314 380
#     4  12  24  39  62  91 123 163 213 262 311 372
#     4  11  23  40  64  95 128 167 213 261 316 375
#     4  11  24  41  60  86 123 165 210 261 314 368
#
# _framework density 19.937397000000001
#
# number of rings (size 3 to 8) (size 9 to 14) (size 15 to 20)
#    0.000    1.000    1.667    5.500    0.000    7.667 
#    0.000    0.000    0.000    0.000    0.000    0.000 
#    0.000    0.000    0.000    0.000    0.000    0.000 
#
# Total GULP energy -134268.481393 kJ/mol
# GULP energy per Si atom -5594.520058 kJ/mol
# Density = 1.989202 g / cm^3
# Si number density = 19.937397 Si / 1000 Ang^3
#
#
#
# Elastic Constant Matrix: (Units=GPa)
#
#
# Indices 1 2 3 4 5 6 
#
# 1 114.8783 11.2553 46.4912 0.0000 -23.9741 0.0000
# 2 11.2553 22.4971 11.6090 0.0000 -5.5207 0.0000
# 3 46.4912 11.6090 125.1125 0.0000 -15.2515 0.0000
# 4 0.0000 0.0000 0.0000 19.5553 0.0000 -2.2077
# 5 -23.9741 -5.5207 -15.2515 0.0000 11.5847 0.0000
# 6 0.0000 0.0000 0.0000 -2.2077 0.0000 27.2237
#
#
#
# Elastic Compliance Matrix: (Units=1/GPa)
#
#
# Indices 1 2 3 4 5 6 
#
# 1 0.015845 0.000633 -0.002278 0.000000 0.030093 0.000000
# 2 0.000633 0.050821 -0.002190 0.000000 0.022645 0.000000
# 3 -0.002278 -0.002190 0.009935 0.000000 0.007321 0.000000
# 4 0.000000 0.000000 0.000000 0.051610 0.000000 0.004185
# 5 0.030093 0.022645 0.007321 0.000000 0.169028 0.000000
# 6 0.000000 0.000000 0.000000 0.004185 0.000000 0.037072
#
#
# Mechanical properties :
#
#
# Convention : Reuss Voigt Hill
#
# Bulk Modulus (GPa) = 14.50752 44.57764 29.54258
# Shear Modulus (GPa) = 13.70022 24.54822 19.12422
#
# Velocity S-wave (km/s) = 2.62422 3.51275 3.10048
# Velocity P-wave (km/s) = 4.05886 6.23377 5.25995
#
# Compressibility (1/GPa) = 0.06892975
#
# Stress axis : x y z
#
# Youngs Moduli (GPa) = 63.11123 19.67704 100.65323
#
# Poissons Ratio (x) = -0.01246 0.22931
# Poissons Ratio (y) = -0.03995 0.22046
# Poissons Ratio (z) = 0.14378 0.04310
#
# Static dielectric constant tensor:
#      x y z
#    x 1.719450 0.000000 -0.002510 
#    y 0.000000 1.669840 0.000000 
#    z -0.002510 0.000000 1.680150 
# 
# From -- ./inp_files/360306.got.cif
#   From: 2010.05.17/outbox.cif.g08.bks.cpg/sg12_181_cif.got.tgz:360306.got - 2010.06.03 13:09:07.
