data_PCOD9215990
_publ_section_title
;
Structure prediction by ZEFSAII (Michael W. Deem and Ramdas Pophale) SiO2 
 PCOD9215990
Probable space group: C 2/M
;
_chemical_formula_sum "Si O2"
_cell_formula_units_Z 56
_cell_length_a 20.456998
_cell_length_b 29.985342
_cell_length_c 9.011017
_cell_angle_alpha 90.000000
_cell_angle_beta 150.348578
_cell_angle_gamma 90.000000
_cell_volume 2734.550598
_symmetry_space_group_name_H-M "C 2/M"
_symmetry_group_IT_number 12
_symmetry_cell_setting 'monoclinic'
loop_
_space_group_symop_operation_xyz
x,y,z
-x,y,-z
-x,-y,-z
x,-y,z
1/2+x,1/2+y,z
1/2-x,1/2+y,-z
1/2-x,1/2-y,-z
1/2+x,1/2-y,z
loop_
_atom_site_type_symbol
_atom_site_label
_atom_site_fract_x
_atom_site_fract_y
_atom_site_fract_z
Si Si1 0.026315 0.885741 0.378662
Si Si2 0.863362 0.951164 0.641427
Si Si3 0.638293 0.778975 0.704010
Si Si4 0.158115 0.550381 0.799476
Si Si5 0.250475 0.898869 0.312633
Si Si6 0.463037 0.178504 0.762591
Si Si7 0.704699 0.143799 0.040730
O O1 0.090949 0.926462 0.416312
O O2 0.143597 0.848967 0.609806
O O3 0.000000 0.895427 0.500000
O O4 0.887192 0.877403 0.021099
O O5 0.775062 0.922610 0.579817
O O6 0.805879 0.000000 0.499918
O O7 0.000000 0.955768 0.000000
O O8 0.500000 0.764301 0.500000
O O9 0.611157 0.782959 0.476809
O O10 0.750000 0.750000 0.000000
O O11 0.670240 0.829136 0.823543
O O12 0.209494 0.500000 0.930925
O O13 0.205477 0.566369 0.729251
O O14 0.000000 0.548101 0.500000
O O15 0.192537 0.591652 0.975867
O O16 0.363310 0.862963 0.563282
O O17 0.500000 0.192149 0.000000
O O18 0.596136 0.162011 0.940912
#
# Coordination Sequence:
#
# PCOD9215990 Si02
#       7
#     8   8   8   8   8   8   8
#     4  11  21  34  58  85 116 163 218 271 321 377
#     4   9  20  35  49  74 117 162 210 263 321 369
#     4  10  22  42  69  96 127 165 206 260 326 391
#     4  11  20  34  60  88 124 171 224 270 318 384
#     4  11  20  38  58  86 120 168 217 266 320 374
#     4  11  22  40  68  92 130 172 209 260 331 391
#     4  11  21  42  59  94 130 165 208 266 328 388
#
# _framework density 20.478684000000001
#
# number of rings (size 3 to 8) (size 9 to 14) (size 15 to 20)
#    0.000    1.429    4.286    1.714    0.000    3.143 
#    0.000    2.857    0.000    4.714    0.000    0.000 
#    0.000    0.000    0.000    0.000    0.000    0.000 
#
# Total GULP energy -156168.396760 kJ/mol
# GULP energy per Si atom -5577.442741 kJ/mol
# Density = 2.043207 g / cm^3
# Si number density = 20.478684 Si / 1000 Ang^3
#
#
#
# Elastic Constant Matrix: (Units=GPa)
#
#
# Indices 1 2 3 4 5 6 
#
# 1 101.0250 26.1785 54.5449 0.0000 0.5645 0.0000
# 2 26.1785 41.8322 40.0218 0.0000 -6.6538 0.0000
# 3 54.5449 40.0218 135.7189 0.0000 -3.3078 0.0000
# 4 0.0000 0.0000 0.0000 31.5828 0.0000 -15.1018
# 5 0.5645 -6.6538 -3.3078 0.0000 38.6016 0.0000
# 6 0.0000 0.0000 0.0000 -15.1018 0.0000 15.1720
#
#
#
# Elastic Compliance Matrix: (Units=1/GPa)
#
#
# Indices 1 2 3 4 5 6 
#
# 1 0.013276 -0.004717 -0.003977 0.000000 -0.001348 0.000000
# 2 -0.004717 0.035931 -0.008565 0.000000 0.005528 0.000000
# 3 -0.003977 -0.008565 0.011482 0.000000 -0.000434 0.000000
# 4 0.000000 0.000000 0.000000 0.060420 0.000000 0.060140
# 5 -0.001348 0.005528 -0.000434 0.000000 0.026841 0.000000
# 6 0.000000 0.000000 0.000000 0.060140 0.000000 0.125773
#
#
# Mechanical properties :
#
#
# Convention : Reuss Voigt Hill
#
# Bulk Modulus (GPa) = 38.21266 57.78517 47.99891
# Shear Modulus (GPa) = 15.77464 27.59334 21.68399
#
# Velocity S-wave (km/s) = 2.77843 3.67470 3.25754
# Velocity P-wave (km/s) = 5.38453 6.80317 6.13499
#
# Compressibility (1/GPa) = 0.02616934
#
# Stress axis : x y z
#
# Youngs Moduli (GPa) = 75.32467 27.83131 87.09465
#
# Poissons Ratio (x) = 0.13129 0.34640
# Poissons Ratio (y) = 0.35532 0.74596
# Poissons Ratio (z) = 0.29959 0.23837
#
# Static dielectric constant tensor:
#      x y z
#    x 1.755960 0.000000 -0.021770 
#    y 0.000000 1.778750 0.000000 
#    z -0.021770 0.000000 1.792760 
# 
# From -- ./inp_files/91650.got.cif
#   From: 2010.05.17/outbox.cif.g08.bks.cpg/sg12_46_cif.got.tgz:91650.got - 2010.06.03 13:09:07.
