data_PCOD9215233
_publ_section_title
;
Structure prediction by ZEFSAII (Michael W. Deem and Ramdas Pophale) SiO2 
 PCOD9215233
Probable space group: C 2/M
;
_chemical_formula_sum "Si O2"
_cell_formula_units_Z 38
_cell_length_a 13.336589
_cell_length_b 13.740358
_cell_length_c 13.826625
_cell_angle_alpha 90.000000
_cell_angle_beta 150.388513
_cell_angle_gamma 90.000000
_cell_volume 1251.953140
_symmetry_space_group_name_H-M "C 2/M"
_symmetry_group_IT_number 12
_symmetry_cell_setting 'monoclinic'
loop_
_space_group_symop_operation_xyz
x,y,z
-x,y,-z
-x,-y,-z
x,-y,z
1/2+x,1/2+y,z
1/2-x,1/2+y,-z
1/2-x,1/2-y,-z
1/2+x,1/2-y,z
loop_
_atom_site_type_symbol
_atom_site_label
_atom_site_fract_x
_atom_site_fract_y
_atom_site_fract_z
Si Si1 0.250000 0.250000 0.000000
Si Si2 0.463990 0.606146 0.684472
Si Si3 0.226182 0.393661 0.234676
Si Si4 0.500000 0.000000 0.500000
Si Si5 0.773444 0.178828 0.772826
Si Si6 0.012511 0.610791 0.725761
O O1 0.463404 0.308838 0.184977
O O2 0.372175 0.142835 0.081902
O O3 0.493034 0.500000 0.754198
O O4 0.593666 0.604693 0.694437
O O5 0.224794 0.620703 0.466782
O O6 0.237889 0.500000 0.296397
O O7 0.253972 0.283829 0.297464
O O8 0.000000 0.392419 0.000000
O O9 0.673337 0.088012 0.635682
O O10 0.645899 0.182734 0.768969
O O11 0.000000 0.161590 0.000000
O O12 0.052220 0.500000 0.721170
#
# Coordination Sequence:
#
# PCOD9215233 Si02
#       6
#     4   8   8   2   8   8
#     4  12  22  38  66  96 126 176 216 268 332 398
#     4  10  22  41  63  94 132 169 220 272 324 398
#     4   9  19  41  68  91 127 171 213 276 329 379
#     4  12  26  44  70  98 136 180 228 262 352 388
#     4  11  24  45  66  99 136 174 225 281 325 406
#     4  11  24  43  63  94 137 172 218 277 334 397
#
# _framework density 30.352574000000001
#
# number of rings (size 3 to 8) (size 9 to 14) (size 15 to 20)
#    0.000    1.474    3.158    1.579    0.000    1.684 
#    0.000    0.526    0.000    0.000    0.000    0.000 
#    0.000    0.000    0.000    0.000    0.000    0.000 
#
# Total GULP energy -105974.075014 kJ/mol
# GULP energy per Si atom -5577.582895 kJ/mol
# Density = 3.028349 g / cm^3
# Si number density = 30.352574 Si / 1000 Ang^3
#
#
#
# Elastic Constant Matrix: (Units=GPa)
#
#
# Indices 1 2 3 4 5 6 
#
# 1 133.4593 29.0692 24.0186 0.0024 26.1707 0.0001
# 2 29.0692 339.8305 105.3909 0.0094 7.8012 -0.0007
# 3 24.0186 105.3909 227.8973 0.0104 44.6433 0.0006
# 4 0.0024 0.0094 0.0104 65.1460 0.0017 1.0060
# 5 26.1707 7.8012 44.6433 0.0017 40.1693 -0.0006
# 6 0.0001 -0.0007 0.0006 1.0060 -0.0006 44.6512
#
#
#
# Elastic Compliance Matrix: (Units=1/GPa)
#
#
# Indices 1 2 3 4 5 6 
#
# 1 0.008790 -0.000822 0.000696 0.000000 -0.006341 0.000000
# 2 -0.000822 0.003575 -0.001963 0.000000 0.002023 0.000000
# 3 0.000696 -0.001963 0.006694 -0.000001 -0.007512 0.000000
# 4 0.000000 0.000000 -0.000001 0.015355 0.000000 -0.000346
# 5 -0.006341 0.002023 -0.007512 0.000000 0.036981 0.000001
# 6 0.000000 0.000000 0.000000 -0.000346 0.000001 0.022404
#
#
# Mechanical properties :
#
#
# Convention : Reuss Voigt Hill
#
# Bulk Modulus (GPa) = 67.20152 113.12715 90.16434
# Shear Modulus (GPa) = 48.57288 66.17387 57.37338
#
# Velocity S-wave (km/s) = 4.00470 4.67430 4.35240
# Velocity P-wave (km/s) = 6.60090 8.15377 7.41808
#
# Compressibility (1/GPa) = 0.01488061
#
# Stress axis : x y z
#
# Youngs Moduli (GPa) = 113.76419 279.69496 149.39073
#
# Poissons Ratio (x) = 0.22995 -0.10395
# Poissons Ratio (y) = 0.09353 0.29326
# Poissons Ratio (z) = -0.07916 0.54905
#
# Static dielectric constant tensor:
#      x y z
#    x -1.173730 0.000010 2.348330 
#    y 0.000010 2.184830 -0.000010 
#    z 2.348330 -0.000010 0.777090 
# 
# From -- ./inp_files/316868.got.cif
#   From: 2010.05.17/outbox.cif.g08.bks.cpg/sg12_159_cif.got.tgz:316868.got - 2010.06.03 13:09:07.
