data_PCOD9215582
_publ_section_title
;
Structure prediction by ZEFSAII (Michael W. Deem and Ramdas Pophale) SiO2 
 PCOD9215582
Probable space group: C 2/M
;
_chemical_formula_sum "Si O2"
_cell_formula_units_Z 64
_cell_length_a 15.793824
_cell_length_b 18.088759
_cell_length_c 11.926872
_cell_angle_alpha 90.000000
_cell_angle_beta 89.386187
_cell_angle_gamma 90.000000
_cell_volume 3407.200594
_symmetry_space_group_name_H-M "C 2/M"
_symmetry_group_IT_number 12
_symmetry_cell_setting 'monoclinic'
loop_
_space_group_symop_operation_xyz
x,y,z
-x,y,-z
-x,-y,-z
x,-y,z
1/2+x,1/2+y,z
1/2-x,1/2+y,-z
1/2-x,1/2-y,-z
1/2+x,1/2-y,z
loop_
_atom_site_type_symbol
_atom_site_label
_atom_site_fract_x
_atom_site_fract_y
_atom_site_fract_z
Si Si1 0.708812 0.659298 0.122423
Si Si2 0.776200 0.834919 0.475102
Si Si3 0.258906 0.176300 0.865236
Si Si4 0.145206 0.587308 0.308594
Si Si5 0.203051 0.588056 0.676903
Si Si6 0.026495 0.336207 0.628213
Si Si7 0.592046 0.317131 0.715508
Si Si8 0.972685 0.911992 0.873309
O O1 0.692937 0.745712 0.149243
O O2 0.778393 0.625266 0.204025
O O3 0.623925 0.612797 0.137950
O O4 0.739717 0.659187 0.994027
O O5 0.750000 0.750000 0.500000
O O6 0.703788 0.871718 0.399239
O O7 0.773410 0.879119 0.591100
O O8 0.862796 0.838683 0.402970
O O9 0.311341 0.110854 0.808147
O O10 0.171182 0.188859 0.799850
O O11 0.146583 0.500000 0.327209
O O12 0.050968 0.618812 0.317853
O O13 0.206179 0.500000 0.681451
O O14 0.112380 0.616042 0.633199
O O15 0.045913 0.260243 0.692476
O O16 0.000000 0.320866 0.500000
O O17 0.528901 0.373527 0.776772
O O18 0.981610 0.000000 0.865175
O O19 0.000000 0.889671 0.000000
#
# Coordination Sequence:
#
# PCOD9215582 Si02
#       8
#     8   8   8   8   8   8   8   8
#     4  11  22  44  66  92 128 172 219 264 320 390
#     4  11  21  41  63  90 129 170 218 264 316 377
#     4  10  22  41  68  93 124 169 221 266 320 389
#     4  11  23  38  62  96 129 166 211 267 325 382
#     4  12  24  39  64  95 132 171 211 262 328 391
#     4  12  23  41  64  94 132 170 215 266 321 393
#     4  11  22  41  68  95 125 167 221 271 316 385
#     4  11  24  41  64  96 132 169 212 268 330 387
#
# _framework density 18.783750000000001
#
# number of rings (size 3 to 8) (size 9 to 14) (size 15 to 20)
#    0.000    0.875    5.000    2.625    0.000    5.000 
#    0.000    0.625    0.000    3.375    0.000    0.000 
#    0.000    0.000    0.000    0.000    0.000    0.000 
#
# Total GULP energy -178808.257907 kJ/mol
# GULP energy per Si atom -5587.758060 kJ/mol
# Density = 1.874100 g / cm^3
# Si number density = 18.783750 Si / 1000 Ang^3
#
#
#
# Elastic Constant Matrix: (Units=GPa)
#
#
# Indices 1 2 3 4 5 6 
#
# 1 73.7868 54.7205 35.9368 0.0000 -9.2850 0.0000
# 2 54.7205 139.0212 56.9662 0.0000 -18.7313 0.0000
# 3 35.9368 56.9662 98.7258 0.0000 -1.6772 0.0000
# 4 0.0000 0.0000 0.0000 21.0923 0.0000 1.7566
# 5 -9.2850 -18.7313 -1.6772 0.0000 25.2585 0.0000
# 6 0.0000 0.0000 0.0000 1.7566 0.0000 16.5171
#
#
#
# Elastic Compliance Matrix: (Units=1/GPa)
#
#
# Indices 1 2 3 4 5 6 
#
# 1 0.020233 -0.006023 -0.003843 0.000000 0.002716 0.000000
# 2 -0.006023 0.012472 -0.004890 0.000000 0.006710 0.000000
# 3 -0.003843 -0.004890 0.014280 0.000000 -0.004091 0.000000
# 4 0.000000 0.000000 0.000000 0.047834 0.000000 -0.005087
# 5 0.002716 0.006710 -0.004091 0.000000 0.045293 0.000000
# 6 0.000000 0.000000 0.000000 -0.005087 0.000000 0.061084
#
#
# Mechanical properties :
#
#
# Convention : Reuss Voigt Hill
#
# Bulk Modulus (GPa) = 57.23450 67.42010 62.32730
# Shear Modulus (GPa) = 21.13864 23.50092 22.31978
#
# Velocity S-wave (km/s) = 3.35829 3.54097 3.45084
# Velocity P-wave (km/s) = 6.75084 7.25870 7.00937
#
# Compressibility (1/GPa) = 0.01747198
#
# Stress axis : x y z
#
# Youngs Moduli (GPa) = 49.42432 80.18114 70.02742
#
# Poissons Ratio (x) = 0.48295 0.26914
# Poissons Ratio (y) = 0.29769 0.34243
# Poissons Ratio (z) = 0.18995 0.39208
#
# Static dielectric constant tensor:
#      x y z
#    x 1.039990 0.000000 -0.209960 
#    y 0.000000 1.627610 0.000000 
#    z -0.209960 0.000000 1.603950 
# 
# From -- ./inp_files/146161.got.cif
#   From: 2010.05.17/outbox.cif.g08.bks.cpg/sg12_74_cif.got.tgz:146161.got - 2010.06.03 13:09:07.
