data_PCOD9215143
_publ_section_title
;
Structure prediction by ZEFSAII (Michael W. Deem and Ramdas Pophale) SiO2 
 PCOD9215143
Probable space group: C 2/M
;
_chemical_formula_sum "Si O2"
_cell_formula_units_Z 50
_cell_length_a 19.176825
_cell_length_b 7.913138
_cell_length_c 19.516064
_cell_angle_alpha 90.000000
_cell_angle_beta 123.498044
_cell_angle_gamma 90.000000
_cell_volume 2469.642448
_symmetry_space_group_name_H-M "C 2/M"
_symmetry_group_IT_number 12
_symmetry_cell_setting 'monoclinic'
loop_
_space_group_symop_operation_xyz
x,y,z
-x,y,-z
-x,-y,-z
x,-y,z
1/2+x,1/2+y,z
1/2-x,1/2+y,-z
1/2-x,1/2-y,-z
1/2+x,1/2-y,z
loop_
_atom_site_type_symbol
_atom_site_label
_atom_site_fract_x
_atom_site_fract_y
_atom_site_fract_z
Si Si1 0.658922 0.801064 0.422812
Si Si2 0.266341 0.690833 0.932431
Si Si3 0.000000 0.500000 0.500000
Si Si4 0.587554 0.707207 0.083221
Si Si5 0.510663 0.688656 0.603243
Si Si6 0.582536 0.294920 0.237623
Si Si7 0.907987 0.195726 0.204756
O O1 0.750000 0.750000 0.500000
O O2 0.586644 0.707627 0.426805
O O3 0.641199 0.766082 0.332388
O O4 0.646830 0.000000 0.428703
O O5 0.295190 0.500000 0.954876
O O6 0.337540 0.773072 0.924201
O O7 0.176707 0.703869 0.848559
O O8 0.250000 0.750000 0.000000
O O9 0.033002 0.347839 0.569119
O O10 0.587698 0.500000 0.086437
O O11 0.599949 0.760359 0.169247
O O12 0.500000 0.755425 0.000000
O O13 0.525993 0.500000 0.583863
O O14 0.560926 0.699902 0.700997
O O15 0.584985 0.500000 0.242268
O O16 0.487108 0.242971 0.203463
O O17 0.891263 0.000000 0.176061
#
# Coordination Sequence:
#
# PCOD9215143 Si02
#       7
#     8   8   2   8   8   8   8
#     4  11  21  38  61  88 121 161 209 257 311 374
#     4  11  22  35  57  85 115 153 196 244 299 367
#     4  12  22  40  64  94 124 164 210 254 316 378
#     4   9  18  35  57  83 113 148 193 242 292 354
#     4  10  22  41  62  90 124 165 209 257 310 373
#     4   9  18  36  61  85 110 151 200 249 302 357
#     4   9  19  37  61  83 114 154 195 244 299 360
#
# _framework density 20.245844999999999
#
# number of rings (size 3 to 8) (size 9 to 14) (size 15 to 20)
#    0.000    2.080    0.800    4.080    1.120    3.200 
#    2.880    1.600    0.000    3.360    0.000    0.000 
#    0.000    0.000    0.000    0.000    0.000    0.000 
#
# Total GULP energy -139187.996140 kJ/mol
# GULP energy per Si atom -5567.519846 kJ/mol
# Density = 2.019976 g / cm^3
# Si number density = 20.245845 Si / 1000 Ang^3
#
#
#
# Elastic Constant Matrix: (Units=GPa)
#
#
# Indices 1 2 3 4 5 6 
#
# 1 77.2736 6.1134 53.3513 0.0000 -1.7069 0.0000
# 2 6.1134 85.6774 5.6888 0.0000 -9.0535 0.0000
# 3 53.3513 5.6888 81.2007 0.0000 1.4691 0.0000
# 4 0.0000 0.0000 0.0000 32.4313 0.0000 -0.6953
# 5 -1.7069 -9.0535 1.4691 0.0000 31.9581 0.0000
# 6 0.0000 0.0000 0.0000 -0.6953 0.0000 3.0199
#
#
#
# Elastic Compliance Matrix: (Units=1/GPa)
#
#
# Indices 1 2 3 4 5 6 
#
# 1 0.023829 -0.000464 -0.015658 0.000000 0.001861 0.000000
# 2 -0.000464 0.012108 -0.000605 0.000000 0.003433 0.000000
# 3 -0.015658 -0.000605 0.022682 0.000000 -0.002051 0.000000
# 4 0.000000 0.000000 0.000000 0.030987 0.000000 0.007134
# 5 0.001861 0.003433 -0.002051 0.000000 0.032457 0.000000
# 6 0.000000 0.000000 0.000000 0.007134 0.000000 0.332775
#
#
# Mechanical properties :
#
#
# Convention : Reuss Voigt Hill
#
# Bulk Modulus (GPa) = 39.73794 41.60655 40.67224
# Shear Modulus (GPa) = 10.06682 25.41507 17.74094
#
# Velocity S-wave (km/s) = 2.23228 3.54690 2.96341
# Velocity P-wave (km/s) = 5.12976 6.11304 5.64286
#
# Compressibility (1/GPa) = 0.02516487
#
# Stress axis : x y z
#
# Youngs Moduli (GPa) = 41.96522 82.59154 44.08727
#
# Poissons Ratio (x) = 0.03832 0.69031
# Poissons Ratio (y) = 0.01947 0.02669
# Poissons Ratio (z) = 0.65708 0.05001
#
# Static dielectric constant tensor:
#      x y z
#    x 1.767670 0.000000 -0.029570 
#    y 0.000000 1.740220 0.000000 
#    z -0.029570 0.000000 1.673210 
# 
# From -- ./inp_files/275799.got.cif
#   From: 2010.05.17/outbox.cif.g08.bks.cpg/sg12_138_cif.got.tgz:275799.got - 2010.06.03 13:09:07.
