data_PCOD9215116
_publ_section_title
;
Structure prediction by ZEFSAII (Michael W. Deem and Ramdas Pophale) SiO2 
 PCOD9215116
Probable space group: C 2/M
;
_chemical_formula_sum "Si O2"
_cell_formula_units_Z 56
_cell_length_a 15.447801
_cell_length_b 24.060655
_cell_length_c 9.545502
_cell_angle_alpha 90.000000
_cell_angle_beta 122.761685
_cell_angle_gamma 90.000000
_cell_volume 2983.541227
_symmetry_space_group_name_H-M "C 2/M"
_symmetry_group_IT_number 12
_symmetry_cell_setting 'monoclinic'
loop_
_space_group_symop_operation_xyz
x,y,z
-x,y,-z
-x,-y,-z
x,-y,z
1/2+x,1/2+y,z
1/2-x,1/2+y,-z
1/2-x,1/2-y,-z
1/2+x,1/2-y,z
loop_
_atom_site_type_symbol
_atom_site_label
_atom_site_fract_x
_atom_site_fract_y
_atom_site_fract_z
Si Si1 0.129215 0.260760 0.367381
Si Si2 0.615232 0.145225 0.579143
Si Si3 0.118712 0.646012 0.129942
Si Si4 0.044487 0.063572 0.389276
Si Si5 0.711309 0.064398 0.437847
Si Si6 0.240217 0.684006 0.965276
Si Si7 0.980497 0.837860 0.147172
O O1 0.250000 0.250000 0.500000
O O2 0.096060 0.301298 0.463430
O O3 0.123298 0.296380 0.220335
O O4 0.054269 0.207948 0.286980
O O5 0.500000 0.121556 0.500000
O O6 0.682586 0.100819 0.549860
O O7 0.676744 0.166126 0.770342
O O8 0.160724 0.597215 0.264723
O O9 0.182310 0.655242 0.044458
O O10 0.000000 0.634440 0.000000
O O11 0.167646 0.064747 0.489812
O O12 0.000000 0.083655 0.500000
O O13 0.008982 0.102823 0.234397
O O14 0.009167 0.000000 0.341494
O O15 0.678658 0.000000 0.423070
O O16 0.250000 0.750000 0.000000
O O17 0.359197 0.667676 0.063114
O O18 0.000000 0.832807 0.000000
#
# Coordination Sequence:
#
# PCOD9215116 Si02
#       7
#     8   8   8   8   8   8   8
#     4  11  22  38  59  84 120 162 199 237 293 366
#     4  11  23  40  60  86 121 160 200 245 299 360
#     4  11  22  39  59  85 121 154 194 250 303 354
#     4  10  22  41  62  85 115 152 197 246 297 360
#     4  10  22  42  64  84 113 158 206 249 298 361
#     4  12  23  37  59  91 124 155 193 243 304 364
#     4  12  23  37  59  89 121 153 194 243 299 358
#
# _framework density 18.769641
#
# number of rings (size 3 to 8) (size 9 to 14) (size 15 to 20)
#    0.000    1.000    0.000    9.857    0.000    2.571 
#    0.000    1.429    0.000    0.000    0.000    0.000 
#    0.000    0.000    0.000    0.000    0.000    0.000 
#
# Total GULP energy -156416.723679 kJ/mol
# GULP energy per Si atom -5586.311560 kJ/mol
# Density = 1.872692 g / cm^3
# Si number density = 18.769641 Si / 1000 Ang^3
#
#
#
# Elastic Constant Matrix: (Units=GPa)
#
#
# Indices 1 2 3 4 5 6 
#
# 1 118.2948 31.2038 56.4427 0.0000 11.6669 0.0000
# 2 31.2038 95.4702 59.0231 0.0000 0.7979 0.0000
# 3 56.4427 59.0231 120.4968 0.0000 -1.0207 0.0000
# 4 0.0000 0.0000 0.0000 13.7145 0.0000 1.1397
# 5 11.6669 0.7979 -1.0207 0.0000 34.8184 0.0000
# 6 0.0000 0.0000 0.0000 1.1397 0.0000 29.0178
#
#
#
# Elastic Compliance Matrix: (Units=1/GPa)
#
#
# Indices 1 2 3 4 5 6 
#
# 1 0.011432 -0.000533 -0.005127 0.000000 -0.003969 0.000000
# 2 -0.000533 0.015060 -0.007130 0.000000 -0.000375 0.000000
# 3 -0.005127 -0.007130 0.014213 0.000000 0.002298 0.000000
# 4 0.000000 0.000000 0.000000 0.073154 0.000000 -0.002873
# 5 -0.003969 -0.000375 0.002298 0.000000 0.030126 0.000000
# 6 0.000000 0.000000 0.000000 -0.002873 0.000000 0.034575
#
#
# Mechanical properties :
#
#
# Convention : Reuss Voigt Hill
#
# Bulk Modulus (GPa) = 66.12444 69.73343 67.92894
# Shear Modulus (GPa) = 23.90256 28.01629 25.95942
#
# Velocity S-wave (km/s) = 3.57244 3.86766 3.72298
# Velocity P-wave (km/s) = 7.23342 7.56161 7.39934
#
# Compressibility (1/GPa) = 0.01512300
#
# Stress axis : x y z
#
# Youngs Moduli (GPa) = 87.47388 66.40051 70.35942
#
# Poissons Ratio (x) = 0.03542 0.36075
# Poissons Ratio (y) = 0.04666 0.50168
# Poissons Ratio (z) = 0.44850 0.47345
#
# Static dielectric constant tensor:
#      x y z
#    x 2.195430 0.000000 0.157230 
#    y 0.000000 1.657450 0.000000 
#    z 0.157230 0.000000 1.667570 
# 
# From -- ./inp_files/65967.got.cif
#   From: 2010.05.17/outbox.cif.g08.bks.cpg/sg12_33_cif.got.tgz:65967.got - 2010.06.03 13:09:07.
