data_PCOD9215185
_publ_section_title
;
Structure prediction by ZEFSAII (Michael W. Deem and Ramdas Pophale) SiO2 
 PCOD9215185
Probable space group: C 2/M
;
_chemical_formula_sum "Si O2"
_cell_formula_units_Z 64
_cell_length_a 23.457773
_cell_length_b 9.182569
_cell_length_c 15.126929
_cell_angle_alpha 90.000000
_cell_angle_beta 87.060219
_cell_angle_gamma 90.000000
_cell_volume 3254.092063
_symmetry_space_group_name_H-M "C 2/M"
_symmetry_group_IT_number 12
_symmetry_cell_setting 'monoclinic'
loop_
_space_group_symop_operation_xyz
x,y,z
-x,y,-z
-x,-y,-z
x,-y,z
1/2+x,1/2+y,z
1/2-x,1/2+y,-z
1/2-x,1/2-y,-z
1/2+x,1/2-y,z
loop_
_atom_site_type_symbol
_atom_site_label
_atom_site_fract_x
_atom_site_fract_y
_atom_site_fract_z
Si Si1 0.215661 0.676690 0.083737
Si Si2 0.960726 0.324906 0.127639
Si Si3 0.084378 0.676135 0.061907
Si Si4 0.148326 0.830643 0.411781
Si Si5 0.440096 0.332389 0.300341
Si Si6 0.468428 0.834680 0.596785
Si Si7 0.320012 0.331192 0.399980
Si Si8 0.255175 0.330424 0.737650
O O1 0.219259 0.500000 0.078898
O O2 0.148159 0.720673 0.084026
O O3 0.241111 0.736803 0.173634
O O4 0.250000 0.750000 0.000000
O O5 0.959825 0.500000 0.132972
O O6 0.928744 0.256266 0.212403
O O7 0.027690 0.277302 0.120480
O O8 0.930750 0.283126 0.037927
O O9 0.084276 0.500000 0.065564
O O10 0.094277 0.727965 0.409622
O O11 0.184558 0.790436 0.496504
O O12 0.185228 0.821876 0.320354
O O13 0.130955 0.000000 0.426279
O O14 0.449090 0.500000 0.277266
O O15 0.495260 0.264895 0.341347
O O16 0.387079 0.322760 0.371150
O O17 0.500000 0.833771 0.500000
O O18 0.467273 0.000000 0.630583
O O19 0.301406 0.500000 0.390831
O O20 0.288769 0.232508 0.330825
O O21 0.243093 0.500000 0.758716
#
# Coordination Sequence:
#
# PCOD9215185 Si02
#       8
#     8   8   8   8   8   8   8   8
#     4  11  24  43  64  90 124 164 205 251 310 370
#     4   9  18  37  63  90 117 151 198 248 300 360
#     4   8  18  38  63  87 116 153 194 247 305 356
#     4  10  22  42  65  90 125 164 203 254 313 368
#     4  11  23  37  58  89 125 162 198 244 307 364
#     4  11  23  38  59  89 121 159 205 247 295 356
#     4  10  22  41  63  88 124 167 207 253 310 367
#     4  11  25  42  64  93 121 160 211 260 310 364
#
# _framework density 19.667545
#
# number of rings (size 3 to 8) (size 9 to 14) (size 15 to 20)
#    0.000    1.875    1.250    2.625    3.500    3.000 
#    0.000    2.500    0.000    0.000    0.000    0.000 
#    0.000    0.000    0.000    0.000    0.000    0.000 
#
# Total GULP energy -178674.644841 kJ/mol
# GULP energy per Si atom -5583.582651 kJ/mol
# Density = 1.962278 g / cm^3
# Si number density = 19.667545 Si / 1000 Ang^3
#
#
#
# Elastic Constant Matrix: (Units=GPa)
#
#
# Indices 1 2 3 4 5 6 
#
# 1 50.0495 26.6043 -4.4400 0.0000 10.6539 0.0000
# 2 26.6043 65.7080 26.8162 0.0000 2.2091 0.0000
# 3 -4.4400 26.8162 84.6523 0.0000 -4.8737 0.0000
# 4 0.0000 0.0000 0.0000 22.7363 0.0000 1.6414
# 5 10.6539 2.2091 -4.8737 0.0000 22.2247 0.0000
# 6 0.0000 0.0000 0.0000 1.6414 0.0000 25.3536
#
#
#
# Elastic Compliance Matrix: (Units=1/GPa)
#
#
# Indices 1 2 3 4 5 6 
#
# 1 0.030557 -0.014170 0.005397 0.000000 -0.012056 0.000000
# 2 -0.014170 0.024247 -0.008276 0.000000 0.002567 0.000000
# 3 0.005397 -0.008276 0.014803 0.000000 0.001482 0.000000
# 4 0.000000 0.000000 0.000000 0.044189 0.000000 -0.002861
# 5 -0.012056 0.002567 0.001482 0.000000 0.050844 0.000000
# 6 0.000000 0.000000 0.000000 -0.002861 0.000000 0.039627
#
#
# Mechanical properties :
#
#
# Convention : Reuss Voigt Hill
#
# Bulk Modulus (GPa) = 28.16082 33.15230 30.65656
# Shear Modulus (GPa) = 19.98377 24.15820 22.07099
#
# Velocity S-wave (km/s) = 3.19106 3.50855 3.35356
# Velocity P-wave (km/s) = 5.28456 5.77115 5.53321
#
# Compressibility (1/GPa) = 0.03551033
#
# Stress axis : x y z
#
# Youngs Moduli (GPa) = 32.72530 41.24163 67.55281
#
# Poissons Ratio (x) = 0.58438 -0.36460
# Poissons Ratio (y) = 0.46371 0.55910
# Poissons Ratio (z) = -0.17663 0.34133
#
# Static dielectric constant tensor:
#      x y z
#    x 1.696470 0.000000 -0.006830 
#    y 0.000000 1.663970 0.000000 
#    z -0.006830 0.000000 1.684650 
# 
# From -- ./inp_files/238594.got.cif
#   From: 2010.05.17/outbox.cif.g08.bks.cpg/sg12_120_cif.got.tgz:238594.got - 2010.06.03 13:09:07.
