data_PCOD9215437
_publ_section_title
;
Structure prediction by ZEFSAII (Michael W. Deem and Ramdas Pophale) SiO2 
 PCOD9215437
Probable space group: C 2/M
;
_chemical_formula_sum "Si O2"
_cell_formula_units_Z 56
_cell_length_a 10.602623
_cell_length_b 16.707352
_cell_length_c 17.877788
_cell_angle_alpha 90.000000
_cell_angle_beta 53.759247
_cell_angle_gamma 90.000000
_cell_volume 2554.233812
_symmetry_space_group_name_H-M "C 2/M"
_symmetry_group_IT_number 12
_symmetry_cell_setting 'monoclinic'
loop_
_space_group_symop_operation_xyz
x,y,z
-x,y,-z
-x,-y,-z
x,-y,z
1/2+x,1/2+y,z
1/2-x,1/2+y,-z
1/2-x,1/2-y,-z
1/2+x,1/2-y,z
loop_
_atom_site_type_symbol
_atom_site_label
_atom_site_fract_x
_atom_site_fract_y
_atom_site_fract_z
Si Si1 0.830254 0.337258 0.235015
Si Si2 0.370015 0.405332 0.109362
Si Si3 0.823381 0.671940 0.936940
Si Si4 0.235753 0.837538 0.719095
Si Si5 0.165494 0.500000 0.011164
Si Si6 0.064097 0.591032 0.647138
Si Si7 0.323667 0.000000 0.170914
Si Si8 0.674566 0.817833 0.473585
O O1 0.736748 0.255085 0.268888
O O2 0.877129 0.356157 0.304193
O O3 0.756518 0.417874 0.226862
O O4 0.989154 0.322214 0.131451
O O5 0.330364 0.500000 0.124141
O O6 0.235968 0.345760 0.125855
O O7 0.402328 0.374513 0.181705
O O8 0.500000 0.395365 0.000000
O O9 0.771115 0.588538 0.994254
O O10 0.750000 0.750000 0.000000
O O11 0.385667 0.889802 0.688676
O O12 0.220443 0.838073 0.635164
O O13 0.012152 0.500000 0.119477
O O14 0.163764 0.500000 0.922604
O O15 0.081456 0.500000 0.664680
O O16 0.153166 0.609587 0.538870
O O17 0.500000 0.797895 0.500000
O O18 0.750000 0.750000 0.500000
#
# Coordination Sequence:
#
# PCOD9215437 Si02
#       8
#     8   8   8   8   4   8   4   8
#     4  11  21  37  61  92 120 166 210 269 336 393
#     4  11  23  39  57  86 128 173 215 268 336 395
#     4  11  22  37  58  81 123 169 220 268 329 399
#     4  11  23  37  64  95 128 163 221 275 329 393
#     4   9  20  36  53  80 113 160 216 274 314 372
#     4  11  22  40  68  98 130 169 219 272 339 406
#     4   9  20  34  56  84 115 155 216 263 308 391
#     4  10  22  41  66 101 136 176 223 286 347 409
#
# _framework density 21.924382000000001
#
# number of rings (size 3 to 8) (size 9 to 14) (size 15 to 20)
#    0.000    1.429    4.286    1.286    2.000    3.143 
#    0.000    0.000    0.000    0.429    7.429    0.000 
#    0.000    0.000    0.000    0.000    0.000    0.000 
#
# Total GULP energy -156137.266502 kJ/mol
# GULP energy per Si atom -5576.330947 kJ/mol
# Density = 2.187448 g / cm^3
# Si number density = 21.924382 Si / 1000 Ang^3
#
#
#
# Elastic Constant Matrix: (Units=GPa)
#
#
# Indices 1 2 3 4 5 6 
#
# 1 22.0270 3.8248 8.4845 -0.0001 13.1468 0.0001
# 2 3.8248 124.9631 50.0730 -0.0001 5.0200 0.0001
# 3 8.4845 50.0730 152.6215 -0.0001 27.8617 0.0001
# 4 -0.0001 -0.0001 -0.0001 31.1672 0.0001 8.4377
# 5 13.1468 5.0200 27.8617 0.0001 26.4700 -0.0001
# 6 0.0001 0.0001 0.0001 8.4377 -0.0001 29.5118
#
#
#
# Elastic Compliance Matrix: (Units=1/GPa)
#
#
# Indices 1 2 3 4 5 6 
#
# 1 0.065940 -0.002005 0.003592 0.000000 -0.036150 0.000000
# 2 -0.002005 0.009343 -0.003481 0.000000 0.002888 0.000000
# 3 0.003592 -0.003481 0.009531 0.000000 -0.011156 0.000000
# 4 0.000000 0.000000 0.000000 0.034777 0.000000 -0.009943
# 5 -0.036150 0.002888 -0.011156 0.000000 0.066928 0.000000
# 6 0.000000 0.000000 0.000000 -0.009943 0.000000 0.036727
#
#
# Mechanical properties :
#
#
# Convention : Reuss Voigt Hill
#
# Bulk Modulus (GPa) = 12.34191 47.15290 29.74741
# Shear Modulus (GPa) = 19.68169 33.24510 26.46339
#
# Velocity S-wave (km/s) = 2.99943 3.89826 3.47800
# Velocity P-wave (km/s) = 4.19964 6.46650 5.45218
#
# Compressibility (1/GPa) = 0.08102472
#
# Stress axis : x y z
#
# Youngs Moduli (GPa) = 15.16528 107.03752 104.91991
#
# Poissons Ratio (x) = 0.21463 -0.37683
# Poissons Ratio (y) = 0.03041 0.36522
# Poissons Ratio (z) = -0.05447 0.37259
#
# Static dielectric constant tensor:
#      x y z
#    x 1.944380 0.000000 -0.031930 
#    y 0.000000 1.788470 0.000000 
#    z -0.031930 0.000000 1.860140 
# 
# From -- ./inp_files/263270.got.cif
#   From: 2010.05.17/outbox.cif.g08.bks.cpg/sg12_132_cif.got.tgz:263270.got - 2010.06.03 13:09:07.
