data_PCOD9215141
_publ_section_title
;
Structure prediction by ZEFSAII (Michael W. Deem and Ramdas Pophale) SiO2 
 PCOD9215141
Probable space group: C 2/M
;
_chemical_formula_sum "Si O2"
_cell_formula_units_Z 56
_cell_length_a 23.989232
_cell_length_b 9.236322
_cell_length_c 15.679657
_cell_angle_alpha 90.000000
_cell_angle_beta 53.363811
_cell_angle_gamma 90.000000
_cell_volume 2787.821297
_symmetry_space_group_name_H-M "C 2/M"
_symmetry_group_IT_number 12
_symmetry_cell_setting 'monoclinic'
loop_
_space_group_symop_operation_xyz
x,y,z
-x,y,-z
-x,-y,-z
x,-y,z
1/2+x,1/2+y,z
1/2-x,1/2+y,-z
1/2-x,1/2-y,-z
1/2+x,1/2-y,z
loop_
_atom_site_type_symbol
_atom_site_label
_atom_site_fract_x
_atom_site_fract_y
_atom_site_fract_z
Si Si1 0.825254 0.828622 0.158937
Si Si2 0.054785 0.830194 0.372898
Si Si3 0.819867 0.830105 0.465684
Si Si4 0.037056 0.332875 0.218655
Si Si5 0.810090 0.667473 0.995131
Si Si6 0.669977 0.828592 0.369531
Si Si7 0.570043 0.668839 0.789019
O O1 0.751534 0.809647 0.274305
O O2 0.888122 0.788165 0.164440
O O3 0.831570 0.000000 0.134356
O O4 0.822956 0.739483 0.074731
O O5 0.024814 0.761943 0.314055
O O6 0.123123 0.742923 0.339175
O O7 0.000000 0.816422 0.500000
O O8 0.069900 0.000000 0.346826
O O9 0.750000 0.750000 0.500000
O O10 0.845509 0.752235 0.527875
O O11 0.875349 0.821285 0.339011
O O12 0.806445 0.000000 0.494592
O O13 0.017667 0.500000 0.251017
O O14 0.118394 0.325433 0.122663
O O15 0.994028 0.267249 0.179416
O O16 0.790601 0.500000 0.023434
O O17 0.750000 0.750000 0.000000
O O18 0.655901 0.000000 0.388524
O O19 0.549163 0.500000 0.816127
#
# Coordination Sequence:
#
# PCOD9215141 Si02
#       7
#     8   8   8   8   8   8   8
#     4  10  22  41  63  90 123 159 202 252 304 361
#     4  11  24  41  61  89 123 161 205 252 302 366
#     4  11  21  36  58  88 126 166 207 250 300 358
#     4  11  25  43  63  91 125 161 202 255 310 362
#     4  11  25  44  66  93 122 155 202 256 308 365
#     4  11  22  38  60  90 125 160 204 258 307 361
#     4  10  22  41  62  89 126 165 206 249 300 367
#
# _framework density 20.087371999999998
#
# number of rings (size 3 to 8) (size 9 to 14) (size 15 to 20)
#    0.000    1.286    1.429    3.857    0.000   13.714 
#    0.000    2.857    0.000    0.000    0.000    0.000 
#    0.000    0.000    0.000    0.000    0.000    0.000 
#
# Total GULP energy -156664.870737 kJ/mol
# GULP energy per Si atom -5595.173955 kJ/mol
# Density = 2.004165 g / cm^3
# Si number density = 20.087372 Si / 1000 Ang^3
#
#
#
# Elastic Constant Matrix: (Units=GPa)
#
#
# Indices 1 2 3 4 5 6 
#
# 1 143.6604 77.5075 22.5738 0.0000 21.4255 0.0000
# 2 77.5075 129.2992 48.8228 0.0000 15.3699 0.0000
# 3 22.5738 48.8228 53.3853 0.0000 28.8499 0.0000
# 4 0.0000 0.0000 0.0000 31.0234 0.0000 5.3739
# 5 21.4255 15.3699 28.8499 0.0000 35.4779 0.0000
# 6 0.0000 0.0000 0.0000 5.3739 0.0000 39.6561
#
#
#
# Elastic Compliance Matrix: (Units=1/GPa)
#
#
# Indices 1 2 3 4 5 6 
#
# 1 0.012355 -0.009748 0.009705 0.000000 -0.011131 0.000000
# 2 -0.009748 0.020422 -0.023111 0.000000 0.015833 0.000000
# 3 0.009705 -0.023111 0.059799 0.000000 -0.044476 0.000000
# 4 0.000000 0.000000 0.000000 0.033009 0.000000 -0.004473
# 5 -0.011131 0.015833 -0.044476 0.000000 0.064216 0.000000
# 6 0.000000 0.000000 0.000000 -0.004473 0.000000 0.025823
#
#
# Mechanical properties :
#
#
# Convention : Reuss Voigt Hill
#
# Bulk Modulus (GPa) = 21.61255 69.35035 45.48145
# Shear Modulus (GPa) = 18.02763 33.06087 25.54425
#
# Velocity S-wave (km/s) = 2.99902 4.06131 3.56990
# Velocity P-wave (km/s) = 4.77229 7.52274 6.29946
#
# Compressibility (1/GPa) = 0.04626941
#
# Stress axis : x y z
#
# Youngs Moduli (GPa) = 80.93949 48.96771 16.72280
#
# Poissons Ratio (x) = 0.47732 -0.16230
# Poissons Ratio (y) = 0.78897 0.38647
# Poissons Ratio (z) = -0.78556 1.13168
#
# Static dielectric constant tensor:
#      x y z
#    x 1.704380 0.000000 -0.009760 
#    y 0.000000 1.674370 0.000000 
#    z -0.009760 0.000000 1.701510 
# 
# From -- ./inp_files/238263.got.cif
#   From: 2010.05.17/outbox.cif.g08.bks.cpg/sg12_120_cif.got.tgz:238263.got - 2010.06.03 13:09:07.
