data_PCOD9215182
_publ_section_title
;
Structure prediction by ZEFSAII (Michael W. Deem and Ramdas Pophale) SiO2 
 PCOD9215182
Probable space group: C 2/M
;
_chemical_formula_sum "Si O2"
_cell_formula_units_Z 42
_cell_length_a 19.026478
_cell_length_b 19.788886
_cell_length_c 15.282568
_cell_angle_alpha 90.000000
_cell_angle_beta 20.489139
_cell_angle_gamma 90.000000
_cell_volume 2014.100468
_symmetry_space_group_name_H-M "C 2/M"
_symmetry_group_IT_number 12
_symmetry_cell_setting 'monoclinic'
loop_
_space_group_symop_operation_xyz
x,y,z
-x,y,-z
-x,-y,-z
x,-y,z
1/2+x,1/2+y,z
1/2-x,1/2+y,-z
1/2-x,1/2-y,-z
1/2+x,1/2-y,z
loop_
_atom_site_type_symbol
_atom_site_label
_atom_site_fract_x
_atom_site_fract_y
_atom_site_fract_z
Si Si1 0.359398 0.322450 0.384877
Si Si2 0.988945 0.578649 0.784563
Si Si3 0.170576 0.194319 0.164460
Si Si4 0.376593 0.903004 0.559848
Si Si5 0.841141 0.219758 0.115543
Si Si6 0.000000 0.000000 0.000000
O O1 0.250000 0.250000 0.500000
O O2 0.195313 0.381859 0.568392
O O3 0.462614 0.324705 0.359972
O O4 0.527494 0.322937 0.110567
O O5 0.983688 0.500000 0.818631
O O6 0.989180 0.582322 0.679409
O O7 0.803165 0.626885 0.023085
O O8 0.250000 0.250000 0.000000
O O9 0.207781 0.230887 0.212909
O O10 0.500000 0.923637 0.500000
O O11 0.172653 0.942727 0.787901
O O12 0.308329 0.826273 0.653678
O O13 0.000000 0.249711 0.000000
#
# Coordination Sequence:
#
# PCOD9215182 Si02
#       6
#     8   8   8   8   8   2
#     4  11  21  41  62  87 125 167 213 258 300 371
#     4  12  24  40  63  92 129 169 206 257 317 369
#     4  10  22  41  63  88 122 168 218 253 304 371
#     4  12  24  38  56  87 131 167 199 248 309 376
#     4  11  21  37  64  89 119 159 212 258 305 361
#     4  12  22  40  48  82 136 172 194 234 312 392
#
# _framework density 20.852981
#
# number of rings (size 3 to 8) (size 9 to 14) (size 15 to 20)
#    0.000    0.762    7.619    2.571    0.000    0.762 
#    0.000    0.000    0.000    0.571    0.000    1.333 
#    0.000    0.000    0.000    0.000    0.000    0.000 
#
# Total GULP energy -116967.336929 kJ/mol
# GULP energy per Si atom -5569.873187 kJ/mol
# Density = 2.080552 g / cm^3
# Si number density = 20.852981 Si / 1000 Ang^3
#
#
#
# Elastic Constant Matrix: (Units=GPa)
#
#
# Indices 1 2 3 4 5 6 
#
# 1 120.6324 35.7241 9.0921 -0.0385 -31.9701 -0.0022
# 2 35.7241 151.1946 36.1690 -0.0030 -16.8131 0.0170
# 3 9.0921 36.1690 47.5315 -0.0193 -14.5799 -0.0058
# 4 -0.0385 -0.0030 -0.0193 23.8673 0.0384 16.6973
# 5 -31.9701 -16.8131 -14.5799 0.0384 22.2744 -0.0030
# 6 -0.0022 0.0170 -0.0058 16.6973 -0.0030 53.3841
#
#
#
# Elastic Compliance Matrix: (Units=1/GPa)
#
#
# Indices 1 2 3 4 5 6 
#
# 1 0.014714 -0.002347 0.006139 -0.000015 0.023366 0.000008
# 2 -0.002347 0.008582 -0.006416 -0.000005 -0.001090 -0.000002
# 3 0.006139 -0.006416 0.032486 -0.000013 0.025232 0.000011
# 4 -0.000015 -0.000005 -0.000013 0.053635 -0.000128 -0.016776
# 5 0.023366 -0.001090 0.025232 -0.000128 0.094125 0.000049
# 6 0.000008 -0.000002 0.000011 -0.016776 0.000049 0.023979
#
#
# Mechanical properties :
#
#
# Convention : Reuss Voigt Hill
#
# Bulk Modulus (GPa) = 19.78850 53.48097 36.63473
# Shear Modulus (GPa) = 20.03082 35.79671 27.91377
#
# Velocity S-wave (km/s) = 3.10267 4.14771 3.66266
# Velocity P-wave (km/s) = 4.72711 6.97426 5.95760
#
# Compressibility (1/GPa) = 0.05053441
#
# Stress axis : x y z
#
# Youngs Moduli (GPa) = 67.96022 116.52112 30.78208
#
# Poissons Ratio (x) = 0.27346 -0.18896
# Poissons Ratio (y) = 0.15949 0.19750
# Poissons Ratio (z) = -0.41718 0.74760
#
# Static dielectric constant tensor:
#      x y z
#    x 1.782420 0.000060 0.028310 
#    y 0.000060 2.281780 0.000530 
#    z 0.028310 0.000530 1.831800 
# 
# From -- ./inp_files/217595.got.cif
#   From: 2010.05.17/outbox.cif.g08.bks.cpg/sg12_109_cif.got.tgz:217595.got - 2010.06.03 13:09:07.
