data_PCOD9215929
_publ_section_title
;
Structure prediction by ZEFSAII (Michael W. Deem and Ramdas Pophale) SiO2 
 PCOD9215929
Probable space group: C 2/M
;
_chemical_formula_sum "Si O2"
_cell_formula_units_Z 50
_cell_length_a 32.436223
_cell_length_b 14.086084
_cell_length_c 18.429293
_cell_angle_alpha 90.000000
_cell_angle_beta 17.756805
_cell_angle_gamma 90.000000
_cell_volume 2568.011131
_symmetry_space_group_name_H-M "C 2/M"
_symmetry_group_IT_number 12
_symmetry_cell_setting 'monoclinic'
loop_
_space_group_symop_operation_xyz
x,y,z
-x,y,-z
-x,-y,-z
x,-y,z
1/2+x,1/2+y,z
1/2-x,1/2+y,-z
1/2-x,1/2-y,-z
1/2+x,1/2-y,z
loop_
_atom_site_type_symbol
_atom_site_label
_atom_site_fract_x
_atom_site_fract_y
_atom_site_fract_z
Si Si1 0.103140 0.642398 0.715873
Si Si2 0.000000 0.500000 0.000000
Si Si3 0.125531 0.750530 0.113427
Si Si4 0.087551 0.138230 0.781897
Si Si5 0.879072 0.104161 0.009545
Si Si6 0.093192 0.609525 0.562447
Si Si7 0.146395 0.887998 0.217010
O O1 0.093107 0.748938 0.761131
O O2 0.257235 0.607086 0.471088
O O3 0.076077 0.633186 0.675923
O O4 0.003246 0.581172 0.931101
O O5 0.137451 0.828451 0.157154
O O6 0.991990 0.685249 0.340618
O O7 0.121647 0.811234 0.046412
O O8 0.247032 0.674128 0.915079
O O9 0.000000 0.114510 0.000000
O O10 0.011037 0.103333 0.838662
O O11 0.750115 0.116346 0.278072
O O12 0.866395 0.000000 0.994934
O O13 0.050867 0.500000 0.620486
O O14 0.000000 0.886185 0.500000
O O15 0.184497 0.000000 0.144250
#
# Coordination Sequence:
#
# PCOD9215929 Si02
#       7
#     8   2   8   8   8   8   8
#     4  11  23  38  60  87 124 165 214 270 309 364
#     4  12  24  40  58  88 118 164 220 274 308 368
#     4  11  22  41  65  92 126 161 197 250 316 375
#     4  11  22  40  62  86 122 173 216 257 316 362
#     4  11  24  38  60  93 125 160 213 263 305 361
#     4  11  22  38  60  90 124 163 206 256 312 366
#     4  10  22  42  68  94 122 158 200 245 304 382
#
# _framework density 19.470320000000001
#
# number of rings (size 3 to 8) (size 9 to 14) (size 15 to 20)
#    0.000    1.120    4.800    1.920    1.120    0.320 
#    0.000    0.000    3.520    7.680    0.000    0.000 
#    0.000    0.000    0.000    0.000    0.000    0.000 
#
# Total GULP energy -139311.366034 kJ/mol
# GULP energy per Si atom -5572.454641 kJ/mol
# Density = 1.942600 g / cm^3
# Si number density = 19.470320 Si / 1000 Ang^3
#
#
#
# Elastic Constant Matrix: (Units=GPa)
#
#
# Indices 1 2 3 4 5 6 
#
# 1 71.8247 37.3456 7.5485 -0.0009 -9.5717 0.0005
# 2 37.3456 151.3056 17.4251 -0.0014 -5.3359 0.0007
# 3 7.5485 17.4251 34.7778 -0.0026 -13.1962 0.0015
# 4 -0.0009 -0.0014 -0.0026 6.7234 0.0003 -4.0788
# 5 -9.5717 -5.3359 -13.1962 0.0003 27.8851 -0.0001
# 6 0.0005 0.0007 0.0015 -4.0788 -0.0001 11.4686
#
#
#
# Elastic Compliance Matrix: (Units=1/GPa)
#
#
# Indices 1 2 3 4 5 6 
#
# 1 0.016629 -0.003960 0.000309 0.000001 0.005096 0.000000
# 2 -0.003960 0.007960 -0.003738 0.000000 -0.001605 0.000000
# 3 0.000309 -0.003738 0.036967 0.000013 0.016885 0.000000
# 4 0.000001 0.000000 0.000013 0.189653 0.000005 0.067450
# 5 0.005096 -0.001605 0.016885 0.000005 0.045294 0.000000
# 6 0.000000 0.000000 0.000000 0.067450 0.000000 0.111183
#
#
# Mechanical properties :
#
#
# Convention : Reuss Voigt Hill
#
# Bulk Modulus (GPa) = 21.37818 42.50515 31.94166
# Shear Modulus (GPa) = 11.41403 22.25469 16.83436
#
# Velocity S-wave (km/s) = 2.42384 3.38450 2.94363
# Velocity P-wave (km/s) = 4.34017 6.09519 5.29095
#
# Compressibility (1/GPa) = 0.04677668
#
# Stress axis : x y z
#
# Youngs Moduli (GPa) = 60.13743 125.62072 27.05150
#
# Poissons Ratio (x) = 0.49747 -0.00835
# Poissons Ratio (y) = 0.23815 0.10112
# Poissons Ratio (z) = -0.01856 0.46957
#
# Static dielectric constant tensor:
#      x y z
#    x 1.660260 0.000000 -0.016100 
#    y 0.000000 1.483700 0.000000 
#    z -0.016100 0.000000 1.685330 
# 
# From -- ./inp_files/296757.got.cif
#   From: 2010.05.17/outbox.cif.g08.bks.cpg/sg12_149_cif.got.tgz:296757.got - 2010.06.03 13:09:07.
