data_PCOD9215708
_publ_section_title
;
Structure prediction by ZEFSAII (Michael W. Deem and Ramdas Pophale) SiO2 
 PCOD9215708
Probable space group: C 2/M
;
_chemical_formula_sum "Si O2"
_cell_formula_units_Z 56
_cell_length_a 8.702569
_cell_length_b 26.262355
_cell_length_c 17.656606
_cell_angle_alpha 90.000000
_cell_angle_beta 142.435963
_cell_angle_gamma 90.000000
_cell_volume 2460.182590
_symmetry_space_group_name_H-M "C 2/M"
_symmetry_group_IT_number 12
_symmetry_cell_setting 'monoclinic'
loop_
_space_group_symop_operation_xyz
x,y,z
-x,y,-z
-x,-y,-z
x,-y,z
1/2+x,1/2+y,z
1/2-x,1/2+y,-z
1/2-x,1/2-y,-z
1/2+x,1/2-y,z
loop_
_atom_site_type_symbol
_atom_site_label
_atom_site_fract_x
_atom_site_fract_y
_atom_site_fract_z
Si Si1 0.499527 0.131337 0.870993
Si Si2 0.651569 0.556253 0.908646
Si Si3 0.798293 0.940889 0.487081
Si Si4 0.184190 0.584192 0.796394
Si Si5 0.701983 0.233381 0.871930
Si Si6 0.799341 0.188059 0.762794
Si Si7 0.069679 0.118595 0.312127
O O1 0.536022 0.091494 0.816060
O O2 0.612271 0.184265 0.884904
O O3 0.208462 0.139888 0.776454
O O4 0.657509 0.101797 0.996554
O O5 0.761647 0.500000 0.943959
O O6 0.439626 0.553480 0.891026
O O7 0.499822 0.573503 0.774282
O O8 0.522183 0.934961 0.343491
O O9 0.000000 0.926782 0.500000
O O10 0.820446 0.905088 0.568659
O O11 0.844849 0.000000 0.525395
O O12 0.294235 0.639453 0.815597
O O13 0.643346 0.225487 0.758468
O O14 0.553561 0.281367 0.846229
O O15 0.000000 0.239202 0.000000
O O16 0.759675 0.160218 0.665856
#
# Coordination Sequence:
#
# PCOD9215708 Si02
#       7
#     8   8   8   8   8   8   8
#     4  11  22  39  64  94 135 174 212 269 326 390
#     4  11  24  38  57  92 137 179 212 260 333 400
#     4  11  23  42  71  97 123 172 229 275 315 374
#     4  10  22  42  63  95 127 169 219 275 323 384
#     4  11  21  39  64  96 129 172 224 267 317 397
#     4  10  23  37  63  93 126 162 209 268 334 375
#     4  11  23  41  62  94 134 171 215 273 325 384
#
# _framework density 22.762537999999999
#
# number of rings (size 3 to 8) (size 9 to 14) (size 15 to 20)
#    0.000    1.286    1.429    5.571    0.000    8.000 
#    0.000    3.571    0.000   15.429    0.000    0.000 
#    0.000    0.000    0.000    0.000    0.000    0.000 
#
# Total GULP energy -156192.543269 kJ/mol
# GULP energy per Si atom -5578.305117 kJ/mol
# Density = 2.271073 g / cm^3
# Si number density = 22.762538 Si / 1000 Ang^3
#
#
#
# Elastic Constant Matrix: (Units=GPa)
#
#
# Indices 1 2 3 4 5 6 
#
# 1 138.8405 30.2842 32.3636 0.0002 -14.6538 0.0001
# 2 30.2842 77.2087 13.8326 0.0012 -4.4729 0.0003
# 3 32.3636 13.8326 79.3348 0.0057 -18.8746 0.0006
# 4 0.0002 0.0012 0.0057 -19.6978 0.0009 -11.0435
# 5 -14.6538 -4.4729 -18.8746 0.0009 40.0198 0.0001
# 6 0.0001 0.0003 0.0006 -11.0435 0.0001 20.1708
#
#
#
# Elastic Compliance Matrix: (Units=1/GPa)
#
#
# Indices 1 2 3 4 5 6 
#
# 1 0.008598 -0.002807 -0.002640 -0.000001 0.001589 0.000000
# 2 -0.002807 0.014293 -0.001364 0.000000 -0.000074 0.000000
# 3 -0.002640 -0.001364 0.015379 0.000004 0.006134 0.000002
# 4 -0.000001 0.000000 0.000004 -0.038844 0.000003 -0.021267
# 5 0.001589 -0.000074 0.006134 0.000003 0.028454 0.000001
# 6 0.000000 0.000000 0.000002 -0.021267 0.000001 0.037933
#
#
# Mechanical properties :
#
#
# Convention : Reuss Voigt Hill
#
# Bulk Modulus (GPa) = 40.57328 49.81610 45.19469
# Shear Modulus (GPa) = 57.04341 22.69215 39.86778
#
# Velocity S-wave (km/s) = 5.01145 3.16081 4.18959
# Velocity P-wave (km/s) = 7.16585 5.93747 6.58039
#
# Compressibility (1/GPa) = 0.02464677
#
# Stress axis : x y z
#
# Youngs Moduli (GPa) = 116.30662 69.96305 65.02401
#
# Poissons Ratio (x) = 0.19642 0.17165
# Poissons Ratio (y) = 0.32652 0.08872
# Poissons Ratio (z) = 0.30702 0.09546
#
# Static dielectric constant tensor:
#      x y z
#    x 1.924670 0.000000 -0.043310 
#    y 0.000000 1.882600 0.000000 
#    z -0.043310 0.000000 1.847820 
# 
# From -- ./inp_files/259852.got.cif
#   From: 2010.05.17/outbox.cif.g08.bks.cpg/sg12_130_cif.got.tgz:259852.got - 2010.06.03 13:09:07.
