data_PCOD9215800
_publ_section_title
;
Structure prediction by ZEFSAII (Michael W. Deem and Ramdas Pophale) SiO2 
 PCOD9215800
Probable space group: C 2/M
;
_chemical_formula_sum "Si O2"
_cell_formula_units_Z 48
_cell_length_a 14.966294
_cell_length_b 28.251093
_cell_length_c 5.659425
_cell_angle_alpha 90.000000
_cell_angle_beta 61.015371
_cell_angle_gamma 90.000000
_cell_volume 2093.175568
_symmetry_space_group_name_H-M "C 2/M"
_symmetry_group_IT_number 12
_symmetry_cell_setting 'monoclinic'
loop_
_space_group_symop_operation_xyz
x,y,z
-x,y,-z
-x,-y,-z
x,-y,z
1/2+x,1/2+y,z
1/2-x,1/2+y,-z
1/2-x,1/2-y,-z
1/2+x,1/2-y,z
loop_
_atom_site_type_symbol
_atom_site_label
_atom_site_fract_x
_atom_site_fract_y
_atom_site_fract_z
Si Si1 0.439909 0.443844 0.330320
Si Si2 0.759953 0.288703 0.184276
Si Si3 0.883962 0.793374 0.229076
Si Si4 0.888580 0.365389 0.114193
Si Si5 0.231083 0.115433 0.689807
Si Si6 0.609492 0.056092 0.232524
O O1 0.500000 0.431056 0.500000
O O2 0.417175 0.500000 0.380260
O O3 0.339163 0.412969 0.410185
O O4 0.500000 0.437693 0.000000
O O5 0.837308 0.258999 0.252856
O O6 0.655295 0.302269 0.451489
O O7 0.821495 0.334492 0.022111
O O8 0.750000 0.250000 0.000000
O O9 0.835444 0.838662 0.151403
O O10 0.000000 0.792449 0.000000
O O11 0.827123 0.362339 0.432173
O O12 0.895435 0.418595 0.013627
O O13 0.000000 0.345634 0.000000
O O14 0.286621 0.077057 0.784583
O O15 0.500000 0.068317 0.500000
O O16 0.615874 0.000000 0.213821
#
# Coordination Sequence:
#
# PCOD9215800 Si02
#       6
#     8   8   8   8   8   8
#     4  10  23  43  66  96 134 183 237 292 358 429
#     4  10  22  42  66  97 133 175 226 282 353 424
#     4  10  22  42  65  97 132 173 227 283 344 421
#     4  11  23  42  65  96 133 178 226 284 358 429
#     4  11  23  42  66  94 134 177 230 289 355 425
#     4  11  24  41  64  96 133 178 232 292 359 427
#
# _framework density 22.931664000000001
#
# number of rings (size 3 to 8) (size 9 to 14) (size 15 to 20)
#    0.000    1.500    1.667    2.500    2.333    2.333 
#    9.000    0.000    0.000    0.000    0.000    0.000 
#    0.000    0.000    0.000    0.000    0.000    0.000 
#
# Total GULP energy -133759.688180 kJ/mol
# GULP energy per Si atom -5573.320341 kJ/mol
# Density = 2.287947 g / cm^3
# Si number density = 22.931664 Si / 1000 Ang^3
#
#
#
# Elastic Constant Matrix: (Units=GPa)
#
#
# Indices 1 2 3 4 5 6 
#
# 1 108.8049 35.8021 55.5133 0.0000 -17.9435 0.0000
# 2 35.8021 109.4186 24.6675 0.0000 -14.3322 0.0000
# 3 55.5133 24.6675 91.9207 0.0000 -32.6130 0.0000
# 4 0.0000 0.0000 0.0000 29.4653 0.0000 1.9939
# 5 -17.9435 -14.3322 -32.6130 0.0000 44.3950 0.0000
# 6 0.0000 0.0000 0.0000 1.9939 0.0000 38.5446
#
#
#
# Elastic Compliance Matrix: (Units=1/GPa)
#
#
# Indices 1 2 3 4 5 6 
#
# 1 0.014130 -0.002942 -0.008189 0.000000 -0.001254 0.000000
# 2 -0.002942 0.010431 -0.000338 0.000000 0.001930 0.000000
# 3 -0.008189 -0.000338 0.019885 0.000000 0.011189 0.000000
# 4 0.000000 0.000000 0.000000 0.034057 0.000000 -0.001762
# 5 -0.001254 0.001930 0.011189 0.000000 0.030861 0.000000
# 6 0.000000 0.000000 0.000000 -0.001762 0.000000 0.026035
#
#
# Mechanical properties :
#
#
# Convention : Reuss Voigt Hill
#
# Bulk Modulus (GPa) = 46.49295 60.23448 53.36371
# Shear Modulus (GPa) = 30.21051 35.42505 32.81778
#
# Velocity S-wave (km/s) = 3.63356 3.93467 3.78711
# Velocity P-wave (km/s) = 6.15810 6.85318 6.51492
#
# Compressibility (1/GPa) = 0.02150864
#
# Stress axis : x y z
#
# Youngs Moduli (GPa) = 70.77156 95.87098 50.28930
#
# Poissons Ratio (x) = 0.28200 0.41183
# Poissons Ratio (y) = 0.20817 0.01699
# Poissons Ratio (z) = 0.57956 0.03239
#
# Static dielectric constant tensor:
#      x y z
#    x 1.992470 0.000000 0.101100 
#    y 0.000000 1.896960 0.000000 
#    z 0.101100 0.000000 1.989160 
# 
# From -- ./inp_files/12800.got.cif
#   From: 2010.05.17/outbox.cif.g08.bks.cpg/sg12_7_cif.got.tgz:12800.got - 2010.06.03 13:09:07.
