data_PCOD9215187
_publ_section_title
;
Structure prediction by ZEFSAII (Michael W. Deem and Ramdas Pophale) SiO2 
 PCOD9215187
Probable space group: C 2/M
;
_chemical_formula_sum "Si O2"
_cell_formula_units_Z 58
_cell_length_a 25.068122
_cell_length_b 9.838167
_cell_length_c 12.238591
_cell_angle_alpha 90.000000
_cell_angle_beta 81.083389
_cell_angle_gamma 90.000000
_cell_volume 2981.858139
_symmetry_space_group_name_H-M "C 2/M"
_symmetry_group_IT_number 12
_symmetry_cell_setting 'monoclinic'
loop_
_space_group_symop_operation_xyz
x,y,z
-x,y,-z
-x,-y,-z
x,-y,z
1/2+x,1/2+y,z
1/2-x,1/2+y,-z
1/2-x,1/2-y,-z
1/2+x,1/2-y,z
loop_
_atom_site_type_symbol
_atom_site_label
_atom_site_fract_x
_atom_site_fract_y
_atom_site_fract_z
Si Si1 0.211959 0.338058 0.934202
Si Si2 0.554329 0.221277 0.821926
Si Si3 0.548478 0.341574 0.239756
Si Si4 0.749649 0.162084 0.674224
Si Si5 0.638767 0.840502 0.611636
Si Si6 0.500000 0.000000 0.000000
Si Si7 0.389144 0.349841 0.009544
Si Si8 0.127830 0.164759 0.412769
O O1 0.212056 0.500000 0.956782
O O2 0.233171 0.316462 0.804753
O O3 0.153135 0.272016 0.965251
O O4 0.250000 0.250000 0.000000
O O5 0.506694 0.260473 0.754252
O O6 0.604522 0.170537 0.733948
O O7 0.573735 0.342571 0.894853
O O8 0.529907 0.115639 0.915103
O O9 0.535890 0.500000 0.260950
O O10 0.588613 0.300155 0.324349
O O11 0.578316 0.330426 0.113085
O O12 0.699747 0.212210 0.616777
O O13 0.810507 0.208810 0.633992
O O14 0.750613 0.000000 0.656694
O O15 0.613388 0.745771 0.526716
O O16 0.640342 0.000000 0.579303
O O17 0.362919 0.500000 0.011694
O O18 0.126388 0.000000 0.427116
#
# Coordination Sequence:
#
# PCOD9215187 Si02
#       8
#     8   8   8   8   8   2   8   8
#     4  11  22  37  60  91 130 168 207 257 318 379
#     4  12  23  40  65  93 126 166 214 257 320 386
#     4  10  22  41  63  88 125 167 211 264 321 378
#     4   9  19  39  64  86 121 166 206 255 320 376
#     4  11  23  41  63  92 126 161 207 263 317 376
#     4  12  24  40  66  94 128 168 214 256 322 396
#     4  11  22  38  63  93 126 162 211 261 318 384
#     4  10  22  42  65  89 119 166 215 260 313 377
#
# _framework density 19.450959999999998
#
# number of rings (size 3 to 8) (size 9 to 14) (size 15 to 20)
#    0.000    1.379    3.448    2.069    0.966    4.966 
#    1.241    4.828    0.000    0.000    0.000    0.000 
#    0.000    0.000    0.000    0.000    0.000    0.000 
#
# Total GULP energy -161583.068887 kJ/mol
# GULP energy per Si atom -5571.829962 kJ/mol
# Density = 1.940669 g / cm^3
# Si number density = 19.450960 Si / 1000 Ang^3
#
#
#
# Elastic Constant Matrix: (Units=GPa)
#
#
# Indices 1 2 3 4 5 6 
#
# 1 93.4360 27.8819 34.0002 0.0000 16.3005 0.0000
# 2 27.8819 75.3072 26.2005 0.0000 8.6413 0.0000
# 3 34.0002 26.2005 60.0398 0.0000 18.9994 0.0000
# 4 0.0000 0.0000 0.0000 8.9800 0.0000 -13.5535
# 5 16.3005 8.6413 18.9994 0.0000 33.9449 0.0000
# 6 0.0000 0.0000 0.0000 -13.5535 0.0000 -66.3858
#
#
#
# Elastic Compliance Matrix: (Units=1/GPa)
#
#
# Indices 1 2 3 4 5 6 
#
# 1 0.014195 -0.002884 -0.005901 0.000000 -0.002780 0.000000
# 2 -0.002884 0.016243 -0.005572 0.000000 0.000368 0.000000
# 3 -0.005901 -0.005572 0.025621 0.000000 -0.010088 0.000000
# 4 0.000000 0.000000 0.000000 0.085127 0.000000 -0.017380
# 5 -0.002780 0.000368 -0.010088 0.000000 0.036347 0.000000
# 6 0.000000 0.000000 0.000000 -0.017380 0.000000 -0.011515
#
#
# Mechanical properties :
#
#
# Convention : Reuss Voigt Hill
#
# Bulk Modulus (GPa) = 36.56710 44.99425 40.78068
# Shear Modulus (GPa) = 24.52833 4.68785 14.60809
#
# Velocity S-wave (km/s) = 3.55496 1.55413 2.74345
# Velocity P-wave (km/s) = 5.97417 5.13836 5.57196
#
# Compressibility (1/GPa) = 0.02734699
#
# Stress axis : x y z
#
# Youngs Moduli (GPa) = 70.44661 61.56561 39.03064
#
# Poissons Ratio (x) = 0.17754 0.23030
# Poissons Ratio (y) = 0.20315 0.21746
# Poissons Ratio (z) = 0.41567 0.34302
#
# Static dielectric constant tensor:
#      x y z
#    x 1.725110 0.000000 0.012780 
#    y 0.000000 1.658650 0.000000 
#    z 0.012780 0.000000 1.661870 
# 
# From -- ./inp_files/186586.got.cif
#   From: 2010.05.17/outbox.cif.g08.bks.cpg/sg12_94_cif.got.tgz:186586.got - 2010.06.03 13:09:07.
