data_PCOD9215052
_publ_section_title
;
Structure prediction by ZEFSAII (Michael W. Deem and Ramdas Pophale) SiO2 
 PCOD9215052
Probable space group: C 2/M
;
_chemical_formula_sum "Si O2"
_cell_formula_units_Z 36
_cell_length_a 11.756913
_cell_length_b 21.499750
_cell_length_c 8.869167
_cell_angle_alpha 90.000000
_cell_angle_beta 129.479605
_cell_angle_gamma 90.000000
_cell_volume 1730.385995
_symmetry_space_group_name_H-M "C 2/M"
_symmetry_group_IT_number 12
_symmetry_cell_setting 'monoclinic'
loop_
_space_group_symop_operation_xyz
x,y,z
-x,y,-z
-x,-y,-z
x,-y,z
1/2+x,1/2+y,z
1/2-x,1/2+y,-z
1/2-x,1/2-y,-z
1/2+x,1/2-y,z
loop_
_atom_site_type_symbol
_atom_site_label
_atom_site_fract_x
_atom_site_fract_y
_atom_site_fract_z
Si Si1 0.211647 0.683463 0.041375
Si Si2 0.536698 0.500000 0.286716
Si Si3 0.984760 0.868264 0.149540
Si Si4 0.860835 0.217532 0.475358
Si Si5 0.744889 0.000000 0.249126
Si Si6 0.000000 0.606044 0.000000
O O1 0.313227 0.634244 0.041750
O O2 0.263707 0.690144 0.258143
O O3 0.050405 0.653729 0.910495
O O4 0.250000 0.750000 0.000000
O O5 0.546712 0.437291 0.200439
O O6 0.377332 0.500000 0.237770
O O7 0.664858 0.500000 0.519237
O O8 0.060179 0.833116 0.352127
O O9 0.000000 0.836341 0.000000
O O10 0.750000 0.250000 0.500000
O O11 0.000000 0.249420 0.500000
O O12 0.637451 0.059952 0.146721
#
# Coordination Sequence:
#
# PCOD9215052 Si02
#       6
#     8   4   8   8   4   4
#     4  11  24  38  64  97 133 173 216 274 332 411
#     4  11  21  42  65  96 128 167 227 279 347 398
#     4  11  23  41  65  93 127 174 222 275 342 404
#     4  10  23  41  62  94 130 175 224 275 339 408
#     4  10  22  40  71  96 129 172 226 292 327 415
#     4  11  22  40  66 102 130 171 226 270 344 395
#
# _framework density 20.804604999999999
#
# number of rings (size 3 to 8) (size 9 to 14) (size 15 to 20)
#    0.000    1.333    2.222    3.000   14.000    0.000 
#    0.000    0.000    0.000    1.333    0.000    0.000 
#    0.000    0.000    0.000    0.000    0.000    0.000 
#
# Total GULP energy -100305.184426 kJ/mol
# GULP energy per Si atom -5572.510246 kJ/mol
# Density = 2.075725 g / cm^3
# Si number density = 20.804605 Si / 1000 Ang^3
#
#
#
# Elastic Constant Matrix: (Units=GPa)
#
#
# Indices 1 2 3 4 5 6 
#
# 1 136.5247 31.8681 37.4409 0.0000 5.7542 0.0000
# 2 31.8681 90.9280 15.3287 0.0000 5.2716 0.0000
# 3 37.4409 15.3287 87.9750 0.0000 -11.7854 0.0000
# 4 0.0000 0.0000 0.0000 11.0759 0.0000 3.6866
# 5 5.7542 5.2716 -11.7854 0.0000 44.0465 0.0000
# 6 0.0000 0.0000 0.0000 3.6866 0.0000 38.2025
#
#
#
# Elastic Compliance Matrix: (Units=1/GPa)
#
#
# Indices 1 2 3 4 5 6 
#
# 1 0.008967 -0.002421 -0.003643 0.000000 -0.001857 0.000000
# 2 -0.002421 0.012149 -0.001285 0.000000 -0.001482 0.000000
# 3 -0.003643 -0.001285 0.013717 0.000000 0.004300 0.000000
# 4 0.000000 0.000000 0.000000 0.093282 0.000000 -0.009002
# 5 -0.001857 -0.001482 0.004300 0.000000 0.024274 0.000000
# 6 0.000000 0.000000 0.000000 -0.009002 0.000000 0.027045
#
#
# Mechanical properties :
#
#
# Convention : Reuss Voigt Hill
#
# Bulk Modulus (GPa) = 49.66471 53.85589 51.76030
# Shear Modulus (GPa) = 24.89497 34.05097 29.47297
#
# Velocity S-wave (km/s) = 3.46296 4.05001 3.76793
# Velocity P-wave (km/s) = 6.31769 6.91468 6.62292
#
# Compressibility (1/GPa) = 0.02013502
#
# Stress axis : x y z
#
# Youngs Moduli (GPa) = 111.51806 82.31320 72.90080
#
# Poissons Ratio (x) = 0.19928 0.26559
# Poissons Ratio (y) = 0.26998 0.09367
# Poissons Ratio (z) = 0.40628 0.10577
#
# Static dielectric constant tensor:
#      x y z
#    x 1.833450 0.000000 0.017310 
#    y 0.000000 1.806790 0.000000 
#    z 0.017310 0.000000 1.760620 
# 
# From -- ./inp_files/51090.got.cif
#   From: 2010.05.17/outbox.cif.g08.bks.cpg/sg12_26_cif.got.tgz:51090.got - 2010.06.03 13:09:07.
