data_PCOD9215168
_publ_section_title
;
Structure prediction by ZEFSAII (Michael W. Deem and Ramdas Pophale) SiO2 
 PCOD9215168
Probable space group: C 2/M
;
_chemical_formula_sum "Si O2"
_cell_formula_units_Z 44
_cell_length_a 4.963531
_cell_length_b 13.230775
_cell_length_c 31.754043
_cell_angle_alpha 90.000000
_cell_angle_beta 106.095532
_cell_angle_gamma 90.000000
_cell_volume 2003.587883
_symmetry_space_group_name_H-M "C 2/M"
_symmetry_group_IT_number 12
_symmetry_cell_setting 'monoclinic'
loop_
_space_group_symop_operation_xyz
x,y,z
-x,y,-z
-x,-y,-z
x,-y,z
1/2+x,1/2+y,z
1/2-x,1/2+y,-z
1/2-x,1/2-y,-z
1/2+x,1/2-y,z
loop_
_atom_site_type_symbol
_atom_site_label
_atom_site_fract_x
_atom_site_fract_y
_atom_site_fract_z
Si Si1 0.954519 0.000000 0.106343
Si Si2 0.807757 0.500000 0.613150
Si Si3 0.454652 0.682472 0.449860
Si Si4 0.714392 0.319928 0.838135
Si Si5 0.453347 0.317037 0.263372
Si Si6 0.376058 0.680822 0.948923
Si Si7 0.588229 0.500000 0.327834
O O1 0.824437 0.088625 0.131950
O O2 0.084424 0.088810 0.080763
O O3 0.688446 0.597498 0.584119
O O4 0.685671 0.500000 0.654926
O O5 0.141724 0.500000 0.630585
O O6 0.500000 0.647088 0.500000
O O7 0.748611 0.720978 0.444315
O O8 0.023586 0.275305 0.844326
O O9 0.599363 0.351554 0.786951
O O10 0.160506 0.278298 0.269259
O O11 0.583156 0.402586 0.297887
O O12 0.064709 0.723339 0.942564
O O13 0.500000 0.650647 0.000000
#
# Coordination Sequence:
#
# PCOD9215168 Si02
#       7
#     4   4   8   8   8   8   4
#     4  12  22  38  64  89 118 153 192 244 298 342
#     4  12  25  38  60  92 124 148 194 250 291 334
#     4  10  22  41  63  86 117 158 197 236 290 349
#     4  10  23  40  60  88 117 150 195 243 290 345
#     4  10  22  42  62  82 117 158 194 238 290 346
#     4  10  23  41  59  85 120 156 196 237 285 350
#     4  12  25  38  59  91 116 155 197 236 291 352
#
# _framework density 21.960605000000001
#
# number of rings (size 3 to 8) (size 9 to 14) (size 15 to 20)
#    0.000    1.455    0.000    4.364    0.000    7.273 
#    0.000   11.818    0.000    0.000    0.000    0.000 
#    0.000    0.000    0.000    0.000    0.000    0.000 
#
# Total GULP energy -122653.396349 kJ/mol
# GULP energy per Si atom -5575.154380 kJ/mol
# Density = 2.191062 g / cm^3
# Si number density = 21.960605 Si / 1000 Ang^3
#
#
#
# Elastic Constant Matrix: (Units=GPa)
#
#
# Indices 1 2 3 4 5 6 
#
# 1 69.3170 -3.0528 -2.8878 0.0000 0.0414 0.0000
# 2 -3.0528 92.7340 47.0638 0.0000 -3.4402 0.0000
# 3 -2.8878 47.0638 76.2216 0.0000 -4.4836 0.0000
# 4 0.0000 0.0000 0.0000 44.0009 0.0000 -10.4913
# 5 0.0414 -3.4402 -4.4836 0.0000 30.2479 0.0000
# 6 0.0000 0.0000 0.0000 -10.4913 0.0000 8.8050
#
#
#
# Elastic Compliance Matrix: (Units=1/GPa)
#
#
# Indices 1 2 3 4 5 6 
#
# 1 0.014455 0.000289 0.000373 0.000000 0.000068 0.000000
# 2 0.000289 0.015714 -0.009671 0.000000 0.000353 0.000000
# 3 0.000373 -0.009671 0.019208 0.000000 0.001747 0.000000
# 4 0.000000 0.000000 0.000000 0.031746 0.000000 0.037826
# 5 0.000068 0.000353 0.001747 0.000000 0.033359 0.000000
# 6 0.000000 0.000000 0.000000 0.037826 0.000000 0.158641
#
#
# Mechanical properties :
#
#
# Convention : Reuss Voigt Hill
#
# Bulk Modulus (GPa) = 31.88865 35.61323 33.75094
# Shear Modulus (GPa) = 16.57854 29.75405 23.16630
#
# Velocity S-wave (km/s) = 2.75056 3.68487 3.25145
# Velocity P-wave (km/s) = 4.96385 5.86143 5.43122
#
# Compressibility (1/GPa) = 0.03135912
#
# Stress axis : x y z
#
# Youngs Moduli (GPa) = 69.18162 63.63562 52.06117
#
# Poissons Ratio (x) = -0.01839 -0.01943
# Poissons Ratio (y) = -0.01999 0.50350
# Poissons Ratio (z) = -0.02582 0.61544
#
# Static dielectric constant tensor:
#      x y z
#    x 1.771910 0.000000 0.024040 
#    y 0.000000 1.737360 0.000000 
#    z 0.024040 0.000000 1.824770 
# 
# From -- ./inp_files/371384.got.cif
#   From: 2010.05.17/outbox.cif.g08.bks.cpg/sg12_186_cif.got.tgz:371384.got - 2010.06.03 13:09:07.
