data_PCOD9215715
_publ_section_title
;
Structure prediction by ZEFSAII (Michael W. Deem and Ramdas Pophale) SiO2 
 PCOD9215715
Probable space group: C 2/M
;
_chemical_formula_sum "Si O2"
_cell_formula_units_Z 64
_cell_length_a 15.866049
_cell_length_b 8.607252
_cell_length_c 34.096540
_cell_angle_alpha 90.000000
_cell_angle_beta 45.611556
_cell_angle_gamma 90.000000
_cell_volume 3327.476575
_symmetry_space_group_name_H-M "C 2/M"
_symmetry_group_IT_number 12
_symmetry_cell_setting 'monoclinic'
loop_
_space_group_symop_operation_xyz
x,y,z
-x,y,-z
-x,-y,-z
x,-y,z
1/2+x,1/2+y,z
1/2-x,1/2+y,-z
1/2-x,1/2-y,-z
1/2+x,1/2-y,z
loop_
_atom_site_type_symbol
_atom_site_label
_atom_site_fract_x
_atom_site_fract_y
_atom_site_fract_z
Si Si1 0.690926 0.184760 0.058346
Si Si2 0.625475 0.814751 0.940576
Si Si3 0.553487 0.812281 0.825821
Si Si4 0.008835 0.687493 0.242933
Si Si5 0.562016 0.188993 0.439132
Si Si6 0.830324 0.186345 0.365452
Si Si7 0.366873 0.186999 0.440467
Si Si8 0.780135 0.185233 0.168353
O O1 0.772546 0.231838 0.068115
O O2 0.559027 0.239155 0.111429
O O3 0.686416 0.000000 0.056272
O O4 0.750000 0.250000 0.000000
O O5 0.640808 0.765843 0.890757
O O6 0.637568 0.000000 0.940455
O O7 0.500000 0.770139 0.000000
O O8 0.528628 0.769321 0.788993
O O9 0.669171 0.737022 0.806471
O O10 0.561253 0.000000 0.825418
O O11 0.002581 0.500000 0.247928
O O12 0.144617 0.732535 0.206117
O O13 0.923098 0.761014 0.302702
O O14 0.500000 0.237770 0.500000
O O15 0.698169 0.239121 0.396118
O O16 0.481358 0.237920 0.428598
O O17 0.562130 0.000000 0.438798
O O18 0.864487 0.253977 0.396741
O O19 0.828340 0.000000 0.369155
O O20 0.250000 0.250000 0.500000
O O21 0.363769 0.000000 0.441800
O O22 0.787860 0.000000 0.161249
#
# Coordination Sequence:
#
# PCOD9215715 Si02
#       8
#     8   8   8   8   8   8   8   8
#     4  11  22  38  59  88 124 160 200 252 311 373
#     4  11  23  38  58  88 124 160 201 254 313 369
#     4  10  22  42  64  87 122 162 202 254 311 364
#     4  10  23  45  64  85 124 166 203 252 310 361
#     4   9  18  36  60  86 123 163 197 241 299 357
#     4  11  23  40  63  92 122 160 210 253 298 363
#     4  11  21  37  62  91 126 165 203 250 306 361
#     4  11  23  41  65  91 120 161 208 253 309 375
#
# _framework density 19.233794
#
# number of rings (size 3 to 8) (size 9 to 14) (size 15 to 20)
#    0.000    1.500    2.500    2.625    0.000    7.500 
#    0.000    6.875    0.000    0.000    0.000    0.000 
#    0.000    0.000    0.000    0.000    0.000    0.000 
#
# Total GULP energy -178837.399175 kJ/mol
# GULP energy per Si atom -5588.668724 kJ/mol
# Density = 1.919002 g / cm^3
# Si number density = 19.233794 Si / 1000 Ang^3
#
#
#
# Elastic Constant Matrix: (Units=GPa)
#
#
# Indices 1 2 3 4 5 6 
#
# 1 164.9842 25.2739 70.5044 0.0000 9.3514 0.0002
# 2 25.2739 27.0644 31.1121 -0.0003 1.9919 0.0012
# 3 70.5044 31.1121 136.8370 0.0002 2.9968 0.0001
# 4 0.0000 -0.0003 0.0002 33.7361 -0.0001 3.1611
# 5 9.3514 1.9919 2.9968 -0.0001 26.9632 -0.0002
# 6 0.0002 0.0012 0.0001 3.1611 -0.0002 31.2180
#
#
#
# Elastic Compliance Matrix: (Units=1/GPa)
#
#
# Indices 1 2 3 4 5 6 
#
# 1 0.008167 -0.003632 -0.003334 0.000000 -0.002193 0.000000
# 2 -0.003632 0.051800 -0.009874 0.000001 -0.001469 -0.000002
# 3 -0.003334 -0.009874 0.011257 0.000000 0.000635 0.000000
# 4 0.000000 0.000001 0.000000 0.029926 0.000000 -0.003030
# 5 -0.002193 -0.001469 0.000635 0.000000 0.037886 0.000000
# 6 0.000000 -0.000002 0.000000 -0.003030 0.000000 0.032340
#
#
# Mechanical properties :
#
#
# Convention : Reuss Voigt Hill
#
# Bulk Modulus (GPa) = 26.63612 64.74071 45.68841
# Shear Modulus (GPa) = 22.98118 31.84980 27.41549
#
# Velocity S-wave (km/s) = 3.46039 4.07373 3.77952
# Velocity P-wave (km/s) = 5.46300 7.47395 6.54616
#
# Compressibility (1/GPa) = 0.03754301
#
# Stress axis : x y z
#
# Youngs Moduli (GPa) = 122.44880 19.30514 88.83529
#
# Poissons Ratio (x) = 0.07012 0.29617
# Poissons Ratio (y) = 0.44479 0.87713
# Poissons Ratio (z) = 0.40823 0.19061
#
# Static dielectric constant tensor:
#      x y z
#    x 1.686680 0.000000 0.008780 
#    y 0.000000 1.655640 0.000000 
#    z 0.008780 0.000000 1.660310 
# 
# From -- ./inp_files/375427.got.cif
#   From: 2010.05.17/outbox.cif.g08.bks.cpg/sg12_188_cif.got.tgz:375427.got - 2010.06.03 13:09:07.
