data_PCOD9215861
_publ_section_title
;
Structure prediction by ZEFSAII (Michael W. Deem and Ramdas Pophale) SiO2 
 PCOD9215861
Probable space group: C 2/M
;
_chemical_formula_sum "Si O2"
_cell_formula_units_Z 44
_cell_length_a 20.490817
_cell_length_b 9.873400
_cell_length_c 9.982550
_cell_angle_alpha 90.000000
_cell_angle_beta 100.834639
_cell_angle_gamma 90.000000
_cell_volume 1983.607949
_symmetry_space_group_name_H-M "C 2/M"
_symmetry_group_IT_number 12
_symmetry_cell_setting 'monoclinic'
loop_
_space_group_symop_operation_xyz
x,y,z
-x,y,-z
-x,-y,-z
x,-y,z
1/2+x,1/2+y,z
1/2-x,1/2+y,-z
1/2-x,1/2-y,-z
1/2+x,1/2-y,z
loop_
_atom_site_type_symbol
_atom_site_label
_atom_site_fract_x
_atom_site_fract_y
_atom_site_fract_z
Si Si1 0.543216 0.000000 0.223550
Si Si2 0.405112 0.500000 0.569617
Si Si3 0.451186 0.746572 0.094267
Si Si4 0.846490 0.715505 0.633475
Si Si5 0.686932 0.155343 0.955265
Si Si6 0.558401 0.500000 0.710307
Si Si7 0.280151 0.847785 0.326439
O O1 0.488381 0.879950 0.164017
O O2 0.598281 0.882817 0.287335
O O3 0.375872 0.364250 0.620410
O O4 0.482900 0.500000 0.630560
O O5 0.396037 0.500000 0.404600
O O6 0.380921 0.793906 0.005362
O O7 0.434665 0.633241 0.197016
O O8 0.500000 0.688307 0.000000
O O9 0.778997 0.738011 0.692471
O O10 0.822255 0.666290 0.477597
O O11 0.676298 0.160750 0.790126
O O12 0.700235 0.000000 0.998889
O O13 0.750000 0.250000 0.000000
O O14 0.250988 0.000000 0.312739
#
# Coordination Sequence:
#
# PCOD9215861 Si02
#       7
#     4   4   8   8   8   4   8
#     4  12  25  43  73 106 142 182 239 297 364 415
#     4  11  22  41  67  98 142 172 233 282 355 433
#     4  12  27  49  72 102 142 187 247 297 351 435
#     4  11  22  42  70 102 138 187 225 292 361 422
#     4  11  27  47  68 100 141 184 235 293 348 417
#     4  11  25  44  67 102 131 182 227 294 355 416
#     4  10  22  42  67 100 142 179 237 283 351 429
#
# _framework density 22.181802999999999
#
# number of rings (size 3 to 8) (size 9 to 14) (size 15 to 20)
#    0.000    0.909    4.545    1.636    3.818    0.000 
#    1.636    3.636    0.000    0.000    0.000    0.000 
#    0.000    0.000    0.000    0.000    0.000    0.000 
#
# Total GULP energy -122523.920281 kJ/mol
# GULP energy per Si atom -5569.269104 kJ/mol
# Density = 2.213132 g / cm^3
# Si number density = 22.181803 Si / 1000 Ang^3
#
#
#
# Elastic Constant Matrix: (Units=GPa)
#
#
# Indices 1 2 3 4 5 6 
#
# 1 114.3889 40.9060 18.2399 0.0000 20.8020 0.0000
# 2 40.9060 156.7110 31.2685 0.0000 1.9216 0.0000
# 3 18.2399 31.2685 44.1590 0.0000 4.3620 0.0000
# 4 0.0000 0.0000 0.0000 24.6223 0.0000 20.4578
# 5 20.8020 1.9216 4.3620 0.0000 30.4878 0.0000
# 6 0.0000 0.0000 0.0000 20.4578 0.0000 37.9215
#
#
#
# Elastic Compliance Matrix: (Units=1/GPa)
#
#
# Indices 1 2 3 4 5 6 
#
# 1 0.011273 -0.002407 -0.002238 0.000000 -0.007219 0.000000
# 2 -0.002407 0.007948 -0.004814 0.000000 0.001830 0.000000
# 3 -0.002238 -0.004814 0.027182 0.000000 -0.002058 0.000000
# 4 0.000000 0.000000 0.000000 0.073606 0.000000 -0.039709
# 5 -0.007219 0.001830 -0.002058 0.000000 0.037905 0.000000
# 6 0.000000 0.000000 0.000000 -0.039709 0.000000 0.047792
#
#
# Mechanical properties :
#
#
# Convention : Reuss Voigt Hill
#
# Bulk Modulus (GPa) = 36.38642 55.12086 45.75364
# Shear Modulus (GPa) = 21.38701 33.59596 27.49149
#
# Velocity S-wave (km/s) = 3.10848 3.89597 3.52429
# Velocity P-wave (km/s) = 5.41506 6.71876 6.10182
#
# Compressibility (1/GPa) = 0.02748278
#
# Stress axis : x y z
#
# Youngs Moduli (GPa) = 88.70905 125.82305 36.78879
#
# Poissons Ratio (x) = 0.30290 0.08235
# Poissons Ratio (y) = 0.21355 0.17711
# Poissons Ratio (z) = 0.19857 0.60573
#
# Static dielectric constant tensor:
#      x y z
#    x 1.804340 0.000000 -0.026720 
#    y 0.000000 1.823700 0.000000 
#    z -0.026720 0.000000 1.862700 
# 
# From -- ./inp_files/163259.got.cif
#   From: 2010.05.17/outbox.cif.g08.bks.cpg/sg12_82_cif.got.tgz:163259.got - 2010.06.03 13:09:07.
