data_PCOD9215394
_publ_section_title
;
Structure prediction by ZEFSAII (Michael W. Deem and Ramdas Pophale) SiO2 
 PCOD9215394
Probable space group: C 2/M
;
_chemical_formula_sum "Si O2"
_cell_formula_units_Z 50
_cell_length_a 28.037313
_cell_length_b 9.637754
_cell_length_c 12.569462
_cell_angle_alpha 90.000000
_cell_angle_beta 128.481341
_cell_angle_gamma 90.000000
_cell_volume 2658.800486
_symmetry_space_group_name_H-M "C 2/M"
_symmetry_group_IT_number 12
_symmetry_cell_setting 'monoclinic'
loop_
_space_group_symop_operation_xyz
x,y,z
-x,y,-z
-x,-y,-z
x,-y,z
1/2+x,1/2+y,z
1/2-x,1/2+y,-z
1/2-x,1/2-y,-z
1/2+x,1/2-y,z
loop_
_atom_site_type_symbol
_atom_site_label
_atom_site_fract_x
_atom_site_fract_y
_atom_site_fract_z
Si Si1 0.346598 0.163383 0.438256
Si Si2 0.242424 0.338231 0.380825
Si Si3 0.065018 0.336962 0.639077
Si Si4 0.893085 0.730662 0.873068
Si Si5 0.500000 0.000000 0.000000
Si Si6 0.569552 0.339832 0.853904
Si Si7 0.926279 0.153592 0.701879
O O1 0.286830 0.258369 0.360822
O O2 0.383891 0.176392 0.380575
O O3 0.390286 0.226044 0.590571
O O4 0.333983 0.000000 0.439972
O O5 0.259120 0.500000 0.419361
O O6 0.250000 0.250000 0.500000
O O7 0.172949 0.329747 0.246463
O O8 0.057806 0.500000 0.655303
O O9 0.080587 0.253836 0.766457
O O10 0.000000 0.289155 0.500000
O O11 0.908993 0.838269 0.801290
O O12 0.893646 0.794941 0.991019
O O13 0.946929 0.619148 0.941153
O O14 0.581039 0.500000 0.844391
O O15 0.498054 0.325146 0.785026
O O16 0.910761 0.000000 0.637788
#
# Coordination Sequence:
#
# PCOD9215394 Si02
#       7
#     8   8   8   8   2   8   8
#     4  11  24  41  64  94 131 172 220 270 325 392
#     4  12  26  42  65  97 134 178 219 264 329 398
#     4  10  22  41  65  93 127 171 222 279 332 390
#     4  12  25  41  65  97 135 173 217 271 331 396
#     4  12  24  40  66 100 130 176 220 274 320 398
#     4  11  24  39  63  97 132 169 215 277 340 392
#     4  11  22  37  62  94 134 171 208 270 333 392
#
# _framework density 18.805472999999999
#
# number of rings (size 3 to 8) (size 9 to 14) (size 15 to 20)
#    0.000    0.800    5.600    1.440    2.240    4.800 
#    0.000    0.800    0.000    0.000    0.000    0.000 
#    0.000    0.000    0.000    0.000    0.000    0.000 
#
# Total GULP energy -139430.212009 kJ/mol
# GULP energy per Si atom -5577.208480 kJ/mol
# Density = 1.876267 g / cm^3
# Si number density = 18.805473 Si / 1000 Ang^3
#
#
#
# Elastic Constant Matrix: (Units=GPa)
#
#
# Indices 1 2 3 4 5 6 
#
# 1 84.4411 57.7995 40.4291 0.0000 2.6307 0.0000
# 2 57.7995 138.6582 53.2645 0.0000 -6.6058 0.0000
# 3 40.4291 53.2645 103.2154 0.0000 -13.8873 0.0000
# 4 0.0000 0.0000 0.0000 10.7086 0.0000 -17.0310
# 5 2.6307 -6.6058 -13.8873 0.0000 36.1042 0.0000
# 6 0.0000 0.0000 0.0000 -17.0310 0.0000 87.6549
#
#
#
# Elastic Compliance Matrix: (Units=1/GPa)
#
#
# Indices 1 2 3 4 5 6 
#
# 1 0.018343 -0.006073 -0.004619 0.000000 -0.004224 0.000000
# 2 -0.006073 0.011007 -0.003133 0.000000 0.001251 0.000000
# 3 -0.004619 -0.003133 0.013797 0.000000 0.005070 0.000000
# 4 0.000000 0.000000 0.000000 0.135143 0.000000 0.026258
# 5 -0.004224 0.001251 0.005070 0.000000 0.030185 0.000000
# 6 0.000000 0.000000 0.000000 0.026258 0.000000 0.016510
#
#
# Mechanical properties :
#
#
# Convention : Reuss Voigt Hill
#
# Bulk Modulus (GPa) = 64.53297 69.92231 67.22764
# Shear Modulus (GPa) = 19.39496 38.54831 28.97164
#
# Velocity S-wave (km/s) = 3.21494 4.53243 3.92930
# Velocity P-wave (km/s) = 6.94058 8.04072 7.51082
#
# Compressibility (1/GPa) = 0.01549596
#
# Stress axis : x y z
#
# Youngs Moduli (GPa) = 54.51763 90.85493 72.48122
#
# Poissons Ratio (x) = 0.55176 0.33480
# Poissons Ratio (y) = 0.33108 0.22707
# Poissons Ratio (z) = 0.25183 0.28463
#
# Static dielectric constant tensor:
#      x y z
#    x 1.649580 0.000000 0.007590 
#    y 0.000000 1.649660 0.000000 
#    z 0.007590 0.000000 1.641740 
# 
# From -- ./inp_files/181193.got.cif
#   From: 2010.05.17/outbox.cif.g08.bks.cpg/sg12_91_cif.got.tgz:181193.got - 2010.06.03 13:09:07.
