data_PCOD9215025
_publ_section_title
;
Structure prediction by ZEFSAII (Michael W. Deem and Ramdas Pophale) SiO2 
 PCOD9215025
Probable space group: C 2/M
;
_chemical_formula_sum "Si O2"
_cell_formula_units_Z 30
_cell_length_a 9.006627
_cell_length_b 33.500779
_cell_length_c 4.898635
_cell_angle_alpha 90.000000
_cell_angle_beta 104.257699
_cell_angle_gamma 90.000000
_cell_volume 1432.532867
_symmetry_space_group_name_H-M "C 2/M"
_symmetry_group_IT_number 12
_symmetry_cell_setting 'monoclinic'
loop_
_space_group_symop_operation_xyz
x,y,z
-x,y,-z
-x,-y,-z
x,-y,z
1/2+x,1/2+y,z
1/2-x,1/2+y,-z
1/2-x,1/2-y,-z
1/2+x,1/2-y,z
loop_
_atom_site_type_symbol
_atom_site_label
_atom_site_fract_x
_atom_site_fract_y
_atom_site_fract_z
Si Si1 0.000000 0.000000 0.500000
Si Si2 0.601765 0.580514 0.316370
Si Si3 0.752154 0.802927 0.246831
Si Si4 0.829212 0.352447 0.304182
Si Si5 0.000000 0.761131 0.000000
O O1 0.114808 0.035884 0.440773
O O2 0.500000 0.602970 0.500000
O O3 0.753015 0.604579 0.314434
O O4 0.500000 0.577280 0.000000
O O5 0.764954 0.821450 0.550533
O O6 0.904615 0.786160 0.176833
O O7 0.687841 0.837033 0.011301
O O8 0.625668 0.767911 0.195247
O O9 0.000000 0.351423 0.500000
#
# Coordination Sequence:
#
# PCOD9215025 Si02
#       5
#     2   8   8   8   4
#     4   8  22  40  68  98 130 144 218 244 300 370
#     4  10  22  40  68  94 123 164 201 256 300 369
#     4  11  25  41  62  89 124 168 212 271 306 376
#     4  12  24  42  62  93 130 165 210 256 316 371
#     4  10  24  42  62  88 122 166 220 266 328 346
#
# _framework density 20.941925999999999
#
# number of rings (size 3 to 8) (size 9 to 14) (size 15 to 20)
#    0.800    0.533    2.667    2.000    5.600    6.400 
#    0.000    0.667    0.000    1.600    0.000    0.000 
#    0.000    0.000    0.000    0.000    0.000    0.000 
#
# Total GULP energy -83615.994152 kJ/mol
# GULP energy per Si atom -5574.399610 kJ/mol
# Density = 2.089426 g / cm^3
# Si number density = 20.941926 Si / 1000 Ang^3
#
#
#
# Elastic Constant Matrix: (Units=GPa)
#
#
# Indices 1 2 3 4 5 6 
#
# 1 108.9349 47.7218 -0.3831 0.0000 4.9389 0.0000
# 2 47.7218 105.8087 0.0350 0.0000 4.3582 0.0000
# 3 -0.3831 0.0350 52.6477 0.0000 -10.4803 0.0000
# 4 0.0000 0.0000 0.0000 4.1815 0.0000 -7.9356
# 5 4.9389 4.3582 -10.4803 0.0000 26.6111 0.0000
# 6 0.0000 0.0000 0.0000 -7.9356 0.0000 33.5306
#
#
#
# Elastic Compliance Matrix: (Units=1/GPa)
#
#
# Indices 1 2 3 4 5 6 
#
# 1 0.011486 -0.005124 -0.000185 0.000000 -0.001365 0.000000
# 2 -0.005124 0.011807 -0.000261 0.000000 -0.001086 0.000000
# 3 -0.000185 -0.000261 0.020625 0.000000 0.008200 0.000000
# 4 0.000000 0.000000 0.000000 0.434141 0.000000 0.102747
# 5 -0.001365 -0.001086 0.008200 0.000000 0.041239 0.000000
# 6 0.000000 0.000000 0.000000 0.102747 0.000000 0.054140
#
#
# Mechanical properties :
#
#
# Convention : Reuss Voigt Hill
#
# Bulk Modulus (GPa) = 30.50840 40.23764 35.37302
# Shear Modulus (GPa) = 8.39624 27.53248 17.96436
#
# Velocity S-wave (km/s) = 2.00450 3.62982 2.93203
# Velocity P-wave (km/s) = 4.46733 6.06820 5.32823
#
# Compressibility (1/GPa) = 0.03277786
#
# Stress axis : x y z
#
# Youngs Moduli (GPa) = 87.06446 84.69664 48.48409
#
# Poissons Ratio (x) = 0.43399 0.00896
# Poissons Ratio (y) = 0.44612 0.01267
# Poissons Ratio (z) = 0.01609 0.02212
#
# Static dielectric constant tensor:
#      x y z
#    x 1.747560 0.000000 -0.025080 
#    y 0.000000 1.746280 0.000000 
#    z -0.025080 0.000000 1.756160 
# 
# From -- ./inp_files/3942.got.cif
#   From: 2010.05.17/outbox.cif.g08.bks.cpg/sg12_2_cif.got.tgz:3942.got - 2010.06.03 13:09:07.
