data_PCOD9215721
_publ_section_title
;
Structure prediction by ZEFSAII (Michael W. Deem and Ramdas Pophale) SiO2 
 PCOD9215721
Probable space group: C 2/M
;
_chemical_formula_sum "Si O2"
_cell_formula_units_Z 64
_cell_length_a 24.976057
_cell_length_b 8.499870
_cell_length_c 28.720114
_cell_angle_alpha 90.000000
_cell_angle_beta 147.708255
_cell_angle_gamma 90.000000
_cell_volume 3257.249667
_symmetry_space_group_name_H-M "C 2/M"
_symmetry_group_IT_number 12
_symmetry_cell_setting 'monoclinic'
loop_
_space_group_symop_operation_xyz
x,y,z
-x,y,-z
-x,-y,-z
x,-y,z
1/2+x,1/2+y,z
1/2-x,1/2+y,-z
1/2-x,1/2-y,-z
1/2+x,1/2-y,z
loop_
_atom_site_type_symbol
_atom_site_label
_atom_site_fract_x
_atom_site_fract_y
_atom_site_fract_z
Si Si1 0.898142 0.310973 0.191039
Si Si2 0.264744 0.182210 0.669313
Si Si3 0.832514 0.811598 0.977879
Si Si4 0.117670 0.674810 0.085649
Si Si5 0.004670 0.690160 0.174046
Si Si6 0.444716 0.813418 0.508629
Si Si7 0.077002 0.185462 0.688383
Si Si8 0.746187 0.824152 0.751225
O O1 0.901009 0.500000 0.199091
O O2 0.782458 0.269574 0.093157
O O3 0.968458 0.269107 0.199380
O O4 0.933202 0.235167 0.265354
O O5 0.379492 0.240571 0.748179
O O6 0.173421 0.275724 0.579077
O O7 0.238340 0.201233 0.704216
O O8 0.261306 0.000000 0.652372
O O9 0.848585 0.730556 0.939980
O O10 0.837424 0.000000 0.976935
O O11 0.921124 0.757054 0.077396
O O12 0.159681 0.500000 0.127045
O O13 0.147788 0.799486 0.146828
O O14 0.000000 0.662653 0.000000
O O15 0.003319 0.500000 0.167648
O O16 0.500000 0.765352 0.500000
O O17 0.491397 0.729346 0.588070
O O18 0.461761 0.000000 0.525337
O O19 0.170247 0.282942 0.736409
O O20 0.094677 0.000000 0.699398
O O21 0.729275 0.000000 0.721023
#
# Coordination Sequence:
#
# PCOD9215721 Si02
#       8
#     8   8   8   8   8   8   8   8
#     4  10  22  42  64  89 124 165 208 256 305 356
#     4  11  23  40  63  92 124 161 205 252 304 364
#     4  11  22  36  60  90 121 161 210 257 302 358
#     4  11  23  37  54  81 120 163 205 250 304 363
#     4  10  23  42  63  88 124 166 207 254 306 359
#     4  11  23  40  65  94 125 160 198 247 307 368
#     4  12  24  39  64  94 122 156 200 251 302 362
#     4  12  23  37  58  86 122 161 200 246 305 365
#
# _framework density 19.648478999999998
#
# number of rings (size 3 to 8) (size 9 to 14) (size 15 to 20)
#    0.000    1.000    2.500    4.875    0.000    6.500 
#    0.000    0.625    0.000    0.000    0.000    0.000 
#    0.000    0.000    0.000    0.000    0.000    0.000 
#
# Total GULP energy -178691.033940 kJ/mol
# GULP energy per Si atom -5584.094811 kJ/mol
# Density = 1.960376 g / cm^3
# Si number density = 19.648479 Si / 1000 Ang^3
#
#
#
# Elastic Constant Matrix: (Units=GPa)
#
#
# Indices 1 2 3 4 5 6 
#
# 1 43.9372 9.5285 23.5058 0.0000 1.5519 0.0001
# 2 9.5285 49.8842 21.5220 0.0000 3.9865 0.0000
# 3 23.5058 21.5220 112.8474 0.0000 -8.0822 0.0000
# 4 0.0000 0.0000 0.0000 32.5780 0.0000 -7.3861
# 5 1.5519 3.9865 -8.0822 0.0000 22.3809 0.0000
# 6 0.0001 0.0000 0.0000 -7.3861 0.0000 40.3375
#
#
#
# Elastic Compliance Matrix: (Units=1/GPa)
#
#
# Indices 1 2 3 4 5 6 
#
# 1 0.026206 -0.002495 -0.005216 0.000000 -0.003256 0.000000
# 2 -0.002495 0.022771 -0.004210 0.000000 -0.005403 0.000000
# 3 -0.005216 -0.004210 0.011118 0.000000 0.005127 0.000000
# 4 0.000000 0.000000 0.000000 0.032025 0.000000 0.005864
# 5 -0.003256 -0.005403 0.005127 0.000000 0.047721 0.000000
# 6 0.000000 0.000000 0.000000 0.005864 0.000000 0.025865
#
#
# Mechanical properties :
#
#
# Convention : Reuss Voigt Hill
#
# Bulk Modulus (GPa) = 27.58383 35.08684 31.33534
# Shear Modulus (GPa) = 24.79750 29.20009 26.99880
#
# Velocity S-wave (km/s) = 3.55640 3.85921 3.71089
# Velocity P-wave (km/s) = 5.56175 6.14443 5.86034
#
# Compressibility (1/GPa) = 0.03625312
#
# Stress axis : x y z
#
# Youngs Moduli (GPa) = 38.15858 43.91498 89.94307
#
# Poissons Ratio (x) = 0.10957 0.46915
# Poissons Ratio (y) = 0.09521 0.37867
# Poissons Ratio (z) = 0.19904 0.18489
#
# Static dielectric constant tensor:
#      x y z
#    x 1.673030 0.000000 0.029350 
#    y 0.000000 1.705140 0.000000 
#    z 0.029350 0.000000 1.753580 
# 
# From -- ./inp_files/382544.got.cif
#   From: 2010.05.17/outbox.cif.g08.bks.cpg/sg12_192_cif.got.tgz:382544.got - 2010.06.03 13:09:07.
