data_PCOD9215753
_publ_section_title
;
Structure prediction by ZEFSAII (Michael W. Deem and Ramdas Pophale) SiO2 
 PCOD9215753
Probable space group: C 2/M
;
_chemical_formula_sum "Si O2"
_cell_formula_units_Z 32
_cell_length_a 11.531866
_cell_length_b 9.576221
_cell_length_c 13.622104
_cell_angle_alpha 90.000000
_cell_angle_beta 78.538272
_cell_angle_gamma 90.000000
_cell_volume 1474.312561
_symmetry_space_group_name_H-M "C 2/M"
_symmetry_group_IT_number 12
_symmetry_cell_setting 'monoclinic'
loop_
_space_group_symop_operation_xyz
x,y,z
-x,y,-z
-x,-y,-z
x,-y,z
1/2+x,1/2+y,z
1/2-x,1/2+y,-z
1/2-x,1/2-y,-z
1/2+x,1/2-y,z
loop_
_atom_site_type_symbol
_atom_site_label
_atom_site_fract_x
_atom_site_fract_y
_atom_site_fract_z
Si Si1 0.751418 0.000000 0.228663
Si Si2 0.974703 0.500000 0.645216
Si Si3 0.000000 0.751453 0.500000
Si Si4 0.469669 0.500000 0.791321
Si Si5 0.778731 0.779864 0.882653
Si Si6 0.357609 0.000000 0.217725
Si Si7 0.141886 0.000000 0.400582
O O1 0.716249 0.136750 0.175495
O O2 0.668147 0.000000 0.338188
O O3 0.891674 0.000000 0.217089
O O4 0.016836 0.357045 0.586691
O O5 0.017463 0.500000 0.750469
O O6 0.108776 0.858698 0.463797
O O7 0.399195 0.368174 0.848472
O O8 0.445044 0.500000 0.679392
O O9 0.677089 0.870002 0.844832
O O10 0.750000 0.750000 0.000000
O O11 0.268383 0.000000 0.326747
#
# Coordination Sequence:
#
# PCOD9215753 Si02
#       7
#     4   4   4   4   8   4   4
#     4  12  25  42  71  95 137 188 214 280 346 400
#     4  11  24  42  60 103 133 177 227 274 343 396
#     4  10  22  42  64  94 136 164 240 278 316 426
#     4  10  24  46  68  98 142 175 223 278 343 405
#     4  10  23  44  69 101 129 174 231 275 335 405
#     4  10  23  42  69  95 144 175 216 292 339 402
#     4   9  20  44  65  93 126 180 219 281 346 385
#
# _framework density 21.705030000000001
#
# number of rings (size 3 to 8) (size 9 to 14) (size 15 to 20)
#    0.000    2.000    0.000    4.500    7.000    3.000 
#    9.000    1.250    0.000    0.000    0.000    0.000 
#    0.000    0.000    0.000    0.000    0.000    0.000 
#
# Total GULP energy -89383.100908 kJ/mol
# GULP energy per Si atom -5586.443807 kJ/mol
# Density = 2.165563 g / cm^3
# Si number density = 21.705030 Si / 1000 Ang^3
#
#
#
# Elastic Constant Matrix: (Units=GPa)
#
#
# Indices 1 2 3 4 5 6 
#
# 1 131.1861 49.1950 45.5553 0.0000 -10.3144 0.0000
# 2 49.1950 185.7016 48.3303 0.0000 -1.0750 0.0000
# 3 45.5553 48.3303 87.6183 0.0000 -5.8927 0.0000
# 4 0.0000 0.0000 0.0000 24.2252 0.0000 23.0049
# 5 -10.3144 -1.0750 -5.8927 0.0000 14.8692 0.0000
# 6 0.0000 0.0000 0.0000 23.0049 0.0000 -16.9568
#
#
#
# Elastic Compliance Matrix: (Units=1/GPa)
#
#
# Indices 1 2 3 4 5 6 
#
# 1 0.010012 -0.001587 -0.003977 0.000000 0.005254 0.000000
# 2 -0.001587 0.006552 -0.002909 0.000000 -0.001780 0.000000
# 3 -0.003977 -0.002909 0.015293 0.000000 0.003092 0.000000
# 4 0.000000 0.000000 0.000000 0.018039 0.000000 0.024473
# 5 0.005254 -0.001780 0.003092 0.000000 0.071995 0.000000
# 6 0.000000 0.000000 0.000000 0.024473 0.000000 -0.025771
#
#
# Mechanical properties :
#
#
# Convention : Reuss Voigt Hill
#
# Bulk Modulus (GPa) = 67.05860 76.74080 71.89970
# Shear Modulus (GPa) = 42.36019 21.85587 32.10803
#
# Velocity S-wave (km/s) = 4.42252 3.17669 3.85033
# Velocity P-wave (km/s) = 7.55253 6.99200 7.27767
#
# Compressibility (1/GPa) = 0.01491233
#
# Stress axis : x y z
#
# Youngs Moduli (GPa) = 99.88078 152.62282 65.38847
#
# Poissons Ratio (x) = 0.24220 0.26004
# Poissons Ratio (y) = 0.15850 0.19020
# Poissons Ratio (z) = 0.39721 0.44394
#
# Static dielectric constant tensor:
#      x y z
#    x 1.852960 0.000000 -0.078680 
#    y 0.000000 1.783930 0.000000 
#    z -0.078680 0.000000 1.836690 
# 
# From -- ./inp_files/202096.got.cif
#   From: 2010.05.17/outbox.cif.g08.bks.cpg/sg12_102_cif.got.tgz:202096.got - 2010.06.03 13:09:07.
