data_PCOD9215901
_publ_section_title
;
Structure prediction by ZEFSAII (Michael W. Deem and Ramdas Pophale) SiO2 
 PCOD9215901
Probable space group: C 2/M
;
_chemical_formula_sum "Si O2"
_cell_formula_units_Z 44
_cell_length_a 14.705726
_cell_length_b 17.291005
_cell_length_c 16.364008
_cell_angle_alpha 90.000000
_cell_angle_beta 27.194783
_cell_angle_gamma 90.000000
_cell_volume 1901.641681
_symmetry_space_group_name_H-M "C 2/M"
_symmetry_group_IT_number 12
_symmetry_cell_setting 'monoclinic'
loop_
_space_group_symop_operation_xyz
x,y,z
-x,y,-z
-x,-y,-z
x,-y,z
1/2+x,1/2+y,z
1/2-x,1/2+y,-z
1/2-x,1/2-y,-z
1/2+x,1/2-y,z
loop_
_atom_site_type_symbol
_atom_site_label
_atom_site_fract_x
_atom_site_fract_y
_atom_site_fract_z
Si Si1 0.708156 0.337660 0.009209
Si Si2 0.500000 0.157447 0.500000
Si Si3 0.011574 0.091666 0.321144
Si Si4 0.323625 0.912810 0.208081
Si Si5 0.887615 0.752270 0.174171
Si Si6 0.922937 0.407973 0.384756
O O1 0.658568 0.383323 0.130937
O O2 0.503720 0.322560 0.124443
O O3 0.615133 0.128185 0.186290
O O4 0.750000 0.250000 0.000000
O O5 0.327814 0.214163 0.667360
O O6 0.564675 0.109626 0.528213
O O7 0.122976 0.107145 0.317501
O O8 0.789880 0.122709 0.479834
O O9 0.995296 0.000000 0.330088
O O10 0.373565 0.835789 0.220492
O O11 0.304637 0.000000 0.260996
O O12 0.500000 0.920358 0.000000
O O13 0.000000 0.740530 0.000000
O O14 0.931471 0.500000 0.365458
#
# Coordination Sequence:
#
# PCOD9215901 Si02
#       6
#     8   4   8   8   8   8
#     4  12  24  40  66  99 132 173 218 276 336 393
#     4  12  23  42  65  94 134 176 218 272 329 392
#     4  10  22  42  67  97 132 171 219 273 330 393
#     4   9  19  39  67  93 128 173 214 265 326 393
#     4  11  22  40  62  96 131 171 221 266 326 395
#     4  11  25  44  67  97 133 176 225 273 333 399
#
# _framework density 23.137903000000001
#
# number of rings (size 3 to 8) (size 9 to 14) (size 15 to 20)
#    0.000    1.273    3.636    3.000    0.000    2.182 
#    0.000    2.273    0.000    0.000    0.000    0.000 
#    0.000    0.000    0.000    0.000    0.000    0.000 
#
# Total GULP energy -122921.945537 kJ/mol
# GULP energy per Si atom -5587.361161 kJ/mol
# Density = 2.308524 g / cm^3
# Si number density = 23.137903 Si / 1000 Ang^3
#
#
#
# Elastic Constant Matrix: (Units=GPa)
#
#
# Indices 1 2 3 4 5 6 
#
# 1 89.6558 30.5579 58.6478 -0.0027 2.3615 -0.0019
# 2 30.5579 79.3127 45.3469 -0.0201 0.6663 -0.0009
# 3 58.6478 45.3469 144.0413 0.0005 -7.1139 -0.0046
# 4 -0.0027 -0.0201 0.0005 50.7820 -0.0027 8.0075
# 5 2.3615 0.6663 -7.1139 -0.0027 45.1515 0.0063
# 6 -0.0019 -0.0009 -0.0046 8.0075 0.0063 40.1943
#
#
#
# Elastic Compliance Matrix: (Units=1/GPa)
#
#
# Indices 1 2 3 4 5 6 
#
# 1 0.015866 -0.002876 -0.005637 0.000000 -0.001676 0.000000
# 2 -0.002876 0.015942 -0.003882 0.000006 -0.000697 -0.000001
# 3 -0.005637 -0.003882 0.010560 -0.000002 0.002016 0.000001
# 4 0.000000 0.000006 -0.000002 0.020331 0.000001 -0.004050
# 5 -0.001676 -0.000697 0.002016 0.000001 0.022563 -0.000004
# 6 0.000000 -0.000001 0.000001 -0.004050 -0.000004 0.025686
#
#
# Mechanical properties :
#
#
# Convention : Reuss Voigt Hill
#
# Bulk Modulus (GPa) = 56.89419 64.67943 60.78681
# Shear Modulus (GPa) = 35.31169 39.12270 37.21720
#
# Velocity S-wave (km/s) = 3.91082 4.11645 4.01496
# Velocity P-wave (km/s) = 6.71083 7.11394 6.91532
#
# Compressibility (1/GPa) = 0.01757649
#
# Stress axis : x y z
#
# Youngs Moduli (GPa) = 63.02946 62.72811 94.70113
#
# Poissons Ratio (x) = 0.18038 0.53386
# Poissons Ratio (y) = 0.18124 0.36766
# Poissons Ratio (z) = 0.35532 0.24353
#
# Static dielectric constant tensor:
#      x y z
#    x 2.009050 -0.000030 -0.051610 
#    y -0.000030 1.843390 0.000010 
#    z -0.051610 0.000010 1.869280 
# 
# From -- ./inp_files/271328.got.cif
#   From: 2010.05.17/outbox.cif.g08.bks.cpg/sg12_136_cif.got.tgz:271328.got - 2010.06.03 13:09:07.
