data_PCOD9215541
_publ_section_title
;
Structure prediction by ZEFSAII (Michael W. Deem and Ramdas Pophale) SiO2 
 PCOD9215541
Probable space group: C 2/M
;
_chemical_formula_sum "Si O2"
_cell_formula_units_Z 64
_cell_length_a 30.816105
_cell_length_b 8.483334
_cell_length_c 11.371400
_cell_angle_alpha 90.000000
_cell_angle_beta 93.684373
_cell_angle_gamma 90.000000
_cell_volume 2966.604910
_symmetry_space_group_name_H-M "C 2/M"
_symmetry_group_IT_number 12
_symmetry_cell_setting 'monoclinic'
loop_
_space_group_symop_operation_xyz
x,y,z
-x,y,-z
-x,-y,-z
x,-y,z
1/2+x,1/2+y,z
1/2-x,1/2+y,-z
1/2-x,1/2-y,-z
1/2+x,1/2-y,z
loop_
_atom_site_type_symbol
_atom_site_label
_atom_site_fract_x
_atom_site_fract_y
_atom_site_fract_z
Si Si1 0.047391 0.320146 0.527427
Si Si2 0.852946 0.179518 0.863275
Si Si3 0.892923 0.316720 0.096818
Si Si4 0.866712 0.689700 0.344813
Si Si5 0.986081 0.818911 0.133846
Si Si6 0.760227 0.316779 0.870624
Si Si7 0.928291 0.677830 0.735359
Si Si8 0.724108 0.688202 0.610240
O O1 0.039005 0.500000 0.572024
O O2 0.085574 0.247193 0.611302
O O3 0.068478 0.330687 0.403213
O O4 0.000000 0.244904 0.500000
O O5 0.811571 0.291888 0.860571
O O6 0.886961 0.223384 0.768492
O O7 0.837972 0.000000 0.850813
O O8 0.879617 0.206168 0.987832
O O9 0.887745 0.500000 0.063505
O O10 0.863257 0.283903 0.204751
O O11 0.942923 0.284390 0.138179
O O12 0.866994 0.500000 0.364850
O O13 0.826504 0.764129 0.405416
O O14 0.026877 0.751905 0.211526
O O15 0.977185 0.000000 0.165935
O O16 0.000000 0.816459 0.000000
O O17 0.748212 0.500000 0.874105
O O18 0.739680 0.252242 0.743594
O O19 0.750000 0.250000 0.000000
O O20 0.924348 0.500000 0.783045
O O21 0.728948 0.500000 0.611741
O O22 0.750000 0.750000 0.500000
#
# Coordination Sequence:
#
# PCOD9215541 Si02
#       8
#     8   8   8   8   8   8   8   8
#     4   9  19  38  63  92 125 163 208 259 314 373
#     4  12  25  40  61  92 130 166 205 260 325 386
#     4  11  22  38  64  94 125 167 217 263 317 385
#     4  10  22  41  67  97 129 166 213 267 321 383
#     4  11  22  36  55  84 124 168 209 260 322 379
#     4  11  25  46  71  99 131 170 220 273 333 399
#     4  11  22  37  61  89 121 162 213 262 314 384
#     4  11  26  46  70 100 135 176 223 275 335 401
#
# _framework density 21.573483
#
# number of rings (size 3 to 8) (size 9 to 14) (size 15 to 20)
#    0.000    1.250    1.250    4.500    1.750    7.500 
#    0.000    0.625    0.000    2.625    0.000    0.000 
#    0.000    0.000    0.000    0.000    0.000    0.000 
#
# Total GULP energy -178787.441176 kJ/mol
# GULP energy per Si atom -5587.107537 kJ/mol
# Density = 2.152438 g / cm^3
# Si number density = 21.573483 Si / 1000 Ang^3
#
#
#
# Elastic Constant Matrix: (Units=GPa)
#
#
# Indices 1 2 3 4 5 6 
#
# 1 103.6586 -12.4149 31.4846 0.0000 -13.3231 0.0000
# 2 -12.4149 44.5219 17.9354 0.0000 -6.5718 0.0000
# 3 31.4846 17.9354 103.5846 0.0000 -9.9422 0.0000
# 4 0.0000 0.0000 0.0000 11.6864 0.0000 -5.2648
# 5 -13.3231 -6.5718 -9.9422 0.0000 29.8020 0.0000
# 6 0.0000 0.0000 0.0000 -5.2648 0.0000 29.0046
#
#
#
# Elastic Compliance Matrix: (Units=1/GPa)
#
#
# Indices 1 2 3 4 5 6 
#
# 1 0.012353 0.005963 -0.004268 0.000000 0.005414 0.000000
# 2 0.005963 0.027508 -0.005927 0.000000 0.006754 0.000000
# 3 -0.004268 -0.005927 0.012055 0.000000 0.000807 0.000000
# 4 0.000000 0.000000 0.000000 0.093190 0.000000 0.016915
# 5 0.005414 0.006754 0.000807 0.000000 0.037734 0.000000
# 6 0.000000 0.000000 0.000000 0.016915 0.000000 0.037548
#
#
# Mechanical properties :
#
#
# Convention : Reuss Voigt Hill
#
# Bulk Modulus (GPa) = 23.01344 36.19725 29.60535
# Shear Modulus (GPa) = 20.54775 28.41593 24.48184
#
# Velocity S-wave (km/s) = 3.08953 3.63322 3.37235
# Velocity P-wave (km/s) = 4.83917 5.86646 5.37741
#
# Compressibility (1/GPa) = 0.04345286
#
# Stress axis : x y z
#
# Youngs Moduli (GPa) = 80.95010 36.35260 82.95453
#
# Poissons Ratio (x) = -0.21677 0.35402
# Poissons Ratio (y) = -0.48271 0.49169
# Poissons Ratio (z) = 0.34547 0.21547
#
# Static dielectric constant tensor:
#      x y z
#    x 1.778330 0.000000 0.038130 
#    y 0.000000 1.782660 0.000000 
#    z 0.038130 0.000000 1.820870 
# 
# From -- ./inp_files/187557.got.cif
#   From: 2010.05.17/outbox.cif.g08.bks.cpg/sg12_94_cif.got.tgz:187557.got - 2010.06.03 13:09:07.
