data_PCOD9215239
_publ_section_title
;
Structure prediction by ZEFSAII (Michael W. Deem and Ramdas Pophale) SiO2 
 PCOD9215239
Probable space group: C 2/M
;
_chemical_formula_sum "Si O2"
_cell_formula_units_Z 48
_cell_length_a 14.869386
_cell_length_b 13.924161
_cell_length_c 12.583486
_cell_angle_alpha 90.000000
_cell_angle_beta 45.538271
_cell_angle_gamma 90.000000
_cell_volume 1859.473423
_symmetry_space_group_name_H-M "C 2/M"
_symmetry_group_IT_number 12
_symmetry_cell_setting 'monoclinic'
loop_
_space_group_symop_operation_xyz
x,y,z
-x,y,-z
-x,-y,-z
x,-y,z
1/2+x,1/2+y,z
1/2-x,1/2+y,-z
1/2-x,1/2-y,-z
1/2+x,1/2-y,z
loop_
_atom_site_type_symbol
_atom_site_label
_atom_site_fract_x
_atom_site_fract_y
_atom_site_fract_z
Si Si1 0.148372 0.388792 0.130836
Si Si2 0.682077 0.896327 0.460466
Si Si3 0.393785 0.389290 0.784808
Si Si4 0.042055 0.110344 0.854418
Si Si5 0.680236 0.250766 0.308772
Si Si6 0.630386 0.110906 0.738620
O O1 0.153528 0.500000 0.163885
O O2 0.179363 0.320610 0.205947
O O3 0.012867 0.375699 0.185577
O O4 0.256082 0.378615 0.952595
O O5 0.810595 0.897271 0.286678
O O6 0.620633 0.804953 0.457985
O O7 0.707636 0.885598 0.563483
O O8 0.617782 0.000000 0.500378
O O9 0.425098 0.500000 0.745607
O O10 0.484333 0.343541 0.797921
O O11 0.397397 0.339367 0.670573
O O12 0.990303 0.000000 0.899547
O O13 0.000000 0.153722 0.000000
O O14 0.810731 0.305263 0.237587
O O15 0.639563 0.000000 0.773963
#
# Coordination Sequence:
#
# PCOD9215239 Si02
#       6
#     8   8   8   8   8   8
#     4  10  23  44  67  95 133 172 218 271 330 396
#     4  10  22  42  66  94 129 171 219 267 325 391
#     4  10  22  41  63  96 132 167 214 270 329 390
#     4   9  18  36  63  89 121 162 205 260 322 381
#     4  12  23  39  66  97 131 167 222 273 321 384
#     4  10  24  46  67  92 133 180 218 267 332 395
#
# _framework density 25.813759000000001
#
# number of rings (size 3 to 8) (size 9 to 14) (size 15 to 20)
#    0.000    1.833    0.000    3.000    2.333    4.000 
#    6.000    5.000    0.000    4.000    0.000    0.000 
#    0.000    0.000    0.000    0.000    0.000    0.000 
#
# Total GULP energy -134203.969422 kJ/mol
# GULP energy per Si atom -5591.832059 kJ/mol
# Density = 2.575501 g / cm^3
# Si number density = 25.813759 Si / 1000 Ang^3
#
#
#
# Elastic Constant Matrix: (Units=GPa)
#
#
# Indices 1 2 3 4 5 6 
#
# 1 133.4183 51.0718 24.5970 0.0000 12.0849 0.0000
# 2 51.0718 176.5701 19.1771 0.0000 22.8144 0.0000
# 3 24.5970 19.1771 66.3966 0.0000 -6.9211 0.0000
# 4 0.0000 0.0000 0.0000 24.9695 0.0000 11.4585
# 5 12.0849 22.8144 -6.9211 0.0000 32.1095 0.0000
# 6 0.0000 0.0000 0.0000 11.4585 0.0000 39.3325
#
#
#
# Elastic Compliance Matrix: (Units=1/GPa)
#
#
# Indices 1 2 3 4 5 6 
#
# 1 0.009046 -0.001935 -0.003073 0.000000 -0.002692 0.000000
# 2 -0.001935 0.007018 -0.001794 0.000000 -0.004645 0.000000
# 3 -0.003073 -0.001794 0.017361 0.000000 0.006174 0.000000
# 4 0.000000 0.000000 0.000000 0.046229 0.000000 -0.013468
# 5 -0.002692 -0.004645 0.006174 0.000000 0.036788 0.000000
# 6 0.000000 0.000000 0.000000 -0.013468 0.000000 0.029348
#
#
# Mechanical properties :
#
#
# Convention : Reuss Voigt Hill
#
# Bulk Modulus (GPa) = 50.45171 62.89744 56.67457
# Shear Modulus (GPa) = 30.12003 38.05156 34.08579
#
# Velocity S-wave (km/s) = 3.41958 3.84354 3.63774
# Velocity P-wave (km/s) = 5.93113 6.64197 6.29659
#
# Compressibility (1/GPa) = 0.01982093
#
# Stress axis : x y z
#
# Youngs Moduli (GPa) = 110.54204 142.48600 57.59953
#
# Poissons Ratio (x) = 0.27571 0.17701
# Poissons Ratio (y) = 0.21390 0.10336
# Poissons Ratio (z) = 0.33970 0.25568
#
# Static dielectric constant tensor:
#      x y z
#    x 2.067670 0.000000 -0.025730 
#    y 0.000000 2.145810 0.000000 
#    z -0.025730 0.000000 1.991800 
# 
# From -- ./inp_files/143536.got.cif
#   From: 2010.05.17/outbox.cif.g08.bks.cpg/sg12_72_cif.got.tgz:143536.got - 2010.06.03 13:09:07.
