data_PCOD9215527
_publ_section_title
;
Structure prediction by ZEFSAII (Michael W. Deem and Ramdas Pophale) SiO2 
 PCOD9215527
Probable space group: C 2/M
;
_chemical_formula_sum "Si O2"
_cell_formula_units_Z 48
_cell_length_a 18.145111
_cell_length_b 16.314566
_cell_length_c 9.361012
_cell_angle_alpha 90.000000
_cell_angle_beta 125.478686
_cell_angle_gamma 90.000000
_cell_volume 2256.623892
_symmetry_space_group_name_H-M "C 2/M"
_symmetry_group_IT_number 12
_symmetry_cell_setting 'monoclinic'
loop_
_space_group_symop_operation_xyz
x,y,z
-x,y,-z
-x,-y,-z
x,-y,z
1/2+x,1/2+y,z
1/2-x,1/2+y,-z
1/2-x,1/2-y,-z
1/2+x,1/2-y,z
loop_
_atom_site_type_symbol
_atom_site_label
_atom_site_fract_x
_atom_site_fract_y
_atom_site_fract_z
Si Si1 0.735857 0.333193 0.571426
Si Si2 0.872323 0.903427 0.039950
Si Si3 0.274710 0.094204 0.334409
Si Si4 0.977030 0.181022 0.629638
Si Si5 0.570712 0.855813 0.681510
Si Si6 0.791947 0.403814 0.925505
O O1 0.750000 0.250000 0.500000
O O2 0.774101 0.399487 0.502563
O O3 0.628275 0.335184 0.470482
O O4 0.784265 0.347303 0.777326
O O5 0.963610 0.858572 0.180070
O O6 0.794836 0.884112 0.071391
O O7 0.888601 0.000000 0.063882
O O8 0.824506 0.883989 0.836540
O O9 0.344758 0.153742 0.332829
O O10 0.293700 0.000000 0.308206
O O11 0.015454 0.274317 0.662948
O O12 0.000000 0.143750 0.500000
O O13 0.500000 0.904017 0.500000
O O14 0.618704 0.891295 0.876343
O O15 0.785618 0.500000 0.879111
#
# Coordination Sequence:
#
# PCOD9215527 Si02
#       6
#     8   8   8   8   8   8
#     4  12  25  41  62  94 132 170 209 262 330 389
#     4   9  20  38  63  94 122 165 213 257 316 382
#     4  10  23  42  64  92 130 169 210 268 328 380
#     4  11  22  39  62  94 127 167 213 262 316 386
#     4  10  22  42  68  97 125 164 226 271 319 379
#     4  10  22  41  67  94 127 170 215 265 321 384
#
# _framework density 21.270714000000002
#
# number of rings (size 3 to 8) (size 9 to 14) (size 15 to 20)
#    0.000    1.667    1.667    4.000    2.333    5.000 
#    0.000    4.167    0.000    5.000    0.000    0.000 
#    0.000    0.000    0.000    0.000    0.000    0.000 
#
# Total GULP energy -133861.981918 kJ/mol
# GULP energy per Si atom -5577.582580 kJ/mol
# Density = 2.122230 g / cm^3
# Si number density = 21.270714 Si / 1000 Ang^3
#
#
#
# Elastic Constant Matrix: (Units=GPa)
#
#
# Indices 1 2 3 4 5 6 
#
# 1 45.3523 9.5539 37.1201 0.0000 -0.5557 0.0000
# 2 9.5539 41.8665 32.5738 0.0000 -0.6581 0.0000
# 3 37.1201 32.5738 157.9409 0.0000 13.2762 0.0000
# 4 0.0000 0.0000 0.0000 28.7950 0.0000 -1.3313
# 5 -0.5557 -0.6581 13.2762 0.0000 36.7830 0.0000
# 6 0.0000 0.0000 0.0000 -1.3313 0.0000 1.8109
#
#
#
# Elastic Compliance Matrix: (Units=1/GPa)
#
#
# Indices 1 2 3 4 5 6 
#
# 1 0.027639 -0.001229 -0.006472 0.000000 0.002732 0.000000
# 2 -0.001229 0.028770 -0.005864 0.000000 0.002613 0.000000
# 3 -0.006472 -0.005864 0.009363 0.000000 -0.003582 0.000000
# 4 0.000000 0.000000 0.000000 0.035950 0.000000 0.026428
# 5 0.002732 0.002613 -0.003582 0.000000 0.028567 0.000000
# 6 0.000000 0.000000 0.000000 0.026428 0.000000 0.571634
#
#
# Mechanical properties :
#
#
# Convention : Reuss Voigt Hill
#
# Bulk Modulus (GPa) = 25.87881 44.85059 35.36470
# Shear Modulus (GPa) = 6.73915 24.53858 15.63886
#
# Velocity S-wave (km/s) = 1.78190 3.40020 2.71445
# Velocity P-wave (km/s) = 4.05294 6.04537 5.14650
#
# Compressibility (1/GPa) = 0.03864165
#
# Stress axis : x y z
#
# Youngs Moduli (GPa) = 36.18048 34.75897 106.80167
#
# Poissons Ratio (x) = 0.04271 0.69123
# Poissons Ratio (y) = 0.04446 0.62631
# Poissons Ratio (z) = 0.23416 0.20384
#
# Static dielectric constant tensor:
#      x y z
#    x 1.770270 0.000000 -0.008530 
#    y 0.000000 1.853350 0.000000 
#    z -0.008530 0.000000 1.790660 
# 
# From -- ./inp_files/75435.got.cif
#   From: 2010.05.17/outbox.cif.g08.bks.cpg/sg12_38_cif.got.tgz:75435.got - 2010.06.03 13:09:07.
