data_PCOD9215481
_publ_section_title
;
Structure prediction by ZEFSAII (Michael W. Deem and Ramdas Pophale) SiO2 
 PCOD9215481
Probable space group: C 2/M
;
_chemical_formula_sum "Si O2"
_cell_formula_units_Z 64
_cell_length_a 14.031554
_cell_length_b 28.206814
_cell_length_c 12.258932
_cell_angle_alpha 90.000000
_cell_angle_beta 135.043059
_cell_angle_gamma 90.000000
_cell_volume 3428.236843
_symmetry_space_group_name_H-M "C 2/M"
_symmetry_group_IT_number 12
_symmetry_cell_setting 'monoclinic'
loop_
_space_group_symop_operation_xyz
x,y,z
-x,y,-z
-x,-y,-z
x,-y,z
1/2+x,1/2+y,z
1/2-x,1/2+y,-z
1/2-x,1/2-y,-z
1/2+x,1/2-y,z
loop_
_atom_site_type_symbol
_atom_site_label
_atom_site_fract_x
_atom_site_fract_y
_atom_site_fract_z
Si Si1 0.160687 0.320650 0.612892
Si Si2 0.360507 0.636441 0.951028
Si Si3 0.272212 0.130845 0.560822
Si Si4 0.160908 0.789658 0.632774
Si Si5 0.460234 0.444446 0.592826
Si Si6 0.960229 0.620448 0.094542
Si Si7 0.253663 0.697273 0.049441
Si Si8 0.286983 0.444502 0.040570
O O1 0.241992 0.342986 0.779501
O O2 0.200872 0.348241 0.536472
O O3 0.196555 0.264857 0.635002
O O4 0.000000 0.323919 0.500000
O O5 0.328054 0.583492 0.964550
O O6 0.500000 0.639805 0.000000
O O7 0.357644 0.667491 0.059598
O O8 0.224394 0.173720 0.599877
O O9 0.409594 0.111668 0.726193
O O10 0.158311 0.090530 0.467675
O O11 0.207624 0.801502 0.792880
O O12 0.000000 0.793988 0.500000
O O13 0.500000 0.433917 0.500000
O O14 0.420027 0.500000 0.566105
O O15 0.591272 0.438221 0.774722
O O16 0.846215 0.580810 0.020764
O O17 0.000000 0.622956 0.000000
O O18 0.888604 0.669654 0.072671
O O19 0.250000 0.750000 0.000000
O O20 0.265895 0.500000 0.006044
#
# Coordination Sequence:
#
# PCOD9215481 Si02
#       8
#     8   8   8   8   8   8   8   8
#     4  11  24  44  58  89 130 172 210 255 312 365
#     4  11  24  40  65  91 122 168 214 259 311 370
#     4  12  24  40  66  93 130 161 213 261 315 379
#     4  11  25  39  63  92 125 170 213 264 313 371
#     4  10  22  41  66  96 128 161 203 265 328 378
#     4  11  23  39  63  95 124 163 208 259 318 372
#     4  11  23  42  61  88 132 168 212 260 312 371
#     4  10  23  43  66  92 125 164 210 260 319 383
#
# _framework density 18.668489000000001
#
# number of rings (size 3 to 8) (size 9 to 14) (size 15 to 20)
#    0.000    1.125    2.500    3.750    8.750    2.500 
#    0.000    0.625    0.000    1.500    0.000    0.000 
#    0.000    0.000    0.000    0.000    0.000    0.000 
#
# Total GULP energy -178945.217998 kJ/mol
# GULP energy per Si atom -5592.038062 kJ/mol
# Density = 1.862600 g / cm^3
# Si number density = 18.668489 Si / 1000 Ang^3
#
#
#
# Elastic Constant Matrix: (Units=GPa)
#
#
# Indices 1 2 3 4 5 6 
#
# 1 118.9230 71.8377 26.8944 0.0000 0.4400 0.0000
# 2 71.8377 143.0411 51.0685 0.0000 10.8690 0.0000
# 3 26.8944 51.0685 79.3057 0.0000 8.4593 0.0000
# 4 0.0000 0.0000 0.0000 -13.1502 0.0000 4.8873
# 5 0.4400 10.8690 8.4593 0.0000 33.3570 0.0000
# 6 0.0000 0.0000 0.0000 4.8873 0.0000 6.4822
#
#
#
# Elastic Compliance Matrix: (Units=1/GPa)
#
#
# Indices 1 2 3 4 5 6 
#
# 1 0.012194 -0.006130 -0.000394 0.000000 0.001937 0.000000
# 2 -0.006130 0.012235 -0.005533 0.000000 -0.002503 0.000000
# 3 -0.000394 -0.005533 0.016561 0.000000 -0.002392 0.000000
# 4 0.000000 0.000000 0.000000 -0.059400 0.000000 0.044785
# 5 0.001937 -0.002503 -0.002392 0.000000 0.031375 0.000000
# 6 0.000000 0.000000 0.000000 0.044785 0.000000 0.120502
#
#
# Mechanical properties :
#
#
# Convention : Reuss Voigt Hill
#
# Bulk Modulus (GPa) = 59.25805 71.20789 65.23297
# Shear Modulus (GPa) = 30.63575 18.10240 24.36908
#
# Velocity S-wave (km/s) = 4.05537 3.11734 3.61689
# Velocity P-wave (km/s) = 7.33071 7.15425 7.24301
#
# Compressibility (1/GPa) = 0.01687534
#
# Stress axis : x y z
#
# Youngs Moduli (GPa) = 82.00747 81.73021 60.38224
#
# Poissons Ratio (x) = 0.50105 0.02380
# Poissons Ratio (y) = 0.50275 0.33409
# Poissons Ratio (z) = 0.03232 0.45221
#
# Static dielectric constant tensor:
#      x y z
#    x 1.628460 0.000000 0.000460 
#    y 0.000000 1.640310 0.000000 
#    z 0.000460 0.000000 1.622420 
# 
# From -- ./inp_files/149778.got.cif
#   From: 2010.05.17/outbox.cif.g08.bks.cpg/sg12_75_cif.got.tgz:149778.got - 2010.06.03 13:09:07.
