data_PCOD9215543
_publ_section_title
;
Structure prediction by ZEFSAII (Michael W. Deem and Ramdas Pophale) SiO2 
 PCOD9215543
Probable space group: C 2/M
;
_chemical_formula_sum "Si O2"
_cell_formula_units_Z 48
_cell_length_a 10.709375
_cell_length_b 18.123655
_cell_length_c 22.884939
_cell_angle_alpha 90.000000
_cell_angle_beta 34.374350
_cell_angle_gamma 90.000000
_cell_volume 2507.833333
_symmetry_space_group_name_H-M "C 2/M"
_symmetry_group_IT_number 12
_symmetry_cell_setting 'monoclinic'
loop_
_space_group_symop_operation_xyz
x,y,z
-x,y,-z
-x,-y,-z
x,-y,z
1/2+x,1/2+y,z
1/2-x,1/2+y,-z
1/2-x,1/2-y,-z
1/2+x,1/2-y,z
loop_
_atom_site_type_symbol
_atom_site_label
_atom_site_fract_x
_atom_site_fract_y
_atom_site_fract_z
Si Si1 0.176977 0.911028 0.807075
Si Si2 0.663813 0.313771 0.989310
Si Si3 0.795080 0.327194 0.513823
Si Si4 0.821858 0.829444 0.314307
Si Si5 0.527275 0.579608 0.420707
Si Si6 0.021463 0.664283 0.760209
O O1 0.139553 0.885375 0.754169
O O2 0.392219 0.871660 0.754535
O O3 0.975197 0.874838 0.921562
O O4 0.191507 0.000000 0.806112
O O5 0.500000 0.285622 0.000000
O O6 0.750000 0.250000 0.000000
O O7 0.869778 0.349249 0.875349
O O8 0.750000 0.250000 0.500000
O O9 0.645952 0.342267 0.629062
O O10 0.711462 0.392677 0.506351
O O11 0.056147 0.324232 0.419022
O O12 0.946742 0.752573 0.255153
O O13 0.500000 0.575467 0.500000
O O14 0.579006 0.500000 0.375186
O O15 0.732335 0.632838 0.329183
#
# Coordination Sequence:
#
# PCOD9215543 Si02
#       6
#     8   8   8   8   8   8
#     4  11  24  42  65  97 132 165 210 271 331 383
#     4  10  22  41  67  97 129 170 220 275 328 392
#     4  11  22  37  59  90 122 162 215 255 308 382
#     4  11  22  37  64  89 124 168 209 259 314 381
#     4  11  23  38  58  88 127 160 203 264 321 371
#     4  11  22  38  66  93 124 164 218 259 318 382
#
# _framework density 19.140028000000001
#
# number of rings (size 3 to 8) (size 9 to 14) (size 15 to 20)
#    0.000    1.167    3.333    3.500    0.000    6.333 
#    0.000    1.667    0.000    0.500    0.000    0.000 
#    0.000    0.000    0.000    0.000    0.000    0.000 
#
# Total GULP energy -133648.132894 kJ/mol
# GULP energy per Si atom -5568.672204 kJ/mol
# Density = 1.909646 g / cm^3
# Si number density = 19.140028 Si / 1000 Ang^3
#
#
#
# Elastic Constant Matrix: (Units=GPa)
#
#
# Indices 1 2 3 4 5 6 
#
# 1 75.0516 43.0196 18.5123 0.0042 17.9884 -0.0007
# 2 43.0196 99.0108 15.8024 -0.0084 7.1507 0.0034
# 3 18.5123 15.8024 96.2179 0.0026 10.2457 0.0025
# 4 0.0042 -0.0084 0.0026 80.8602 -0.0059 -31.1808
# 5 17.9884 7.1507 10.2457 -0.0059 33.8621 0.0017
# 6 -0.0007 0.0034 0.0025 -31.1808 0.0017 35.3227
#
#
#
# Elastic Compliance Matrix: (Units=1/GPa)
#
#
# Indices 1 2 3 4 5 6 
#
# 1 0.020372 -0.007958 -0.001694 -0.000003 -0.008629 -0.000001
# 2 -0.007958 0.013579 -0.000872 0.000002 0.001624 0.000000
# 3 -0.001694 -0.000872 0.011105 -0.000001 -0.002276 -0.000002
# 4 -0.000003 0.000002 -0.000001 0.018749 0.000004 0.016551
# 5 -0.008629 0.001624 -0.002276 0.000004 0.034461 0.000002
# 6 -0.000001 0.000000 -0.000002 0.016551 0.000002 0.042920
#
#
# Mechanical properties :
#
#
# Convention : Reuss Voigt Hill
#
# Bulk Modulus (GPa) = 41.65196 47.21653 44.43424
# Shear Modulus (GPa) = 29.37094 42.87207 36.12150
#
# Velocity S-wave (km/s) = 3.92156 4.73791 4.34893
# Velocity P-wave (km/s) = 6.50490 7.39276 6.96300
#
# Compressibility (1/GPa) = 0.02400848
#
# Stress axis : x y z
#
# Youngs Moduli (GPa) = 49.08810 73.64073 90.05333
#
# Poissons Ratio (x) = 0.58602 0.15252
# Poissons Ratio (y) = 0.39063 0.07853
# Poissons Ratio (z) = 0.08314 0.06422
#
# Static dielectric constant tensor:
#      x y z
#    x 1.851970 -0.000020 0.070380 
#    y -0.000020 1.684500 0.000010 
#    z 0.070380 0.000010 1.662410 
# 
# From -- ./inp_files/336388.got.cif
#   From: 2010.05.17/outbox.cif.g08.bks.cpg/sg12_169_cif.got.tgz:336388.got - 2010.06.03 13:09:07.
