data_PCOD9215923
_publ_section_title
;
Structure prediction by ZEFSAII (Michael W. Deem and Ramdas Pophale) SiO2 
 PCOD9215923
Probable space group: C 2/M
;
_chemical_formula_sum "Si O2"
_cell_formula_units_Z 48
_cell_length_a 14.253783
_cell_length_b 12.271571
_cell_length_c 27.639345
_cell_angle_alpha 90.000000
_cell_angle_beta 32.749453
_cell_angle_gamma 90.000000
_cell_volume 2615.341344
_symmetry_space_group_name_H-M "C 2/M"
_symmetry_group_IT_number 12
_symmetry_cell_setting 'monoclinic'
loop_
_space_group_symop_operation_xyz
x,y,z
-x,y,-z
-x,-y,-z
x,-y,z
1/2+x,1/2+y,z
1/2-x,1/2+y,-z
1/2-x,1/2-y,-z
1/2+x,1/2-y,z
loop_
_atom_site_type_symbol
_atom_site_label
_atom_site_fract_x
_atom_site_fract_y
_atom_site_fract_z
Si Si1 0.153661 0.500000 0.354853
Si Si2 0.224558 0.500000 0.438184
Si Si3 0.675885 0.369592 0.899512
Si Si4 0.623982 0.374882 0.408311
Si Si5 0.586560 0.689125 0.593968
Si Si6 0.958096 0.633527 0.213170
Si Si7 0.744571 0.304562 0.760494
O O1 0.193468 0.500000 0.394560
O O2 0.230775 0.396743 0.291940
O O3 0.942431 0.500000 0.452509
O O4 0.336500 0.604302 0.402545
O O5 0.674073 0.500000 0.905020
O O6 0.684052 0.345163 0.838958
O O7 0.850407 0.335689 0.852344
O O8 0.500000 0.325581 0.000000
O O9 0.500000 0.314735 0.500000
O O10 0.645836 0.500000 0.414509
O O11 0.479344 0.368573 0.597108
O O12 0.818053 0.336555 0.315665
O O13 0.750000 0.750000 0.500000
O O14 0.441962 0.763819 0.680773
O O15 0.947697 0.500000 0.209681
O O16 0.882366 0.707037 0.202409
#
# Coordination Sequence:
#
# PCOD9215923 Si02
#       7
#     4   4   8   8   8   8   8
#     4  11  24  40  55  86 128 170 205 252 299 357
#     4  11  24  40  53  82 132 170 210 244 295 362
#     4  10  22  42  68  92 117 154 202 261 316 363
#     4   9  18  31  50  78 112 148 195 240 284 338
#     4  11  22  34  56  82 117 168 206 241 291 355
#     4   9  21  39  59  88 122 157 197 254 307 355
#     4  11  23  39  62  91 121 159 210 248 308 366
#
# _framework density 18.353245000000001
#
# number of rings (size 3 to 8) (size 9 to 14) (size 15 to 20)
#    0.000    1.833    3.333    0.000    5.833    2.000 
#    0.000    0.000    0.000    0.500    0.000    0.000 
#    0.000    0.000    0.000    0.000    0.000    0.000 
#
# Total GULP energy -133678.234714 kJ/mol
# GULP energy per Si atom -5569.926446 kJ/mol
# Density = 1.831147 g / cm^3
# Si number density = 18.353245 Si / 1000 Ang^3
#
#
#
# Elastic Constant Matrix: (Units=GPa)
#
#
# Indices 1 2 3 4 5 6 
#
# 1 83.4120 27.8721 55.8536 0.0000 -17.3601 0.0000
# 2 27.8721 58.8172 23.6792 0.0000 -8.7229 0.0000
# 3 55.8536 23.6792 136.0108 0.0001 -17.3958 0.0000
# 4 0.0000 0.0000 0.0001 24.3341 0.0000 -3.5834
# 5 -17.3601 -8.7229 -17.3958 0.0000 31.3845 0.0000
# 6 0.0000 0.0000 0.0000 -3.5834 0.0000 22.6470
#
#
#
# Elastic Compliance Matrix: (Units=1/GPa)
#
#
# Indices 1 2 3 4 5 6 
#
# 1 0.019221 -0.005794 -0.006168 0.000000 0.005603 0.000000
# 2 -0.005794 0.020410 -0.000924 0.000000 0.001955 0.000000
# 3 -0.006168 -0.000924 0.010308 0.000000 0.002045 0.000000
# 4 0.000000 0.000000 0.000000 0.042075 0.000000 0.006658
# 5 0.005603 0.001955 0.002045 0.000000 0.036639 0.000000
# 6 0.000000 0.000000 0.000000 0.006658 0.000000 0.045209
#
#
# Mechanical properties :
#
#
# Convention : Reuss Voigt Hill
#
# Bulk Modulus (GPa) = 41.37983 54.78332 48.08157
# Shear Modulus (GPa) = 24.07451 27.06213 25.56832
#
# Velocity S-wave (km/s) = 3.62571 3.84411 3.73651
# Velocity P-wave (km/s) = 6.33427 7.04394 6.69851
#
# Compressibility (1/GPa) = 0.02416636
#
# Stress axis : x y z
#
# Youngs Moduli (GPa) = 52.02637 48.99676 97.01621
#
# Poissons Ratio (x) = 0.28391 0.59838
# Poissons Ratio (y) = 0.30146 0.08961
# Poissons Ratio (z) = 0.32089 0.04526
#
# Static dielectric constant tensor:
#      x y z
#    x 1.646230 0.000000 -0.004810 
#    y 0.000000 1.627740 0.000000 
#    z -0.004810 0.000000 1.652410 
# 
# From -- ./inp_files/245858.got.cif
#   From: 2010.05.17/outbox.cif.g08.bks.cpg/sg12_123_cif.got.tgz:245858.got - 2010.06.03 13:09:07.
