data_PCOD9215725
_publ_section_title
;
Structure prediction by ZEFSAII (Michael W. Deem and Ramdas Pophale) SiO2 
 PCOD9215725
Probable space group: C 2/M
;
_chemical_formula_sum "Si O2"
_cell_formula_units_Z 56
_cell_length_a 8.039683
_cell_length_b 17.953229
_cell_length_c 26.921922
_cell_angle_alpha 90.000000
_cell_angle_beta 42.217942
_cell_angle_gamma 90.000000
_cell_volume 2611.115936
_symmetry_space_group_name_H-M "C 2/M"
_symmetry_group_IT_number 12
_symmetry_cell_setting 'monoclinic'
loop_
_space_group_symop_operation_xyz
x,y,z
-x,y,-z
-x,-y,-z
x,-y,z
1/2+x,1/2+y,z
1/2-x,1/2+y,-z
1/2-x,1/2-y,-z
1/2+x,1/2-y,z
loop_
_atom_site_type_symbol
_atom_site_label
_atom_site_fract_x
_atom_site_fract_y
_atom_site_fract_z
Si Si1 0.688481 0.170277 0.913523
Si Si2 0.016888 0.085460 0.320390
Si Si3 0.951816 0.412546 0.150511
Si Si4 0.582323 0.204999 0.428393
Si Si5 0.793344 0.415802 0.441249
Si Si6 0.719277 0.322757 0.845765
Si Si7 0.845647 0.652889 0.327200
O O1 0.578767 0.108882 0.900183
O O2 0.701429 0.242156 0.874971
O O3 0.956258 0.155315 0.879442
O O4 0.500000 0.184335 0.000000
O O5 0.190932 0.106471 0.235360
O O6 0.193637 0.093443 0.328860
O O7 0.805039 0.145596 0.375583
O O8 0.933897 0.000000 0.333598
O O9 0.987041 0.500000 0.148197
O O10 0.167797 0.373076 0.134664
O O11 0.500000 0.233902 0.500000
O O12 0.358051 0.150567 0.463733
O O13 0.672931 0.275217 0.376250
O O14 0.500000 0.418493 0.500000
O O15 0.871994 0.500000 0.437281
O O16 0.915234 0.386962 0.363127
O O17 0.919579 0.323060 0.757096
#
# Coordination Sequence:
#
# PCOD9215725 Si02
#       7
#     8   8   8   8   8   8   8
#     4  12  25  44  74 104 137 182 232 274 334 414
#     4  10  22  42  64  89 126 169 213 267 328 390
#     4  10  24  45  69 104 143 176 224 287 340 397
#     4  12  25  39  61  92 125 167 213 268 326 383
#     4  11  25  43  62  89 127 170 214 265 323 390
#     4  11  25  43  73 103 136 183 229 278 339 409
#     4  11  24  41  66  93 126 162 219 274 327 383
#
# _framework density 21.446769
#
# number of rings (size 3 to 8) (size 9 to 14) (size 15 to 20)
#    0.000    1.000    1.429    4.286    6.000    5.429 
#    0.000    0.714    0.000    0.000    0.000    0.000 
#    0.000    0.000    0.000    0.000    0.000    0.000 
#
# Total GULP energy -156507.010278 kJ/mol
# GULP energy per Si atom -5589.536081 kJ/mol
# Density = 2.139795 g / cm^3
# Si number density = 21.446769 Si / 1000 Ang^3
#
#
#
# Elastic Constant Matrix: (Units=GPa)
#
#
# Indices 1 2 3 4 5 6 
#
# 1 85.2393 27.1740 33.2041 -0.0008 -6.3911 -0.0019
# 2 27.1740 74.7853 25.9998 0.0020 -6.5864 0.0013
# 3 33.2041 25.9998 81.9103 0.0102 3.0221 0.0041
# 4 -0.0008 0.0020 0.0102 11.4904 0.0000 -1.3182
# 5 -6.3911 -6.5864 3.0221 0.0000 27.8279 -0.0017
# 6 -0.0019 0.0013 0.0041 -1.3182 -0.0017 41.3363
#
#
#
# Elastic Compliance Matrix: (Units=1/GPa)
#
#
# Indices 1 2 3 4 5 6 
#
# 1 0.015061 -0.003401 -0.005144 0.000006 0.003213 0.000002
# 2 -0.003401 0.016277 -0.003917 0.000000 0.003497 0.000000
# 3 -0.005144 -0.003917 0.015678 -0.000014 -0.003811 -0.000002
# 4 0.000006 0.000000 -0.000014 0.087349 0.000003 0.002785
# 5 0.003213 0.003497 -0.003811 0.000003 0.037915 0.000002
# 6 0.000002 0.000000 -0.000002 0.002785 0.000002 0.024281
#
#
# Mechanical properties :
#
#
# Convention : Reuss Voigt Hill
#
# Bulk Modulus (GPa) = 45.26704 46.07674 45.67189
# Shear Modulus (GPa) = 21.84860 26.50137 24.17499
#
# Velocity S-wave (km/s) = 3.19523 3.51904 3.36104
# Velocity P-wave (km/s) = 5.89620 6.16785 6.03355
#
# Compressibility (1/GPa) = 0.02209113
#
# Stress axis : x y z
#
# Youngs Moduli (GPa) = 66.39826 61.43573 63.78496
#
# Poissons Ratio (x) = 0.20895 0.32812
# Poissons Ratio (y) = 0.22583 0.24984
# Poissons Ratio (z) = 0.34156 0.24064
#
# Static dielectric constant tensor:
#      x y z
#    x 1.890690 0.000000 0.024080 
#    y 0.000000 1.741400 0.000000 
#    z 0.024080 0.000000 1.775580 
# 
# From -- ./inp_files/356654.got.cif
#   From: 2010.05.17/outbox.cif.g08.bks.cpg/sg12_179_cif.got.tgz:356654.got - 2010.06.03 13:09:07.
