data_PCOD9215729
_publ_section_title
;
Structure prediction by ZEFSAII (Michael W. Deem and Ramdas Pophale) SiO2 
 PCOD9215729
Probable space group: C 2/M
;
_chemical_formula_sum "Si O2"
_cell_formula_units_Z 40
_cell_length_a 15.142950
_cell_length_b 8.790493
_cell_length_c 15.734023
_cell_angle_alpha 90.000000
_cell_angle_beta 76.526710
_cell_angle_gamma 90.000000
_cell_volume 2036.777428
_symmetry_space_group_name_H-M "C 2/M"
_symmetry_group_IT_number 12
_symmetry_cell_setting 'monoclinic'
loop_
_space_group_symop_operation_xyz
x,y,z
-x,y,-z
-x,-y,-z
x,-y,z
1/2+x,1/2+y,z
1/2-x,1/2+y,-z
1/2-x,1/2-y,-z
1/2+x,1/2-y,z
loop_
_atom_site_type_symbol
_atom_site_label
_atom_site_fract_x
_atom_site_fract_y
_atom_site_fract_z
Si Si1 0.288962 0.184442 0.219806
Si Si2 0.531223 0.318145 0.896971
Si Si3 0.456226 0.326661 0.595881
Si Si4 0.408415 0.181365 0.777300
Si Si5 0.245856 0.330278 0.591028
O O1 0.372177 0.242166 0.145417
O O2 0.193141 0.250799 0.209212
O O3 0.303834 0.237020 0.315027
O O4 0.284145 0.000000 0.221804
O O5 0.537895 0.500000 0.884430
O O6 0.458886 0.251239 0.846784
O O7 0.500000 0.286777 0.000000
O O8 0.500000 0.262579 0.500000
O O9 0.491618 0.500000 0.600347
O O10 0.463070 0.231159 0.679972
O O11 0.349555 0.338097 0.599785
O O12 0.404584 0.000000 0.783445
O O13 0.209911 0.500000 0.584965
O O14 0.250000 0.250000 0.500000
#
# Coordination Sequence:
#
# PCOD9215729 Si02
#       5
#     8   8   8   8   8
#     4  10  22  42  64  90 125 164 207 256 310 369
#     4  11  25  44  67  94 122 160 209 259 316 375
#     4   9  19  36  56  82 117 161 205 248 301 359
#     4  11  23  40  63  92 126 165 206 254 311 370
#     4   9  19  33  52  82 117 155 196 241 296 356
#
# _framework density 19.638866
#
# number of rings (size 3 to 8) (size 9 to 14) (size 15 to 20)
#    0.000    2.000    0.000    4.200    2.800    6.800 
#    0.000    0.000    0.000    0.000    0.000    0.000 
#    0.000    0.000    0.000    0.000    0.000    0.000 
#
# Total GULP energy -111649.270752 kJ/mol
# GULP energy per Si atom -5582.463538 kJ/mol
# Density = 1.959417 g / cm^3
# Si number density = 19.638866 Si / 1000 Ang^3
#
#
#
# Elastic Constant Matrix: (Units=GPa)
#
#
# Indices 1 2 3 4 5 6 
#
# 1 84.0629 40.1133 70.4346 0.0000 2.3999 0.0000
# 2 40.1133 93.5266 82.9770 0.0000 7.5019 0.0000
# 3 70.4346 82.9770 184.5444 0.0000 -0.8818 0.0000
# 4 0.0000 0.0000 0.0000 18.8079 0.0000 -0.0816
# 5 2.3999 7.5019 -0.8818 0.0000 36.7626 0.0000
# 6 0.0000 0.0000 0.0000 -0.0816 0.0000 25.2661
#
#
#
# Elastic Compliance Matrix: (Units=1/GPa)
#
#
# Indices 1 2 3 4 5 6 
#
# 1 0.017907 -0.002580 -0.005678 0.000000 -0.000779 0.000000
# 2 -0.002580 0.018714 -0.007448 0.000000 -0.003829 0.000000
# 3 -0.005678 -0.007448 0.010945 0.000000 0.002153 0.000000
# 4 0.000000 0.000000 0.000000 0.053170 0.000000 0.000172
# 5 -0.000779 -0.003829 0.002153 0.000000 0.028085 0.000000
# 6 0.000000 0.000000 0.000000 0.000172 0.000000 0.039579
#
#
# Mechanical properties :
#
#
# Convention : Reuss Voigt Hill
#
# Bulk Modulus (GPa) = 61.90658 83.24263 72.57461
# Shear Modulus (GPa) = 24.36694 27.40793 25.88743
#
# Velocity S-wave (km/s) = 3.52625 3.73982 3.63460
# Velocity P-wave (km/s) = 6.94047 7.81838 7.39247
#
# Compressibility (1/GPa) = 0.01615337
#
# Stress axis : x y z
#
# Youngs Moduli (GPa) = 55.84474 53.43729 91.36678
#
# Poissons Ratio (x) = 0.13788 0.51878
# Poissons Ratio (y) = 0.14409 0.68048
# Poissons Ratio (z) = 0.31709 0.39799
#
# Static dielectric constant tensor:
#      x y z
#    x 1.685000 0.000000 -0.016530 
#    y 0.000000 1.687940 0.000000 
#    z -0.016530 0.000000 1.704410 
# 
# From -- ./inp_files/211225.got.cif
#   From: 2010.05.17/outbox.cif.g08.bks.cpg/sg12_106_cif.got.tgz:211225.got - 2010.06.03 13:09:07.
