data_PCOD9215014
_publ_section_title
;
Structure prediction by ZEFSAII (Michael W. Deem and Ramdas Pophale) SiO2 
 PCOD9215014
Probable space group: C 2/M
;
_chemical_formula_sum "Si O2"
_cell_formula_units_Z 36
_cell_length_a 10.972054
_cell_length_b 18.794019
_cell_length_c 8.808469
_cell_angle_alpha 90.000000
_cell_angle_beta 69.203248
_cell_angle_gamma 90.000000
_cell_volume 1698.040373
_symmetry_space_group_name_H-M "C 2/M"
_symmetry_group_IT_number 12
_symmetry_cell_setting 'monoclinic'
loop_
_space_group_symop_operation_xyz
x,y,z
-x,y,-z
-x,-y,-z
x,-y,z
1/2+x,1/2+y,z
1/2-x,1/2+y,-z
1/2-x,1/2-y,-z
1/2+x,1/2-y,z
loop_
_atom_site_type_symbol
_atom_site_label
_atom_site_fract_x
_atom_site_fract_y
_atom_site_fract_z
Si Si1 0.746181 0.357353 0.380777
Si Si2 0.337183 0.139921 0.674847
Si Si3 0.408767 0.000000 0.824371
Si Si4 0.000000 0.237663 0.500000
Si Si5 0.652884 0.741104 0.898604
Si Si6 0.790154 0.500000 0.202107
O O1 0.618594 0.313546 0.489963
O O2 0.819433 0.304882 0.232167
O O3 0.722653 0.429765 0.299304
O O4 0.822645 0.373305 0.501821
O O5 0.434406 0.207702 0.648014
O O6 0.200945 0.168007 0.800758
O O7 0.383633 0.070665 0.739512
O O8 0.559465 0.000000 0.807262
O O9 0.311494 0.000000 0.011979
O O10 0.500000 0.740227 0.000000
O O11 0.750000 0.750000 0.000000
#
# Coordination Sequence:
#
# PCOD9215014 Si02
#       6
#     8   8   4   4   8   4
#     4  11  25  42  71 100 136 182 233 286 344 417
#     4  11  24  43  70 101 134 183 232 288 343 418
#     4  11  25  45  69  99 138 176 235 285 353 414
#     4  10  22  40  68 100 134 170 224 280 342 404
#     4  11  26  42  70 105 145 187 231 288 352 413
#     4  11  25  44  68  99 135 183 227 291 347 419
#
# _framework density 21.200911000000001
#
# number of rings (size 3 to 8) (size 9 to 14) (size 15 to 20)
#    0.000    1.111    0.000    6.000   18.667    1.778 
#    0.000    0.556    0.000    0.000    0.000    0.000 
#    0.000    0.000    0.000    0.000    0.000    0.000 
#
# Total GULP energy -100620.586995 kJ/mol
# GULP energy per Si atom -5590.032611 kJ/mol
# Density = 2.115266 g / cm^3
# Si number density = 21.200911 Si / 1000 Ang^3
#
#
#
# Elastic Constant Matrix: (Units=GPa)
#
#
# Indices 1 2 3 4 5 6 
#
# 1 103.1235 44.5853 69.2309 0.0000 9.6443 0.0000
# 2 44.5853 153.5638 51.7918 0.0000 3.3109 0.0000
# 3 69.2309 51.7918 124.1222 0.0000 1.8007 0.0000
# 4 0.0000 0.0000 0.0000 24.8787 0.0000 5.3250
# 5 9.6443 3.3109 1.8007 0.0000 49.8431 0.0000
# 6 0.0000 0.0000 0.0000 5.3250 0.0000 29.2861
#
#
#
# Elastic Compliance Matrix: (Units=1/GPa)
#
#
# Indices 1 2 3 4 5 6 
#
# 1 0.016328 -0.001889 -0.008279 0.000000 -0.002735 0.000000
# 2 -0.001889 0.007805 -0.002202 0.000000 -0.000073 0.000000
# 3 -0.008279 -0.002202 0.013575 0.000000 0.001258 0.000000
# 4 0.000000 0.000000 0.000000 0.041823 0.000000 -0.007605
# 5 -0.002735 -0.000073 0.001258 0.000000 0.020552 0.000000
# 6 0.000000 0.000000 0.000000 -0.007605 0.000000 0.035529
#
#
# Mechanical properties :
#
#
# Convention : Reuss Voigt Hill
#
# Bulk Modulus (GPa) = 77.11887 79.11393 78.11640
# Shear Modulus (GPa) = 30.36331 35.14835 32.75583
#
# Velocity S-wave (km/s) = 3.78851 4.07611 3.93494
# Velocity P-wave (km/s) = 7.45596 7.71688 7.58754
#
# Compressibility (1/GPa) = 0.01296699
#
# Stress axis : x y z
#
# Youngs Moduli (GPa) = 61.24545 128.12873 73.66617
#
# Poissons Ratio (x) = 0.24208 0.60988
# Poissons Ratio (y) = 0.11572 0.16219
# Poissons Ratio (z) = 0.50705 0.28210
#
# Static dielectric constant tensor:
#      x y z
#    x 1.807250 0.000000 0.001540 
#    y 0.000000 1.737180 0.000000 
#    z 0.001540 0.000000 1.802960 
# 
# From -- ./inp_files/130831.got.cif
#   From: 2010.05.17/outbox.cif.g08.bks.cpg/sg12_66_cif.got.tgz:130831.got - 2010.06.03 13:09:07.
