data_PCOD9215744
_publ_section_title
;
Structure prediction by ZEFSAII (Michael W. Deem and Ramdas Pophale) SiO2 
 PCOD9215744
Probable space group: C 2/M
;
_chemical_formula_sum "Si O2"
_cell_formula_units_Z 56
_cell_length_a 16.413940
_cell_length_b 8.798663
_cell_length_c 23.241165
_cell_angle_alpha 90.000000
_cell_angle_beta 122.367032
_cell_angle_gamma 90.000000
_cell_volume 2835.026085
_symmetry_space_group_name_H-M "C 2/M"
_symmetry_group_IT_number 12
_symmetry_cell_setting 'monoclinic'
loop_
_space_group_symop_operation_xyz
x,y,z
-x,y,-z
-x,-y,-z
x,-y,z
1/2+x,1/2+y,z
1/2-x,1/2+y,-z
1/2-x,1/2-y,-z
1/2+x,1/2-y,z
loop_
_atom_site_type_symbol
_atom_site_label
_atom_site_fract_x
_atom_site_fract_y
_atom_site_fract_z
Si Si1 0.733077 0.181399 0.930896
Si Si2 0.804512 0.816515 0.575397
Si Si3 0.592049 0.818107 0.073474
Si Si4 0.969384 0.182256 0.341262
Si Si5 0.951586 0.318113 0.214062
Si Si6 0.619603 0.681144 0.207470
Si Si7 0.695564 0.182926 0.652005
O O1 0.814681 0.244896 0.919954
O O2 0.630372 0.219540 0.863710
O O3 0.739471 0.000000 0.936884
O O4 0.750000 0.250000 0.000000
O O5 0.750000 0.750000 0.500000
O O6 0.747572 0.770414 0.612068
O O7 0.917561 0.771937 0.615457
O O8 0.802578 0.000000 0.573308
O O9 0.586901 0.761048 0.136669
O O10 0.599054 0.000000 0.075389
O O11 0.500000 0.774289 0.000000
O O12 0.925678 0.257547 0.267205
O O13 0.905655 0.239925 0.370665
O O14 0.964349 0.000000 0.335665
O O15 0.963597 0.500000 0.219900
O O16 0.048519 0.235570 0.230710
O O17 0.613622 0.500000 0.198509
O O18 0.727620 0.719761 0.268438
O O19 0.683480 0.000000 0.646193
#
# Coordination Sequence:
#
# PCOD9215744 Si02
#       7
#     8   8   8   8   8   8   8
#     4  11  24  40  58  84 117 157 204 257 315 376
#     4  10  23  44  66  93 132 169 209 260 316 376
#     4  11  24  40  57  83 119 157 203 258 313 375
#     4  11  23  41  65  96 129 165 213 263 311 374
#     4  11  23  39  61  90 123 160 206 257 314 375
#     4  11  22  39  63  89 122 161 206 259 313 371
#     4  10  22  42  64  92 130 167 207 260 316 374
#
# _framework density 19.752904999999998
#
# number of rings (size 3 to 8) (size 9 to 14) (size 15 to 20)
#    0.000    1.286    1.429    3.857    0.000   13.714 
#    0.000    2.857    0.000    0.000    0.000    0.000 
#    0.000    0.000    0.000    0.000    0.000    0.000 
#
# Total GULP energy -156540.745078 kJ/mol
# GULP energy per Si atom -5590.740896 kJ/mol
# Density = 1.970795 g / cm^3
# Si number density = 19.752905 Si / 1000 Ang^3
#
#
#
# Elastic Constant Matrix: (Units=GPa)
#
#
# Indices 1 2 3 4 5 6 
#
# 1 127.8122 17.3931 38.9821 0.0000 1.3472 0.0000
# 2 17.3931 19.7639 29.0888 0.0000 10.0462 0.0000
# 3 38.9821 29.0888 110.8600 0.0000 -3.5879 0.0000
# 4 0.0000 0.0000 0.0000 31.8213 0.0000 -5.0788
# 5 1.3472 10.0462 -3.5879 0.0000 23.2734 0.0000
# 6 0.0000 0.0000 0.0000 -5.0788 0.0000 37.4092
#
#
#
# Elastic Compliance Matrix: (Units=1/GPa)
#
#
# Indices 1 2 3 4 5 6 
#
# 1 0.009197 -0.007879 -0.001079 0.000000 0.002702 0.000000
# 2 -0.007879 0.151305 -0.039226 0.000000 -0.070904 0.000000
# 3 -0.001079 -0.039226 0.020344 0.000000 0.020131 0.000000
# 4 0.000000 0.000000 0.000000 0.032121 0.000000 0.004361
# 5 0.002702 -0.070904 0.020131 0.000000 0.076521 0.000000
# 6 0.000000 0.000000 0.000000 0.004361 0.000000 0.027323
#
#
# Mechanical properties :
#
#
# Convention : Reuss Voigt Hill
#
# Bulk Modulus (GPa) = 11.83732 47.70712 29.77222
# Shear Modulus (GPa) = 11.32916 30.03224 20.68070
#
# Velocity S-wave (km/s) = 2.39748 3.90346 3.23920
# Velocity P-wave (km/s) = 3.69724 6.67236 5.39397
#
# Compressibility (1/GPa) = 0.08447860
#
# Stress axis : x y z
#
# Youngs Moduli (GPa) = 108.73334 6.60915 49.15498
#
# Poissons Ratio (x) = 0.05207 0.05304
# Poissons Ratio (y) = 0.85673 1.92813
# Poissons Ratio (z) = 0.11732 0.25925
#
# Static dielectric constant tensor:
#      x y z
#    x 1.684300 0.000000 0.015760 
#    y 0.000000 1.655060 0.000000 
#    z 0.015760 0.000000 1.689120 
# 
# From -- ./inp_files/338992.got.cif
#   From: 2010.05.17/outbox.cif.g08.bks.cpg/sg12_170_cif.got.tgz:338992.got - 2010.06.03 13:09:07.
