data_PCOD9215738
_publ_section_title
;
Structure prediction by ZEFSAII (Michael W. Deem and Ramdas Pophale) SiO2 
 PCOD9215738
Probable space group: C 2/M
;
_chemical_formula_sum "Si O2"
_cell_formula_units_Z 48
_cell_length_a 11.314047
_cell_length_b 14.898769
_cell_length_c 12.072530
_cell_angle_alpha 90.000000
_cell_angle_beta 113.847217
_cell_angle_gamma 90.000000
_cell_volume 1861.275156
_symmetry_space_group_name_H-M "C 2/M"
_symmetry_group_IT_number 12
_symmetry_cell_setting 'monoclinic'
loop_
_space_group_symop_operation_xyz
x,y,z
-x,y,-z
-x,-y,-z
x,-y,z
1/2+x,1/2+y,z
1/2-x,1/2+y,-z
1/2-x,1/2-y,-z
1/2+x,1/2-y,z
loop_
_atom_site_type_symbol
_atom_site_label
_atom_site_fract_x
_atom_site_fract_y
_atom_site_fract_z
Si Si1 0.911889 0.339459 0.166502
Si Si2 0.536919 0.648918 0.887702
Si Si3 0.583099 0.894413 0.428333
Si Si4 0.808314 0.406724 0.912750
Si Si5 0.791593 0.760417 0.755481
Si Si6 0.654428 0.606464 0.563540
O O1 0.797408 0.329312 0.210974
O O2 0.902948 0.247409 0.094971
O O3 0.033963 0.353050 0.293706
O O4 0.878551 0.407371 0.057518
O O5 0.653314 0.594562 0.877098
O O6 0.409099 0.672563 0.767340
O O7 0.500000 0.622596 0.000000
O O8 0.500000 0.858757 0.500000
O O9 0.738358 0.884931 0.494872
O O10 0.553520 0.000000 0.408948
O O11 0.840598 0.500000 0.865755
O O12 0.844725 0.317725 0.859105
O O13 0.700031 0.694813 0.649240
O O14 0.500000 0.614559 0.500000
O O15 0.673539 0.500000 0.606121
#
# Coordination Sequence:
#
# PCOD9215738 Si02
#       6
#     8   8   8   8   8   8
#     4  11  21  38  63  90 127 169 213 265 325 392
#     4  11  19  39  62  90 128 169 210 263 325 386
#     4  10  22  42  64  91 130 170 215 272 330 390
#     4  11  23  37  60  97 133 169 214 263 327 394
#     4  11  21  40  64  90 126 168 213 268 322 389
#     4  10  22  43  69  95 126 168 220 276 331 389
#
# _framework density 25.788772000000002
#
# number of rings (size 3 to 8) (size 9 to 14) (size 15 to 20)
#    0.000    1.333    5.000    2.000    0.000    1.000 
#    6.000    2.500    0.000    0.000    0.000    0.000 
#    0.000    0.000    0.000    0.000    0.000    0.000 
#
# Total GULP energy -133691.493529 kJ/mol
# GULP energy per Si atom -5570.478897 kJ/mol
# Density = 2.573008 g / cm^3
# Si number density = 25.788772 Si / 1000 Ang^3
#
#
#
# Elastic Constant Matrix: (Units=GPa)
#
#
# Indices 1 2 3 4 5 6 
#
# 1 169.9585 13.8446 58.2524 0.0000 20.3646 0.0000
# 2 13.8446 73.8847 28.2140 0.0000 15.6289 0.0000
# 3 58.2524 28.2140 121.6396 0.0000 13.7361 0.0000
# 4 0.0000 0.0000 0.0000 202.3052 0.0000 114.5247
# 5 20.3646 15.6289 13.7361 0.0000 43.4533 0.0000
# 6 0.0000 0.0000 0.0000 114.5247 0.0000 83.0746
#
#
#
# Elastic Compliance Matrix: (Units=1/GPa)
#
#
# Indices 1 2 3 4 5 6 
#
# 1 0.007283 0.000430 -0.003303 0.000000 -0.002524 0.000000
# 2 0.000430 0.015737 -0.003313 0.000000 -0.004815 0.000000
# 3 -0.003303 -0.003313 0.010642 0.000000 -0.000625 0.000000
# 4 0.000000 0.000000 0.000000 0.022510 0.000000 -0.031032
# 5 -0.002524 -0.004815 -0.000625 0.000000 0.026125 0.000000
# 6 0.000000 0.000000 0.000000 -0.031032 0.000000 0.054818
#
#
# Mechanical properties :
#
#
# Convention : Reuss Voigt Hill
#
# Bulk Modulus (GPa) = 46.96550 62.90054 54.93302
# Shear Modulus (GPa) = 31.93202 83.44475 57.68838
#
# Velocity S-wave (km/s) = 3.52264 5.69449 4.73478
# Velocity P-wave (km/s) = 5.89886 8.22678 7.15809
#
# Compressibility (1/GPa) = 0.02129223
#
# Stress axis : x y z
#
# Youngs Moduli (GPa) = 137.30366 63.54283 93.97165
#
# Poissons Ratio (x) = -0.02735 0.31035
# Poissons Ratio (y) = -0.05909 0.31129
# Poissons Ratio (z) = 0.45346 0.21049
#
# Static dielectric constant tensor:
#      x y z
#    x 2.168930 0.000000 0.012850 
#    y 0.000000 2.056420 0.000000 
#    z 0.012850 0.000000 2.126180 
# 
# From -- ./inp_files/205130.got.cif
#   From: 2010.05.17/outbox.cif.g08.bks.cpg/sg12_103_cif.got.tgz:205130.got - 2010.06.03 13:09:07.
