data_PCOD9215173
_publ_section_title
;
Structure prediction by ZEFSAII (Michael W. Deem and Ramdas Pophale) SiO2 
 PCOD9215173
Probable space group: C 2/M
;
_chemical_formula_sum "Si O2"
_cell_formula_units_Z 48
_cell_length_a 8.267235
_cell_length_b 29.744193
_cell_length_c 9.374133
_cell_angle_alpha 90.000000
_cell_angle_beta 93.799919
_cell_angle_gamma 90.000000
_cell_volume 2300.052577
_symmetry_space_group_name_H-M "C 2/M"
_symmetry_group_IT_number 12
_symmetry_cell_setting 'monoclinic'
loop_
_space_group_symop_operation_xyz
x,y,z
-x,y,-z
-x,-y,-z
x,-y,z
1/2+x,1/2+y,z
1/2-x,1/2+y,-z
1/2-x,1/2-y,-z
1/2+x,1/2-y,z
loop_
_atom_site_type_symbol
_atom_site_label
_atom_site_fract_x
_atom_site_fract_y
_atom_site_fract_z
Si Si1 0.863482 0.207597 0.181873
Si Si2 0.846043 0.448174 0.578364
Si Si3 0.337704 0.896433 0.084331
Si Si4 0.169276 0.110664 0.783576
Si Si5 0.858598 0.051031 0.711796
Si Si6 0.745753 0.301120 0.141993
O O1 0.817826 0.162587 0.263791
O O2 0.831511 0.258984 0.223549
O O3 0.054886 0.200619 0.166324
O O4 0.755546 0.204469 0.030577
O O5 0.875268 0.500000 0.621935
O O6 0.801873 0.418325 0.709121
O O7 0.702117 0.447582 0.454116
O O8 0.000000 0.431495 0.500000
O O9 0.287772 0.935680 0.189796
O O10 0.329777 0.849191 0.169690
O O11 0.500000 0.901216 0.000000
O O12 0.199115 0.892401 0.954443
O O13 0.998226 0.087496 0.741738
O O14 0.914837 0.000000 0.745498
#
# Coordination Sequence:
#
# PCOD9215173 Si02
#       6
#     8   8   8   8   8   8
#     4   9  18  31  53  82 114 150 191 240 286 343
#     4  10  22  41  63  87 116 155 201 244 295 360
#     4  11  23  36  56  90 124 155 195 246 298 347
#     4  11  21  37  59  90 118 152 203 244 293 351
#     4  11  23  40  61  86 119 160 199 242 298 356
#     4   9  18  32  51  81 118 151 190 236 290 348
#
# _framework density 20.869087
#
# number of rings (size 3 to 8) (size 9 to 14) (size 15 to 20)
#    0.000    1.833    1.667    2.500    7.000    3.667 
#    0.000    0.000    0.000    1.000    0.000    0.000 
#    0.000    0.000    0.000    0.000    0.000    0.000 
#
# Total GULP energy -133915.250909 kJ/mol
# GULP energy per Si atom -5579.802121 kJ/mol
# Density = 2.082159 g / cm^3
# Si number density = 20.869087 Si / 1000 Ang^3
#
#
#
# Elastic Constant Matrix: (Units=GPa)
#
#
# Indices 1 2 3 4 5 6 
#
# 1 55.7487 16.7279 0.8280 0.0000 -8.3270 0.0000
# 2 16.7279 119.6018 33.4264 0.0000 -10.4977 0.0000
# 3 0.8280 33.4264 37.2146 0.0000 -6.8525 0.0000
# 4 0.0000 0.0000 0.0000 38.1327 0.0000 -17.6920
# 5 -8.3270 -10.4977 -6.8525 0.0000 26.5958 0.0000
# 6 0.0000 0.0000 0.0000 -17.6920 0.0000 43.4213
#
#
#
# Elastic Compliance Matrix: (Units=1/GPa)
#
#
# Indices 1 2 3 4 5 6 
#
# 1 0.019724 -0.003238 0.003539 0.000000 0.005809 0.000000
# 2 -0.003238 0.011789 -0.010337 0.000000 0.000976 0.000000
# 3 0.003539 -0.010337 0.037299 0.000000 0.006638 0.000000
# 4 0.000000 0.000000 0.000000 0.032337 0.000000 0.013176
# 5 0.005809 0.000976 0.006638 0.000000 0.041514 0.000000
# 6 0.000000 0.000000 0.000000 0.013176 0.000000 0.028399
#
#
# Mechanical properties :
#
#
# Convention : Reuss Voigt Hill
#
# Bulk Modulus (GPa) = 20.51650 34.94773 27.73212
# Shear Modulus (GPa) = 24.11022 32.40213 28.25618
#
# Velocity S-wave (km/s) = 3.40267 3.94463 3.68363
# Velocity P-wave (km/s) = 5.02891 6.12612 5.60443
#
# Compressibility (1/GPa) = 0.04874125
#
# Stress axis : x y z
#
# Youngs Moduli (GPa) = 50.69865 84.82801 26.81009
#
# Poissons Ratio (x) = 0.27467 -0.09489
# Poissons Ratio (y) = 0.16416 0.27713
# Poissons Ratio (z) = -0.17943 0.87685
#
# Static dielectric constant tensor:
#      x y z
#    x 1.798810 0.000000 0.013410 
#    y 0.000000 1.793040 0.000000 
#    z 0.013410 0.000000 1.718480 
# 
# From -- ./inp_files/42139.got.cif
#   From: 2010.05.17/outbox.cif.g08.bks.cpg/sg12_22_cif.got.tgz:42139.got - 2010.06.03 13:09:07.
