data_PCOD9215245
_publ_section_title
;
Structure prediction by ZEFSAII (Michael W. Deem and Ramdas Pophale) SiO2 
 PCOD9215245
Probable space group: C 2/M
;
_chemical_formula_sum "Si O2"
_cell_formula_units_Z 44
_cell_length_a 14.199697
_cell_length_b 18.208027
_cell_length_c 7.601668
_cell_angle_alpha 90.000000
_cell_angle_beta 95.040489
_cell_angle_gamma 90.000000
_cell_volume 1957.799126
_symmetry_space_group_name_H-M "C 2/M"
_symmetry_group_IT_number 12
_symmetry_cell_setting 'monoclinic'
loop_
_space_group_symop_operation_xyz
x,y,z
-x,y,-z
-x,-y,-z
x,-y,z
1/2+x,1/2+y,z
1/2-x,1/2+y,-z
1/2-x,1/2-y,-z
1/2+x,1/2-y,z
loop_
_atom_site_type_symbol
_atom_site_label
_atom_site_fract_x
_atom_site_fract_y
_atom_site_fract_z
Si Si1 0.296407 0.000000 0.051533
Si Si2 0.485995 0.000000 0.291440
Si Si3 0.284614 0.333015 0.517346
Si Si4 0.401472 0.500000 0.078983
Si Si5 0.373099 0.710066 0.858681
Si Si6 0.640081 0.883370 0.220968
Si Si7 0.419103 0.342374 0.228771
O O1 0.378096 0.000000 0.210119
O O2 0.185373 0.000000 0.071258
O O3 0.313532 0.070714 0.928911
O O4 0.500000 0.000000 0.500000
O O5 0.542173 0.927305 0.234487
O O6 0.250000 0.250000 0.500000
O O7 0.303076 0.339207 0.727764
O O8 0.208777 0.384123 0.404749
O O9 0.380351 0.329929 0.416811
O O10 0.500000 0.500000 0.000000
O O11 0.402222 0.427809 0.195060
O O12 0.371008 0.797356 0.823425
O O13 0.475446 0.681859 0.805824
O O14 0.359498 0.697251 0.063730
#
# Coordination Sequence:
#
# PCOD9215245 Si02
#       7
#     4   4   8   4   8   8   8
#     4  11  24  45  75  94 143 193 232 291 366 420
#     4  11  27  44  66 105 134 187 244 289 353 424
#     4  10  22  41  64 102 140 179 234 292 356 426
#     4  12  23  47  69 105 141 183 247 292 354 458
#     4  10  23  40  70 102 137 189 240 296 363 422
#     4  10  22  44  67  97 140 182 234 292 353 430
#     4  11  23  42  67  98 143 184 238 294 361 422
#
# _framework density 22.474214
#
# number of rings (size 3 to 8) (size 9 to 14) (size 15 to 20)
#    0.000    1.455    3.636    1.636    5.091    7.273 
#    0.000    4.545    0.000    0.000    0.000    0.000 
#    0.000    0.000    0.000    0.000    0.000    0.000 
#
# Total GULP energy -122815.806635 kJ/mol
# GULP energy per Si atom -5582.536665 kJ/mol
# Density = 2.242306 g / cm^3
# Si number density = 22.474214 Si / 1000 Ang^3
#
#
#
# Elastic Constant Matrix: (Units=GPa)
#
#
# Indices 1 2 3 4 5 6 
#
# 1 104.6241 22.1724 12.5331 0.0000 20.3145 0.0000
# 2 22.1724 134.4256 26.0076 0.0000 7.7895 0.0000
# 3 12.5331 26.0076 106.5105 0.0000 25.2070 0.0000
# 4 0.0000 0.0000 0.0000 24.2852 0.0000 5.3233
# 5 20.3145 7.7895 25.2070 0.0000 36.5295 0.0000
# 6 0.0000 0.0000 0.0000 5.3233 0.0000 12.4861
#
#
#
# Elastic Compliance Matrix: (Units=1/GPa)
#
#
# Indices 1 2 3 4 5 6 
#
# 1 0.011023 -0.001566 0.000546 0.000000 -0.006173 0.000000
# 2 -0.001566 0.008036 -0.001887 0.000000 0.000459 0.000000
# 3 0.000546 -0.001887 0.011667 0.000000 -0.007952 0.000000
# 4 0.000000 0.000000 0.000000 0.045422 0.000000 -0.019365
# 5 -0.006173 0.000459 -0.007952 0.000000 0.036198 0.000000
# 6 0.000000 0.000000 0.000000 -0.019365 0.000000 0.088346
#
#
# Mechanical properties :
#
#
# Convention : Reuss Voigt Hill
#
# Bulk Modulus (GPa) = 40.13947 51.88738 46.01343
# Shear Modulus (GPa) = 23.27653 33.64996 28.46324
#
# Velocity S-wave (km/s) = 3.22172 3.87365 3.56263
# Velocity P-wave (km/s) = 5.63368 6.56845 6.11894
#
# Compressibility (1/GPa) = 0.02491313
#
# Stress axis : x y z
#
# Youngs Moduli (GPa) = 90.71856 124.44356 85.71080
#
# Poissons Ratio (x) = 0.19490 -0.04682
# Poissons Ratio (y) = 0.14208 0.16170
# Poissons Ratio (z) = -0.04956 0.23477
#
# Static dielectric constant tensor:
#      x y z
#    x 1.719940 0.000000 0.227700 
#    y 0.000000 1.779010 0.000000 
#    z 0.227700 0.000000 1.716520 
# 
# From -- ./inp_files/61244.got.cif
#   From: 2010.05.17/outbox.cif.g08.bks.cpg/sg12_31_cif.got.tgz:61244.got - 2010.06.03 13:09:07.
