data_PCOD9215282
_publ_section_title
;
Structure prediction by ZEFSAII (Michael W. Deem and Ramdas Pophale) SiO2 
 PCOD9215282
Probable space group: C 2/M
;
_chemical_formula_sum "Si O2"
_cell_formula_units_Z 32
_cell_length_a 8.957919
_cell_length_b 10.137115
_cell_length_c 28.870177
_cell_angle_alpha 90.000000
_cell_angle_beta 33.585185
_cell_angle_gamma 90.000000
_cell_volume 1450.221728
_symmetry_space_group_name_H-M "C 2/M"
_symmetry_group_IT_number 12
_symmetry_cell_setting 'monoclinic'
loop_
_space_group_symop_operation_xyz
x,y,z
-x,y,-z
-x,-y,-z
x,-y,z
1/2+x,1/2+y,z
1/2-x,1/2+y,-z
1/2-x,1/2-y,-z
1/2+x,1/2-y,z
loop_
_atom_site_type_symbol
_atom_site_label
_atom_site_fract_x
_atom_site_fract_y
_atom_site_fract_z
Si Si1 0.355409 0.145211 0.325683
Si Si2 0.786436 0.792912 0.437648
Si Si3 0.843165 0.151292 0.814828
Si Si4 0.305445 0.147716 0.904457
O O1 0.306548 0.180981 0.392470
O O2 0.520791 0.267050 0.261841
O O3 0.079401 0.141185 0.366605
O O4 0.482613 0.000000 0.289624
O O5 0.500000 0.861144 0.500000
O O6 0.750000 0.750000 0.500000
O O7 0.521547 0.149518 0.889662
O O8 0.890298 0.237360 0.847948
O O9 0.937745 0.000000 0.792171
O O10 0.325422 0.000000 0.877740
O O11 0.000000 0.165239 0.000000
#
# Coordination Sequence:
#
# PCOD9215282 Si02
#       4
#     8   8   8   8
#     4  11  23  40  63  90 122 161 202 248 304 362
#     4   9  21  40  61  90 121 153 198 253 305 357
#     4  11  24  40  61  91 124 161 204 248 299 359
#     4  10  22  41  64  91 123 159 202 251 301 356
#
# _framework density 22.065591999999999
#
# number of rings (size 3 to 8) (size 9 to 14) (size 15 to 20)
#    0.000    1.750    0.000    3.000    0.000   13.500 
#    0.000    7.500    0.000    0.000    0.000    0.000 
#    0.000    0.000    0.000    0.000    0.000    0.000 
#
# Total GULP energy -89197.416276 kJ/mol
# GULP energy per Si atom -5574.838517 kJ/mol
# Density = 2.201537 g / cm^3
# Si number density = 22.065592 Si / 1000 Ang^3
#
#
#
# Elastic Constant Matrix: (Units=GPa)
#
#
# Indices 1 2 3 4 5 6 
#
# 1 119.3744 38.8282 14.5815 -0.0032 -12.5920 0.0008
# 2 38.8282 182.4434 32.8789 0.0031 14.5466 0.0005
# 3 14.5815 32.8789 50.5653 -0.0333 -17.9648 -0.0032
# 4 -0.0032 0.0031 -0.0333 101.3290 0.0169 -3.9357
# 5 -12.5920 14.5466 -17.9648 0.0169 42.4061 0.0007
# 6 0.0008 0.0005 -0.0032 -3.9357 0.0007 17.9957
#
#
#
# Elastic Compliance Matrix: (Units=1/GPa)
#
#
# Indices 1 2 3 4 5 6 
#
# 1 0.009511 -0.002328 0.000068 0.000000 0.003651 -0.000001
# 2 -0.002328 0.007613 -0.006419 -0.000001 -0.006022 -0.000001
# 3 0.000068 -0.006419 0.029100 0.000008 0.014550 0.000006
# 4 0.000000 -0.000001 0.000008 0.009953 0.000000 0.002177
# 5 0.003651 -0.006022 0.014550 0.000000 0.032895 0.000001
# 6 -0.000001 -0.000001 0.000006 0.002177 0.000001 0.056045
#
#
# Mechanical properties :
#
#
# Convention : Reuss Voigt Hill
#
# Bulk Modulus (GPa) = 34.64109 58.32895 46.48502
# Shear Modulus (GPa) = 29.05348 50.08579 39.56963
#
# Velocity S-wave (km/s) = 3.63255 4.76947 4.23930
# Velocity P-wave (km/s) = 5.77297 7.53805 6.71377
#
# Compressibility (1/GPa) = 0.02886745
#
# Stress axis : x y z
#
# Youngs Moduli (GPa) = 105.14234 131.34741 34.36470
#
# Poissons Ratio (x) = 0.30572 -0.00234
# Poissons Ratio (y) = 0.24472 0.22058
# Poissons Ratio (z) = -0.00715 0.84308
#
# Static dielectric constant tensor:
#      x y z
#    x 1.800200 0.000000 -0.037420 
#    y 0.000000 1.803730 0.000000 
#    z -0.037420 0.000000 1.846480 
# 
# From -- ./inp_files/355389.got.cif
#   From: 2010.05.17/outbox.cif.g08.bks.cpg/sg12_178_cif.got.tgz:355389.got - 2010.06.03 13:09:07.
