data_PCOD9215768
_publ_section_title
;
Structure prediction by ZEFSAII (Michael W. Deem and Ramdas Pophale) SiO2 
 PCOD9215768
Probable space group: C 2/M
;
_chemical_formula_sum "Si O2"
_cell_formula_units_Z 56
_cell_length_a 20.212854
_cell_length_b 8.676189
_cell_length_c 27.317188
_cell_angle_alpha 90.000000
_cell_angle_beta 144.849722
_cell_angle_gamma 90.000000
_cell_volume 2758.075765
_symmetry_space_group_name_H-M "C 2/M"
_symmetry_group_IT_number 12
_symmetry_cell_setting 'monoclinic'
loop_
_space_group_symop_operation_xyz
x,y,z
-x,y,-z
-x,-y,-z
x,-y,z
1/2+x,1/2+y,z
1/2-x,1/2+y,-z
1/2-x,1/2-y,-z
1/2+x,1/2-y,z
loop_
_atom_site_type_symbol
_atom_site_label
_atom_site_fract_x
_atom_site_fract_y
_atom_site_fract_z
Si Si1 0.534583 0.317895 0.077080
Si Si2 0.949891 0.318115 0.352082
Si Si3 0.289613 0.684727 0.971894
Si Si4 0.802719 0.183881 0.481704
Si Si5 0.399547 0.315788 0.214373
Si Si6 0.134763 0.183545 0.298665
Si Si7 0.775491 0.679949 0.745848
O O1 0.561392 0.500000 0.100007
O O2 0.643429 0.220406 0.159297
O O3 0.500000 0.294750 0.000000
O O4 0.422825 0.279633 0.041809
O O5 0.971406 0.500000 0.365267
O O6 0.918357 0.263365 0.278087
O O7 0.841737 0.274846 0.320157
O O8 0.064048 0.230260 0.438133
O O9 0.277771 0.500000 0.964321
O O10 0.210763 0.754300 0.881342
O O11 0.250000 0.750000 0.000000
O O12 0.750000 0.250000 0.500000
O O13 0.732339 0.259869 0.395059
O O14 0.789682 0.000000 0.472643
O O15 0.391897 0.500000 0.216711
O O16 0.511533 0.283319 0.248658
O O17 0.154821 0.268273 0.259791
O O18 0.142224 0.000000 0.295811
O O19 0.748886 0.500000 0.728312
#
# Coordination Sequence:
#
# PCOD9215768 Si02
#       7
#     8   8   8   8   8   8   8
#     4  10  22  42  65  89 122 168 217 265 320 383
#     4  12  25  43  68  95 129 170 214 263 319 383
#     4  11  23  38  60  90 126 166 212 264 321 382
#     4  12  24  42  68 100 133 168 214 264 318 379
#     4  11  23  40  65  95 128 165 214 269 322 382
#     4  11  24  43  67  95 132 174 215 265 324 384
#     4  12  26  43  65  96 132 169 216 270 325 387
#
# _framework density 20.304012
#
# number of rings (size 3 to 8) (size 9 to 14) (size 15 to 20)
#    0.000    0.714    1.429    6.857    0.000    8.286 
#    0.000    2.857    0.000    0.000    0.000    0.000 
#    0.000    0.000    0.000    0.000    0.000    0.000 
#
# Total GULP energy -156813.938919 kJ/mol
# GULP energy per Si atom -5600.497819 kJ/mol
# Density = 2.025780 g / cm^3
# Si number density = 20.304012 Si / 1000 Ang^3
#
#
#
# Elastic Constant Matrix: (Units=GPa)
#
#
# Indices 1 2 3 4 5 6 
#
# 1 48.4496 3.2428 -19.9446 0.0000 8.6683 0.0000
# 2 3.2428 27.5543 -4.1214 0.0000 7.3796 0.0001
# 3 -19.9446 -4.1214 65.0983 0.0000 6.0729 0.0000
# 4 0.0000 0.0000 0.0000 37.8519 0.0000 -3.3873
# 5 8.6683 7.3796 6.0729 0.0000 27.1131 0.0000
# 6 0.0000 0.0001 0.0000 -3.3873 0.0000 35.0827
#
#
#
# Elastic Compliance Matrix: (Units=1/GPa)
#
#
# Indices 1 2 3 4 5 6 
#
# 1 0.026237 0.001153 0.009113 0.000000 -0.010743 0.000000
# 2 0.001153 0.040014 0.004021 0.000000 -0.012160 0.000000
# 3 0.009113 0.004021 0.019183 0.000000 -0.008305 0.000000
# 4 0.000000 0.000000 0.000000 0.026649 0.000000 0.002573
# 5 -0.010743 -0.012160 -0.008305 0.000000 0.045487 0.000000
# 6 0.000000 0.000000 0.000000 0.002573 0.000000 0.028752
#
#
# Mechanical properties :
#
#
# Convention : Reuss Voigt Hill
#
# Bulk Modulus (GPa) = 8.77134 11.05063 9.91099
# Shear Modulus (GPa) = 25.54265 30.80457 28.17361
#
# Velocity S-wave (km/s) = 3.55069 3.89931 3.72908
# Velocity P-wave (km/s) = 4.59774 5.07220 4.84079
#
# Compressibility (1/GPa) = 0.11400767
#
# Stress axis : x y z
#
# Youngs Moduli (GPa) = 38.11476 24.99095 52.13003
#
# Poissons Ratio (x) = -0.02881 -0.47508
# Poissons Ratio (y) = -0.04393 -0.20961
# Poissons Ratio (z) = -0.34736 -0.10049
#
# Static dielectric constant tensor:
#      x y z
#    x 1.894440 0.000000 -0.106440 
#    y 0.000000 1.678090 0.000000 
#    z -0.106440 0.000000 1.754570 
# 
# From -- ./inp_files/380738.got.cif
#   From: 2010.05.17/outbox.cif.g08.bks.cpg/sg12_191_cif.got.tgz:380738.got - 2010.06.03 13:09:07.
