data_PCOD9215048
_publ_section_title
;
Structure prediction by ZEFSAII (Michael W. Deem and Ramdas Pophale) SiO2 
 PCOD9215048
Probable space group: C 2/M
;
_chemical_formula_sum "Si O2"
_cell_formula_units_Z 52
_cell_length_a 9.419946
_cell_length_b 17.353682
_cell_length_c 18.584525
_cell_angle_alpha 90.000000
_cell_angle_beta 53.500793
_cell_angle_gamma 90.000000
_cell_volume 2442.163207
_symmetry_space_group_name_H-M "C 2/M"
_symmetry_group_IT_number 12
_symmetry_cell_setting 'monoclinic'
loop_
_space_group_symop_operation_xyz
x,y,z
-x,y,-z
-x,-y,-z
x,-y,z
1/2+x,1/2+y,z
1/2-x,1/2+y,-z
1/2-x,1/2-y,-z
1/2+x,1/2-y,z
loop_
_atom_site_type_symbol
_atom_site_label
_atom_site_fract_x
_atom_site_fract_y
_atom_site_fract_z
Si Si1 0.911347 0.871777 0.103179
Si Si2 0.543436 0.910628 0.401595
Si Si3 0.178712 0.000000 0.073365
Si Si4 0.356118 0.000000 0.865560
Si Si5 0.565372 0.659804 0.309859
Si Si6 0.675414 0.714044 0.735938
Si Si7 0.248251 0.000000 0.215116
Si Si8 0.340437 0.411069 0.491983
O O1 0.871318 0.801154 0.166941
O O2 0.050105 0.926561 0.103236
O O3 0.739972 0.925188 0.139367
O O4 0.000000 0.852178 0.000000
O O5 0.500000 0.901289 0.500000
O O6 0.693866 0.854728 0.328293
O O7 0.354876 0.893850 0.420767
O O8 0.592641 0.000000 0.374603
O O9 0.272663 0.000000 0.121514
O O10 0.302356 0.000000 0.966126
O O11 0.566154 0.000000 0.798942
O O12 0.495581 0.706467 0.262243
O O13 0.717431 0.707529 0.303138
O O14 0.638814 0.576163 0.267472
O O15 0.398869 0.646073 0.411855
O O16 0.500000 0.408570 0.500000
O O17 0.329269 0.500000 0.468582
#
# Coordination Sequence:
#
# PCOD9215048 Si02
#       8
#     8   8   4   4   8   8   4   8
#     4   9  20  42  68  97 137 178 220 275 338 402
#     4  10  22  40  70  98 128 176 227 267 325 401
#     4   9  17  39  67  99 122 180 219 283 327 394
#     4   9  21  35  67 104 131 157 242 273 331 394
#     4  12  28  44  68  96 138 177 228 274 341 396
#     4  12  27  44  66 100 138 178 227 279 339 401
#     4  12  23  42  71  94 135 179 220 282 332 399
#     4  10  22  43  66  96 133 174 220 274 332 392
#
# _framework density 21.292597000000001
#
# number of rings (size 3 to 8) (size 9 to 14) (size 15 to 20)
#    0.000    1.538    3.846    1.154    7.538    1.231 
#    0.000    2.308    0.000    0.000    0.000    0.000 
#    0.000    0.000    0.000    0.000    0.000    0.000 
#
# Total GULP energy -145364.462955 kJ/mol
# GULP energy per Si atom -5590.940883 kJ/mol
# Density = 2.124413 g / cm^3
# Si number density = 21.292597 Si / 1000 Ang^3
#
#
#
# Elastic Constant Matrix: (Units=GPa)
#
#
# Indices 1 2 3 4 5 6 
#
# 1 104.9977 16.1522 7.3037 0.0000 -13.9382 0.0000
# 2 16.1522 58.0069 6.3621 0.0000 1.8523 0.0000
# 3 7.3037 6.3621 27.6466 0.0000 2.3133 0.0001
# 4 0.0000 0.0000 0.0000 17.0040 0.0000 -2.8759
# 5 -13.9382 1.8523 2.3133 0.0000 27.9499 0.0000
# 6 0.0000 0.0000 0.0001 -2.8759 0.0000 15.3070
#
#
#
# Elastic Compliance Matrix: (Units=1/GPa)
#
#
# Indices 1 2 3 4 5 6 
#
# 1 0.010944 -0.002938 -0.002707 0.000000 0.005877 0.000000
# 2 -0.002938 0.018494 -0.003277 0.000000 -0.002420 0.000000
# 3 -0.002707 -0.003277 0.037998 0.000000 -0.004278 0.000000
# 4 0.000000 0.000000 0.000000 0.060740 0.000000 0.011412
# 5 0.005877 -0.002420 -0.004278 0.000000 0.039223 0.000000
# 6 0.000000 0.000000 0.000000 0.011412 0.000000 0.067474
#
#
# Mechanical properties :
#
#
# Convention : Reuss Voigt Hill
#
# Bulk Modulus (GPa) = 20.16461 27.80971 23.98716
# Shear Modulus (GPa) = 18.57020 22.77440 20.67230
#
# Velocity S-wave (km/s) = 2.95641 3.27401 3.11926
# Velocity P-wave (km/s) = 4.59833 5.23271 4.92574
#
# Compressibility (1/GPa) = 0.04959183
#
# Stress axis : x y z
#
# Youngs Moduli (GPa) = 91.37084 54.07100 26.31722
#
# Poissons Ratio (x) = 0.15888 0.07124
# Poissons Ratio (y) = 0.26847 0.08625
# Poissons Ratio (z) = 0.24732 0.17720
#
# Static dielectric constant tensor:
#      x y z
#    x 1.809050 0.000000 0.017290 
#    y 0.000000 1.734070 0.000000 
#    z 0.017290 0.000000 1.758530 
# 
# From -- ./inp_files/256587.got.cif
#   From: 2010.05.17/outbox.cif.g08.bks.cpg/sg12_129_cif.got.tgz:256587.got - 2010.06.03 13:09:07.
