data_PCOD9215666
_publ_section_title
;
Structure prediction by ZEFSAII (Michael W. Deem and Ramdas Pophale) SiO2 
 PCOD9215666
Probable space group: C 2/M
;
_chemical_formula_sum "Si O2"
_cell_formula_units_Z 56
_cell_length_a 9.683577
_cell_length_b 30.621557
_cell_length_c 20.305759
_cell_angle_alpha 90.000000
_cell_angle_beta 147.183517
_cell_angle_gamma 90.000000
_cell_volume 3263.183760
_symmetry_space_group_name_H-M "C 2/M"
_symmetry_group_IT_number 12
_symmetry_cell_setting 'monoclinic'
loop_
_space_group_symop_operation_xyz
x,y,z
-x,y,-z
-x,-y,-z
x,-y,z
1/2+x,1/2+y,z
1/2-x,1/2+y,-z
1/2-x,1/2-y,-z
1/2+x,1/2-y,z
loop_
_atom_site_type_symbol
_atom_site_label
_atom_site_fract_x
_atom_site_fract_y
_atom_site_fract_z
Si Si1 0.627068 0.167251 0.776959
Si Si2 0.467643 0.752600 0.915036
Si Si3 0.936358 0.000000 0.130581
Si Si4 0.017147 0.915761 0.083127
Si Si5 0.738721 0.328968 0.742969
Si Si6 0.188807 0.794752 0.513559
Si Si7 0.044755 0.406376 0.096668
Si Si8 0.163936 0.500000 0.151987
O O1 0.833875 0.205729 0.868369
O O2 0.774561 0.121979 0.825905
O O3 0.450989 0.164331 0.771269
O O4 0.439238 0.182164 0.643053
O O5 0.297044 0.782832 0.800506
O O6 0.500000 0.773059 0.000000
O O7 0.750000 0.750000 0.000000
O O8 0.057015 0.043015 0.147078
O O9 0.895798 0.000000 0.192394
O O10 0.635778 0.000000 0.990318
O O11 0.000000 0.930265 0.000000
O O12 0.737244 0.897692 0.988714
O O13 0.468264 0.325842 0.598752
O O14 0.776762 0.366280 0.812484
O O15 0.250000 0.750000 0.500000
O O16 0.000000 0.785641 0.500000
O O17 0.161995 0.450256 0.177267
O O18 0.000000 0.412860 0.000000
#
# Coordination Sequence:
#
# PCOD9215666 Si02
#       8
#     8   8   4   8   8   8   8   4
#     4  11  22  38  54  78 112 139 184 233 263 318
#     4  12  22  34  53  77 112 142 169 221 281 321
#     4   9  17  32  52  83 112 147 175 210 269 334
#     4  11  19  33  56  81 117 144 173 222 277 328
#     4  11  22  37  56  79 106 143 187 226 267 323
#     4  10  22  42  59  73 101 148 192 231 269 310
#     4  11  19  35  56  83 116 145 175 219 276 329
#     4   9  16  34  52  81 118 141 174 217 264 333
#
# _framework density 17.161152999999999
#
# number of rings (size 3 to 8) (size 9 to 14) (size 15 to 20)
#    0.000    1.286    7.143    1.929    0.000    0.000 
#    2.571    0.000    0.000    0.857    0.000    4.000 
#    0.000    0.000    0.000    0.000    0.000    0.000 
#
# Total GULP energy -156020.387289 kJ/mol
# GULP energy per Si atom -5572.156689 kJ/mol
# Density = 1.712209 g / cm^3
# Si number density = 17.161153 Si / 1000 Ang^3
#
#
#
# Elastic Constant Matrix: (Units=GPa)
#
#
# Indices 1 2 3 4 5 6 
#
# 1 59.3150 8.8695 23.4153 0.0000 3.2544 0.0000
# 2 8.8695 107.1691 34.3603 0.0000 1.8747 0.0000
# 3 23.4153 34.3603 81.1663 -0.0001 -3.9442 -0.0001
# 4 0.0000 0.0000 -0.0001 8.0550 0.0000 3.3240
# 5 3.2544 1.8747 -3.9442 0.0000 19.6105 0.0000
# 6 0.0000 0.0000 -0.0001 3.3240 0.0000 23.9387
#
#
#
# Elastic Compliance Matrix: (Units=1/GPa)
#
#
# Indices 1 2 3 4 5 6 
#
# 1 0.019406 0.000389 -0.005980 0.000000 -0.004460 0.000000
# 2 0.000389 0.010880 -0.004819 0.000000 -0.002074 0.000000
# 3 -0.005980 -0.004819 0.016316 0.000000 0.004735 0.000000
# 4 0.000000 0.000000 0.000000 0.131693 0.000000 -0.018286
# 5 -0.004460 -0.002074 0.004735 0.000000 0.052884 0.000000
# 6 0.000000 0.000000 0.000000 -0.018286 0.000000 0.044312
#
#
# Mechanical properties :
#
#
# Convention : Reuss Voigt Hill
#
# Bulk Modulus (GPa) = 38.78579 42.32672 40.55625
# Shear Modulus (GPa) = 16.39854 22.38785 19.39319
#
# Velocity S-wave (km/s) = 3.09457 3.61580 3.36529
# Velocity P-wave (km/s) = 5.95134 6.49229 6.22769
#
# Compressibility (1/GPa) = 0.02578264
#
# Stress axis : x y z
#
# Youngs Moduli (GPa) = 51.52959 91.91033 61.29093
#
# Poissons Ratio (x) = -0.03577 0.36652
# Poissons Ratio (y) = -0.02006 0.29536
# Poissons Ratio (z) = 0.30814 0.44291
#
# Static dielectric constant tensor:
#      x y z
#    x 1.608100 0.000000 -0.024930 
#    y 0.000000 1.608110 0.000000 
#    z -0.024930 0.000000 1.575280 
# 
# From -- ./inp_files/303095.got.cif
#   From: 2010.05.17/outbox.cif.g08.bks.cpg/sg12_152_cif.got.tgz:303095.got - 2010.06.03 13:09:07.
