data_PCOD9215997
_publ_section_title
;
Structure prediction by ZEFSAII (Michael W. Deem and Ramdas Pophale) SiO2 
 PCOD9215997
Probable space group: C 2/M
;
_chemical_formula_sum "Si O2"
_cell_formula_units_Z 56
_cell_length_a 9.782461
_cell_length_b 16.422064
_cell_length_c 26.167490
_cell_angle_alpha 90.000000
_cell_angle_beta 136.780370
_cell_angle_gamma 90.000000
_cell_volume 2878.721590
_symmetry_space_group_name_H-M "C 2/M"
_symmetry_group_IT_number 12
_symmetry_cell_setting 'monoclinic'
loop_
_space_group_symop_operation_xyz
x,y,z
-x,y,-z
-x,-y,-z
x,-y,z
1/2+x,1/2+y,z
1/2-x,1/2+y,-z
1/2-x,1/2-y,-z
1/2+x,1/2-y,z
loop_
_atom_site_type_symbol
_atom_site_label
_atom_site_fract_x
_atom_site_fract_y
_atom_site_fract_z
Si Si1 0.610691 0.171922 0.475970
Si Si2 0.695743 0.908515 0.864845
Si Si3 0.998663 0.093211 0.558278
Si Si4 0.270438 0.241455 0.945435
Si Si5 0.125228 0.673066 0.288627
Si Si6 0.510873 0.409774 0.151335
Si Si7 0.173172 0.327964 0.698506
O O1 0.500000 0.180111 0.500000
O O2 0.750000 0.250000 0.500000
O O3 0.778292 0.102011 0.521103
O O4 0.451860 0.157618 0.387276
O O5 0.722117 0.829778 0.907707
O O6 0.492692 0.891762 0.777896
O O7 0.873090 0.905797 0.871314
O O8 0.695086 0.000000 0.887533
O O9 0.000000 0.122695 0.500000
O O10 0.162745 0.141800 0.634008
O O11 0.063089 0.000000 0.574748
O O12 0.136744 0.167115 0.887937
O O13 0.500000 0.221250 0.000000
O O14 0.250000 0.250000 0.000000
O O15 0.178902 0.752995 0.271589
O O16 0.984801 0.690870 0.299303
O O17 0.419317 0.500000 0.131273
O O18 0.683681 0.398502 0.241113
#
# Coordination Sequence:
#
# PCOD9215997 Si02
#       7
#     8   8   8   8   8   8   8
#     4  12  23  38  61  89 121 164 214 264 322 379
#     4  10  22  42  69  97 128 172 219 255 311 391
#     4  11  23  39  58  87 125 162 212 271 323 376
#     4  12  24  42  70 101 133 164 207 261 321 383
#     4  11  21  38  65  93 122 166 214 266 317 377
#     4  10  23  44  68  96 131 172 216 262 318 387
#     4  11  22  37  66  91 122 167 218 261 318 379
#
# _framework density 19.453078999999999
#
# number of rings (size 3 to 8) (size 9 to 14) (size 15 to 20)
#    0.000    1.000    5.714    1.714    0.000    2.571 
#    0.000    0.000    0.000    0.000    0.000    0.000 
#    0.000    0.000    0.000    0.000    0.000    0.000 
#
# Total GULP energy -156299.889281 kJ/mol
# GULP energy per Si atom -5582.138903 kJ/mol
# Density = 1.940880 g / cm^3
# Si number density = 19.453079 Si / 1000 Ang^3
#
#
#
# Elastic Constant Matrix: (Units=GPa)
#
#
# Indices 1 2 3 4 5 6 
#
# 1 106.2158 36.6601 44.9526 0.0000 3.7730 0.0000
# 2 36.6601 138.6976 58.3848 0.0000 -0.6886 0.0000
# 3 44.9526 58.3848 114.3753 0.0000 4.5778 0.0000
# 4 0.0000 0.0000 0.0000 5.7845 0.0000 -1.0246
# 5 3.7730 -0.6886 4.5778 0.0000 27.6533 0.0000
# 6 0.0000 0.0000 0.0000 -1.0246 0.0000 26.1998
#
#
#
# Elastic Compliance Matrix: (Units=1/GPa)
#
#
# Indices 1 2 3 4 5 6 
#
# 1 0.011545 -0.001481 -0.003741 0.000000 -0.000993 0.000000
# 2 -0.001481 0.009402 -0.004263 0.000000 0.001142 0.000000
# 3 -0.003741 -0.004263 0.012456 0.000000 -0.001658 0.000000
# 4 0.000000 0.000000 0.000000 0.174080 0.000000 0.006808
# 5 -0.000993 0.001142 -0.001658 0.000000 0.036600 0.000000
# 6 0.000000 0.000000 0.000000 0.006808 0.000000 0.038434
#
#
# Mechanical properties :
#
#
# Convention : Reuss Voigt Hill
#
# Bulk Modulus (GPa) = 69.29433 71.03153 70.16293
# Shear Modulus (GPa) = 16.32393 26.54695 21.43544
#
# Velocity S-wave (km/s) = 2.89994 3.69815 3.32310
# Velocity P-wave (km/s) = 6.84919 7.40463 7.13232
#
# Compressibility (1/GPa) = 0.01443120
#
# Stress axis : x y z
#
# Youngs Moduli (GPa) = 86.61878 106.36582 80.28315
#
# Poissons Ratio (x) = 0.15758 0.30038
# Poissons Ratio (y) = 0.12832 0.34222
# Poissons Ratio (z) = 0.32408 0.45340
#
# Static dielectric constant tensor:
#      x y z
#    x 1.650000 0.000000 -0.003720 
#    y 0.000000 1.717090 0.000000 
#    z -0.003720 0.000000 1.695180 
# 
# From -- ./inp_files/333386.got.cif
#   From: 2010.05.17/outbox.cif.g08.bks.cpg/sg12_167_cif.got.tgz:333386.got - 2010.06.03 13:09:07.
