data_PCOD9215930
_publ_section_title
;
Structure prediction by ZEFSAII (Michael W. Deem and Ramdas Pophale) SiO2 
 PCOD9215930
Probable space group: C 2/M
;
_chemical_formula_sum "Si O2"
_cell_formula_units_Z 48
_cell_length_a 15.736739
_cell_length_b 10.231097
_cell_length_c 12.930745
_cell_angle_alpha 90.000000
_cell_angle_beta 98.095293
_cell_angle_gamma 90.000000
_cell_volume 2061.157317
_symmetry_space_group_name_H-M "C 2/M"
_symmetry_group_IT_number 12
_symmetry_cell_setting 'monoclinic'
loop_
_space_group_symop_operation_xyz
x,y,z
-x,y,-z
-x,-y,-z
x,-y,z
1/2+x,1/2+y,z
1/2-x,1/2+y,-z
1/2-x,1/2-y,-z
1/2+x,1/2-y,z
loop_
_atom_site_type_symbol
_atom_site_label
_atom_site_fract_x
_atom_site_fract_y
_atom_site_fract_z
Si Si1 0.888869 0.000000 0.405399
Si Si2 0.666134 0.500000 0.367709
Si Si3 0.674021 0.850117 0.866716
Si Si4 0.306220 0.000000 0.698064
Si Si5 0.373315 0.350497 0.968345
Si Si6 0.431022 0.780012 0.342700
Si Si7 0.594557 0.751739 0.235464
Si Si8 0.137006 0.500000 0.529970
O O1 0.935047 0.131251 0.379096
O O2 0.873645 0.000000 0.524854
O O3 0.795324 0.000000 0.335546
O O4 0.635937 0.629083 0.302510
O O5 0.768323 0.500000 0.402581
O O6 0.775704 0.850112 0.905714
O O7 0.648435 0.804542 0.748314
O O8 0.644187 0.000000 0.875278
O O9 0.630541 0.750050 0.938551
O O10 0.338913 0.870939 0.760797
O O11 0.346958 0.000000 0.589376
O O12 0.393351 0.500000 0.001289
O O13 0.429794 0.299978 0.882304
O O14 0.514788 0.805188 0.288208
O O15 0.413014 0.874171 0.435912
#
# Coordination Sequence:
#
# PCOD9215930 Si02
#       8
#     4   4   8   4   8   8   8   4
#     4  11  25  41  66  97 126 169 223 268 308 375
#     4  11  23  45  68  89 126 177 223 262 312 375
#     4  10  22  42  68  94 124 167 215 261 312 378
#     4  11  25  41  66  97 126 169 223 268 308 375
#     4  10  22  42  68  94 124 167 215 261 312 378
#     4  12  25  41  64  98 134 169 207 263 330 380
#     4  12  25  41  64  98 134 169 207 263 330 380
#     4  11  23  45  68  89 126 177 223 262 312 375
#
# _framework density 23.287889
#
# number of rings (size 3 to 8) (size 9 to 14) (size 15 to 20)
#    0.000    1.000    1.667    5.000    2.333    7.333 
#    0.000    1.667    0.000    0.000    0.000    0.000 
#    0.000    0.000    0.000    0.000    0.000    0.000 
#
# Total GULP energy -134541.032047 kJ/mol
# GULP energy per Si atom -5605.876335 kJ/mol
# Density = 2.323488 g / cm^3
# Si number density = 23.287889 Si / 1000 Ang^3
#
#
#
# Elastic Constant Matrix: (Units=GPa)
#
#
# Indices 1 2 3 4 5 6 
#
# 1 77.2067 11.0115 -0.9425 0.0000 -5.5853 0.0000
# 2 11.0115 136.8542 12.7194 0.0000 7.6483 0.0000
# 3 -0.9425 12.7194 55.3898 0.0000 -3.1546 0.0000
# 4 0.0000 0.0000 0.0000 52.7211 0.0000 22.5471
# 5 -5.5853 7.6483 -3.1546 0.0000 28.1698 0.0000
# 6 0.0000 0.0000 0.0000 22.5471 0.0000 65.9252
#
#
#
# Elastic Compliance Matrix: (Units=1/GPa)
#
#
# Indices 1 2 3 4 5 6 
#
# 1 0.013372 -0.001314 0.000705 0.000000 0.003087 0.000000
# 2 -0.001314 0.007738 -0.001946 0.000000 -0.002579 0.000000
# 3 0.000705 -0.001946 0.018670 0.000000 0.002759 0.000000
# 4 0.000000 0.000000 0.000000 0.022217 0.000000 -0.007599
# 5 0.003087 -0.002579 0.002759 0.000000 0.037120 0.000000
# 6 0.000000 0.000000 0.000000 -0.007599 0.000000 0.017768
#
#
# Mechanical properties :
#
#
# Convention : Reuss Voigt Hill
#
# Bulk Modulus (GPa) = 28.84401 35.00306 31.92353
# Shear Modulus (GPa) = 37.43889 45.80736 41.62313
#
# Velocity S-wave (km/s) = 4.01391 4.43990 4.23227
# Velocity P-wave (km/s) = 5.82191 6.43015 6.13358
#
# Compressibility (1/GPa) = 0.03466924
#
# Stress axis : x y z
#
# Youngs Moduli (GPa) = 74.78558 129.23583 53.56218
#
# Poissons Ratio (x) = 0.16981 -0.03776
# Poissons Ratio (y) = 0.09826 0.10424
# Poissons Ratio (z) = -0.05273 0.25151
#
# Static dielectric constant tensor:
#      x y z
#    x 1.902190 0.000000 0.008290 
#    y 0.000000 1.799650 0.000000 
#    z 0.008290 0.000000 1.823920 
# 
# From -- ./inp_files/221801.got.cif
#   From: 2010.05.17/outbox.cif.g08.bks.cpg/sg12_111_cif.got.tgz:221801.got - 2010.06.03 13:09:07.
