data_PCOD9215007
_publ_section_title
;
Structure prediction by ZEFSAII (Michael W. Deem and Ramdas Pophale) SiO2 
 PCOD9215007
Probable space group: C 2/M
;
_chemical_formula_sum "Si O2"
_cell_formula_units_Z 48
_cell_length_a 13.208503
_cell_length_b 20.154543
_cell_length_c 11.511330
_cell_angle_alpha 90.000000
_cell_angle_beta 40.071501
_cell_angle_gamma 90.000000
_cell_volume 1972.716286
_symmetry_space_group_name_H-M "C 2/M"
_symmetry_group_IT_number 12
_symmetry_cell_setting 'monoclinic'
loop_
_space_group_symop_operation_xyz
x,y,z
-x,y,-z
-x,-y,-z
x,-y,z
1/2+x,1/2+y,z
1/2-x,1/2+y,-z
1/2-x,1/2-y,-z
1/2+x,1/2-y,z
loop_
_atom_site_type_symbol
_atom_site_label
_atom_site_fract_x
_atom_site_fract_y
_atom_site_fract_z
Si Si1 0.242140 0.000000 0.234420
Si Si2 0.348051 0.124238 0.906337
Si Si3 0.817836 0.823930 0.458687
Si Si4 0.992073 0.500000 0.803875
Si Si5 0.279993 0.858862 0.219869
Si Si6 0.497364 0.578418 0.142280
Si Si7 0.408682 0.242079 0.685366
O O1 0.170677 0.926232 0.300509
O O2 0.357754 0.000000 0.245077
O O3 0.347774 0.000000 0.024963
O O4 0.457836 0.065704 0.761783
O O5 0.374982 0.193143 0.818372
O O6 0.385239 0.131173 0.011674
O O7 0.167418 0.103116 0.039919
O O8 0.750000 0.750000 0.500000
O O9 0.707960 0.857604 0.651540
O O10 0.863826 0.873551 0.314769
O O11 0.984274 0.804383 0.370885
O O12 0.238175 0.781386 0.235673
O O13 0.475715 0.500000 0.192028
O O14 0.500000 0.583789 0.000000
O O15 0.500000 0.206935 0.500000
#
# Coordination Sequence:
#
# PCOD9215007 Si02
#       7
#     4   8   8   4   8   8   8
#     4   9  20  38  62  97 129 165 210 287 330 400
#     4  11  21  42  70  94 131 175 224 279 340 411
#     4  11  26  42  63  99 136 175 223 281 336 407
#     4   9  20  38  61  96 127 162 224 271 326 395
#     4  10  22  40  67  98 129 169 223 274 353 397
#     4  11  26  45  67  96 133 180 231 278 339 415
#     4  10  23  41  62  96 133 172 223 274 340 410
#
# _framework density 24.331931999999998
#
# number of rings (size 3 to 8) (size 9 to 14) (size 15 to 20)
#    0.000    1.667    2.500    0.500    8.167    0.000 
#    0.000    2.500    0.000    0.000    0.000    0.000 
#    0.000    0.000    0.000    0.000    0.000    0.000 
#
# Total GULP energy -133631.065117 kJ/mol
# GULP energy per Si atom -5567.961047 kJ/mol
# Density = 2.427655 g / cm^3
# Si number density = 24.331932 Si / 1000 Ang^3
#
#
#
# Elastic Constant Matrix: (Units=GPa)
#
#
# Indices 1 2 3 4 5 6 
#
# 1 65.7163 32.2735 29.6018 0.0035 10.7776 -0.0014
# 2 32.2735 180.8909 82.8721 0.0013 19.4898 -0.0003
# 3 29.6018 82.8721 115.7004 0.0050 25.3770 -0.0032
# 4 0.0035 0.0013 0.0050 31.8287 -0.0035 3.2126
# 5 10.7776 19.4898 25.3770 -0.0035 29.9272 0.0011
# 6 -0.0014 -0.0003 -0.0032 3.2126 0.0011 42.4848
#
#
#
# Elastic Compliance Matrix: (Units=1/GPa)
#
#
# Indices 1 2 3 4 5 6 
#
# 1 0.017724 -0.001582 -0.002737 -0.000002 -0.003032 0.000001
# 2 -0.001582 0.008374 -0.005555 0.000001 -0.000173 0.000000
# 3 -0.002737 -0.005555 0.015126 -0.000003 -0.008223 0.000001
# 4 -0.000002 0.000001 -0.000003 0.031660 0.000006 -0.002394
# 5 -0.003032 -0.000173 -0.008223 0.000006 0.041592 -0.000002
# 6 0.000001 0.000000 0.000001 -0.002394 -0.000002 0.023719
#
#
# Mechanical properties :
#
#
# Convention : Reuss Voigt Hill
#
# Bulk Modulus (GPa) = 46.56328 72.42252 59.49290
# Shear Modulus (GPa) = 30.28461 35.35216 32.81838
#
# Velocity S-wave (km/s) = 3.53178 3.81584 3.67656
# Velocity P-wave (km/s) = 5.98411 7.01735 6.52123
#
# Compressibility (1/GPa) = 0.02147615
#
# Stress axis : x y z
#
# Youngs Moduli (GPa) = 56.42166 119.41429 66.11199
#
# Poissons Ratio (x) = 0.18888 0.18092
# Poissons Ratio (y) = 0.08924 0.36728
# Poissons Ratio (z) = 0.15440 0.66340
#
# Static dielectric constant tensor:
#      x y z
#    x 2.153250 0.000000 -0.121670 
#    y 0.000000 1.986140 0.000000 
#    z -0.121670 0.000000 2.019460 
# 
# From -- ./inp_files/147946.got.cif
#   From: 2010.05.17/outbox.cif.g08.bks.cpg/sg12_74_cif.got.tgz:147946.got - 2010.06.03 13:09:07.
