data_PCOD9215193
_publ_section_title
;
Structure prediction by ZEFSAII (Michael W. Deem and Ramdas Pophale) SiO2 
 PCOD9215193
Probable space group: C 2/M
;
_chemical_formula_sum "Si O2"
_cell_formula_units_Z 64
_cell_length_a 29.423607
_cell_length_b 8.871404
_cell_length_c 19.408445
_cell_angle_alpha 90.000000
_cell_angle_beta 40.803872
_cell_angle_gamma 90.000000
_cell_volume 3310.593314
_symmetry_space_group_name_H-M "C 2/M"
_symmetry_group_IT_number 12
_symmetry_cell_setting 'monoclinic'
loop_
_space_group_symop_operation_xyz
x,y,z
-x,y,-z
-x,-y,-z
x,-y,z
1/2+x,1/2+y,z
1/2-x,1/2+y,-z
1/2-x,1/2-y,-z
1/2+x,1/2-y,z
loop_
_atom_site_type_symbol
_atom_site_label
_atom_site_fract_x
_atom_site_fract_y
_atom_site_fract_z
Si Si1 0.770692 0.180424 0.681018
Si Si2 0.920650 0.680398 0.870614
Si Si3 0.709727 0.320856 0.611814
Si Si4 0.467266 0.328372 0.612984
Si Si5 0.842324 0.319979 0.817059
Si Si6 0.072332 0.821952 0.695637
Si Si7 0.903649 0.676761 0.473944
Si Si8 0.785851 0.318951 0.104415
O O1 0.733844 0.249339 0.655970
O O2 0.850049 0.236119 0.584043
O O3 0.736194 0.226364 0.793080
O O4 0.769037 0.000000 0.678784
O O5 0.933644 0.500000 0.853932
O O6 0.879392 0.718648 0.847144
O O7 0.994063 0.762943 0.794799
O O8 0.865459 0.715024 0.994121
O O9 0.723681 0.500000 0.596622
O O10 0.750000 0.250000 0.500000
O O11 0.627084 0.298520 0.694337
O O12 0.500000 0.330434 0.500000
O O13 0.467326 0.500000 0.639622
O O14 0.390943 0.259971 0.704558
O O15 0.517811 0.221576 0.598251
O O16 0.842836 0.500000 0.809626
O O17 0.765564 0.258024 0.891564
O O18 0.105443 0.734286 0.593052
O O19 0.070975 0.000000 0.681334
O O20 0.892711 0.500000 0.492416
O O21 0.777043 0.500000 0.108317
#
# Coordination Sequence:
#
# PCOD9215193 Si02
#       8
#     8   8   8   8   8   8   8   8
#     4  11  23  40  62  89 122 161 204 249 302 364
#     4  10  22  41  63  89 121 160 207 254 300 354
#     4  11  23  39  63  93 124 157 198 247 303 368
#     4  11  23  37  54  80 119 163 202 244 299 362
#     4  11  22  36  59  90 120 156 206 256 301 355
#     4  11  23  39  62  91 120 154 196 243 302 364
#     4  12  23  36  58  86 120 158 196 247 303 356
#     4  10  23  42  62  86 121 164 207 251 301 360
#
# _framework density 19.331882
#
# number of rings (size 3 to 8) (size 9 to 14) (size 15 to 20)
#    0.000    1.125    2.500    4.125    0.000    7.500 
#    0.000    0.625    0.000    3.750    0.000    0.000 
#    0.000    0.000    0.000    0.000    0.000    0.000 
#
# Total GULP energy -178855.239983 kJ/mol
# GULP energy per Si atom -5589.226249 kJ/mol
# Density = 1.928788 g / cm^3
# Si number density = 19.331882 Si / 1000 Ang^3
#
#
#
# Elastic Constant Matrix: (Units=GPa)
#
#
# Indices 1 2 3 4 5 6 
#
# 1 89.1384 34.8777 32.0546 0.0041 -9.6593 -0.0027
# 2 34.8777 66.4455 34.0346 0.0213 -5.0228 -0.0159
# 3 32.0546 34.0346 109.0955 0.0080 -7.7552 -0.0056
# 4 0.0041 0.0213 0.0080 22.6680 -0.0054 -8.0345
# 5 -9.6593 -5.0228 -7.7552 -0.0054 24.8992 0.0013
# 6 -0.0027 -0.0159 -0.0056 -8.0345 0.0013 28.5613
#
#
#
# Elastic Compliance Matrix: (Units=1/GPa)
#
#
# Indices 1 2 3 4 5 6 
#
# 1 0.014917 -0.006469 -0.002093 0.000004 0.003830 -0.000002
# 2 -0.006469 0.020807 -0.004572 -0.000015 0.000264 0.000006
# 3 -0.002093 -0.004572 0.011335 0.000001 0.001796 0.000000
# 4 0.000004 -0.000015 0.000001 0.049001 0.000009 0.013784
# 5 0.003830 0.000264 0.001796 0.000009 0.042261 0.000001
# 6 -0.000002 0.000006 0.000000 0.013784 0.000001 0.038890
#
#
# Mechanical properties :
#
#
# Convention : Reuss Voigt Hill
#
# Bulk Modulus (GPa) = 48.09296 51.84592 49.96944
# Shear Modulus (GPa) = 23.76337 26.13988 24.95162
#
# Velocity S-wave (km/s) = 3.50984 3.68117 3.59653
# Velocity P-wave (km/s) = 6.43093 6.70411 6.56894
#
# Compressibility (1/GPa) = 0.02079306
#
# Stress axis : x y z
#
# Youngs Moduli (GPa) = 67.03701 48.06047 88.22140
#
# Poissons Ratio (x) = 0.31089 0.18462
# Poissons Ratio (y) = 0.43364 0.40333
# Poissons Ratio (z) = 0.14029 0.21972
#
# Static dielectric constant tensor:
#      x y z
#    x 1.691750 0.000000 0.003370 
#    y 0.000000 1.646690 0.000000 
#    z 0.003370 0.000000 1.686910 
# 
# From -- ./inp_files/295464.got.cif
#   From: 2010.05.17/outbox.cif.g08.bks.cpg/sg12_148_cif.got.tgz:295464.got - 2010.06.03 13:09:07.
