data_PCOD9215811
_publ_section_title
;
Structure prediction by ZEFSAII (Michael W. Deem and Ramdas Pophale) SiO2 
 PCOD9215811
Probable space group: C 2/M
;
_chemical_formula_sum "Si O2"
_cell_formula_units_Z 40
_cell_length_a 19.097560
_cell_length_b 7.560359
_cell_length_c 10.310863
_cell_angle_alpha 90.000000
_cell_angle_beta 79.631084
_cell_angle_gamma 90.000000
_cell_volume 1464.415841
_symmetry_space_group_name_H-M "C 2/M"
_symmetry_group_IT_number 12
_symmetry_cell_setting 'monoclinic'
loop_
_space_group_symop_operation_xyz
x,y,z
-x,y,-z
-x,-y,-z
x,-y,z
1/2+x,1/2+y,z
1/2-x,1/2+y,-z
1/2-x,1/2-y,-z
1/2+x,1/2-y,z
loop_
_atom_site_type_symbol
_atom_site_label
_atom_site_fract_x
_atom_site_fract_y
_atom_site_fract_z
Si Si1 0.166090 0.793321 0.027463
Si Si2 0.550149 0.212566 0.868593
Si Si3 0.783295 0.211773 0.349471
Si Si4 0.865307 0.705818 0.688691
Si Si5 0.067108 0.299537 0.596983
O O1 0.122703 0.708566 0.161719
O O2 0.159443 0.000000 0.047023
O O3 0.250000 0.750000 0.000000
O O4 0.128951 0.746493 0.903563
O O5 0.528233 0.288365 0.733572
O O6 0.541160 0.000000 0.864675
O O7 0.500000 0.282697 0.000000
O O8 0.704827 0.500000 0.676293
O O9 0.750000 0.250000 0.500000
O O10 0.716139 0.278069 0.288318
O O11 0.857711 0.304797 0.352186
O O12 0.859651 0.500000 0.651642
O O13 0.916232 0.775916 0.553418
O O14 0.040050 0.500000 0.593665
#
# Coordination Sequence:
#
# PCOD9215811 Si02
#       5
#     8   8   8   8   8
#     4  12  25  40  61  90 124 161 201 247 300 355
#     4  10  22  42  66  90 119 158 202 247 300 362
#     4   9  16  26  45  75 110 146 184 231 286 342
#     4   9  18  33  53  81 116 151 193 244 295 349
#     4   9  18  33  55  82 111 148 194 241 291 350
#
# _framework density 27.314646
#
# number of rings (size 3 to 8) (size 9 to 14) (size 15 to 20)
#    0.000    2.200    0.000    4.800    0.000    8.400 
#    0.000    1.000    0.000    6.000    0.000    0.000 
#    0.000    0.000    0.000    0.000    0.000    0.000 
#
# Total GULP energy -111466.374133 kJ/mol
# GULP energy per Si atom -5573.318707 kJ/mol
# Density = 2.725248 g / cm^3
# Si number density = 27.314646 Si / 1000 Ang^3
#
#
#
# Elastic Constant Matrix: (Units=GPa)
#
#
# Indices 1 2 3 4 5 6 
#
# 1 99.2408 -5.7311 41.0924 0.0000 4.0694 0.0000
# 2 -5.7311 102.3561 12.6637 0.0000 3.8884 0.0000
# 3 41.0924 12.6637 263.8890 0.0000 20.6041 0.0000
# 4 0.0000 0.0000 0.0000 20.7718 0.0000 11.5071
# 5 4.0694 3.8884 20.6041 0.0000 41.0266 0.0000
# 6 0.0000 0.0000 0.0000 11.5071 0.0000 -10.3826
#
#
#
# Elastic Compliance Matrix: (Units=1/GPa)
#
#
# Indices 1 2 3 4 5 6 
#
# 1 0.010843 0.000829 -0.001705 0.000000 -0.000298 0.000000
# 2 0.000829 0.009912 -0.000546 0.000000 -0.000747 0.000000
# 3 -0.001705 -0.000546 0.004230 0.000000 -0.001903 0.000000
# 4 0.000000 0.000000 0.000000 0.029828 0.000000 0.033059
# 5 -0.000298 -0.000747 -0.001903 0.000000 0.025431 0.000000
# 6 0.000000 0.000000 0.000000 0.033059 0.000000 -0.059676
#
#
# Mechanical properties :
#
#
# Convention : Reuss Voigt Hill
#
# Bulk Modulus (GPa) = 45.16612 62.39286 53.77949
# Shear Modulus (GPa) = 162.37845 38.11389 100.24617
#
# Velocity S-wave (km/s) = 7.71858 3.73951 6.06467
# Velocity P-wave (km/s) = 9.79830 6.44493 8.29288
#
# Compressibility (1/GPa) = 0.02214049
#
# Stress axis : x y z
#
# Youngs Moduli (GPa) = 92.22913 100.88526 236.41789
#
# Poissons Ratio (x) = -0.08367 0.40308
# Poissons Ratio (y) = -0.07649 0.12920
# Poissons Ratio (z) = 0.15724 0.05513
#
# Static dielectric constant tensor:
#      x y z
#    x 2.757100 0.000000 -0.034330 
#    y 0.000000 1.879140 0.000000 
#    z -0.034330 0.000000 2.261050 
# 
# From -- ./inp_files/162518.got.cif
#   From: 2010.05.17/outbox.cif.g08.bks.cpg/sg12_82_cif.got.tgz:162518.got - 2010.06.03 13:09:07.
