data_PCOD9215224
_publ_section_title
;
Structure prediction by ZEFSAII (Michael W. Deem and Ramdas Pophale) SiO2 
 PCOD9215224
Probable space group: C 2/M
;
_chemical_formula_sum "Si O2"
_cell_formula_units_Z 52
_cell_length_a 8.844640
_cell_length_b 14.298995
_cell_length_c 31.521407
_cell_angle_alpha 90.000000
_cell_angle_beta 141.833005
_cell_angle_gamma 90.000000
_cell_volume 2463.477182
_symmetry_space_group_name_H-M "C 2/M"
_symmetry_group_IT_number 12
_symmetry_cell_setting 'monoclinic'
loop_
_space_group_symop_operation_xyz
x,y,z
-x,y,-z
-x,-y,-z
x,-y,z
1/2+x,1/2+y,z
1/2-x,1/2+y,-z
1/2-x,1/2-y,-z
1/2+x,1/2-y,z
loop_
_atom_site_type_symbol
_atom_site_label
_atom_site_fract_x
_atom_site_fract_y
_atom_site_fract_z
Si Si1 0.328567 0.394317 0.142233
Si Si2 0.021799 0.215327 0.050950
Si Si3 0.206048 0.607036 0.814920
Si Si4 0.227117 0.103089 0.461221
Si Si5 0.946210 0.748675 0.637315
Si Si6 0.543798 0.296757 0.265339
Si Si7 0.500000 0.644855 0.500000
O O1 0.229082 0.500000 0.116671
O O2 0.179245 0.311393 0.086794
O O3 0.593989 0.393628 0.178644
O O4 0.363215 0.361978 0.198657
O O5 0.145177 0.144865 0.111317
O O6 0.000000 0.170951 0.000000
O O7 0.750000 0.250000 0.000000
O O8 0.116513 0.500000 0.800552
O O9 0.014100 0.689368 0.761762
O O10 0.500000 0.118180 0.500000
O O11 0.053514 0.177141 0.400508
O O12 0.183947 0.105893 0.502922
O O13 0.155192 0.000000 0.431731
O O14 0.969315 0.799500 0.687247
O O15 0.693807 0.696587 0.572682
O O16 0.177545 0.681277 0.684997
#
# Coordination Sequence:
#
# PCOD9215224 Si02
#       7
#     8   8   8   8   8   8   4
#     4  10  22  41  65  93 126 170 215 256 311 385
#     4  11  22  39  64  97 130 164 206 259 313 368
#     4  10  22  41  63  91 130 168 212 261 312 378
#     4  11  24  41  62  94 129 160 208 271 330 397
#     4  12  22  41  66  89 124 167 216 261 334 395
#     4  11  23  40  64  94 123 168 214 272 317 382
#     4  12  23  44  67  92 126 176 214 268 343 412
#
# _framework density 21.108376
#
# number of rings (size 3 to 8) (size 9 to 14) (size 15 to 20)
#    0.000    1.077    5.385    1.615    0.000    2.462 
#    0.000    3.077    0.000    0.000    0.000    0.000 
#    0.000    0.000    0.000    0.000    0.000    0.000 
#
# Total GULP energy -144810.303708 kJ/mol
# GULP energy per Si atom -5569.627066 kJ/mol
# Density = 2.106033 g / cm^3
# Si number density = 21.108376 Si / 1000 Ang^3
#
#
#
# Elastic Constant Matrix: (Units=GPa)
#
#
# Indices 1 2 3 4 5 6 
#
# 1 92.6655 3.3187 24.5586 0.0000 -24.6640 0.0000
# 2 3.3187 89.6478 18.3804 0.0000 -3.2600 0.0000
# 3 24.5586 18.3804 82.4951 0.0005 -21.0844 -0.0001
# 4 0.0000 0.0000 0.0005 -53.7605 0.0002 39.1662
# 5 -24.6640 -3.2600 -21.0844 0.0002 45.9466 0.0000
# 6 0.0000 0.0000 -0.0001 39.1662 0.0000 -7.8025
#
#
#
# Elastic Compliance Matrix: (Units=1/GPa)
#
#
# Indices 1 2 3 4 5 6 
#
# 1 0.012988 0.000228 -0.002414 0.000000 0.005880 0.000000
# 2 0.000228 0.011700 -0.002754 0.000000 -0.000311 0.000000
# 3 -0.002414 -0.002754 0.014810 0.000000 0.005305 0.000000
# 4 0.000000 0.000000 0.000000 0.007001 0.000000 0.035142
# 5 0.005880 -0.000311 0.005305 0.000000 0.027333 0.000000
# 6 0.000000 0.000000 0.000000 0.035142 0.000000 0.048236
#
#
# Mechanical properties :
#
#
# Convention : Reuss Voigt Hill
#
# Bulk Modulus (GPa) = 33.76452 39.70265 36.73358
# Shear Modulus (GPa) = 35.25546 11.44676 23.35111
#
# Velocity S-wave (km/s) = 4.09126 2.33123 3.32964
# Velocity P-wave (km/s) = 6.19260 5.10842 5.67646
#
# Compressibility (1/GPa) = 0.02961689
#
# Stress axis : x y z
#
# Youngs Moduli (GPa) = 76.99209 85.47236 67.52117
#
# Poissons Ratio (x) = -0.01949 0.16303
# Poissons Ratio (y) = -0.01756 0.18597
# Poissons Ratio (z) = 0.18590 0.23541
#
# Static dielectric constant tensor:
#      x y z
#    x 1.831160 0.000000 0.010380 
#    y 0.000000 1.767690 0.000000 
#    z 0.010380 0.000000 1.727030 
# 
# From -- ./inp_files/372640.got.cif
#   From: 2010.05.17/outbox.cif.g08.bks.cpg/sg12_187_cif.got.tgz:372640.got - 2010.06.03 13:09:07.
