data_PCOD9215592
_publ_section_title
;
Structure prediction by ZEFSAII (Michael W. Deem and Ramdas Pophale) SiO2 
 PCOD9215592
Probable space group: C 2/M
;
_chemical_formula_sum "Si O2"
_cell_formula_units_Z 48
_cell_length_a 25.908927
_cell_length_b 17.338179
_cell_length_c 12.463507
_cell_angle_alpha 90.000000
_cell_angle_beta 158.274466
_cell_angle_gamma 90.000000
_cell_volume 2072.447730
_symmetry_space_group_name_H-M "C 2/M"
_symmetry_group_IT_number 12
_symmetry_cell_setting 'monoclinic'
loop_
_space_group_symop_operation_xyz
x,y,z
-x,y,-z
-x,-y,-z
x,-y,z
1/2+x,1/2+y,z
1/2-x,1/2+y,-z
1/2-x,1/2-y,-z
1/2+x,1/2-y,z
loop_
_atom_site_type_symbol
_atom_site_label
_atom_site_fract_x
_atom_site_fract_y
_atom_site_fract_z
Si Si1 0.780830 0.643912 0.665095
Si Si2 0.516350 0.654014 0.404398
Si Si3 0.223840 0.676450 0.579454
Si Si4 0.517299 0.582023 0.873166
Si Si5 0.493860 0.907911 0.262542
Si Si6 0.683984 0.792309 0.976064
O O1 0.836365 0.648017 0.650770
O O2 0.730903 0.731547 0.593162
O O3 0.641249 0.593308 0.398723
O O4 0.890448 0.612687 0.963467
O O5 0.500000 0.637287 0.500000
O O6 0.482271 0.587626 0.255400
O O7 0.675907 0.679092 0.696908
O O8 0.416921 0.724830 0.177776
O O9 0.136663 0.636177 0.506498
O O10 0.382671 0.647699 0.890107
O O11 0.573691 0.500000 0.017856
O O12 0.510239 0.000000 0.305612
O O13 0.418580 0.866436 0.219067
O O14 0.750000 0.750000 0.000000
#
# Coordination Sequence:
#
# PCOD9215592 Si02
#       6
#     8   8   8   8   8   8
#     4  11  23  43  70  95 134 187 239 272 322 405
#     4  10  22  41  68  97 122 172 228 278 334 411
#     4  11  25  43  66 100 136 185 233 275 328 409
#     4  12  25  40  63  98 138 175 216 281 344 393
#     4  12  25  41  67 102 141 177 222 289 353 402
#     4  10  22  42  69  97 126 173 224 276 337 411
#
# _framework density 23.161017999999999
#
# number of rings (size 3 to 8) (size 9 to 14) (size 15 to 20)
#    0.000    1.000    1.667    5.000    2.333    7.000 
#    0.000    2.500    0.000    4.500    0.000    0.000 
#    0.000    0.000    0.000    0.000    0.000    0.000 
#
# Total GULP energy -134075.883686 kJ/mol
# GULP energy per Si atom -5586.495154 kJ/mol
# Density = 2.310830 g / cm^3
# Si number density = 23.161018 Si / 1000 Ang^3
#
#
#
# Elastic Constant Matrix: (Units=GPa)
#
#
# Indices 1 2 3 4 5 6 
#
# 1 93.6533 28.0000 -2.7829 0.0000 0.4278 0.0000
# 2 28.0000 134.8743 0.1467 0.0000 14.9692 0.0000
# 3 -2.7829 0.1467 70.3923 0.0000 17.1303 0.0000
# 4 0.0000 0.0000 0.0000 21.4133 0.0000 -6.6187
# 5 0.4278 14.9692 17.1303 0.0000 44.5969 0.0000
# 6 0.0000 0.0000 0.0000 -6.6187 0.0000 15.6222
#
#
#
# Elastic Compliance Matrix: (Units=1/GPa)
#
#
# Indices 1 2 3 4 5 6 
#
# 1 0.011412 -0.002435 0.000313 0.000000 0.000587 0.000000
# 2 -0.002435 0.008250 0.000612 0.000000 -0.002981 0.000000
# 3 0.000313 0.000612 0.015739 0.000000 -0.006254 0.000000
# 4 0.000000 0.000000 0.000000 0.053737 0.000000 0.022767
# 5 0.000587 -0.002981 -0.006254 0.000000 0.025820 0.000000
# 6 0.000000 0.000000 0.000000 0.022767 0.000000 0.073657
#
#
# Mechanical properties :
#
#
# Convention : Reuss Voigt Hill
#
# Bulk Modulus (GPa) = 30.88098 38.84972 34.86535
# Shear Modulus (GPa) = 24.70005 34.56358 29.63181
#
# Velocity S-wave (km/s) = 3.26920 3.86724 3.58073
# Velocity P-wave (km/s) = 5.25474 6.06225 5.67288
#
# Compressibility (1/GPa) = 0.03238240
#
# Stress axis : x y z
#
# Youngs Moduli (GPa) = 87.62529 121.21322 63.53572
#
# Poissons Ratio (x) = 0.29512 -0.01991
# Poissons Ratio (y) = 0.21334 -0.03888
# Poissons Ratio (z) = -0.02745 -0.07418
#
# Static dielectric constant tensor:
#      x y z
#    x 1.991020 0.000000 -0.030890 
#    y 0.000000 1.818690 0.000000 
#    z -0.030890 0.000000 1.846700 
# 
# From -- ./inp_files/251514.got.cif
#   From: 2010.05.17/outbox.cif.g08.bks.cpg/sg12_126_cif.got.tgz:251514.got - 2010.06.03 13:09:07.
