data_PCOD9215386
_publ_section_title
;
Structure prediction by ZEFSAII (Michael W. Deem and Ramdas Pophale) SiO2 
 PCOD9215386
Probable space group: C 2/M
;
_chemical_formula_sum "Si O2"
_cell_formula_units_Z 36
_cell_length_a 12.373111
_cell_length_b 25.464606
_cell_length_c 6.640887
_cell_angle_alpha 90.000000
_cell_angle_beta 68.176672
_cell_angle_gamma 90.000000
_cell_volume 1942.434903
_symmetry_space_group_name_H-M "C 2/M"
_symmetry_group_IT_number 12
_symmetry_cell_setting 'monoclinic'
loop_
_space_group_symop_operation_xyz
x,y,z
-x,y,-z
-x,-y,-z
x,-y,z
1/2+x,1/2+y,z
1/2-x,1/2+y,-z
1/2-x,1/2-y,-z
1/2+x,1/2-y,z
loop_
_atom_site_type_symbol
_atom_site_label
_atom_site_fract_x
_atom_site_fract_y
_atom_site_fract_z
Si Si1 0.835355 0.774621 0.776565
Si Si2 0.500000 0.186521 0.500000
Si Si3 0.876806 0.872025 0.003087
Si Si4 0.234441 0.348532 0.499393
Si Si5 0.862518 0.061597 0.647708
O O1 0.775748 0.800346 0.617512
O O2 0.922149 0.727329 0.677220
O O3 0.750000 0.750000 0.000000
O O4 0.898604 0.823836 0.835770
O O5 0.404445 0.154637 0.438337
O O6 0.795549 0.850387 0.237540
O O7 0.832781 0.919385 0.894816
O O8 0.000000 0.889700 0.000000
O O9 0.281865 0.401571 0.567337
O O10 0.000000 0.071919 0.500000
O O11 0.843149 0.000000 0.632758
#
# Coordination Sequence:
#
# PCOD9215386 Si02
#       5
#     8   4   8   8   8
#     4  11  24  38  59  90 129 171 206 248 300 372
#     4  12  24  40  63  90 131 172 208 250 310 374
#     4  11  21  37  61  90 127 160 206 262 309 372
#     4  11  24  42  59  95 127 161 214 258 307 379
#     4  10  22  41  65  93 124 159 209 272 322 367
#
# _framework density 18.533438
#
# number of rings (size 3 to 8) (size 9 to 14) (size 15 to 20)
#    0.000    1.111    4.444    2.000    6.222    1.333 
#    0.000    0.556    0.000    1.333    0.000    0.000 
#    0.000    0.000    0.000    0.000    0.000    0.000 
#
# Total GULP energy -100343.006831 kJ/mol
# GULP energy per Si atom -5574.611491 kJ/mol
# Density = 1.849126 g / cm^3
# Si number density = 18.533438 Si / 1000 Ang^3
#
#
#
# Elastic Constant Matrix: (Units=GPa)
#
#
# Indices 1 2 3 4 5 6 
#
# 1 135.7231 65.7558 48.1407 0.0000 8.1562 0.0000
# 2 65.7558 129.2310 39.5610 0.0000 9.6326 0.0000
# 3 48.1407 39.5610 107.0936 0.0000 -1.3526 0.0000
# 4 0.0000 0.0000 0.0000 16.9432 0.0000 2.9568
# 5 8.1562 9.6326 -1.3526 0.0000 34.0075 0.0000
# 6 0.0000 0.0000 0.0000 2.9568 0.0000 21.3631
#
#
#
# Elastic Compliance Matrix: (Units=1/GPa)
#
#
# Indices 1 2 3 4 5 6 
#
# 1 0.010708 -0.004352 -0.003224 0.000000 -0.001464 0.000000
# 2 -0.004352 0.010730 -0.002033 0.000000 -0.002076 0.000000
# 3 -0.003224 -0.002033 0.011561 0.000000 0.001809 0.000000
# 4 0.000000 0.000000 0.000000 0.060481 0.000000 -0.008371
# 5 -0.001464 -0.002076 0.001809 0.000000 0.030416 0.000000
# 6 0.000000 0.000000 0.000000 -0.008371 0.000000 0.047968
#
#
# Mechanical properties :
#
#
# Convention : Reuss Voigt Hill
#
# Bulk Modulus (GPa) = 72.57444 75.44030 74.00737
# Shear Modulus (GPa) = 25.55210 29.03543 27.29376
#
# Velocity S-wave (km/s) = 3.71712 3.96239 3.84171
# Velocity P-wave (km/s) = 7.59383 7.85668 7.72637
#
# Compressibility (1/GPa) = 0.01377896
#
# Stress axis : x y z
#
# Youngs Moduli (GPa) = 93.38602 93.19682 86.49787
#
# Poissons Ratio (x) = 0.40564 0.27889
# Poissons Ratio (y) = 0.40646 0.17589
# Poissons Ratio (z) = 0.30110 0.18951
#
# Static dielectric constant tensor:
#      x y z
#    x 1.495890 0.000000 0.184650 
#    y 0.000000 1.641170 0.000000 
#    z 0.184650 0.000000 1.551370 
# 
# From -- ./inp_files/7404.got.cif
#   From: 2010.05.17/outbox.cif.g08.bks.cpg/sg12_4_cif.got.tgz:7404.got - 2010.06.03 13:09:07.
