data_PCOD9215633
_publ_section_title
;
Structure prediction by ZEFSAII (Michael W. Deem and Ramdas Pophale) SiO2 
 PCOD9215633
Probable space group: C 2/M
;
_chemical_formula_sum "Si O2"
_cell_formula_units_Z 48
_cell_length_a 15.217493
_cell_length_b 17.684095
_cell_length_c 19.398367
_cell_angle_alpha 90.000000
_cell_angle_beta 153.977452
_cell_angle_gamma 90.000000
_cell_volume 2290.252297
_symmetry_space_group_name_H-M "C 2/M"
_symmetry_group_IT_number 12
_symmetry_cell_setting 'monoclinic'
loop_
_space_group_symop_operation_xyz
x,y,z
-x,y,-z
-x,-y,-z
x,-y,z
1/2+x,1/2+y,z
1/2-x,1/2+y,-z
1/2-x,1/2-y,-z
1/2+x,1/2-y,z
loop_
_atom_site_type_symbol
_atom_site_label
_atom_site_fract_x
_atom_site_fract_y
_atom_site_fract_z
Si Si1 0.171281 0.000000 0.725599
Si Si2 0.277020 0.000000 0.637219
Si Si3 0.186808 0.352127 0.091513
Si Si4 0.947345 0.642375 0.160309
Si Si5 0.790273 0.586459 0.386000
Si Si6 0.401305 0.284718 0.660798
Si Si7 0.572177 0.587813 0.976910
O O1 0.235672 0.000000 0.690773
O O2 0.255249 0.072600 0.825080
O O3 0.930028 0.000000 0.550734
O O4 0.403566 0.075428 0.712645
O O5 0.388720 0.304584 0.226949
O O6 0.116847 0.369106 0.964145
O O7 0.000000 0.315813 0.000000
O O8 0.049096 0.723209 0.245114
O O9 0.748641 0.634933 0.066533
O O10 0.817179 0.500000 0.429916
O O11 0.704716 0.641452 0.383345
O O12 0.619387 0.586682 0.207486
O O13 0.000000 0.611224 0.500000
O O14 0.250000 0.250000 0.500000
O O15 0.641611 0.500000 0.033205
O O16 0.500000 0.615412 0.000000
#
# Coordination Sequence:
#
# PCOD9215633 Si02
#       7
#     4   4   8   8   8   8   8
#     4  11  24  43  72 110 146 188 243 286 359 434
#     4  11  23  46  74 109 145 191 235 298 355 432
#     4  12  25  45  74 105 142 194 242 293 360 434
#     4  12  24  46  72 103 143 187 244 292 356 436
#     4  10  24  48  74 100 137 187 237 297 360 429
#     4  12  29  47  67 109 147 188 239 303 370 429
#     4  10  22  41  70 104 134 179 240 295 347 418
#
# _framework density 20.958389
#
# number of rings (size 3 to 8) (size 9 to 14) (size 15 to 20)
#    0.000    0.833    4.167    2.250    3.500    2.000 
#    4.500    0.000    0.000    0.000    0.000    0.000 
#    0.000    0.000    0.000    0.000    0.000    0.000 
#
# Total GULP energy -134307.002519 kJ/mol
# GULP energy per Si atom -5596.125105 kJ/mol
# Density = 2.091069 g / cm^3
# Si number density = 20.958389 Si / 1000 Ang^3
#
#
#
# Elastic Constant Matrix: (Units=GPa)
#
#
# Indices 1 2 3 4 5 6 
#
# 1 137.3098 41.5930 53.3588 0.0289 17.5188 0.0114
# 2 41.5930 74.6527 36.9143 0.0462 11.2367 0.0016
# 3 53.3588 36.9143 116.6793 0.0113 16.4318 0.0078
# 4 0.0289 0.0462 0.0113 38.8081 -0.0016 26.7264
# 5 17.5188 11.2367 16.4318 -0.0016 47.4958 -0.0078
# 6 0.0114 0.0016 0.0078 26.7264 -0.0078 9.7403
#
#
#
# Elastic Compliance Matrix: (Units=1/GPa)
#
#
# Indices 1 2 3 4 5 6 
#
# 1 0.009813 -0.003690 -0.003084 -0.000005 -0.001680 0.000005
# 2 -0.003690 0.017473 -0.003627 0.000022 -0.001518 -0.000056
# 3 -0.003084 -0.003627 0.011403 -0.000009 -0.001949 0.000017
# 4 -0.000005 0.000022 -0.000009 -0.028963 0.000012 0.079472
# 5 -0.001680 -0.001518 -0.001949 0.000012 0.022708 -0.000010
# 6 0.000005 -0.000056 0.000017 0.079472 -0.000010 -0.115398
#
#
# Mechanical properties :
#
#
# Convention : Reuss Voigt Hill
#
# Bulk Modulus (GPa) = 55.90286 65.81933 60.86110
# Shear Modulus (GPa) = -88.96636 32.32723 -28.31956
#
# Velocity S-wave (km/s) = -6.52236 3.93166 -3.67989
# Velocity P-wave (km/s) = 5.47635 7.21689 3.32364
#
# Compressibility (1/GPa) = 0.01788817
#
# Stress axis : x y z
#
# Youngs Moduli (GPa) = 101.90421 57.23113 87.69838
#
# Poissons Ratio (x) = 0.21117 0.27044
# Poissons Ratio (y) = 0.37600 0.31807
# Poissons Ratio (z) = 0.31425 0.20757
#
# Static dielectric constant tensor:
#      x y z
#    x 1.725540 0.000010 0.010120 
#    y 0.000010 1.754030 -0.000010 
#    z 0.010120 -0.000010 1.717610 
# 
# From -- ./inp_files/271808.got.cif
#   From: 2010.05.17/outbox.cif.g08.bks.cpg/sg12_136_cif.got.tgz:271808.got - 2010.06.03 13:09:07.
