data_PCOD9215520
_publ_section_title
;
Structure prediction by ZEFSAII (Michael W. Deem and Ramdas Pophale) SiO2 
 PCOD9215520
Probable space group: C 2/M
;
_chemical_formula_sum "Si O2"
_cell_formula_units_Z 32
_cell_length_a 18.439660
_cell_length_b 11.625513
_cell_length_c 15.079524
_cell_angle_alpha 90.000000
_cell_angle_beta 28.813648
_cell_angle_gamma 90.000000
_cell_volume 1557.994160
_symmetry_space_group_name_H-M "C 2/M"
_symmetry_group_IT_number 12
_symmetry_cell_setting 'monoclinic'
loop_
_space_group_symop_operation_xyz
x,y,z
-x,y,-z
-x,-y,-z
x,-y,z
1/2+x,1/2+y,z
1/2-x,1/2+y,-z
1/2-x,1/2-y,-z
1/2+x,1/2-y,z
loop_
_atom_site_type_symbol
_atom_site_label
_atom_site_fract_x
_atom_site_fract_y
_atom_site_fract_z
Si Si1 0.861189 0.250164 0.296459
Si Si2 0.419925 0.785102 0.803842
Si Si3 0.972552 0.500000 0.425554
Si Si4 0.099418 0.863302 0.480259
Si Si5 0.890426 0.000000 0.201522
O O1 0.750000 0.250000 0.500000
O O2 0.760726 0.299907 0.323496
O O3 0.917741 0.121653 0.218623
O O4 0.003620 0.316952 0.183614
O O5 0.499921 0.676655 0.670428
O O6 0.455721 0.889546 0.699044
O O7 0.250000 0.750000 0.000000
O O8 0.791458 0.500000 0.612373
O O9 0.000000 0.500000 0.500000
O O10 0.000000 0.831900 0.500000
O O11 0.123930 0.000000 0.453281
O O12 0.000000 0.000000 0.000000
#
# Coordination Sequence:
#
# PCOD9215520 Si02
#       5
#     8   8   4   8   4
#     4  10  23  41  67  94 135 173 229 275 342 402
#     4  11  26  40  68  97 136 176 227 279 340 405
#     4  12  26  46  68 102 141 175 226 293 337 408
#     4  10  22  41  67  92 133 177 217 272 348 403
#     4  12  26  42  72 102 132 183 226 285 346 399
#
# _framework density 20.53923
#
# number of rings (size 3 to 8) (size 9 to 14) (size 15 to 20)
#    0.000    1.250    5.000    0.750   14.000    0.000 
#    0.000    0.000    0.000    3.750    0.000    0.000 
#    0.000    0.000    0.000    0.000    0.000    0.000 
#
# Total GULP energy -89187.045436 kJ/mol
# GULP energy per Si atom -5574.190340 kJ/mol
# Density = 2.049248 g / cm^3
# Si number density = 20.539230 Si / 1000 Ang^3
#
#
#
# Elastic Constant Matrix: (Units=GPa)
#
#
# Indices 1 2 3 4 5 6 
#
# 1 166.7361 54.5916 41.0045 0.0000 -17.6600 0.0000
# 2 54.5916 114.2737 32.2418 0.0000 13.6533 0.0000
# 3 41.0045 32.2418 113.5312 0.0000 -9.8533 0.0000
# 4 0.0000 0.0000 0.0000 12.7732 0.0000 7.6992
# 5 -17.6600 13.6533 -9.8533 0.0000 34.1765 0.0000
# 6 0.0000 0.0000 0.0000 7.6992 0.0000 28.9651
#
#
#
# Elastic Compliance Matrix: (Units=1/GPa)
#
#
# Indices 1 2 3 4 5 6 
#
# 1 0.008314 -0.004278 -0.001299 0.000000 0.005631 0.000000
# 2 -0.004278 0.012511 -0.002701 0.000000 -0.007987 0.000000
# 3 -0.001299 -0.002701 0.010339 0.000000 0.003388 0.000000
# 4 0.000000 0.000000 0.000000 0.093226 0.000000 -0.024780
# 5 0.005631 -0.007987 0.003388 0.000000 0.036337 0.000000
# 6 0.000000 0.000000 0.000000 -0.024780 0.000000 0.041111
#
#
# Mechanical properties :
#
#
# Convention : Reuss Voigt Hill
#
# Bulk Modulus (GPa) = 68.46060 72.24631 70.35345
# Shear Modulus (GPa) = 22.39506 32.96316 27.67911
#
# Velocity S-wave (km/s) = 3.30564 4.01045 3.67498
# Velocity P-wave (km/s) = 6.92630 7.52968 7.23428
#
# Compressibility (1/GPa) = 0.01460694
#
# Stress axis : x y z
#
# Youngs Moduli (GPa) = 120.27815 79.92907 96.72509
#
# Poissons Ratio (x) = 0.34194 0.12567
# Poissons Ratio (y) = 0.51455 0.26127
# Poissons Ratio (z) = 0.15627 0.21590
#
# Static dielectric constant tensor:
#      x y z
#    x 1.843820 0.000000 -0.034590 
#    y 0.000000 1.800480 0.000000 
#    z -0.034590 0.000000 1.636120 
# 
# From -- ./inp_files/71013.got.cif
#   From: 2010.05.17/outbox.cif.g08.bks.cpg/sg12_36_cif.got.tgz:71013.got - 2010.06.03 13:09:07.
