data_PCOD9215573
_publ_section_title
;
Structure prediction by ZEFSAII (Michael W. Deem and Ramdas Pophale) SiO2 
 PCOD9215573
Probable space group: C 2/M
;
_chemical_formula_sum "Si O2"
_cell_formula_units_Z 40
_cell_length_a 8.117552
_cell_length_b 24.650318
_cell_length_c 17.880772
_cell_angle_alpha 90.000000
_cell_angle_beta 30.515467
_cell_angle_gamma 90.000000
_cell_volume 1816.777382
_symmetry_space_group_name_H-M "C 2/M"
_symmetry_group_IT_number 12
_symmetry_cell_setting 'monoclinic'
loop_
_space_group_symop_operation_xyz
x,y,z
-x,y,-z
-x,-y,-z
x,-y,z
1/2+x,1/2+y,z
1/2-x,1/2+y,-z
1/2-x,1/2-y,-z
1/2+x,1/2-y,z
loop_
_atom_site_type_symbol
_atom_site_label
_atom_site_fract_x
_atom_site_fract_y
_atom_site_fract_z
Si Si1 0.287858 0.563415 0.827228
Si Si2 0.773524 0.170112 0.327950
Si Si3 0.870509 0.562429 0.839262
Si Si4 0.160634 0.266811 0.117830
Si Si5 0.129097 0.341186 0.662026
O O1 0.402089 0.500000 0.790531
O O2 0.558790 0.610619 0.730182
O O3 0.104308 0.567990 0.819520
O O4 0.000000 0.571877 0.000000
O O5 0.500000 0.177719 0.500000
O O6 0.587804 0.180249 0.321575
O O7 0.062645 0.214882 0.207452
O O8 0.856917 0.500000 0.823077
O O9 0.017161 0.597765 0.716505
O O10 0.500000 0.579152 0.000000
O O11 0.909800 0.311163 0.243138
O O12 0.500000 0.295912 0.000000
O O13 0.250000 0.250000 0.000000
O O14 0.500000 0.336519 0.500000
#
# Coordination Sequence:
#
# PCOD9215573 Si02
#       5
#     8   8   8   8   8
#     4  10  22  41  68 101 135 176 224 274 329 394
#     4  12  27  44  68  99 137 179 221 277 337 396
#     4  10  22  41  69 101 136 176 222 274 329 395
#     4  12  27  46  72 100 130 173 225 276 333 401
#     4  12  27  44  67  99 138 177 222 276 337 400
#
# _framework density 22.017005999999999
#
# number of rings (size 3 to 8) (size 9 to 14) (size 15 to 20)
#    0.000    0.800    2.000    4.200    8.400    4.800 
#    0.000    0.000    0.000    0.000    0.000    0.000 
#    0.000    0.000    0.000    0.000    0.000    0.000 
#
# Total GULP energy -111554.715660 kJ/mol
# GULP energy per Si atom -5577.735783 kJ/mol
# Density = 2.196689 g / cm^3
# Si number density = 22.017006 Si / 1000 Ang^3
#
#
#
# Elastic Constant Matrix: (Units=GPa)
#
#
# Indices 1 2 3 4 5 6 
#
# 1 47.3463 14.9096 20.4803 0.0001 2.5563 0.0007
# 2 14.9096 130.3675 64.1451 -0.0003 -2.1840 0.0000
# 3 20.4803 64.1451 174.0310 0.0041 3.3228 0.0007
# 4 0.0001 -0.0003 0.0041 18.5752 -0.0010 12.3624
# 5 2.5563 -2.1840 3.3228 -0.0010 37.2912 -0.0006
# 6 0.0007 0.0000 0.0007 12.3624 -0.0006 23.4939
#
#
#
# Elastic Compliance Matrix: (Units=1/GPa)
#
#
# Indices 1 2 3 4 5 6 
#
# 1 0.022587 -0.001604 -0.002039 0.000001 -0.001461 -0.000001
# 2 -0.001604 0.009511 -0.003335 0.000001 0.000964 0.000000
# 3 -0.002039 -0.003335 0.007229 -0.000002 -0.000700 0.000001
# 4 0.000001 0.000001 -0.000002 0.082849 0.000002 -0.043595
# 5 -0.001461 0.000964 -0.000700 0.000002 0.027035 0.000000
# 6 -0.000001 0.000000 0.000001 -0.043595 0.000000 0.065503
#
#
# Mechanical properties :
#
#
# Convention : Reuss Voigt Hill
#
# Bulk Modulus (GPa) = 39.41686 61.20165 50.30926
# Shear Modulus (GPa) = 21.08564 32.68604 26.88584
#
# Velocity S-wave (km/s) = 3.09803 3.85721 3.49827
# Velocity P-wave (km/s) = 5.54426 6.90617 6.26235
#
# Compressibility (1/GPa) = 0.02536985
#
# Stress axis : x y z
#
# Youngs Moduli (GPa) = 44.27324 105.13737 138.33665
#
# Poissons Ratio (x) = 0.16869 0.28204
# Poissons Ratio (y) = 0.07104 0.46140
# Poissons Ratio (z) = 0.09026 0.35067
#
# Static dielectric constant tensor:
#      x y z
#    x 1.963120 0.000000 0.015260 
#    y 0.000000 1.833940 0.000000 
#    z 0.015260 0.000000 1.749630 
# 
# From -- ./inp_files/39427.got.cif
#   From: 2010.05.17/outbox.cif.g08.bks.cpg/sg12_20_cif.got.tgz:39427.got - 2010.06.03 13:09:07.
