data_PCOD9215803
_publ_section_title
;
Structure prediction by ZEFSAII (Michael W. Deem and Ramdas Pophale) SiO2 
 PCOD9215803
Probable space group: C 2/M
;
_chemical_formula_sum "Si O2"
_cell_formula_units_Z 36
_cell_length_a 13.225747
_cell_length_b 25.201004
_cell_length_c 13.776190
_cell_angle_alpha 90.000000
_cell_angle_beta 159.057446
_cell_angle_gamma 90.000000
_cell_volume 1641.195415
_symmetry_space_group_name_H-M "C 2/M"
_symmetry_group_IT_number 12
_symmetry_cell_setting 'monoclinic'
loop_
_space_group_symop_operation_xyz
x,y,z
-x,y,-z
-x,-y,-z
x,-y,z
1/2+x,1/2+y,z
1/2-x,1/2+y,-z
1/2-x,1/2-y,-z
1/2+x,1/2-y,z
loop_
_atom_site_type_symbol
_atom_site_label
_atom_site_fract_x
_atom_site_fract_y
_atom_site_fract_z
Si Si1 0.500000 0.801388 0.000000
Si Si2 0.228941 0.281336 0.881356
Si Si3 0.217916 0.351714 0.606038
Si Si4 0.439460 0.904150 0.838300
Si Si5 0.039181 0.062372 0.311689
O O1 0.739605 0.763122 0.173550
O O2 0.395294 0.842109 0.823417
O O3 0.491336 0.322038 0.106803
O O4 0.250000 0.250000 0.000000
O O5 0.942606 0.313642 0.613514
O O6 0.289442 0.406510 0.617105
O O7 0.000000 0.357526 0.500000
O O8 0.187386 0.927055 0.548747
O O9 0.500000 0.928448 0.000000
O O10 0.726758 0.913064 0.036950
O O11 0.024460 0.000000 0.280592
#
# Coordination Sequence:
#
# PCOD9215803 Si02
#       5
#     4   8   8   8   8
#     4  10  22  42  65  98 129 168 206 264 328 392
#     4  12  24  42  68  93 134 175 213 267 330 384
#     4  12  25  44  65  98 130 172 227 270 315 397
#     4  10  25  42  68  98 137 164 222 266 330 405
#     4  12  25  45  68  95 132 177 221 278 330 376
#
# _framework density 21.935230000000001
#
# number of rings (size 3 to 8) (size 9 to 14) (size 15 to 20)
#    0.667    0.000    2.222    6.000    0.000    6.667 
#    0.000    0.000    0.000    5.333    0.000    0.000 
#    0.000    0.000    0.000    0.000    0.000    0.000 
#
# Total GULP energy -100727.627657 kJ/mol
# GULP energy per Si atom -5595.979314 kJ/mol
# Density = 2.188530 g / cm^3
# Si number density = 21.935230 Si / 1000 Ang^3
#
#
#
# Elastic Constant Matrix: (Units=GPa)
#
#
# Indices 1 2 3 4 5 6 
#
# 1 77.7779 49.8978 -3.8805 -0.0423 -1.9266 0.0204
# 2 49.8978 133.9531 22.9439 -0.0366 0.8791 0.0102
# 3 -3.8805 22.9439 94.0232 -0.1193 2.2653 0.0372
# 4 -0.0423 -0.0366 -0.1193 58.6231 -0.0393 -18.1105
# 5 -1.9266 0.8791 2.2653 -0.0393 25.5530 0.0124
# 6 0.0204 0.0102 0.0372 -18.1105 0.0124 28.4884
#
#
#
# Elastic Compliance Matrix: (Units=1/GPa)
#
#
# Indices 1 2 3 4 5 6 
#
# 1 0.017444 -0.006914 0.002375 0.000012 0.001343 -0.000006
# 2 -0.006914 0.010531 -0.002840 -0.000004 -0.000632 0.000003
# 3 0.002375 -0.002840 0.011445 0.000022 -0.000738 -0.000001
# 4 0.000012 -0.000004 0.000022 0.021227 0.000025 0.013494
# 5 0.001343 -0.000632 -0.000738 0.000025 0.039323 -0.000001
# 6 -0.000006 0.000003 -0.000001 0.013494 -0.000001 0.043680
#
#
# Mechanical properties :
#
#
# Convention : Reuss Voigt Hill
#
# Bulk Modulus (GPa) = 40.54787 49.29740 44.92264
# Shear Modulus (GPa) = 30.00687 38.31910 34.16299
#
# Velocity S-wave (km/s) = 3.70263 4.18415 3.95073
# Velocity P-wave (km/s) = 6.06669 6.77242 6.42924
#
# Compressibility (1/GPa) = 0.02466221
#
# Stress axis : x y z
#
# Youngs Moduli (GPa) = 57.32572 94.95600 87.37819
#
# Poissons Ratio (x) = 0.65648 -0.20750
# Poissons Ratio (y) = 0.39632 0.24815
# Poissons Ratio (z) = -0.13613 0.26967
#
# Static dielectric constant tensor:
#      x y z
#    x 1.841110 0.000000 -0.034450 
#    y 0.000000 1.767210 0.000000 
#    z -0.034450 0.000000 1.661910 
# 
# From -- ./inp_files/218617.got.cif
#   From: 2010.05.17/outbox.cif.g08.bks.cpg/sg12_110_cif.got.tgz:218617.got - 2010.06.03 13:09:07.
