data_PCOD9215287
_publ_section_title
;
Structure prediction by ZEFSAII (Michael W. Deem and Ramdas Pophale) SiO2 
 PCOD9215287
Probable space group: C 2/M
;
_chemical_formula_sum "Si O2"
_cell_formula_units_Z 56
_cell_length_a 27.071107
_cell_length_b 8.843035
_cell_length_c 20.155824
_cell_angle_alpha 90.000000
_cell_angle_beta 35.326409
_cell_angle_gamma 90.000000
_cell_volume 2790.045889
_symmetry_space_group_name_H-M "C 2/M"
_symmetry_group_IT_number 12
_symmetry_cell_setting 'monoclinic'
loop_
_space_group_symop_operation_xyz
x,y,z
-x,y,-z
-x,-y,-z
x,-y,z
1/2+x,1/2+y,z
1/2-x,1/2+y,-z
1/2-x,1/2-y,-z
1/2+x,1/2-y,z
loop_
_atom_site_type_symbol
_atom_site_label
_atom_site_fract_x
_atom_site_fract_y
_atom_site_fract_z
Si Si1 0.745332 0.679191 0.710223
Si Si2 0.076859 0.820612 0.465731
Si Si3 0.294493 0.179883 0.386864
Si Si4 0.493717 0.820538 0.193133
Si Si5 0.038832 0.821387 0.284224
Si Si6 0.280837 0.180644 0.896276
Si Si7 0.847696 0.319143 0.070287
O O1 0.738292 0.500000 0.717260
O O2 0.836842 0.729325 0.639436
O O3 0.739694 0.745346 0.642631
O O4 0.672108 0.750812 0.836430
O O5 0.000000 0.782078 0.500000
O O6 0.040150 0.794687 0.579802
O O7 0.094884 0.000000 0.437936
O O8 0.250000 0.250000 0.500000
O O9 0.396096 0.206702 0.280685
O O10 0.279293 0.000000 0.401528
O O11 0.517734 0.730512 0.233120
O O12 0.503734 0.000000 0.196687
O O13 0.559815 0.783453 0.062057
O O14 0.121351 0.731292 0.219128
O O15 0.058375 0.000000 0.264532
O O16 0.221403 0.249727 0.904556
O O17 0.273467 0.000000 0.905646
O O18 0.250000 0.250000 0.000000
O O19 0.838104 0.500000 0.083158
#
# Coordination Sequence:
#
# PCOD9215287 Si02
#       7
#     8   8   8   8   8   8   8
#     4  12  26  43  65  95 130 170 210 260 320 380
#     4  10  22  41  64  91 125 167 213 260 315 378
#     4  11  24  45  70  97 127 164 211 263 319 379
#     4  10  23  41  64  91 122 163 211 263 317 377
#     4  11  22  36  61  93 126 166 211 264 319 374
#     4  12  23  37  59  91 130 171 213 258 311 374
#     4  11  23  42  65  91 126 169 213 264 321 378
#
# _framework density 20.071352999999998
#
# number of rings (size 3 to 8) (size 9 to 14) (size 15 to 20)
#    0.000    1.000    1.429    5.571    0.000    7.143 
#    0.000    2.857    0.000    0.000    0.000    0.000 
#    0.000    0.000    0.000    0.000    0.000    0.000 
#
# Total GULP energy -156729.255496 kJ/mol
# GULP energy per Si atom -5597.473411 kJ/mol
# Density = 2.002567 g / cm^3
# Si number density = 20.071353 Si / 1000 Ang^3
#
#
#
# Elastic Constant Matrix: (Units=GPa)
#
#
# Indices 1 2 3 4 5 6 
#
# 1 72.9488 48.2704 49.0315 0.0011 13.5138 -0.0005
# 2 48.2704 109.3518 74.8398 -0.0061 -4.8784 0.0055
# 3 49.0315 74.8398 130.7458 -0.0008 11.4009 0.0001
# 4 0.0011 -0.0061 -0.0008 33.0310 0.0007 2.9980
# 5 13.5138 -4.8784 11.4009 0.0007 34.0407 -0.0002
# 6 -0.0005 0.0055 0.0001 2.9980 -0.0002 28.3869
#
#
#
# Elastic Compliance Matrix: (Units=1/GPa)
#
#
# Indices 1 2 3 4 5 6 
#
# 1 0.023130 -0.008646 -0.002901 -0.000002 -0.009450 0.000002
# 2 -0.008646 0.019212 -0.008544 0.000004 0.009047 -0.000004
# 3 -0.002901 -0.008544 0.014043 -0.000001 -0.004776 0.000002
# 4 -0.000002 0.000004 -0.000001 0.030568 0.000001 -0.003228
# 5 -0.009450 0.009047 -0.004776 0.000001 0.036024 -0.000002
# 6 0.000002 -0.000004 0.000002 -0.003228 -0.000002 0.035569
#
#
# Mechanical properties :
#
#
# Convention : Reuss Voigt Hill
#
# Bulk Modulus (GPa) = 61.71394 73.03667 67.37530
# Shear Modulus (GPa) = 24.49430 28.48534 26.48982
#
# Velocity S-wave (km/s) = 3.49716 3.77132 3.63682
# Velocity P-wave (km/s) = 6.86446 7.44522 7.16073
#
# Compressibility (1/GPa) = 0.01620380
#
# Stress axis : x y z
#
# Youngs Moduli (GPa) = 43.23402 52.04968 71.20878
#
# Poissons Ratio (x) = 0.45004 0.20656
# Poissons Ratio (y) = 0.37382 0.60839
# Poissons Ratio (z) = 0.12541 0.44470
#
# Static dielectric constant tensor:
#      x y z
#    x 1.700830 0.000000 0.009050 
#    y 0.000000 1.668670 0.000000 
#    z 0.009050 0.000000 1.714820 
# 
# From -- ./inp_files/329474.got.cif
#   From: 2010.05.17/outbox.cif.g08.bks.cpg/sg12_165_cif.got.tgz:329474.got - 2010.06.03 13:09:07.
