data_PCOD9215194
_publ_section_title
;
Structure prediction by ZEFSAII (Michael W. Deem and Ramdas Pophale) SiO2 
 PCOD9215194
Probable space group: C 2/M
;
_chemical_formula_sum "Si O2"
_cell_formula_units_Z 48
_cell_length_a 20.287403
_cell_length_b 8.895602
_cell_length_c 33.464851
_cell_angle_alpha 90.000000
_cell_angle_beta 24.657625
_cell_angle_gamma 90.000000
_cell_volume 2519.589759
_symmetry_space_group_name_H-M "C 2/M"
_symmetry_group_IT_number 12
_symmetry_cell_setting 'monoclinic'
loop_
_space_group_symop_operation_xyz
x,y,z
-x,y,-z
-x,-y,-z
x,-y,z
1/2+x,1/2+y,z
1/2-x,1/2+y,-z
1/2-x,1/2-y,-z
1/2+x,1/2-y,z
loop_
_atom_site_type_symbol
_atom_site_label
_atom_site_fract_x
_atom_site_fract_y
_atom_site_fract_z
Si Si1 0.578335 0.318422 0.914664
Si Si2 0.414998 0.680702 0.922510
Si Si3 0.831370 0.179629 0.285004
Si Si4 0.583372 0.320383 0.291143
Si Si5 0.526345 0.320256 0.415872
Si Si6 0.663087 0.820013 0.633939
O O1 0.595883 0.500000 0.903957
O O2 0.469748 0.273865 0.936756
O O3 0.749104 0.245144 0.814966
O O4 0.500000 0.277384 0.000000
O O5 0.401346 0.500000 0.929646
O O6 0.551847 0.722519 0.815572
O O7 0.250000 0.750000 0.000000
O O8 0.656691 0.236470 0.370200
O O9 0.884802 0.255201 0.296710
O O10 0.832568 0.000000 0.288359
O O11 0.581363 0.500000 0.287740
O O12 0.557218 0.285574 0.352317
O O13 0.445464 0.248824 0.340632
O O14 0.545169 0.500000 0.411438
O O15 0.346879 0.280505 0.525520
O O16 0.649182 0.000000 0.641280
#
# Coordination Sequence:
#
# PCOD9215194 Si02
#       6
#     8   8   8   8   8   8
#     4  10  22  42  65  90 120 159 203 245 300 363
#     4  10  23  41  62  90 122 157 198 246 300 359
#     4  11  23  40  62  91 125 159 201 252 303 356
#     4  11  23  40  63  92 124 158 202 252 305 357
#     4  10  22  41  63  89 121 162 205 248 301 361
#     4  11  24  40  61  89 124 164 206 248 297 359
#
# _framework density 19.050720999999999
#
# number of rings (size 3 to 8) (size 9 to 14) (size 15 to 20)
#    0.000    1.500    1.667    2.500    2.333    6.333 
#    0.000    0.000    0.000    0.000    0.000    0.000 
#    0.000    0.000    0.000    0.000    0.000    0.000 
#
# Total GULP energy -134206.535329 kJ/mol
# GULP energy per Si atom -5591.938972 kJ/mol
# Density = 1.900736 g / cm^3
# Si number density = 19.050721 Si / 1000 Ang^3
#
#
#
# Elastic Constant Matrix: (Units=GPa)
#
#
# Indices 1 2 3 4 5 6 
#
# 1 49.6362 20.8824 12.9680 0.0015 -3.4475 -0.0155
# 2 20.8824 20.7297 19.6657 -0.0014 1.3907 0.0007
# 3 12.9680 19.6657 81.6538 -0.0061 2.3004 0.0013
# 4 0.0015 -0.0014 -0.0061 32.0788 0.0013 -7.4333
# 5 -3.4475 1.3907 2.3004 0.0013 39.7324 -0.0006
# 6 -0.0155 0.0007 0.0013 -7.4333 -0.0006 38.3627
#
#
#
# Elastic Compliance Matrix: (Units=1/GPa)
#
#
# Indices 1 2 3 4 5 6 
#
# 1 0.036644 -0.040919 0.003912 0.000001 0.004385 0.000016
# 2 -0.040919 0.108288 -0.019407 -0.000001 -0.006217 -0.000018
# 3 0.003912 -0.019407 0.016297 0.000003 0.000075 0.000002
# 4 0.000001 -0.000001 0.000003 0.032639 -0.000001 0.006324
# 5 0.004385 -0.006217 0.000075 -0.000001 0.025762 0.000002
# 6 0.000016 -0.000018 0.000002 0.006324 0.000002 0.027292
#
#
# Mechanical properties :
#
#
# Convention : Reuss Voigt Hill
#
# Bulk Modulus (GPa) = 20.66043 28.78355 24.72199
# Shear Modulus (GPa) = 13.30193 28.60168 20.95181
#
# Velocity S-wave (km/s) = 2.64529 3.87892 3.31991
# Velocity P-wave (km/s) = 4.49428 5.93322 5.26316
#
# Compressibility (1/GPa) = 0.04840170
#
# Stress axis : x y z
#
# Youngs Moduli (GPa) = 27.28941 9.23461 61.35958
#
# Poissons Ratio (x) = 0.37787 -0.24003
# Poissons Ratio (y) = 1.11667 1.19078
# Poissons Ratio (z) = -0.10675 0.17921
#
# Static dielectric constant tensor:
#      x y z
#    x 1.635600 0.000000 0.018160 
#    y 0.000000 1.637650 0.000000 
#    z 0.018160 0.000000 1.636670 
# 
# From -- ./inp_files/244701.got.cif
#   From: 2010.05.17/outbox.cif.g08.bks.cpg/sg12_123_cif.got.tgz:244701.got - 2010.06.03 13:09:07.
