data_PCOD9215249
_publ_section_title
;
Structure prediction by ZEFSAII (Michael W. Deem and Ramdas Pophale) SiO2 
 PCOD9215249
Probable space group: C 2/M
;
_chemical_formula_sum "Si O2"
_cell_formula_units_Z 64
_cell_length_a 26.113536
_cell_length_b 15.437414
_cell_length_c 8.005631
_cell_angle_alpha 90.000000
_cell_angle_beta 85.408339
_cell_angle_gamma 90.000000
_cell_volume 3216.915924
_symmetry_space_group_name_H-M "C 2/M"
_symmetry_group_IT_number 12
_symmetry_cell_setting 'monoclinic'
loop_
_space_group_symop_operation_xyz
x,y,z
-x,y,-z
-x,-y,-z
x,-y,z
1/2+x,1/2+y,z
1/2-x,1/2+y,-z
1/2-x,1/2-y,-z
1/2+x,1/2-y,z
loop_
_atom_site_type_symbol
_atom_site_label
_atom_site_fract_x
_atom_site_fract_y
_atom_site_fract_z
Si Si1 0.865877 0.405802 0.938132
Si Si2 0.070661 0.095125 0.856191
Si Si3 0.531964 0.403634 0.325254
Si Si4 0.602906 0.717231 0.130549
Si Si5 0.670513 0.354458 0.636954
Si Si6 0.798459 0.826300 0.733872
Si Si7 0.685458 0.148167 0.709090
Si Si8 0.715195 0.123959 0.328929
O O1 0.891224 0.500000 0.917586
O O2 0.896487 0.320290 0.872985
O O3 0.817597 0.407221 0.820765
O O4 0.850670 0.389408 0.136195
O O5 0.117305 0.105930 0.713267
O O6 0.013693 0.097535 0.798160
O O7 0.077530 0.000000 0.934890
O O8 0.077925 0.174626 0.977024
O O9 0.500000 0.392453 0.500000
O O10 0.555947 0.500000 0.320628
O O11 0.571791 0.326810 0.288347
O O12 0.661413 0.681606 0.127172
O O13 0.676056 0.366662 0.436715
O O14 0.672239 0.250807 0.683885
O O15 0.723948 0.395255 0.692294
O O16 0.742258 0.863403 0.774874
O O17 0.787606 0.727700 0.682745
O O18 0.690846 0.106676 0.520690
#
# Coordination Sequence:
#
# PCOD9215249 Si02
#       8
#     8   8   8   8   8   8   8   8
#     4  11  23  36  56  84 115 158 205 240 279 331
#     4  11  22  34  56  87 114 141 177 224 286 354
#     4  10  22  41  64  88 113 141 178 226 289 363
#     4  11  21  37  57  82 116 150 183 238 289 337
#     4   9  16  33  54  82 113 148 190 230 284 340
#     4   8  17  31  55  79 109 153 195 230 277 338
#     4   9  17  35  55  80 113 156 197 239 281 326
#     4   8  18  32  54  80 116 154 194 241 282 325
#
# _framework density 19.894829999999999
#
# number of rings (size 3 to 8) (size 9 to 14) (size 15 to 20)
#    0.000    2.375    1.250    3.000    1.750    3.500 
#    0.000    3.125    0.000    1.875    0.000    0.000 
#    0.000    0.000    0.000    0.000    0.000    0.000 
#
# Total GULP energy -178303.706767 kJ/mol
# GULP energy per Si atom -5571.990836 kJ/mol
# Density = 1.984955 g / cm^3
# Si number density = 19.894830 Si / 1000 Ang^3
#
#
#
# Elastic Constant Matrix: (Units=GPa)
#
#
# Indices 1 2 3 4 5 6 
#
# 1 47.4090 27.1434 2.2165 0.0000 -4.8000 0.0000
# 2 27.1434 109.0399 19.4471 0.0000 -7.8862 0.0000
# 3 2.2165 19.4471 48.2819 0.0000 -5.2440 0.0000
# 4 0.0000 0.0000 0.0000 217.9961 0.0000 -73.4826
# 5 -4.8000 -7.8862 -5.2440 0.0000 32.0746 0.0000
# 6 0.0000 0.0000 0.0000 -73.4826 0.0000 12.3706
#
#
#
# Elastic Compliance Matrix: (Units=1/GPa)
#
#
# Indices 1 2 3 4 5 6 
#
# 1 0.024877 -0.006313 0.001666 0.000000 0.002443 0.000000
# 2 -0.006313 0.011587 -0.004246 0.000000 0.001210 0.000000
# 3 0.001666 -0.004246 0.022661 0.000000 0.002910 0.000000
# 4 0.000000 0.000000 0.000000 -0.004577 0.000000 -0.027186
# 5 0.002443 0.001210 0.002910 0.000000 0.032316 0.000000
# 6 0.000000 0.000000 0.000000 -0.027186 0.000000 -0.080651
#
#
# Mechanical properties :
#
#
# Convention : Reuss Voigt Hill
#
# Bulk Modulus (GPa) = 24.18970 33.59387 28.89178
# Shear Modulus (GPa) = 132.34662 62.88319 97.61491
#
# Velocity S-wave (km/s) = 8.16502 5.62818 7.01227
# Velocity P-wave (km/s) = 10.05362 7.69140 8.95078
#
# Compressibility (1/GPa) = 0.04133992
#
# Stress axis : x y z
#
# Youngs Moduli (GPa) = 40.19783 86.30176 44.12777
#
# Poissons Ratio (x) = 0.54483 -0.07352
# Poissons Ratio (y) = 0.25377 0.18736
# Poissons Ratio (z) = -0.06697 0.36643
#
# Static dielectric constant tensor:
#      x y z
#    x 1.698290 0.000000 0.007370 
#    y 0.000000 1.733560 0.000000 
#    z 0.007370 0.000000 1.779280 
# 
# From -- ./inp_files/104573.got.cif
#   From: 2010.05.17/outbox.cif.g08.bks.cpg/sg12_53_cif.got.tgz:104573.got - 2010.06.03 13:09:07.
