data_PCOD9215849
_publ_section_title
;
Structure prediction by ZEFSAII (Michael W. Deem and Ramdas Pophale) SiO2 
 PCOD9215849
Probable space group: C 2/M
;
_chemical_formula_sum "Si O2"
_cell_formula_units_Z 32
_cell_length_a 10.089401
_cell_length_b 10.089282
_cell_length_c 17.125321
_cell_angle_alpha 90.000000
_cell_angle_beta 107.598182
_cell_angle_gamma 90.000000
_cell_volume 1661.684305
_symmetry_space_group_name_H-M "C 2/M"
_symmetry_group_IT_number 12
_symmetry_cell_setting 'monoclinic'
loop_
_space_group_symop_operation_xyz
x,y,z
-x,y,-z
-x,-y,-z
x,-y,z
1/2+x,1/2+y,z
1/2-x,1/2+y,-z
1/2-x,1/2-y,-z
1/2+x,1/2-y,z
loop_
_atom_site_type_symbol
_atom_site_label
_atom_site_fract_x
_atom_site_fract_y
_atom_site_fract_z
Si Si1 0.628057 0.000000 0.963133
Si Si2 0.768356 0.845697 0.265863
Si Si3 0.562863 0.500000 0.924908
Si Si4 0.664523 0.655901 0.542156
Si Si5 0.957028 0.271042 0.167148
O O1 0.615759 0.128133 0.905689
O O2 0.500000 0.000000 0.000000
O O3 0.770385 0.000000 0.036313
O O4 0.798471 0.814060 0.361378
O O5 0.859467 0.757194 0.223876
O O6 0.605884 0.827867 0.218726
O O7 0.806539 0.000000 0.259666
O O8 0.519301 0.631811 0.872028
O O9 0.500000 0.500000 0.000000
O O10 0.500000 0.673877 0.500000
O O11 0.696620 0.500000 0.533696
O O12 0.750000 0.750000 0.500000
#
# Coordination Sequence:
#
# PCOD9215849 Si02
#       5
#     4   8   4   8   8
#     4  12  24  42  64  92 128 166 210 268 322 368
#     4  11  23  43  65  95 132 165 207 264 313 373
#     4  12  24  40  62  96 122 162 220 262 308 382
#     4  10  22  42  66  96 130 166 208 256 312 374
#     4  12  23  43  66  92 129 168 213 260 320 373
#
# _framework density 19.257569
#
# number of rings (size 3 to 8) (size 9 to 14) (size 15 to 20)
#    0.000    0.750    2.500    6.000    0.000    0.500 
#    4.500    0.000    0.000    0.000    0.000    0.000 
#    0.000    0.000    0.000    0.000    0.000    0.000 
#
# Total GULP energy -89554.406937 kJ/mol
# GULP energy per Si atom -5597.150434 kJ/mol
# Density = 1.921374 g / cm^3
# Si number density = 19.257569 Si / 1000 Ang^3
#
#
#
# Elastic Constant Matrix: (Units=GPa)
#
#
# Indices 1 2 3 4 5 6 
#
# 1 79.3371 6.9317 23.4138 0.0000 -26.8647 0.0000
# 2 6.9317 101.3030 41.8273 0.0000 -27.6174 0.0000
# 3 23.4138 41.8273 104.3285 0.0000 -13.3169 0.0000
# 4 0.0000 0.0000 0.0000 44.1457 0.0000 -25.0273
# 5 -26.8647 -27.6174 -13.3169 0.0000 41.1657 0.0000
# 6 0.0000 0.0000 0.0000 -25.0273 0.0000 2.4610
#
#
#
# Elastic Compliance Matrix: (Units=1/GPa)
#
#
# Indices 1 2 3 4 5 6 
#
# 1 0.017822 0.003946 -0.003921 0.000000 0.013010 0.000000
# 2 0.003946 0.014771 -0.005439 0.000000 0.010726 0.000000
# 3 -0.003921 -0.005439 0.012364 0.000000 -0.002208 0.000000
# 4 0.000000 0.000000 0.000000 -0.004753 0.000000 -0.048341
# 5 0.013010 0.010726 -0.002208 0.000000 0.039264 0.000000
# 6 0.000000 0.000000 0.000000 -0.048341 0.000000 -0.085269
#
#
# Mechanical properties :
#
#
# Convention : Reuss Voigt Hill
#
# Bulk Modulus (GPa) = 29.29990 47.70158 38.50074
# Shear Modulus (GPa) = 304.85295 31.74085 168.29690
#
# Velocity S-wave (km/s) = 12.59550 4.06424 9.35854
# Velocity P-wave (km/s) = 15.05910 6.84457 11.69668
#
# Compressibility (1/GPa) = 0.03412981
#
# Stress axis : x y z
#
# Youngs Moduli (GPa) = 56.10992 67.70070 80.88195
#
# Poissons Ratio (x) = -0.26717 0.31716
# Poissons Ratio (y) = -0.22143 0.43988
# Poissons Ratio (z) = 0.22002 0.36819
#
# Static dielectric constant tensor:
#      x y z
#    x 1.629280 0.000000 -0.002890 
#    y 0.000000 1.653270 0.000000 
#    z -0.002890 0.000000 1.643800 
# 
# From -- ./inp_files/202146.got.cif
#   From: 2010.05.17/outbox.cif.g08.bks.cpg/sg12_102_cif.got.tgz:202146.got - 2010.06.03 13:09:07.
