data_PCOD9215031
_publ_section_title
;
Structure prediction by ZEFSAII (Michael W. Deem and Ramdas Pophale) SiO2 
 PCOD9215031
Probable space group: C 2/M
;
_chemical_formula_sum "Si O2"
_cell_formula_units_Z 20
_cell_length_a 14.423540
_cell_length_b 14.582671
_cell_length_c 5.228041
_cell_angle_alpha 90.000000
_cell_angle_beta 56.560067
_cell_angle_gamma 90.000000
_cell_volume 917.604488
_symmetry_space_group_name_H-M "C 2/M"
_symmetry_group_IT_number 12
_symmetry_cell_setting 'monoclinic'
loop_
_space_group_symop_operation_xyz
x,y,z
-x,y,-z
-x,-y,-z
x,-y,z
1/2+x,1/2+y,z
1/2-x,1/2+y,-z
1/2-x,1/2-y,-z
1/2+x,1/2-y,z
loop_
_atom_site_type_symbol
_atom_site_label
_atom_site_fract_x
_atom_site_fract_y
_atom_site_fract_z
Si Si1 0.576518 0.000000 0.638954
Si Si2 0.765901 0.396220 0.895441
Si Si3 0.924038 0.753367 0.867883
O O1 0.500000 0.000000 0.500000
O O2 0.658766 0.914234 0.471964
O O3 0.500000 0.000000 0.000000
O O4 0.748102 0.500000 0.023517
O O5 0.840477 0.332310 0.961891
O O6 0.653597 0.343283 0.005974
O O7 0.000000 0.756919 0.500000
O O8 0.000000 0.746167 0.000000
#
# Coordination Sequence:
#
# PCOD9215031 Si02
#       3
#     4   8   8
#     4  10  22  40  68  98 128 172 230 282 329 390
#     4   9  24  46  67 107 133 185 235 282 332 425
#     4  11  25  45  69 101 145 183 222 287 351 405
#
# _framework density 21.795881999999999
#
# number of rings (size 3 to 8) (size 9 to 14) (size 15 to 20)
#    1.200    0.800    0.000    1.200    0.000   18.400 
#    0.000    0.000    0.000    0.000    0.000    0.000 
#    0.000    0.000    0.000    0.000    0.000    0.000 
#
# Total GULP energy -55895.314893 kJ/mol
# GULP energy per Si atom -5589.531489 kJ/mol
# Density = 2.174627 g / cm^3
# Si number density = 21.795882 Si / 1000 Ang^3
#
#
#
# Elastic Constant Matrix: (Units=GPa)
#
#
# Indices 1 2 3 4 5 6 
#
# 1 158.3714 74.2433 51.1884 0.0000 13.5860 0.0000
# 2 74.2433 176.1964 29.0916 0.0000 -8.7840 0.0000
# 3 51.1884 29.0916 89.0264 0.0000 26.6395 0.0000
# 4 0.0000 0.0000 0.0000 34.9911 0.0000 -18.1380
# 5 13.5860 -8.7840 26.6395 0.0000 26.2211 0.0000
# 6 0.0000 0.0000 0.0000 -18.1380 0.0000 24.1109
#
#
#
# Elastic Compliance Matrix: (Units=1/GPa)
#
#
# Indices 1 2 3 4 5 6 
#
# 1 0.009262 -0.003451 -0.003471 0.000000 -0.002428 0.000000
# 2 -0.003451 0.007955 -0.002799 0.000000 0.007296 0.000000
# 3 -0.003471 -0.002799 0.019951 0.000000 -0.019408 0.000000
# 4 0.000000 0.000000 0.000000 0.046846 0.000000 0.035241
# 5 -0.002428 0.007296 -0.019408 0.000000 0.061557 0.000000
# 6 0.000000 0.000000 0.000000 0.035241 0.000000 0.067986
#
#
# Mechanical properties :
#
#
# Convention : Reuss Voigt Hill
#
# Bulk Modulus (GPa) = 56.41307 81.40454 68.90880
# Shear Modulus (GPa) = 20.92851 35.00269 27.96560
#
# Velocity S-wave (km/s) = 3.10208 4.01175 3.58588
# Velocity P-wave (km/s) = 6.22649 7.67389 6.98777
#
# Compressibility (1/GPa) = 0.01772639
#
# Stress axis : x y z
#
# Youngs Moduli (GPa) = 107.96495 125.70132 50.12358
#
# Poissons Ratio (x) = 0.43376 0.17400
# Poissons Ratio (y) = 0.37256 0.14029
# Poissons Ratio (z) = 0.37479 0.35182
#
# Static dielectric constant tensor:
#      x y z
#    x 1.784950 0.000000 -0.000920 
#    y 0.000000 1.850470 0.000000 
#    z -0.000920 0.000000 1.798590 
# 
# From -- ./inp_files/4908.got.cif
#   From: 2010.05.17/outbox.cif.g08.bks.cpg/sg12_3_cif.got.tgz:4908.got - 2010.06.03 13:09:07.
