data_PCOD9215348
_publ_section_title
;
Structure prediction by ZEFSAII (Michael W. Deem and Ramdas Pophale) SiO2 
 PCOD9215348
Probable space group: C 2/M
;
_chemical_formula_sum "Si O2"
_cell_formula_units_Z 34
_cell_length_a 17.596211
_cell_length_b 9.658727
_cell_length_c 20.282920
_cell_angle_alpha 90.000000
_cell_angle_beta 149.006126
_cell_angle_gamma 90.000000
_cell_volume 1775.135776
_symmetry_space_group_name_H-M "C 2/M"
_symmetry_group_IT_number 12
_symmetry_cell_setting 'monoclinic'
loop_
_space_group_symop_operation_xyz
x,y,z
-x,y,-z
-x,-y,-z
x,-y,z
1/2+x,1/2+y,z
1/2-x,1/2+y,-z
1/2-x,1/2-y,-z
1/2+x,1/2-y,z
loop_
_atom_site_type_symbol
_atom_site_label
_atom_site_fract_x
_atom_site_fract_y
_atom_site_fract_z
Si Si1 0.335392 0.659645 0.617155
Si Si2 0.336393 0.785947 0.376005
Si Si3 0.183445 0.166511 0.888877
Si Si4 0.674230 0.657130 0.119175
Si Si5 0.000000 0.000000 0.500000
O O1 0.327251 0.500000 0.589802
O O2 0.250000 0.750000 0.500000
O O3 0.257229 0.676336 0.629498
O O4 0.508219 0.694603 0.752115
O O5 0.500000 0.850181 0.500000
O O6 0.253472 0.828733 0.248324
O O7 0.373300 0.622678 0.403191
O O8 0.261574 0.229340 0.882586
O O9 0.203343 0.000000 0.909716
O O10 0.250000 0.250000 0.000000
O O11 0.698874 0.500000 0.111636
O O12 0.500000 0.675206 0.000000
#
# Coordination Sequence:
#
# PCOD9215348 Si02
#       5
#     8   8   8   8   2
#     4  11  25  41  64  94 129 165 207 259 311 369
#     4  10  22  41  65  89 127 165 206 255 311 365
#     4  11  25  44  64  93 129 164 209 258 312 372
#     4  11  24  43  66  93 127 164 209 260 312 372
#     4   8  24  40  64  92 136 152 208 270 308 356
#
# _framework density 19.153465000000001
#
# number of rings (size 3 to 8) (size 9 to 14) (size 15 to 20)
#    0.706    0.706    0.000    4.235    3.294    9.882 
#    4.235    0.000    0.000    0.000    0.000    0.000 
#    0.000    0.000    0.000    0.000    0.000    0.000 
#
# Total GULP energy -94687.241111 kJ/mol
# GULP energy per Si atom -5569.837712 kJ/mol
# Density = 1.910987 g / cm^3
# Si number density = 19.153465 Si / 1000 Ang^3
#
#
#
# Elastic Constant Matrix: (Units=GPa)
#
#
# Indices 1 2 3 4 5 6 
#
# 1 119.7642 44.6090 78.0832 0.0000 -3.8219 -0.0001
# 2 44.6090 139.1827 83.9294 -0.0001 10.5073 -0.0002
# 3 78.0832 83.9294 186.1032 -0.0001 -2.2472 -0.0003
# 4 0.0000 -0.0001 -0.0001 25.2408 0.0000 -37.3874
# 5 -3.8219 10.5073 -2.2472 0.0000 37.2791 -0.0001
# 6 -0.0001 -0.0002 -0.0003 -37.3874 -0.0001 -143.6648
#
#
#
# Elastic Compliance Matrix: (Units=1/GPa)
#
#
# Indices 1 2 3 4 5 6 
#
# 1 0.011669 -0.001228 -0.004327 0.000000 0.001281 0.000000
# 2 -0.001228 0.010357 -0.004196 0.000000 -0.003298 0.000000
# 3 -0.004327 -0.004196 0.009097 0.000000 0.001287 0.000000
# 4 0.000000 0.000000 0.000000 0.028596 0.000000 -0.007442
# 5 0.001281 -0.003298 0.001287 0.000000 0.027963 0.000000
# 6 0.000000 0.000000 0.000000 -0.007442 0.000000 -0.005024
#
#
# Mechanical properties :
#
#
# Convention : Reuss Voigt Hill
#
# Bulk Modulus (GPa) = 86.04041 95.36592 90.70316
# Shear Modulus (GPa) = 47.15568 -0.33374 23.41097
#
# Velocity S-wave (km/s) = 4.96723 -0.41788 3.49991
# Velocity P-wave (km/s) = 8.82706 7.04739 7.98695
#
# Compressibility (1/GPa) = 0.01162245
#
# Stress axis : x y z
#
# Youngs Moduli (GPa) = 85.69843 96.54998 109.93220
#
# Poissons Ratio (x) = 0.11852 0.47565
# Poissons Ratio (y) = 0.10520 0.46125
# Poissons Ratio (z) = 0.37080 0.40510
#
# Static dielectric constant tensor:
#      x y z
#    x 1.652710 0.000000 -0.001170 
#    y 0.000000 1.666360 0.000000 
#    z -0.001170 0.000000 1.640460 
# 
# From -- ./inp_files/314964.got.cif
#   From: 2010.05.17/outbox.cif.g08.bks.cpg/sg12_158_cif.got.tgz:314964.got - 2010.06.03 13:09:07.
