data_PCOD9215978
_publ_section_title
;
Structure prediction by ZEFSAII (Michael W. Deem and Ramdas Pophale) SiO2 
 PCOD9215978
Probable space group: C 2/M
;
_chemical_formula_sum "Si O2"
_cell_formula_units_Z 20
_cell_length_a 9.093901
_cell_length_b 15.932554
_cell_length_c 5.305563
_cell_angle_alpha 90.000000
_cell_angle_beta 88.109812
_cell_angle_gamma 90.000000
_cell_volume 768.299807
_symmetry_space_group_name_H-M "C 2/M"
_symmetry_group_IT_number 12
_symmetry_cell_setting 'monoclinic'
loop_
_space_group_symop_operation_xyz
x,y,z
-x,y,-z
-x,-y,-z
x,-y,z
1/2+x,1/2+y,z
1/2-x,1/2+y,-z
1/2-x,1/2-y,-z
1/2+x,1/2-y,z
loop_
_atom_site_type_symbol
_atom_site_label
_atom_site_fract_x
_atom_site_fract_y
_atom_site_fract_z
Si Si1 0.673383 0.159696 0.996298
Si Si2 0.397321 0.000000 0.258497
Si Si3 0.919682 0.900071 0.264327
O O1 0.695890 0.085681 0.783958
O O2 0.500000 0.174247 0.000000
O O3 0.750000 0.250000 0.000000
O O4 0.748324 0.119738 0.238456
O O5 0.500000 0.000000 0.500000
O O6 0.500000 0.000000 0.000000
O O7 0.000000 0.860705 0.500000
O O8 0.932046 0.000000 0.277924
O O9 0.000000 0.874404 0.000000
#
# Coordination Sequence:
#
# PCOD9215978 Si02
#       3
#     8   4   8
#     4  11  24  46  74 109 148 195 248 305 369 442
#     4  10  24  46  72 104 144 192 241 298 367 440
#     4  10  22  42  69 102 139 181 233 294 357 423
#
# _framework density 26.031503000000001
#
# number of rings (size 3 to 8) (size 9 to 14) (size 15 to 20)
#    0.000    1.600    2.000    1.200    0.000    8.000 
#    0.000   12.000    0.000    0.000    0.000    0.000 
#    0.000    0.000    0.000    0.000    0.000    0.000 
#
# Total GULP energy -55864.595332 kJ/mol
# GULP energy per Si atom -5586.459533 kJ/mol
# Density = 2.597225 g / cm^3
# Si number density = 26.031503 Si / 1000 Ang^3
#
#
#
# Elastic Constant Matrix: (Units=GPa)
#
#
# Indices 1 2 3 4 5 6 
#
# 1 182.5726 45.7448 92.3675 0.0000 57.3811 0.0000
# 2 45.7448 189.8613 60.8858 0.0000 18.6565 0.0000
# 3 92.3675 60.8858 233.5956 0.0000 66.9449 0.0000
# 4 0.0000 0.0000 0.0000 7.1098 0.0000 27.1556
# 5 57.3811 18.6565 66.9449 0.0000 55.8947 0.0000
# 6 0.0000 0.0000 0.0000 27.1556 0.0000 57.8558
#
#
#
# Elastic Compliance Matrix: (Units=1/GPa)
#
#
# Indices 1 2 3 4 5 6 
#
# 1 0.008506 -0.001010 -0.001057 0.000000 -0.007129 0.000000
# 2 -0.001010 0.005869 -0.001319 0.000000 0.000657 0.000000
# 3 -0.001057 -0.001319 0.007012 0.000000 -0.006873 0.000000
# 4 0.000000 0.000000 0.000000 -0.177425 0.000000 0.083278
# 5 -0.007129 0.000657 -0.006873 0.000000 0.033222 0.000000
# 6 0.000000 0.000000 0.000000 0.083278 0.000000 -0.021803
#
#
# Mechanical properties :
#
#
# Convention : Reuss Voigt Hill
#
# Bulk Modulus (GPa) = 68.42095 111.55841 89.98968
# Shear Modulus (GPa) = -37.60043 51.30745 6.85351
#
# Velocity S-wave (km/s) = -3.80468 4.44438 1.62434
# Velocity P-wave (km/s) = 2.65334 8.32376 6.17759
#
# Compressibility (1/GPa) = 0.01461541
#
# Stress axis : x y z
#
# Youngs Moduli (GPa) = 117.57016 170.39807 142.60427
#
# Poissons Ratio (x) = 0.17207 0.15074
# Poissons Ratio (y) = 0.11873 0.18805
# Poissons Ratio (z) = 0.12428 0.22470
#
# Static dielectric constant tensor:
#      x y z
#    x 2.002120 0.000000 0.476930 
#    y 0.000000 2.182980 0.000000 
#    z 0.476930 0.000000 0.393800 
# 
# From -- ./inp_files/1708.got.cif
#   From: 2010.05.17/outbox.cif.g08.bks.cpg/sg12_1_cif.got.tgz:1708.got - 2010.06.03 13:09:07.
