data_PCOD9215926
_publ_section_title
;
Structure prediction by ZEFSAII (Michael W. Deem and Ramdas Pophale) SiO2 
 PCOD9215926
Probable space group: C 2/M
;
_chemical_formula_sum "Si O2"
_cell_formula_units_Z 42
_cell_length_a 13.792817
_cell_length_b 17.243257
_cell_length_c 13.726778
_cell_angle_alpha 90.000000
_cell_angle_beta 31.059566
_cell_angle_gamma 90.000000
_cell_volume 1684.343884
_symmetry_space_group_name_H-M "C 2/M"
_symmetry_group_IT_number 12
_symmetry_cell_setting 'monoclinic'
loop_
_space_group_symop_operation_xyz
x,y,z
-x,y,-z
-x,-y,-z
x,-y,z
1/2+x,1/2+y,z
1/2-x,1/2+y,-z
1/2-x,1/2-y,-z
1/2+x,1/2-y,z
loop_
_atom_site_type_symbol
_atom_site_label
_atom_site_fract_x
_atom_site_fract_y
_atom_site_fract_z
Si Si1 0.500000 0.000000 0.500000
Si Si2 0.028029 0.664080 0.858589
Si Si3 0.390519 0.236124 0.492541
Si Si4 0.126302 0.836969 0.137438
Si Si5 0.692928 0.000000 0.709239
Si Si6 0.194679 0.910868 0.681105
Si Si7 0.390262 0.500000 0.739497
O O1 0.330602 0.933090 0.654414
O O2 0.203108 0.717073 0.680589
O O3 0.081115 0.577202 0.782132
O O4 0.841670 0.690427 0.961744
O O5 0.000000 0.667912 0.000000
O O6 0.500000 0.231581 0.500000
O O7 0.505378 0.284982 0.315639
O O8 0.327318 0.150610 0.511019
O O9 0.003915 0.865106 0.147481
O O10 0.138341 0.921374 0.178426
O O11 0.738656 0.000000 0.784100
O O12 0.900017 0.000000 0.484828
O O13 0.176935 0.000000 0.655484
#
# Coordination Sequence:
#
# PCOD9215926 Si02
#       7
#     2   8   8   8   4   8   4
#     4   8  18  42  70  90 108 178 218 256 310 368
#     4  12  23  35  60  93 132 174 203 248 319 386
#     4  12  22  41  66  94 129 165 214 260 315 381
#     4  12  23  38  63  97 127 166 205 266 313 373
#     4  11  20  32  54  89 126 176 199 228 303 392
#     4  10  22  42  68  93 120 168 222 263 317 370
#     4  11  18  34  56  85 130 162 205 242 299 374
#
# _framework density 24.935524999999998
#
# number of rings (size 3 to 8) (size 9 to 14) (size 15 to 20)
#    0.571    0.190    7.619    1.429    0.000    0.762 
#    0.000    0.000    0.000    1.714    0.000    0.000 
#    0.000    0.000    0.000    0.000    0.000    0.000 
#
# Total GULP energy -116937.268146 kJ/mol
# GULP energy per Si atom -5568.441340 kJ/mol
# Density = 2.487877 g / cm^3
# Si number density = 24.935525 Si / 1000 Ang^3
#
#
#
# Elastic Constant Matrix: (Units=GPa)
#
#
# Indices 1 2 3 4 5 6 
#
# 1 77.6144 19.4304 45.0795 -0.0101 -26.3370 -0.0009
# 2 19.4304 114.3286 62.3823 -0.0275 0.0030 -0.0045
# 3 45.0795 62.3823 183.8643 -0.0337 -37.1349 -0.0050
# 4 -0.0101 -0.0275 -0.0337 -74.8073 0.0098 -43.8997
# 5 -26.3370 0.0030 -37.1349 0.0098 49.4339 0.0028
# 6 -0.0009 -0.0045 -0.0050 -43.8997 0.0028 32.1765
#
#
#
# Elastic Compliance Matrix: (Units=1/GPa)
#
#
# Indices 1 2 3 4 5 6 
#
# 1 0.017091 -0.001781 -0.002059 0.000000 0.007559 0.000000
# 2 -0.001781 0.011374 -0.004261 -0.000002 -0.004150 -0.000001
# 3 -0.002059 -0.004261 0.008450 -0.000001 0.005251 -0.000001
# 4 0.000000 -0.000002 -0.000001 -0.007424 0.000002 -0.010129
# 5 0.007559 -0.004150 0.005251 0.000002 0.028201 0.000000
# 6 0.000000 -0.000001 -0.000001 -0.010129 0.000000 0.017260
#
#
# Mechanical properties :
#
#
# Convention : Reuss Voigt Hill
#
# Bulk Modulus (GPa) = 48.27944 69.95461 59.11703
# Shear Modulus (GPa) = 50.98999 17.95497 34.47248
#
# Velocity S-wave (km/s) = 4.52693 2.68630 3.72218
# Velocity P-wave (km/s) = 6.83578 6.14302 6.49864
#
# Compressibility (1/GPa) = 0.02071275
#
# Stress axis : x y z
#
# Youngs Moduli (GPa) = 58.50969 87.91728 118.34697
#
# Poissons Ratio (x) = 0.15660 0.24373
# Poissons Ratio (y) = 0.10422 0.50424
# Poissons Ratio (z) = 0.12050 0.37458
#
# Static dielectric constant tensor:
#      x y z
#    x 2.108820 -0.000010 -0.086620 
#    y -0.000010 1.997260 0.000000 
#    z -0.086620 0.000000 1.984760 
# 
# From -- ./inp_files/317314.got.cif
#   From: 2010.05.17/outbox.cif.g08.bks.cpg/sg12_159_cif.got.tgz:317314.got - 2010.06.03 13:09:07.
