data_PCOD9215652
_publ_section_title
;
Structure prediction by ZEFSAII (Michael W. Deem and Ramdas Pophale) SiO2 
 PCOD9215652
Probable space group: C 2/M
;
_chemical_formula_sum "Si O2"
_cell_formula_units_Z 32
_cell_length_a 6.542098
_cell_length_b 13.471950
_cell_length_c 12.822178
_cell_angle_alpha 90.000000
_cell_angle_beta 84.530873
_cell_angle_gamma 90.000000
_cell_volume 1124.935848
_symmetry_space_group_name_H-M "C 2/M"
_symmetry_group_IT_number 12
_symmetry_cell_setting 'monoclinic'
loop_
_space_group_symop_operation_xyz
x,y,z
-x,y,-z
-x,-y,-z
x,-y,z
1/2+x,1/2+y,z
1/2-x,1/2+y,-z
1/2-x,1/2-y,-z
1/2+x,1/2-y,z
loop_
_atom_site_type_symbol
_atom_site_label
_atom_site_fract_x
_atom_site_fract_y
_atom_site_fract_z
Si Si1 0.033108 0.719613 0.222632
Si Si2 0.636721 0.000000 0.724579
Si Si3 0.768426 0.000000 0.475661
Si Si4 0.500000 0.828368 0.000000
Si Si5 0.815414 0.000000 0.927472
Si Si6 0.765075 0.212166 0.381382
O O1 0.974933 0.602122 0.240347
O O2 0.023790 0.757593 0.353983
O O3 0.289658 0.726582 0.244664
O O4 0.057167 0.734573 0.097981
O O5 0.667438 0.000000 0.597145
O O6 0.833049 0.000000 0.797701
O O7 0.738782 0.095483 0.405744
O O8 0.000000 0.000000 0.500000
O O9 0.318220 0.904013 0.037911
O O10 0.000000 0.000000 0.000000
O O11 0.750000 0.250000 0.500000
#
# Coordination Sequence:
#
# PCOD9215652 Si02
#       6
#     8   4   4   4   4   8
#     4  11  24  45  68  99 141 181 234 291 356 426
#     4  10  22  41  71  97 138 183 223 293 364 426
#     4  12  25  40  65 101 136 176 233 281 361 426
#     4   9  22  44  68 103 144 192 232 295 364 423
#     4   9  19  41  73 108 143 182 241 294 357 434
#     4  12  25  42  69  99 139 181 233 294 355 425
#
# _framework density 28.446065000000001
#
# number of rings (size 3 to 8) (size 9 to 14) (size 15 to 20)
#    0.000    1.250    2.500    3.750    0.000    4.000 
#    4.500    0.000    0.000    0.750    0.000    0.000 
#    0.000    0.000    0.000    0.000    0.000    0.000 
#
# Total GULP energy -89474.245021 kJ/mol
# GULP energy per Si atom -5592.140314 kJ/mol
# Density = 2.838132 g / cm^3
# Si number density = 28.446065 Si / 1000 Ang^3
#
#
#
# Elastic Constant Matrix: (Units=GPa)
#
#
# Indices 1 2 3 4 5 6 
#
# 1 211.1956 86.2082 125.0473 0.0000 64.5472 0.0000
# 2 86.2082 209.8319 78.7285 0.0000 -6.6542 0.0000
# 3 125.0473 78.7285 370.7505 0.0000 52.2886 0.0000
# 4 0.0000 0.0000 0.0000 42.4814 0.0000 11.8534
# 5 64.5472 -6.6542 52.2886 0.0000 88.1115 0.0000
# 6 0.0000 0.0000 0.0000 11.8534 0.0000 38.2447
#
#
#
# Elastic Compliance Matrix: (Units=1/GPa)
#
#
# Indices 1 2 3 4 5 6 
#
# 1 0.008629 -0.003191 -0.001427 0.000000 -0.005716 0.000000
# 2 -0.003191 0.006465 -0.000759 0.000000 0.003276 0.000000
# 3 -0.001427 -0.000759 0.003493 0.000000 -0.001085 0.000000
# 4 0.000000 0.000000 0.000000 0.025768 0.000000 -0.007986
# 5 -0.005716 0.003276 -0.001085 0.000000 0.016428 0.000000
# 6 0.000000 0.000000 0.000000 -0.007986 0.000000 0.028623
#
#
# Mechanical properties :
#
#
# Convention : Reuss Voigt Hill
#
# Bulk Modulus (GPa) = 127.64933 152.41624 140.03279
# Shear Modulus (GPa) = 48.65232 67.22045 57.93639
#
# Velocity S-wave (km/s) = 4.14011 4.86643 4.51789
# Velocity P-wave (km/s) = 8.23563 9.23435 8.74925
#
# Compressibility (1/GPa) = 0.00783396
#
# Stress axis : x y z
#
# Youngs Moduli (GPa) = 115.88525 154.67063 286.32711
#
# Poissons Ratio (x) = 0.49359 0.40850
# Poissons Ratio (y) = 0.36982 0.21722
# Poissons Ratio (z) = 0.16533 0.11734
#
# Static dielectric constant tensor:
#      x y z
#    x 2.464340 0.000000 0.027210 
#    y 0.000000 1.755570 0.000000 
#    z 0.027210 0.000000 2.169080 
# 
# From -- ./inp_files/117822.got.cif
#   From: 2010.05.17/outbox.cif.g08.bks.cpg/sg12_59_cif.got.tgz:117822.got - 2010.06.03 13:09:07.
