data_PCOD9215392
_publ_section_title
;
Structure prediction by ZEFSAII (Michael W. Deem and Ramdas Pophale) SiO2 
 PCOD9215392
Probable space group: C 2/M
;
_chemical_formula_sum "Si O2"
_cell_formula_units_Z 48
_cell_length_a 7.493268
_cell_length_b 15.750024
_cell_length_c 26.629883
_cell_angle_alpha 90.000000
_cell_angle_beta 138.221801
_cell_angle_gamma 90.000000
_cell_volume 2093.910735
_symmetry_space_group_name_H-M "C 2/M"
_symmetry_group_IT_number 12
_symmetry_cell_setting 'monoclinic'
loop_
_space_group_symop_operation_xyz
x,y,z
-x,y,-z
-x,-y,-z
x,-y,z
1/2+x,1/2+y,z
1/2-x,1/2+y,-z
1/2-x,1/2-y,-z
1/2+x,1/2-y,z
loop_
_atom_site_type_symbol
_atom_site_label
_atom_site_fract_x
_atom_site_fract_y
_atom_site_fract_z
Si Si1 0.203525 0.097185 0.931095
Si Si2 0.183052 0.093106 0.357513
Si Si3 0.343711 0.909102 0.683996
Si Si4 0.348786 0.161400 0.162436
Si Si5 0.343000 0.356037 0.191967
Si Si6 0.562809 0.727442 0.561845
O O1 0.160379 0.097965 0.861990
O O2 0.966598 0.145743 0.910415
O O3 0.205822 0.000000 0.949841
O O4 0.500000 0.135325 0.000000
O O5 0.324533 0.176564 0.409353
O O6 0.920657 0.086842 0.337026
O O7 0.071989 0.111782 0.278198
O O8 0.318489 0.000000 0.388200
O O9 0.576386 0.893648 0.772812
O O10 0.278706 0.827570 0.637008
O O11 0.378429 0.000000 0.665264
O O12 0.397120 0.258266 0.188819
O O13 0.557610 0.139035 0.161841
O O14 0.500000 0.669957 0.500000
O O15 0.250000 0.750000 0.500000
#
# Coordination Sequence:
#
# PCOD9215392 Si02
#       6
#     8   8   8   8   8   8
#     4  11  26  45  66 101 143 176 216 279 345 400
#     4  10  22  41  66  92 125 173 221 268 330 399
#     4  10  22  41  65  93 127 169 222 274 329 390
#     4  11  22  42  71  99 130 176 230 283 327 394
#     4  11  22  42  71 100 129 176 232 277 328 402
#     4  12  24  39  63  91 129 167 211 269 328 394
#
# _framework density 22.923613
#
# number of rings (size 3 to 8) (size 9 to 14) (size 15 to 20)
#    0.000    1.167    5.000    1.000    0.000    6.000 
#    0.000    3.333    0.000    0.000    0.000    0.000 
#    0.000    0.000    0.000    0.000    0.000    0.000 
#
# Total GULP energy -133637.224918 kJ/mol
# GULP energy per Si atom -5568.217705 kJ/mol
# Density = 2.287144 g / cm^3
# Si number density = 22.923613 Si / 1000 Ang^3
#
#
#
# Elastic Constant Matrix: (Units=GPa)
#
#
# Indices 1 2 3 4 5 6 
#
# 1 63.7613 -3.7260 15.8007 -0.0008 16.7652 -0.0002
# 2 -3.7260 134.8471 4.4269 0.0008 15.9018 0.0002
# 3 15.8007 4.4269 39.5145 -0.0040 15.1267 -0.0010
# 4 -0.0008 0.0008 -0.0040 375.6833 -0.0025 89.4283
# 5 16.7652 15.9018 15.1267 -0.0025 34.4250 -0.0006
# 6 -0.0002 0.0002 -0.0010 89.4283 -0.0006 23.5754
#
#
#
# Elastic Compliance Matrix: (Units=1/GPa)
#
#
# Indices 1 2 3 4 5 6 
#
# 1 0.019043 0.001618 -0.004760 0.000000 -0.007929 0.000000
# 2 0.001618 0.007993 0.000208 0.000000 -0.004571 0.000000
# 3 -0.004760 0.000208 0.031663 0.000000 -0.011690 0.000000
# 4 0.000000 0.000000 0.000000 0.027431 0.000000 -0.104053
# 5 -0.007929 -0.004571 -0.011690 0.000000 0.040159 0.000000
# 6 0.000000 0.000000 0.000000 -0.104053 0.000000 0.437120
#
#
# Mechanical properties :
#
#
# Convention : Reuss Voigt Hill
#
# Bulk Modulus (GPa) = 18.92952 30.12511 24.52731
# Shear Modulus (GPa) = 8.51953 101.51150 55.01552
#
# Velocity S-wave (km/s) = 1.92991 6.66173 4.90424
# Velocity P-wave (km/s) = 3.63891 8.50538 6.54153
#
# Compressibility (1/GPa) = 0.05282755
#
# Stress axis : x y z
#
# Youngs Moduli (GPa) = 52.51390 125.11381 31.58295
#
# Poissons Ratio (x) = -0.20237 0.15035
# Poissons Ratio (y) = -0.08494 -0.00656
# Poissons Ratio (z) = 0.24998 -0.02597
#
# Static dielectric constant tensor:
#      x y z
#    x 2.078440 0.000000 0.046390 
#    y 0.000000 1.831960 0.000000 
#    z 0.046390 0.000000 1.924020 
# 
# From -- ./inp_files/356354.got.cif
#   From: 2010.05.17/outbox.cif.g08.bks.cpg/sg12_179_cif.got.tgz:356354.got - 2010.06.03 13:09:07.
