data_PCOD9215989
_publ_section_title
;
Structure prediction by ZEFSAII (Michael W. Deem and Ramdas Pophale) SiO2 
 PCOD9215989
Probable space group: C 2/M
;
_chemical_formula_sum "Si O2"
_cell_formula_units_Z 48
_cell_length_a 29.954384
_cell_length_b 14.671925
_cell_length_c 14.733325
_cell_angle_alpha 90.000000
_cell_angle_beta 160.692640
_cell_angle_gamma 90.000000
_cell_volume 2140.907525
_symmetry_space_group_name_H-M "C 2/M"
_symmetry_group_IT_number 12
_symmetry_cell_setting 'monoclinic'
loop_
_space_group_symop_operation_xyz
x,y,z
-x,y,-z
-x,-y,-z
x,-y,z
1/2+x,1/2+y,z
1/2-x,1/2+y,-z
1/2-x,1/2-y,-z
1/2+x,1/2-y,z
loop_
_atom_site_type_symbol
_atom_site_label
_atom_site_fract_x
_atom_site_fract_y
_atom_site_fract_z
Si Si1 0.924624 0.401707 0.140736
Si Si2 0.719234 0.901125 0.659340
Si Si3 0.392786 0.758679 0.225285
Si Si4 0.634588 0.716329 0.406695
Si Si5 0.912449 0.658434 0.910979
Si Si6 0.502400 0.394998 0.697045
O O1 0.870386 0.500000 0.063868
O O2 0.866187 0.319288 0.085060
O O3 0.086008 0.399405 0.466467
O O4 0.911556 0.388865 0.007610
O O5 0.700749 0.811999 0.564066
O O6 0.716076 0.000000 0.604933
O O7 0.854647 0.897066 0.976167
O O8 0.500000 0.803255 0.500000
O O9 0.466658 0.667015 0.330953
O O10 0.250000 0.750000 0.000000
O O11 0.755690 0.669141 0.584415
O O12 0.596916 0.656775 0.423121
O O13 0.497525 0.747814 0.094215
O O14 0.000000 0.612954 0.000000
O O15 0.462342 0.500000 0.602548
#
# Coordination Sequence:
#
# PCOD9215989 Si02
#       6
#     8   8   8   8   8   8
#     4  10  22  42  69  95 133 176 219 274 334 394
#     4   9  17  36  67  92 121 175 221 262 324 397
#     4  12  26  42  67  96 132 175 223 277 331 395
#     4  11  20  40  65  95 134 178 217 274 335 393
#     4  11  23  39  68 101 134 175 222 273 337 403
#     4  11  23  41  67  97 134 177 223 274 338 394
#
# _framework density 22.420397999999999
#
# number of rings (size 3 to 8) (size 9 to 14) (size 15 to 20)
#    0.000    1.333    5.000    1.500    2.333    2.333 
#    0.000    0.000    0.000    4.000    0.000    0.000 
#    0.000    0.000    0.000    0.000    0.000    0.000 
#
# Total GULP energy -133975.375514 kJ/mol
# GULP energy per Si atom -5582.307313 kJ/mol
# Density = 2.236937 g / cm^3
# Si number density = 22.420398 Si / 1000 Ang^3
#
#
#
# Elastic Constant Matrix: (Units=GPa)
#
#
# Indices 1 2 3 4 5 6 
#
# 1 123.6916 53.2371 25.8584 0.0000 13.6373 0.0000
# 2 53.2371 117.1309 -2.5023 0.0000 4.1836 0.0000
# 3 25.8584 -2.5023 94.3698 0.0000 28.5658 0.0000
# 4 0.0000 0.0000 0.0000 6.1383 0.0000 -2.0643
# 5 13.6373 4.1836 28.5658 0.0000 36.8202 0.0000
# 6 0.0000 0.0000 0.0000 -2.0643 0.0000 0.4119
#
#
#
# Elastic Compliance Matrix: (Units=1/GPa)
#
#
# Indices 1 2 3 4 5 6 
#
# 1 0.010950 -0.004986 -0.002714 0.000000 -0.001384 0.000000
# 2 -0.004986 0.010876 0.001921 0.000000 -0.000879 0.000000
# 3 -0.002714 0.001921 0.014576 0.000000 -0.010521 0.000000
# 4 0.000000 0.000000 0.000000 -0.237699 0.000000 -1.191262
# 5 -0.001384 -0.000879 -0.010521 0.000000 0.035934 0.000000
# 6 0.000000 0.000000 0.000000 -1.191262 0.000000 -3.542366
#
#
# Mechanical properties :
#
#
# Convention : Reuss Voigt Hill
#
# Bulk Modulus (GPa) = 40.25006 54.26430 47.25718
# Shear Modulus (GPa) = -1.35579 25.91402 12.27911
#
# Velocity S-wave (km/s) = -0.77848 3.40343 2.34279
# Velocity P-wave (km/s) = 4.14528 6.30080 5.33308
#
# Compressibility (1/GPa) = 0.02484468
#
# Stress axis : x y z
#
# Youngs Moduli (GPa) = 91.32145 91.94660 68.60598
#
# Poissons Ratio (x) = 0.45841 0.18618
# Poissons Ratio (y) = 0.45529 -0.13177
# Poissons Ratio (z) = 0.24783 -0.17660
#
# Static dielectric constant tensor:
#      x y z
#    x 1.847240 0.000000 -0.008800 
#    y 0.000000 1.863800 0.000000 
#    z -0.008800 0.000000 1.866940 
# 
# From -- ./inp_files/251502.got.cif
#   From: 2010.05.17/outbox.cif.g08.bks.cpg/sg12_126_cif.got.tgz:251502.got - 2010.06.03 13:09:07.
