data_PCOD9215611
_publ_section_title
;
Structure prediction by ZEFSAII (Michael W. Deem and Ramdas Pophale) SiO2 
 PCOD9215611
Probable space group: C 2/M
;
_chemical_formula_sum "Si O2"
_cell_formula_units_Z 48
_cell_length_a 8.607929
_cell_length_b 30.770897
_cell_length_c 18.370308
_cell_angle_alpha 90.000000
_cell_angle_beta 149.252908
_cell_angle_gamma 90.000000
_cell_volume 2487.643479
_symmetry_space_group_name_H-M "C 2/M"
_symmetry_group_IT_number 12
_symmetry_cell_setting 'monoclinic'
loop_
_space_group_symop_operation_xyz
x,y,z
-x,y,-z
-x,-y,-z
x,-y,z
1/2+x,1/2+y,z
1/2-x,1/2+y,-z
1/2-x,1/2-y,-z
1/2+x,1/2-y,z
loop_
_atom_site_type_symbol
_atom_site_label
_atom_site_fract_x
_atom_site_fract_y
_atom_site_fract_z
Si Si1 0.691984 0.768670 0.833005
Si Si2 0.705065 0.122093 0.928955
Si Si3 0.024460 0.816955 0.841661
Si Si4 0.376658 0.950763 0.868391
Si Si5 0.344587 0.620268 0.645361
Si Si6 0.161277 0.167249 0.642757
O O1 0.780292 0.789383 0.790809
O O2 0.665212 0.717801 0.841525
O O3 0.371288 0.789357 0.729205
O O4 0.000000 0.781438 0.000000
O O5 0.642161 0.074606 0.933710
O O6 0.427919 0.132769 0.763873
O O7 0.000000 0.123955 0.000000
O O8 0.742112 0.157688 0.009611
O O9 0.877140 0.854216 0.734144
O O10 0.084728 0.919233 0.742954
O O11 0.317876 0.000000 0.820438
O O12 0.500000 0.951874 0.000000
O O13 0.431702 0.654625 0.615701
O O14 0.000000 0.605112 0.500000
O O15 0.000000 0.165111 0.500000
#
# Coordination Sequence:
#
# PCOD9215611 Si02
#       6
#     8   8   8   8   8   8
#     4  12  24  37  63  89 131 163 217 267 307 362
#     4  11  22  41  69  93 129 166 209 266 312 385
#     4  12  23  40  63  96 122 171 220 256 315 365
#     4  10  22  41  69 100 127 158 205 265 322 383
#     4  11  25  41  67  92 130 171 209 263 317 382
#     4  11  23  41  61  90 128 173 214 260 314 367
#
# _framework density 19.295369000000001
#
# number of rings (size 3 to 8) (size 9 to 14) (size 15 to 20)
#    0.000    0.833    5.000    2.500    4.667    1.333 
#    0.000    3.333    0.000    8.000    0.000    0.000 
#    0.000    0.000    0.000    0.000    0.000    0.000 
#
# Total GULP energy -133729.180046 kJ/mol
# GULP energy per Si atom -5572.049169 kJ/mol
# Density = 1.925145 g / cm^3
# Si number density = 19.295369 Si / 1000 Ang^3
#
#
#
# Elastic Constant Matrix: (Units=GPa)
#
#
# Indices 1 2 3 4 5 6 
#
# 1 66.6672 44.8457 26.7672 0.0000 3.9174 0.0000
# 2 44.8457 139.9002 35.8757 0.0000 -7.8424 0.0000
# 3 26.7672 35.8757 100.8777 0.0000 -5.0504 0.0000
# 4 0.0000 0.0000 0.0000 7.6580 0.0000 -23.9783
# 5 3.9174 -7.8424 -5.0504 0.0000 28.8562 0.0000
# 6 0.0000 0.0000 0.0000 -23.9783 0.0000 -48.3013
#
#
#
# Elastic Compliance Matrix: (Units=1/GPa)
#
#
# Indices 1 2 3 4 5 6 
#
# 1 0.020812 -0.006025 -0.003635 0.000000 -0.005099 0.000000
# 2 -0.006025 0.009689 -0.001689 0.000000 0.003156 0.000000
# 3 -0.003635 -0.001689 0.011581 0.000000 0.002061 0.000000
# 4 0.000000 0.000000 0.000000 0.051121 0.000000 -0.025378
# 5 -0.005099 0.003156 0.002061 0.000000 0.036565 0.000000
# 6 0.000000 0.000000 0.000000 -0.025378 0.000000 -0.008105
#
#
# Mechanical properties :
#
#
# Convention : Reuss Voigt Hill
#
# Bulk Modulus (GPa) = 51.58774 58.04692 54.81733
# Shear Modulus (GPa) = 33.15141 10.97301 22.06221
#
# Velocity S-wave (km/s) = 4.14950 2.38730 3.38508
# Velocity P-wave (km/s) = 7.05348 6.14391 6.61435
#
# Compressibility (1/GPa) = 0.01938445
#
# Stress axis : x y z
#
# Youngs Moduli (GPa) = 48.04963 103.20584 86.34529
#
# Poissons Ratio (x) = 0.62182 0.31385
# Poissons Ratio (y) = 0.28950 0.14585
# Poissons Ratio (z) = 0.17465 0.17433
#
# Static dielectric constant tensor:
#      x y z
#    x 1.741980 0.000000 -0.001200 
#    y 0.000000 1.698180 0.000000 
#    z -0.001200 0.000000 1.674130 
# 
# From -- ./inp_files/260420.got.cif
#   From: 2010.05.17/outbox.cif.g08.bks.cpg/sg12_131_cif.got.tgz:260420.got - 2010.06.03 13:09:07.
