data_PCOD9215128
_publ_section_title
;
Structure prediction by ZEFSAII (Michael W. Deem and Ramdas Pophale) SiO2 
 PCOD9215128
Probable space group: C 2/M
;
_chemical_formula_sum "Si O2"
_cell_formula_units_Z 64
_cell_length_a 11.387152
_cell_length_b 17.088628
_cell_length_c 29.159662
_cell_angle_alpha 90.000000
_cell_angle_beta 148.233645
_cell_angle_gamma 90.000000
_cell_volume 2987.221332
_symmetry_space_group_name_H-M "C 2/M"
_symmetry_group_IT_number 12
_symmetry_cell_setting 'monoclinic'
loop_
_space_group_symop_operation_xyz
x,y,z
-x,y,-z
-x,-y,-z
x,-y,z
1/2+x,1/2+y,z
1/2-x,1/2+y,-z
1/2-x,1/2-y,-z
1/2+x,1/2-y,z
loop_
_atom_site_type_symbol
_atom_site_label
_atom_site_fract_x
_atom_site_fract_y
_atom_site_fract_z
Si Si1 0.740475 0.320659 0.419700
Si Si2 0.628803 0.839272 0.290496
Si Si3 0.656559 0.093525 0.875215
Si Si4 0.974352 0.350931 0.646700
Si Si5 0.743448 0.594453 0.909705
Si Si6 0.097789 0.090089 0.460117
Si Si7 0.399610 0.654513 0.725674
Si Si8 0.572028 0.404514 0.950084
O O1 0.598753 0.240929 0.380769
O O2 0.723936 0.377640 0.457299
O O3 0.649120 0.362998 0.343671
O O4 0.000000 0.298629 0.500000
O O5 0.570690 0.879737 0.223411
O O6 0.485999 0.868580 0.286675
O O7 0.589708 0.748321 0.270394
O O8 0.878955 0.856680 0.389305
O O9 0.851391 0.120473 0.904577
O O10 0.662018 0.000000 0.877569
O O11 0.723430 0.119305 0.948408
O O12 0.764262 0.398290 0.557541
O O13 0.187932 0.368375 0.686650
O O14 0.743106 0.500000 0.909726
O O15 0.619404 0.621514 0.822659
O O16 0.610311 0.622285 0.910993
O O17 0.000000 0.620246 0.000000
O O18 0.032225 0.000000 0.434034
O O19 0.566731 0.500000 0.947227
#
# Coordination Sequence:
#
# PCOD9215128 Si02
#       8
#     8   8   8   8   8   8   8   8
#     4  11  22  42  67  88 126 174 210 252 312 373
#     4  11  23  38  60  91 128 160 207 259 311 370
#     4   9  17  33  58  85 116 153 196 250 312 367
#     4  11  22  42  65  86 124 170 210 256 310 374
#     4  10  22  41  62  87 122 161 206 259 312 368
#     4  12  25  40  63  95 128 164 209 259 312 368
#     4  11  23  41  66  90 121 168 215 251 315 377
#     4   8  16  34  59  83 110 154 198 242 310 369
#
# _framework density 21.424592000000001
#
# number of rings (size 3 to 8) (size 9 to 14) (size 15 to 20)
#    0.000    1.625    2.500    4.125    0.000    3.750 
#    2.250    1.875    0.000    0.000    0.000    0.000 
#    0.000    0.000    0.000    0.000    0.000    0.000 
#
# Total GULP energy -178755.313050 kJ/mol
# GULP energy per Si atom -5586.103533 kJ/mol
# Density = 2.137583 g / cm^3
# Si number density = 21.424592 Si / 1000 Ang^3
#
#
#
# Elastic Constant Matrix: (Units=GPa)
#
#
# Indices 1 2 3 4 5 6 
#
# 1 33.7034 2.1414 2.6148 0.0003 -3.4377 0.0000
# 2 2.1414 20.0891 4.6838 0.0000 -7.9098 0.0001
# 3 2.6148 4.6838 110.9152 0.0002 -13.8805 0.0001
# 4 0.0003 0.0000 0.0002 49.2590 0.0001 -4.9487
# 5 -3.4377 -7.9098 -13.8805 0.0001 32.0596 0.0000
# 6 0.0000 0.0001 0.0001 -4.9487 0.0000 10.8780
#
#
#
# Elastic Compliance Matrix: (Units=1/GPa)
#
#
# Indices 1 2 3 4 5 6 
#
# 1 0.030091 -0.002125 -0.000298 0.000000 0.002574 0.000000
# 2 -0.002125 0.055330 -0.000641 0.000000 0.013146 0.000000
# 3 -0.000298 -0.000641 0.009543 0.000000 0.003942 0.000000
# 4 0.000000 0.000000 0.000000 0.021273 0.000000 0.009678
# 5 0.002574 0.013146 0.003942 0.000000 0.036418 0.000000
# 6 0.000000 0.000000 0.000000 0.009678 0.000000 0.096332
#
#
# Mechanical properties :
#
#
# Convention : Reuss Voigt Hill
#
# Bulk Modulus (GPa) = 11.25656 20.39861 15.82759
# Shear Modulus (GPa) = 17.56069 28.79051 23.17560
#
# Velocity S-wave (km/s) = 2.86606 3.66977 3.29253
# Velocity P-wave (km/s) = 4.02714 5.24386 4.67525
#
# Compressibility (1/GPa) = 0.08883706
#
# Stress axis : x y z
#
# Youngs Moduli (GPa) = 33.23230 18.07335 104.78581
#
# Poissons Ratio (x) = 0.03840 0.03118
# Poissons Ratio (y) = 0.07061 0.06720
# Poissons Ratio (z) = 0.00989 0.01159
#
# Static dielectric constant tensor:
#      x y z
#    x 1.808850 0.000000 0.010090 
#    y 0.000000 1.746480 0.000000 
#    z 0.010090 0.000000 1.796060 
# 
# From -- ./inp_files/374501.got.cif
#   From: 2010.05.17/outbox.cif.g08.bks.cpg/sg12_188_cif.got.tgz:374501.got - 2010.06.03 13:09:07.
