data_PCOD9215580
_publ_section_title
;
Structure prediction by ZEFSAII (Michael W. Deem and Ramdas Pophale) SiO2 
 PCOD9215580
Probable space group: C 2/M
;
_chemical_formula_sum "Si O2"
_cell_formula_units_Z 26
_cell_length_a 9.683398
_cell_length_b 14.715075
_cell_length_c 16.997517
_cell_angle_alpha 90.000000
_cell_angle_beta 30.058485
_cell_angle_gamma 90.000000
_cell_volume 1213.144909
_symmetry_space_group_name_H-M "C 2/M"
_symmetry_group_IT_number 12
_symmetry_cell_setting 'monoclinic'
loop_
_space_group_symop_operation_xyz
x,y,z
-x,y,-z
-x,-y,-z
x,-y,z
1/2+x,1/2+y,z
1/2-x,1/2+y,-z
1/2-x,1/2-y,-z
1/2+x,1/2-y,z
loop_
_atom_site_type_symbol
_atom_site_label
_atom_site_fract_x
_atom_site_fract_y
_atom_site_fract_z
Si Si1 0.170656 0.695444 0.168793
Si Si2 0.500000 0.000000 0.000000
Si Si3 0.896312 0.000000 0.232086
Si Si4 0.356623 0.000000 0.888549
Si Si5 0.306503 0.199052 0.665252
O O1 0.094070 0.592722 0.182576
O O2 0.094244 0.719504 0.295994
O O3 0.999298 0.760840 0.196505
O O4 0.500000 0.707614 0.000000
O O5 0.838959 0.000000 0.841160
O O6 0.514659 0.000000 0.894540
O O7 0.725177 0.090946 0.325177
O O8 0.037777 0.000000 0.075644
O O9 0.500000 0.233961 0.500000
#
# Coordination Sequence:
#
# PCOD9215580 Si02
#       5
#     8   2   4   4   8
#     4  12  24  44  70  98 130 173 227 265 321 389
#     4   8  20  38  66 108 116 158 234 276 304 370
#     4  10  22  41  68  91 135 163 222 260 334 375
#     4  10  22  41  70  99 128 166 229 270 323 370
#     4  12  27  43  66  99 138 173 211 271 336 389
#
# _framework density 21.431899000000001
#
# number of rings (size 3 to 8) (size 9 to 14) (size 15 to 20)
#    0.923    0.000    3.077    3.692    6.462    0.000 
#    0.000    0.769    0.000    0.000    0.000    0.000 
#    0.000    0.000    0.000    0.000    0.000    0.000 
#
# Total GULP energy -72379.614264 kJ/mol
# GULP energy per Si atom -5567.662636 kJ/mol
# Density = 2.138312 g / cm^3
# Si number density = 21.431899 Si / 1000 Ang^3
#
#
#
# Elastic Constant Matrix: (Units=GPa)
#
#
# Indices 1 2 3 4 5 6 
#
# 1 134.3871 12.0892 14.2116 0.0244 29.4878 -0.0256
# 2 12.0892 74.7326 -6.7581 -0.0021 4.9727 -0.0044
# 3 14.2116 -6.7581 63.6679 0.0251 30.5193 -0.0251
# 4 0.0244 -0.0021 0.0251 -9.9082 -0.0286 22.9946
# 5 29.4878 4.9727 30.5193 -0.0286 37.2710 0.0303
# 6 -0.0256 -0.0044 -0.0251 22.9946 0.0303 -4.4562
#
#
#
# Elastic Compliance Matrix: (Units=1/GPa)
#
#
# Indices 1 2 3 4 5 6 
#
# 1 0.009251 -0.000700 0.002180 0.000022 -0.009011 -0.000014
# 2 -0.000700 0.014130 0.003777 0.000011 -0.004424 -0.000003
# 3 0.002180 0.003777 0.027472 0.000058 -0.024724 -0.000038
# 4 0.000022 0.000011 0.000058 0.009196 -0.000098 0.047451
# 5 -0.009011 -0.004424 -0.024724 -0.000098 0.054795 0.000062
# 6 -0.000014 -0.000003 -0.000038 0.047451 0.000062 0.020446
#
#
# Mechanical properties :
#
#
# Convention : Reuss Voigt Hill
#
# Bulk Modulus (GPa) = 16.29524 34.65258 25.47391
# Shear Modulus (GPa) = 34.42767 21.46433 27.94600
#
# Velocity S-wave (km/s) = 4.01231 3.16810 3.61493
# Velocity P-wave (km/s) = 5.39301 5.43933 5.41622
#
# Compressibility (1/GPa) = 0.06136763
#
# Stress axis : x y z
#
# Youngs Moduli (GPa) = 108.09933 70.77060 36.40024
#
# Poissons Ratio (x) = 0.04952 -0.07936
# Poissons Ratio (y) = 0.07564 -0.13748
# Poissons Ratio (z) = -0.23567 -0.26729
#
# Static dielectric constant tensor:
#      x y z
#    x 1.755960 0.000010 0.027040 
#    y 0.000010 1.782430 -0.000010 
#    z 0.027040 -0.000010 1.799360 
# 
# From -- ./inp_files/194387.got.cif
#   From: 2010.05.17/outbox.cif.g08.bks.cpg/sg12_98_cif.got.tgz:194387.got - 2010.06.03 13:09:07.
