data_PCOD9215716
_publ_section_title
;
Structure prediction by ZEFSAII (Michael W. Deem and Ramdas Pophale) SiO2 
 PCOD9215716
Probable space group: C 2/M
;
_chemical_formula_sum "Si O2"
_cell_formula_units_Z 44
_cell_length_a 5.080868
_cell_length_b 13.428493
_cell_length_c 28.829637
_cell_angle_alpha 90.000000
_cell_angle_beta 106.384219
_cell_angle_gamma 90.000000
_cell_volume 1887.123496
_symmetry_space_group_name_H-M "C 2/M"
_symmetry_group_IT_number 12
_symmetry_cell_setting 'monoclinic'
loop_
_space_group_symop_operation_xyz
x,y,z
-x,y,-z
-x,-y,-z
x,-y,z
1/2+x,1/2+y,z
1/2-x,1/2+y,-z
1/2-x,1/2-y,-z
1/2+x,1/2-y,z
loop_
_atom_site_type_symbol
_atom_site_label
_atom_site_fract_x
_atom_site_fract_y
_atom_site_fract_z
Si Si1 0.965992 0.000000 0.117362
Si Si2 0.653376 0.500000 0.583193
Si Si3 0.212634 0.709301 0.445947
Si Si4 0.690544 0.317487 0.822918
Si Si5 0.484553 0.313934 0.290617
Si Si6 0.383059 0.681596 0.943599
Si Si7 0.745240 0.500000 0.355225
O O1 0.840941 0.088073 0.145778
O O2 0.090049 0.088375 0.088959
O O3 0.683985 0.598699 0.554600
O O4 0.375518 0.500000 0.598485
O O5 0.925293 0.500000 0.628850
O O6 0.250000 0.750000 0.500000
O O7 0.392713 0.777498 0.421315
O O8 0.992584 0.271833 0.830807
O O9 0.579424 0.343173 0.765836
O O10 0.202133 0.276411 0.299043
O O11 0.620494 0.404470 0.323914
O O12 0.082667 0.728367 0.936738
O O13 0.500000 0.651365 0.000000
#
# Coordination Sequence:
#
# PCOD9215716 Si02
#       7
#     4   4   8   8   8   8   4
#     4  12  22  38  64  89 120 159 202 254 311 358
#     4  12  26  40  63  98 126 153 206 256 290 350
#     4  10  23  42  65  89 121 162 199 241 299 352
#     4  10  23  40  60  90 122 157 203 248 297 364
#     4  10  22  42  64  87 124 166 199 243 303 360
#     4  10  23  41  59  85 120 158 204 254 308 369
#     4  12  25  40  63  95 124 158 203 252 298 350
#
# _framework density 23.315909000000001
#
# number of rings (size 3 to 8) (size 9 to 14) (size 15 to 20)
#    0.000    1.455    0.000    4.091    0.000   10.182 
#    0.000    8.182    0.000    0.000    0.000    0.000 
#    0.000    0.000    0.000    0.000    0.000    0.000 
#
# Total GULP energy -122648.608600 kJ/mol
# GULP energy per Si atom -5574.936755 kJ/mol
# Density = 2.326284 g / cm^3
# Si number density = 23.315909 Si / 1000 Ang^3
#
#
#
# Elastic Constant Matrix: (Units=GPa)
#
#
# Indices 1 2 3 4 5 6 
#
# 1 98.1969 -0.5248 -8.8422 0.0000 -16.7292 0.0000
# 2 -0.5248 138.9759 34.4929 0.0000 -20.1709 0.0000
# 3 -8.8422 34.4929 71.3037 0.0000 -11.2065 0.0000
# 4 0.0000 0.0000 0.0000 59.3759 0.0000 -19.7990
# 5 -16.7292 -20.1709 -11.2065 0.0000 28.2198 0.0000
# 6 0.0000 0.0000 0.0000 -19.7990 0.0000 23.3997
#
#
#
# Elastic Compliance Matrix: (Units=1/GPa)
#
#
# Indices 1 2 3 4 5 6 
#
# 1 0.011857 0.000660 0.002485 0.000000 0.008487 0.000000
# 2 0.000660 0.008803 -0.003334 0.000000 0.005360 0.000000
# 3 0.002485 -0.003334 0.016855 0.000000 0.005783 0.000000
# 4 0.000000 0.000000 0.000000 0.023461 0.000000 0.019851
# 5 0.008487 0.005360 0.005783 0.000000 0.046595 0.000000
# 6 0.000000 0.000000 0.000000 0.019851 0.000000 0.059532
#
#
# Mechanical properties :
#
#
# Convention : Reuss Voigt Hill
#
# Bulk Modulus (GPa) = 26.92815 39.85871 33.39343
# Shear Modulus (GPa) = 27.79923 41.08910 34.44416
#
# Velocity S-wave (km/s) = 3.45670 4.20250 3.84771
# Velocity P-wave (km/s) = 5.24462 6.37810 5.83893
#
# Compressibility (1/GPa) = 0.03713585
#
# Stress axis : x y z
#
# Youngs Moduli (GPa) = 84.33923 113.59169 59.33091
#
# Poissons Ratio (x) = -0.07496 -0.14744
# Poissons Ratio (y) = -0.05565 0.19784
# Poissons Ratio (z) = -0.20959 0.37877
#
# Static dielectric constant tensor:
#      x y z
#    x 2.078430 0.000000 0.222190 
#    y 0.000000 1.819600 0.000000 
#    z 0.222190 0.000000 2.126690 
# 
# From -- ./inp_files/371383.got.cif
#   From: 2010.05.17/outbox.cif.g08.bks.cpg/sg12_186_cif.got.tgz:371383.got - 2010.06.03 13:09:07.
