data_PCOD9215682
_publ_section_title
;
Structure prediction by ZEFSAII (Michael W. Deem and Ramdas Pophale) SiO2 
 PCOD9215682
Probable space group: C 2/M
;
_chemical_formula_sum "Si O2"
_cell_formula_units_Z 44
_cell_length_a 7.895859
_cell_length_b 31.570614
_cell_length_c 9.273806
_cell_angle_alpha 90.000000
_cell_angle_beta 114.510046
_cell_angle_gamma 90.000000
_cell_volume 2103.432682
_symmetry_space_group_name_H-M "C 2/M"
_symmetry_group_IT_number 12
_symmetry_cell_setting 'monoclinic'
loop_
_space_group_symop_operation_xyz
x,y,z
-x,y,-z
-x,-y,-z
x,-y,z
1/2+x,1/2+y,z
1/2-x,1/2+y,-z
1/2-x,1/2-y,-z
1/2+x,1/2-y,z
loop_
_atom_site_type_symbol
_atom_site_label
_atom_site_fract_x
_atom_site_fract_y
_atom_site_fract_z
Si Si1 0.973674 0.305823 0.321443
Si Si2 0.500000 0.600509 0.500000
Si Si3 0.690831 0.766917 0.159808
Si Si4 0.719875 0.950659 0.609320
Si Si5 0.898106 0.148085 0.179480
Si Si6 0.766556 0.381563 0.156308
O O1 0.799983 0.276596 0.212594
O O2 0.946611 0.353314 0.253211
O O3 0.000000 0.306992 0.500000
O O4 0.142623 0.282978 0.302301
O O5 0.652610 0.572589 0.466273
O O6 0.408044 0.629678 0.343669
O O7 0.821655 0.804331 0.145288
O O8 0.500000 0.765208 0.000000
O O9 0.500000 0.947144 0.500000
O O10 0.741517 0.926654 0.769638
O O11 0.770644 0.000000 0.633906
O O12 0.102168 0.143750 0.182055
O O13 0.773217 0.119871 0.027033
#
# Coordination Sequence:
#
# PCOD9215682 Si02
#       6
#     8   4   8   8   8   8
#     4  12  26  39  61  89 125 169 214 265 315 380
#     4  10  23  40  68  96 134 162 216 268 317 392
#     4  12  25  41  60  90 125 171 216 264 318 376
#     4  10  22  42  69  97 129 167 210 265 327 388
#     4  10  23  39  62  91 122 170 205 264 313 380
#     4  10  22  42  62  89 126 165 213 258 321 381
#
# _framework density 20.918187
#
# number of rings (size 3 to 8) (size 9 to 14) (size 15 to 20)
#    0.000    1.273    1.818    3.000   11.455    0.000 
#    0.000    8.182    0.000    2.182    0.000    0.000 
#    0.000    0.000    0.000    0.000    0.000    0.000 
#
# Total GULP energy -122965.831035 kJ/mol
# GULP energy per Si atom -5589.355956 kJ/mol
# Density = 2.087058 g / cm^3
# Si number density = 20.918187 Si / 1000 Ang^3
#
#
#
# Elastic Constant Matrix: (Units=GPa)
#
#
# Indices 1 2 3 4 5 6 
#
# 1 48.6247 23.7570 16.3145 0.0000 3.0772 0.0000
# 2 23.7570 120.2262 62.6218 0.0000 10.7336 0.0000
# 3 16.3145 62.6218 166.5927 0.0000 -18.2016 0.0000
# 4 0.0000 0.0000 0.0000 21.7148 0.0000 -4.4861
# 5 3.0772 10.7336 -18.2016 0.0000 26.6677 0.0000
# 6 0.0000 0.0000 0.0000 -4.4861 0.0000 30.9653
#
#
#
# Elastic Compliance Matrix: (Units=1/GPa)
#
#
# Indices 1 2 3 4 5 6 
#
# 1 0.022890 -0.003852 -0.000987 0.000000 -0.001764 0.000000
# 2 -0.003852 0.012529 -0.005224 0.000000 -0.008164 0.000000
# 3 -0.000987 -0.005224 0.008975 0.000000 0.008342 0.000000
# 4 0.000000 0.000000 0.000000 0.047472 0.000000 0.006877
# 5 -0.001764 -0.008164 0.008342 0.000000 0.046682 0.000000
# 6 0.000000 0.000000 0.000000 0.006877 0.000000 0.033291
#
#
# Mechanical properties :
#
#
# Convention : Reuss Voigt Hill
#
# Bulk Modulus (GPa) = 41.20610 60.09224 50.64917
# Shear Modulus (GPa) = 24.99335 31.38625 28.18980
#
# Velocity S-wave (km/s) = 3.46036 3.87774 3.67498
# Velocity P-wave (km/s) = 5.97553 6.98847 6.50176
#
# Compressibility (1/GPa) = 0.02426825
#
# Stress axis : x y z
#
# Youngs Moduli (GPa) = 43.68671 79.81581 111.42641
#
# Poissons Ratio (x) = 0.30743 0.10993
# Poissons Ratio (y) = 0.16827 0.58213
# Poissons Ratio (z) = 0.04310 0.41699
#
# Static dielectric constant tensor:
#      x y z
#    x 1.818900 0.000000 0.007400 
#    y 0.000000 1.719660 0.000000 
#    z 0.007400 0.000000 1.749850 
# 
# From -- ./inp_files/41823.got.cif
#   From: 2010.05.17/outbox.cif.g08.bks.cpg/sg12_21_cif.got.tgz:41823.got - 2010.06.03 13:09:07.
