data_PCOD9215064
_publ_section_title
;
Structure prediction by ZEFSAII (Michael W. Deem and Ramdas Pophale) SiO2 
 PCOD9215064
Probable space group: C 2/M
;
_chemical_formula_sum "Si O2"
_cell_formula_units_Z 56
_cell_length_a 14.549253
_cell_length_b 10.613728
_cell_length_c 18.173825
_cell_angle_alpha 90.000000
_cell_angle_beta 102.695763
_cell_angle_gamma 90.000000
_cell_volume 2737.819928
_symmetry_space_group_name_H-M "C 2/M"
_symmetry_group_IT_number 12
_symmetry_cell_setting 'monoclinic'
loop_
_space_group_symop_operation_xyz
x,y,z
-x,y,-z
-x,-y,-z
x,-y,z
1/2+x,1/2+y,z
1/2-x,1/2+y,-z
1/2-x,1/2-y,-z
1/2+x,1/2-y,z
loop_
_atom_site_type_symbol
_atom_site_label
_atom_site_fract_x
_atom_site_fract_y
_atom_site_fract_z
Si Si1 0.204279 0.135763 0.034378
Si Si2 0.609684 0.153463 0.506797
Si Si3 0.713759 0.723613 0.826797
Si Si4 0.909033 0.643200 0.819365
Si Si5 0.589065 0.145898 0.345999
Si Si6 0.957351 0.142310 0.097017
Si Si7 0.637462 0.146252 0.670701
O O1 0.241162 0.156150 0.122774
O O2 0.237332 0.000000 0.013330
O O3 0.250000 0.250000 0.000000
O O4 0.095534 0.144289 0.991518
O O5 0.500000 0.186772 0.500000
O O6 0.634265 0.200171 0.429070
O O7 0.659920 0.190793 0.591472
O O8 0.613830 0.000000 0.505572
O O9 0.805329 0.637464 0.835192
O O10 0.628492 0.664876 0.858999
O O11 0.678094 0.767106 0.741378
O O12 0.949426 0.500000 0.823650
O O13 0.897606 0.696097 0.733893
O O14 0.973150 0.742067 0.874717
O O15 0.476253 0.146351 0.339835
O O16 0.620340 0.000000 0.346850
O O17 0.995846 0.000000 0.114664
O O18 0.667329 0.000000 0.684154
#
# Coordination Sequence:
#
# PCOD9215064 Si02
#       7
#     8   8   8   8   8   8   8
#     4   9  20  37  59  84 114 151 189 232 282 336
#     4   7  11  21  42  74 108 140 180 227 271 318
#     4  11  21  35  56  85 116 146 182 231 286 338
#     4  11  23  38  59  86 113 148 193 234 277 333
#     4   8  14  28  49  76 109 144 186 231 270 320
#     4  10  22  41  59  79 111 150 187 230 286 335
#     4   9  15  26  50  81 110 144 186 229 274 329
#
# _framework density 20.454231
#
# number of rings (size 3 to 8) (size 9 to 14) (size 15 to 20)
#    0.000    2.714    1.429    2.571    0.000    4.571 
#    0.000    2.857    0.000    0.000    0.000    3.000 
#    0.000    0.000    0.000    0.000    0.000    0.000 
#
# Total GULP energy -155870.389491 kJ/mol
# GULP energy per Si atom -5566.799625 kJ/mol
# Density = 2.040768 g / cm^3
# Si number density = 20.454231 Si / 1000 Ang^3
#
#
#
# Elastic Constant Matrix: (Units=GPa)
#
#
# Indices 1 2 3 4 5 6 
#
# 1 57.7422 19.3554 -2.6951 0.0000 -3.7486 0.0000
# 2 19.3554 87.5469 39.0332 0.0000 1.8683 0.0000
# 3 -2.6951 39.0332 124.0729 0.0000 7.7539 0.0000
# 4 0.0000 0.0000 0.0000 16.8576 0.0000 -3.7071
# 5 -3.7486 1.8683 7.7539 0.0000 13.1606 0.0000
# 6 0.0000 0.0000 0.0000 -3.7071 0.0000 12.3516
#
#
#
# Elastic Compliance Matrix: (Units=1/GPa)
#
#
# Indices 1 2 3 4 5 6 
#
# 1 0.019480 -0.005189 0.001726 0.000000 0.005268 0.000000
# 2 -0.005189 0.014673 -0.004678 0.000000 -0.000804 0.000000
# 3 0.001726 -0.004678 0.009860 0.000000 -0.004653 0.000000
# 4 0.000000 0.000000 0.000000 0.063512 0.000000 0.019062
# 5 0.005268 -0.000804 -0.004653 0.000000 0.080341 0.000000
# 6 0.000000 0.000000 0.000000 0.019062 0.000000 0.086682
#
#
# Mechanical properties :
#
#
# Convention : Reuss Voigt Hill
#
# Bulk Modulus (GPa) = 36.06093 42.30543 39.18318
# Shear Modulus (GPa) = 16.66257 22.71853 19.69055
#
# Velocity S-wave (km/s) = 2.85726 3.33633 3.10605
# Velocity P-wave (km/s) = 5.34356 5.96401 5.66229
#
# Compressibility (1/GPa) = 0.02773085
#
# Stress axis : x y z
#
# Youngs Moduli (GPa) = 51.33391 68.15367 101.42066
#
# Poissons Ratio (x) = 0.35365 -0.17509
# Poissons Ratio (y) = 0.26637 0.47449
# Poissons Ratio (z) = -0.08862 0.31885
#
# Static dielectric constant tensor:
#      x y z
#    x 1.769640 0.000000 -0.030710 
#    y 0.000000 1.703520 0.000000 
#    z -0.030710 0.000000 1.812470 
# 
# From -- ./inp_files/268628.got.cif
#   From: 2010.05.17/outbox.cif.g08.bks.cpg/sg12_135_cif.got.tgz:268628.got - 2010.06.03 13:09:07.
