data_PCOD9215123
_publ_section_title
;
Structure prediction by ZEFSAII (Michael W. Deem and Ramdas Pophale) SiO2 
 PCOD9215123
Probable space group: C 2/M
;
_chemical_formula_sum "Si O2"
_cell_formula_units_Z 56
_cell_length_a 9.209478
_cell_length_b 17.390521
_cell_length_c 31.008204
_cell_angle_alpha 90.000000
_cell_angle_beta 145.367959
_cell_angle_gamma 90.000000
_cell_volume 2822.311279
_symmetry_space_group_name_H-M "C 2/M"
_symmetry_group_IT_number 12
_symmetry_cell_setting 'monoclinic'
loop_
_space_group_symop_operation_xyz
x,y,z
-x,y,-z
-x,-y,-z
x,-y,z
1/2+x,1/2+y,z
1/2-x,1/2+y,-z
1/2-x,1/2-y,-z
1/2+x,1/2-y,z
loop_
_atom_site_type_symbol
_atom_site_label
_atom_site_fract_x
_atom_site_fract_y
_atom_site_fract_z
Si Si1 0.141324 0.325007 0.579858
Si Si2 0.677385 0.413421 0.506942
Si Si3 0.537684 0.224003 0.283181
Si Si4 0.618062 0.586877 0.655318
Si Si5 0.851732 0.090052 0.918194
Si Si6 0.009362 0.732038 0.183559
Si Si7 0.267578 0.685647 0.043162
O O1 0.222939 0.257511 0.632082
O O2 0.396140 0.373979 0.630225
O O3 0.000000 0.305219 0.500000
O O4 0.937101 0.372901 0.557404
O O5 0.500000 0.376190 0.500000
O O6 0.739692 0.500000 0.537195
O O7 0.512110 0.417996 0.423328
O O8 0.633690 0.140295 0.290993
O O9 0.306303 0.244631 0.257872
O O10 0.431150 0.258952 0.212214
O O11 0.675878 0.500000 0.684138
O O12 0.607317 0.146753 0.853642
O O13 0.058803 0.117987 0.933569
O O14 0.787827 0.000000 0.898865
O O15 0.000000 0.102258 0.000000
O O16 0.904323 0.778205 0.117688
O O17 0.250000 0.750000 0.000000
O O18 0.000000 0.662344 0.000000
#
# Coordination Sequence:
#
# PCOD9215123 Si02
#       7
#     8   8   8   8   8   8   8
#     4  10  22  41  63  88 121 169 223 270 315 385
#     4   9  19  35  60  89 120 157 208 273 329 375
#     4  12  25  40  62  96 124 171 216 268 320 383
#     4  10  22  41  62  86 120 165 210 262 326 387
#     4  11  24  43  70 103 134 171 218 265 313 378
#     4  12  23  42  64  96 132 170 210 258 322 388
#     4  12  20  40  73  99 129 175 213 255 314 386
#
# _framework density 19.841894
#
# number of rings (size 3 to 8) (size 9 to 14) (size 15 to 20)
#    0.000    1.143    5.714    0.429    2.000    5.429 
#    0.000    0.000    0.000    2.571    0.000    0.000 
#    0.000    0.000    0.000    0.000    0.000    0.000 
#
# Total GULP energy -155943.072524 kJ/mol
# GULP energy per Si atom -5569.395447 kJ/mol
# Density = 1.979673 g / cm^3
# Si number density = 19.841894 Si / 1000 Ang^3
#
#
#
# Elastic Constant Matrix: (Units=GPa)
#
#
# Indices 1 2 3 4 5 6 
#
# 1 103.4369 52.9617 2.0862 0.0001 16.3577 0.0000
# 2 52.9617 100.2687 45.0054 -0.0002 8.3898 0.0001
# 3 2.0862 45.0054 61.6234 -0.0004 8.1474 -0.0001
# 4 0.0001 -0.0002 -0.0004 -4.5797 -0.0004 13.5823
# 5 16.3577 8.3898 8.1474 -0.0004 41.3537 0.0002
# 6 0.0000 0.0001 -0.0001 13.5823 0.0002 10.1159
#
#
#
# Elastic Compliance Matrix: (Units=1/GPa)
#
#
# Indices 1 2 3 4 5 6 
#
# 1 0.016927 -0.012701 0.009495 0.000000 -0.005989 0.000000
# 2 -0.012701 0.024400 -0.017865 0.000000 0.003594 0.000000
# 3 0.009495 -0.017865 0.029746 0.000000 -0.005992 0.000000
# 4 0.000000 0.000000 0.000000 -0.043828 -0.000001 0.058847
# 5 -0.005989 0.003594 -0.005992 -0.000001 0.027002 0.000001
# 6 0.000000 0.000000 0.000000 0.058847 0.000001 0.019842
#
#
# Mechanical properties :
#
#
# Convention : Reuss Voigt Hill
#
# Bulk Modulus (GPa) = 34.56681 51.71505 43.14093
# Shear Modulus (GPa) = 39.72206 20.39637 30.05921
#
# Velocity S-wave (km/s) = 4.47915 3.20964 3.89644
# Velocity P-wave (km/s) = 6.64901 6.31315 6.48325
#
# Compressibility (1/GPa) = 0.02892948
#
# Stress axis : x y z
#
# Youngs Moduli (GPa) = 59.07840 40.98358 33.61820
#
# Poissons Ratio (x) = 0.52054 -0.31920
# Poissons Ratio (y) = 0.75037 0.60059
# Poissons Ratio (z) = -0.56094 0.73218
#
# Static dielectric constant tensor:
#      x y z
#    x 1.746370 0.000000 0.090340 
#    y 0.000000 1.740330 0.000000 
#    z 0.090340 0.000000 1.805840 
# 
# From -- ./inp_files/333305.got.cif
#   From: 2010.05.17/outbox.cif.g08.bks.cpg/sg12_167_cif.got.tgz:333305.got - 2010.06.03 13:09:07.
