data_PCOD9215102
_publ_section_title
;
Structure prediction by ZEFSAII (Michael W. Deem and Ramdas Pophale) SiO2 
 PCOD9215102
Probable space group: C 2/M
;
_chemical_formula_sum "Si O2"
_cell_formula_units_Z 52
_cell_length_a 11.257993
_cell_length_b 19.797028
_cell_length_c 13.092082
_cell_angle_alpha 90.000000
_cell_angle_beta 60.245876
_cell_angle_gamma 90.000000
_cell_volume 2533.208923
_symmetry_space_group_name_H-M "C 2/M"
_symmetry_group_IT_number 12
_symmetry_cell_setting 'monoclinic'
loop_
_space_group_symop_operation_xyz
x,y,z
-x,y,-z
-x,-y,-z
x,-y,z
1/2+x,1/2+y,z
1/2-x,1/2+y,-z
1/2-x,1/2-y,-z
1/2+x,1/2-y,z
loop_
_atom_site_type_symbol
_atom_site_label
_atom_site_fract_x
_atom_site_fract_y
_atom_site_fract_z
Si Si1 0.619287 0.572392 0.139222
Si Si2 0.379855 0.686242 0.693949
Si Si3 0.662140 0.920910 0.408406
Si Si4 0.500000 0.636495 0.000000
Si Si5 0.423857 0.076157 0.926512
Si Si6 0.697151 0.166620 0.189832
Si Si7 0.805571 0.176777 0.505222
O O1 0.584042 0.500000 0.201180
O O2 0.634358 0.630935 0.213568
O O3 0.514546 0.591946 0.095290
O O4 0.765595 0.567680 0.023007
O O5 0.348525 0.760143 0.751373
O O6 0.289207 0.669220 0.633646
O O7 0.535546 0.680933 0.590955
O O8 0.500000 0.915584 0.500000
O O9 0.697241 0.882925 0.287805
O O10 0.737020 0.881475 0.467805
O O11 0.698461 0.000000 0.387799
O O12 0.647904 0.673105 0.923167
O O13 0.410759 0.132960 0.844316
O O14 0.474308 0.000000 0.873561
O O15 0.500000 0.094935 0.000000
O O16 0.750000 0.250000 0.500000
#
# Coordination Sequence:
#
# PCOD9215102 Si02
#       7
#     8   8   8   4   8   8   8
#     4  10  22  41  61  89 124 163 212 258 315 384
#     4  11  25  40  64  94 126 172 213 263 328 381
#     4  11  24  43  71 102 128 167 219 267 316 383
#     4  10  23  40  66  94 125 172 212 268 325 368
#     4   9  20  39  61  87 125 170 209 259 322 378
#     4  11  22  42  63  95 133 166 217 268 318 387
#     4  11  23  43  64  90 131 171 210 260 329 382
#
# _framework density 20.527324
#
# number of rings (size 3 to 8) (size 9 to 14) (size 15 to 20)
#    0.000    1.538    1.538    2.538    0.000    9.231 
#    2.769    4.615    0.000    0.000    0.000    0.000 
#    0.000    0.000    0.000    0.000    0.000    0.000 
#
# Total GULP energy -145137.455231 kJ/mol
# GULP energy per Si atom -5582.209817 kJ/mol
# Density = 2.048060 g / cm^3
# Si number density = 20.527324 Si / 1000 Ang^3
#
#
#
# Elastic Constant Matrix: (Units=GPa)
#
#
# Indices 1 2 3 4 5 6 
#
# 1 98.8082 51.9116 25.1033 0.0000 33.2136 0.0000
# 2 51.9116 177.3000 68.1164 0.0000 37.7982 0.0000
# 3 25.1033 68.1164 76.6244 0.0000 27.6890 0.0000
# 4 0.0000 0.0000 0.0000 32.1549 0.0000 5.0552
# 5 33.2136 37.7982 27.6890 0.0000 51.7460 0.0000
# 6 0.0000 0.0000 0.0000 5.0552 0.0000 25.5357
#
#
#
# Elastic Compliance Matrix: (Units=1/GPa)
#
#
# Indices 1 2 3 4 5 6 
#
# 1 0.013825 -0.002698 0.000451 0.000000 -0.007144 0.000000
# 2 -0.002698 0.009409 -0.006970 0.000000 -0.001411 0.000000
# 3 0.000451 -0.006970 0.021526 0.000000 -0.006716 0.000000
# 4 0.000000 0.000000 0.000000 0.032098 0.000000 -0.006354
# 5 -0.007144 -0.001411 -0.006716 0.000000 0.028536 0.000000
# 6 0.000000 0.000000 0.000000 -0.006354 0.000000 0.040419
#
#
# Mechanical properties :
#
#
# Convention : Reuss Voigt Hill
#
# Bulk Modulus (GPa) = 37.98635 71.44392 54.71514
# Shear Modulus (GPa) = 28.89789 35.72741 32.31265
#
# Velocity S-wave (km/s) = 3.75611 4.17643 3.97183
# Velocity P-wave (km/s) = 6.11200 7.62474 6.90989
#
# Compressibility (1/GPa) = 0.02632525
#
# Stress axis : x y z
#
# Youngs Moduli (GPa) = 72.33281 106.28299 46.45456
#
# Poissons Ratio (x) = 0.28674 -0.02094
# Poissons Ratio (y) = 0.19515 0.32380
# Poissons Ratio (z) = -0.03260 0.74082
#
# Static dielectric constant tensor:
#      x y z
#    x 1.760580 0.000000 -0.019520 
#    y 0.000000 1.700160 0.000000 
#    z -0.019520 0.000000 1.910540 
# 
# From -- ./inp_files/133791.got.cif
#   From: 2010.05.17/outbox.cif.g08.bks.cpg/sg12_67_cif.got.tgz:133791.got - 2010.06.03 13:09:07.
