data_PCOD9215399
_publ_section_title
;
Structure prediction by ZEFSAII (Michael W. Deem and Ramdas Pophale) SiO2 
 PCOD9215399
Probable space group: C 2/M
;
_chemical_formula_sum "Si O2"
_cell_formula_units_Z 40
_cell_length_a 23.764793
_cell_length_b 10.193977
_cell_length_c 12.760334
_cell_angle_alpha 90.000000
_cell_angle_beta 145.436750
_cell_angle_gamma 90.000000
_cell_volume 1753.737144
_symmetry_space_group_name_H-M "C 2/M"
_symmetry_group_IT_number 12
_symmetry_cell_setting 'monoclinic'
loop_
_space_group_symop_operation_xyz
x,y,z
-x,y,-z
-x,-y,-z
x,-y,z
1/2+x,1/2+y,z
1/2-x,1/2+y,-z
1/2-x,1/2-y,-z
1/2+x,1/2-y,z
loop_
_atom_site_type_symbol
_atom_site_label
_atom_site_fract_x
_atom_site_fract_y
_atom_site_fract_z
Si Si1 0.095388 0.230524 0.944537
Si Si2 0.665770 0.645860 0.840661
Si Si3 0.500000 0.795714 0.500000
Si Si4 0.612711 0.352995 0.331979
Si Si5 0.257785 0.849668 0.353680
Si Si6 0.952678 0.500000 0.238614
O O1 0.099328 0.146820 0.843535
O O2 0.001203 0.179783 0.864786
O O3 0.080841 0.382151 0.894051
O O4 0.196752 0.201171 0.161141
O O5 0.706465 0.500000 0.884214
O O6 0.596585 0.702721 0.643778
O O7 0.750000 0.750000 0.000000
O O8 0.483273 0.886636 0.373711
O O9 0.622179 0.500000 0.389401
O O10 0.654098 0.244167 0.475011
O O11 0.679919 0.348177 0.330940
O O12 0.292957 0.000000 0.391457
#
# Coordination Sequence:
#
# PCOD9215399 Si02
#       6
#     8   8   4   8   8   4
#     4  11  23  41  65  93 129 166 220 256 318 379
#     4  11  25  42  67  97 128 167 217 265 319 380
#     4   9  21  46  66  82 136 164 208 262 332 374
#     4  10  22  41  65  93 132 170 210 254 322 386
#     4  10  22  41  65  96 130 168 207 265 318 377
#     4   9  22  38  65  92 118 166 209 264 315 370
#
# _framework density 22.808434999999999
#
# number of rings (size 3 to 8) (size 9 to 14) (size 15 to 20)
#    0.000    1.800    0.000    2.700    9.800    4.800 
#    0.000    5.000    0.000    0.000    0.000    0.000 
#    0.000    0.000    0.000    0.000    0.000    0.000 
#
# Total GULP energy -111374.576298 kJ/mol
# GULP energy per Si atom -5568.728815 kJ/mol
# Density = 2.275652 g / cm^3
# Si number density = 22.808435 Si / 1000 Ang^3
#
#
#
# Elastic Constant Matrix: (Units=GPa)
#
#
# Indices 1 2 3 4 5 6 
#
# 1 45.8786 13.1106 -4.5974 0.0000 4.6032 0.0000
# 2 13.1106 219.9236 58.8545 0.0000 -8.5834 0.0000
# 3 -4.5974 58.8545 102.5737 0.0000 -9.2956 0.0000
# 4 0.0000 0.0000 0.0000 34.4277 0.0000 -9.3735
# 5 4.6032 -8.5834 -9.2956 0.0000 35.6133 0.0000
# 6 0.0000 0.0000 0.0000 -9.3735 0.0000 26.1478
#
#
#
# Elastic Compliance Matrix: (Units=1/GPa)
#
#
# Indices 1 2 3 4 5 6 
#
# 1 0.022848 -0.001984 0.001896 0.000000 -0.002937 0.000000
# 2 -0.001984 0.005553 -0.003206 0.000000 0.000758 0.000000
# 3 0.001896 -0.003206 0.011862 0.000000 0.002078 0.000000
# 4 0.000000 0.000000 0.000000 0.032188 0.000000 0.011539
# 5 -0.002937 0.000758 0.002078 0.000000 0.029184 0.000000
# 6 0.000000 0.000000 0.000000 0.011539 0.000000 0.042381
#
#
# Mechanical properties :
#
#
# Convention : Reuss Voigt Hill
#
# Bulk Modulus (GPa) = 29.69546 55.90125 42.79835
# Shear Modulus (GPa) = 30.89669 39.30498 35.10083
#
# Velocity S-wave (km/s) = 3.68450 4.15573 3.92719
# Velocity P-wave (km/s) = 5.58109 6.89848 6.27445
#
# Compressibility (1/GPa) = 0.03367518
#
# Stress axis : x y z
#
# Youngs Moduli (GPa) = 43.76679 180.08334 84.30140
#
# Poissons Ratio (x) = 0.35733 -0.15987
# Poissons Ratio (y) = 0.08684 0.27031
# Poissons Ratio (z) = -0.08300 0.57742
#
# Static dielectric constant tensor:
#      x y z
#    x 1.922970 0.000000 0.046440 
#    y 0.000000 1.820220 0.000000 
#    z 0.046440 0.000000 1.817940 
# 
# From -- ./inp_files/250273.got.cif
#   From: 2010.05.17/outbox.cif.g08.bks.cpg/sg12_126_cif.got.tgz:250273.got - 2010.06.03 13:09:07.
