data_PCOD9215999
_publ_section_title
;
Structure prediction by ZEFSAII (Michael W. Deem and Ramdas Pophale) SiO2 
 PCOD9215999
Probable space group: C 2/M
;
_chemical_formula_sum "Si O2"
_cell_formula_units_Z 36
_cell_length_a 15.368185
_cell_length_b 9.299055
_cell_length_c 11.286736
_cell_angle_alpha 90.000000
_cell_angle_beta 80.656337
_cell_angle_gamma 90.000000
_cell_volume 1591.582290
_symmetry_space_group_name_H-M "C 2/M"
_symmetry_group_IT_number 12
_symmetry_cell_setting 'monoclinic'
loop_
_space_group_symop_operation_xyz
x,y,z
-x,y,-z
-x,-y,-z
x,-y,z
1/2+x,1/2+y,z
1/2-x,1/2+y,-z
1/2-x,1/2-y,-z
1/2+x,1/2-y,z
loop_
_atom_site_type_symbol
_atom_site_label
_atom_site_fract_x
_atom_site_fract_y
_atom_site_fract_z
Si Si1 0.159166 0.169415 0.542688
Si Si2 0.677512 0.666314 0.095060
Si Si3 0.579303 0.152932 0.749060
Si Si4 0.610290 0.163786 0.332220
Si Si5 0.000000 0.242892 0.000000
O O1 0.250000 0.250000 0.500000
O O2 0.129282 0.214159 0.680577
O O3 0.101803 0.244687 0.453211
O O4 0.161939 0.000000 0.527390
O O5 0.703477 0.500000 0.105886
O O6 0.667497 0.750390 0.221972
O O7 0.750000 0.750000 0.000000
O O8 0.579578 0.666747 0.055093
O O9 0.485741 0.150422 0.703752
O O10 0.625354 0.000000 0.715542
O O11 0.555008 0.169045 0.890893
O O12 0.643244 0.000000 0.346816
#
# Coordination Sequence:
#
# PCOD9215999 Si02
#       5
#     8   8   8   8   4
#     4  12  26  42  64  94 131 173 219 273 331 395
#     4  11  24  42  67  98 136 180 227 281 338 401
#     4  10  22  42  69  97 130 172 218 271 331 398
#     4  10  22  43  67  94 128 168 218 272 332 398
#     4  10  24  44  70 100 138 180 230 276 338 402
#
# _framework density 22.618998999999999
#
# number of rings (size 3 to 8) (size 9 to 14) (size 15 to 20)
#    0.000    1.333    0.000    4.667    3.111   10.667 
#    0.000    0.000    0.000    0.000    0.000    0.000 
#    0.000    0.000    0.000    0.000    0.000    0.000 
#
# Total GULP energy -100577.788492 kJ/mol
# GULP energy per Si atom -5587.654916 kJ/mol
# Density = 2.256752 g / cm^3
# Si number density = 22.618999 Si / 1000 Ang^3
#
#
#
# Elastic Constant Matrix: (Units=GPa)
#
#
# Indices 1 2 3 4 5 6 
#
# 1 54.7216 24.5252 17.3136 0.0000 -0.7621 0.0000
# 2 24.5252 231.4380 71.5035 0.0000 -13.6090 0.0000
# 3 17.3136 71.5035 132.9870 0.0000 -13.5661 0.0000
# 4 0.0000 0.0000 0.0000 21.3413 0.0000 -9.5667
# 5 -0.7621 -13.6090 -13.5661 0.0000 40.6946 0.0000
# 6 0.0000 0.0000 0.0000 -9.5667 0.0000 19.4306
#
#
#
# Elastic Compliance Matrix: (Units=1/GPa)
#
#
# Indices 1 2 3 4 5 6 
#
# 1 0.019527 -0.001564 -0.001778 0.000000 -0.000750 0.000000
# 2 -0.001564 0.005334 -0.002573 0.000000 0.000897 0.000000
# 3 -0.001778 -0.002573 0.009362 0.000000 0.002227 0.000000
# 4 0.000000 0.000000 0.000000 0.060128 0.000000 0.029604
# 5 -0.000750 0.000897 0.002227 0.000000 0.025602 0.000000
# 6 0.000000 0.000000 0.000000 0.029604 0.000000 0.066041
#
#
# Mechanical properties :
#
#
# Convention : Reuss Voigt Hill
#
# Bulk Modulus (GPa) = 44.65595 71.75901 58.20748
# Shear Modulus (GPa) = 24.35602 36.68027 30.51814
#
# Velocity S-wave (km/s) = 3.28501 4.03135 3.67717
# Velocity P-wave (km/s) = 5.84585 7.31184 6.61955
#
# Compressibility (1/GPa) = 0.02239343
#
# Stress axis : x y z
#
# Youngs Moduli (GPa) = 51.21013 187.46909 106.81975
#
# Poissons Ratio (x) = 0.29323 0.18990
# Poissons Ratio (y) = 0.08010 0.27484
# Poissons Ratio (z) = 0.09104 0.48235
#
# Static dielectric constant tensor:
#      x y z
#    x 2.273180 0.000000 0.161330 
#    y 0.000000 1.812130 0.000000 
#    z 0.161330 0.000000 1.888710 
# 
# From -- ./inp_files/151514.got.cif
#   From: 2010.05.17/outbox.cif.g08.bks.cpg/sg12_76_cif.got.tgz:151514.got - 2010.06.03 13:09:07.
