data_PCOD9215630
_publ_section_title
;
Structure prediction by ZEFSAII (Michael W. Deem and Ramdas Pophale) SiO2 
 PCOD9215630
Probable space group: C 2/M
;
_chemical_formula_sum "Si O2"
_cell_formula_units_Z 40
_cell_length_a 18.395642
_cell_length_b 14.053337
_cell_length_c 11.884693
_cell_angle_alpha 90.000000
_cell_angle_beta 141.539992
_cell_angle_gamma 90.000000
_cell_volume 1910.955526
_symmetry_space_group_name_H-M "C 2/M"
_symmetry_group_IT_number 12
_symmetry_cell_setting 'monoclinic'
loop_
_space_group_symop_operation_xyz
x,y,z
-x,y,-z
-x,-y,-z
x,-y,z
1/2+x,1/2+y,z
1/2-x,1/2+y,-z
1/2-x,1/2-y,-z
1/2+x,1/2-y,z
loop_
_atom_site_type_symbol
_atom_site_label
_atom_site_fract_x
_atom_site_fract_y
_atom_site_fract_z
Si Si1 0.255333 0.386986 0.472280
Si Si2 0.506872 0.104838 0.875777
Si Si3 0.232666 0.386584 0.695408
Si Si4 0.936778 0.215358 0.538070
Si Si5 0.851883 0.772701 0.036610
O O1 0.254000 0.500000 0.451084
O O2 0.295739 0.370745 0.650283
O O3 0.326744 0.339691 0.458483
O O4 0.120010 0.355178 0.311323
O O5 0.611889 0.174129 0.977085
O O6 0.521243 0.000000 0.840743
O O7 0.500000 0.095037 0.000000
O O8 0.209281 0.500000 0.676123
O O9 0.115618 0.320927 0.551661
O O10 0.310321 0.347822 0.892808
O O11 0.000000 0.181774 0.500000
O O12 0.034897 0.203198 0.752425
O O13 0.750000 0.750000 0.000000
#
# Coordination Sequence:
#
# PCOD9215630 Si02
#       5
#     8   8   8   8   8
#     4  10  23  45  73 102 134 184 238 287 347 414
#     4  10  22  41  70 100 131 177 236 288 336 410
#     4  11  25  47  72 103 138 183 239 290 342 413
#     4  12  25  44  71 102 145 186 228 289 358 414
#     4  12  26  42  67 106 144 181 229 287 358 414
#
# _framework density 20.931934999999999
#
# number of rings (size 3 to 8) (size 9 to 14) (size 15 to 20)
#    0.000    1.000    4.000    1.800    2.800    2.400 
#    0.000    2.000    0.000    0.000    0.000    0.000 
#    0.000    0.000    0.000    0.000    0.000    0.000 
#
# Total GULP energy -111633.912862 kJ/mol
# GULP energy per Si atom -5581.695643 kJ/mol
# Density = 2.088429 g / cm^3
# Si number density = 20.931935 Si / 1000 Ang^3
#
#
#
# Elastic Constant Matrix: (Units=GPa)
#
#
# Indices 1 2 3 4 5 6 
#
# 1 143.1634 71.7625 28.8420 0.0000 -3.6980 0.0000
# 2 71.7625 105.8357 37.8311 0.0000 3.0220 0.0000
# 3 28.8420 37.8311 124.9272 0.0000 -17.9876 0.0000
# 4 0.0000 0.0000 0.0000 33.6730 0.0000 1.1871
# 5 -3.6980 3.0220 -17.9876 0.0000 33.6075 0.0000
# 6 0.0000 0.0000 0.0000 1.1871 0.0000 6.7881
#
#
#
# Elastic Compliance Matrix: (Units=1/GPa)
#
#
# Indices 1 2 3 4 5 6 
#
# 1 0.010693 -0.007306 0.000008 0.000000 0.001838 0.000000
# 2 -0.007306 0.015853 -0.003722 0.000000 -0.004222 0.000000
# 3 0.000008 -0.003722 0.009944 0.000000 0.005658 0.000000
# 4 0.000000 0.000000 0.000000 0.029882 0.000000 -0.005226
# 5 0.001838 -0.004222 0.005658 0.000000 0.033365 0.000000
# 6 0.000000 0.000000 0.000000 -0.005226 0.000000 0.148230
#
#
# Mechanical properties :
#
#
# Convention : Reuss Voigt Hill
#
# Bulk Modulus (GPa) = 69.19485 72.31084 70.75285
# Shear Modulus (GPa) = 18.19345 30.51312 24.35328
#
# Velocity S-wave (km/s) = 2.95137 3.82217 3.41464
# Velocity P-wave (km/s) = 6.68902 7.35522 7.03002
#
# Compressibility (1/GPa) = 0.01445194
#
# Stress axis : x y z
#
# Youngs Moduli (GPa) = 93.51915 63.07811 100.55810
#
# Poissons Ratio (x) = 0.46084 -0.00084
# Poissons Ratio (y) = 0.68324 0.37427
# Poissons Ratio (z) = -0.00078 0.23477
#
# Static dielectric constant tensor:
#      x y z
#    x 1.719470 0.000000 -0.024050 
#    y 0.000000 1.790930 0.000000 
#    z -0.024050 0.000000 1.819260 
# 
# From -- ./inp_files/155761.got.cif
#   From: 2010.05.17/outbox.cif.g08.bks.cpg/sg12_78_cif.got.tgz:155761.got - 2010.06.03 13:09:07.
