data_PCOD9215065
_publ_section_title
;
Structure prediction by ZEFSAII (Michael W. Deem and Ramdas Pophale) SiO2 
 PCOD9215065
Probable space group: C 2/M
;
_chemical_formula_sum "Si O2"
_cell_formula_units_Z 56
_cell_length_a 16.492578
_cell_length_b 9.024418
_cell_length_c 23.114999
_cell_angle_alpha 90.000000
_cell_angle_beta 119.101348
_cell_angle_gamma 90.000000
_cell_volume 3006.035991
_symmetry_space_group_name_H-M "C 2/M"
_symmetry_group_IT_number 12
_symmetry_cell_setting 'monoclinic'
loop_
_space_group_symop_operation_xyz
x,y,z
-x,y,-z
-x,-y,-z
x,-y,z
1/2+x,1/2+y,z
1/2-x,1/2+y,-z
1/2-x,1/2-y,-z
1/2+x,1/2-y,z
loop_
_atom_site_type_symbol
_atom_site_label
_atom_site_fract_x
_atom_site_fract_y
_atom_site_fract_z
Si Si1 0.900440 0.678106 0.217090
Si Si2 0.757107 0.175498 0.566933
Si Si3 0.497789 0.178893 0.868976
Si Si4 0.815265 0.823011 0.855711
Si Si5 0.953168 0.177113 0.650077
Si Si6 0.592417 0.664238 0.497641
Si Si7 0.840837 0.176987 0.001736
O O1 0.898231 0.500000 0.216806
O O2 0.952593 0.720464 0.175058
O O3 0.792912 0.726825 0.187002
O O4 0.965285 0.739059 0.290319
O O5 0.750000 0.250000 0.500000
O O6 0.848583 0.218378 0.634200
O O7 0.660594 0.231687 0.557105
O O8 0.757997 0.000000 0.562101
O O9 0.394373 0.242309 0.845025
O O10 0.496011 0.000000 0.872028
O O11 0.567405 0.247859 0.940524
O O12 0.837725 0.801939 0.931568
O O13 0.819531 0.000000 0.845056
O O14 0.939631 0.210816 0.577529
O O15 0.966393 0.000000 0.660859
O O16 0.500000 0.651946 0.500000
O O17 0.635463 0.500000 0.507823
O O18 0.840558 0.000000 0.012916
O O19 0.750000 0.250000 0.000000
#
# Coordination Sequence:
#
# PCOD9215065 Si02
#       7
#     8   8   8   8   8   8   8
#     4  10  22  41  59  79 117 158 193 237 287 344
#     4   9  17  31  52  77 104 134 174 221 266 320
#     4  11  23  40  60  88 117 149 198 243 287 348
#     4  10  22  41  60  84 118 154 192 239 293 343
#     4   9  19  35  55  80 109 143 186 227 272 335
#     4   9  18  34  55  81 113 143 177 227 280 329
#     4  11  21  37  62  88 118 153 192 242 296 343
#
# _framework density 18.629186000000001
#
# number of rings (size 3 to 8) (size 9 to 14) (size 15 to 20)
#    0.000    2.143    1.429    2.571    0.000    7.714 
#    2.571    0.000    0.000    0.000    0.000    0.000 
#    0.000    0.000    0.000    0.000    0.000    0.000 
#
# Total GULP energy -155899.156525 kJ/mol
# GULP energy per Si atom -5567.827019 kJ/mol
# Density = 1.858679 g / cm^3
# Si number density = 18.629186 Si / 1000 Ang^3
#
#
#
# Elastic Constant Matrix: (Units=GPa)
#
#
# Indices 1 2 3 4 5 6 
#
# 1 119.4683 42.2444 22.5651 0.0000 37.1435 0.0000
# 2 42.2444 46.9606 26.0297 0.0000 15.4839 0.0000
# 3 22.5651 26.0297 62.6565 0.0000 36.1054 0.0000
# 4 0.0000 0.0000 0.0000 23.5142 0.0000 7.3950
# 5 37.1435 15.4839 36.1054 0.0000 27.7305 0.0000
# 6 0.0000 0.0000 0.0000 7.3950 0.0000 33.4081
#
#
#
# Elastic Compliance Matrix: (Units=1/GPa)
#
#
# Indices 1 2 3 4 5 6 
#
# 1 3.765395 -3.251164 7.427356 0.000000-12.898664 0.000000
# 2 -3.251164 2.834851 -6.423407 0.000000 11.135187 0.000000
# 3 7.427356 -6.423407 14.718491 0.000000-25.525490 0.000000
# 4 0.000000 0.000000 0.000000 0.045710 0.000000 -0.010118
# 5 -12.898664 11.135187-25.525490 0.000000 44.329950 0.000000
# 6 0.000000 0.000000 0.000000 -0.010118 0.000000 0.032173
#
#
# Mechanical properties :
#
#
# Convention : Reuss Voigt Hill
#
# Bulk Modulus (GPa) = 0.05944 45.64041 22.84992
# Shear Modulus (GPa) = 0.06594 26.14698 13.10646
#
# Velocity S-wave (km/s) = 0.18834 3.75046 2.65532
# Velocity P-wave (km/s) = 0.28155 6.58082 4.65760
#
# Compressibility (1/GPa) = 16.82430622
#
# Stress axis : x y z
#
# Youngs Moduli (GPa) = 0.26558 0.35275 0.06794
#
# Poissons Ratio (x) = 1.14686 -0.50463
# Poissons Ratio (y) = 0.86343 0.43642
# Poissons Ratio (z) = -1.97253 2.26587
#
# Static dielectric constant tensor:
#      x y z
#    x 1.810890 0.000000 0.007640 
#    y 0.000000 1.690530 0.000000 
#    z 0.007640 0.000000 1.620400 
# 
# From -- ./inp_files/342583.got.cif
#   From: 2010.05.17/outbox.cif.g08.bks.cpg/sg12_172_cif.got.tgz:342583.got - 2010.06.03 13:09:07.
