data_PCOD9215968
_publ_section_title
;
Structure prediction by ZEFSAII (Michael W. Deem and Ramdas Pophale) SiO2 
 PCOD9215968
Probable space group: C 2/M
;
_chemical_formula_sum "Si O2"
_cell_formula_units_Z 64
_cell_length_a 9.844995
_cell_length_b 30.009183
_cell_length_c 18.902516
_cell_angle_alpha 90.000000
_cell_angle_beta 35.937076
_cell_angle_gamma 90.000000
_cell_volume 3277.560670
_symmetry_space_group_name_H-M "C 2/M"
_symmetry_group_IT_number 12
_symmetry_cell_setting 'monoclinic'
loop_
_space_group_symop_operation_xyz
x,y,z
-x,y,-z
-x,-y,-z
x,-y,z
1/2+x,1/2+y,z
1/2-x,1/2+y,-z
1/2-x,1/2-y,-z
1/2+x,1/2-y,z
loop_
_atom_site_type_symbol
_atom_site_label
_atom_site_fract_x
_atom_site_fract_y
_atom_site_fract_z
Si Si1 0.955112 0.763724 0.362967
Si Si2 0.538477 0.743753 0.797775
Si Si3 0.576189 0.837345 0.126145
Si Si4 0.648128 0.393411 0.267045
Si Si5 0.100005 0.375806 0.268025
Si Si6 0.194521 0.353504 0.478047
Si Si7 0.253334 0.552539 0.642026
Si Si8 0.919769 0.138559 0.862458
O O1 0.750000 0.750000 0.500000
O O2 0.970318 0.742893 0.280021
O O3 0.875184 0.814438 0.384503
O O4 0.195073 0.750484 0.295727
O O5 0.407635 0.784109 0.892412
O O6 0.462410 0.692354 0.836010
O O7 0.310939 0.853551 0.229500
O O8 0.653864 0.850275 0.172299
O O9 0.723782 0.863232 0.005193
O O10 0.373866 0.393902 0.400216
O O11 0.740117 0.433909 0.277289
O O12 0.655665 0.385435 0.178861
O O13 0.339639 0.381543 0.209475
O O14 0.930488 0.349809 0.393917
O O15 0.953493 0.419266 0.306970
O O16 0.000000 0.355091 0.500000
O O17 0.500000 0.564452 0.500000
O O18 0.219525 0.500000 0.648084
#
# Coordination Sequence:
#
# PCOD9215968 Si02
#       8
#     8   8   8   8   8   8   8   8
#     4  12  23  33  51  79 121 164 208 262 309 359
#     4  12  22  38  52  84 120 167 218 264 297 337
#     4  11  24  39  59  87 122 173 224 255 294 347
#     4  11  22  40  65  88 121 162 201 252 309 373
#     4  11  23  38  65  90 124 161 199 256 314 371
#     4  12  20  38  59  87 124 162 202 250 318 370
#     4  10  22  42  69 100 128 152 189 250 322 399
#     4  12  23  41  60  86 127 171 216 256 299 353
#
# _framework density 19.526717999999999
#
# number of rings (size 3 to 8) (size 9 to 14) (size 15 to 20)
#    0.000    0.625    5.000    4.500    0.000    0.000 
#    0.000    4.375    0.000   14.250    0.000    0.000 
#    0.000    0.000    0.000    0.000    0.000    0.000 
#
# Total GULP energy -178337.348329 kJ/mol
# GULP energy per Si atom -5573.042135 kJ/mol
# Density = 1.948227 g / cm^3
# Si number density = 19.526718 Si / 1000 Ang^3
#
#
#
# Elastic Constant Matrix: (Units=GPa)
#
#
# Indices 1 2 3 4 5 6 
#
# 1 127.7657 20.0798 17.5032 0.0000 18.9574 0.0000
# 2 20.0798 73.9898 9.0589 0.0000 -0.2213 0.0000
# 3 17.5032 9.0589 78.7612 0.0000 19.3523 0.0000
# 4 0.0000 0.0000 0.0000 22.4947 0.0000 1.0814
# 5 18.9574 -0.2213 19.3523 0.0000 26.8127 0.0000
# 6 0.0000 0.0000 0.0000 1.0814 0.0000 17.2545
#
#
#
# Elastic Compliance Matrix: (Units=1/GPa)
#
#
# Indices 1 2 3 4 5 6 
#
# 1 0.009191 -0.002490 -0.000188 0.000000 -0.006384 0.000000
# 2 -0.002490 0.014434 -0.001907 0.000000 0.003256 0.000000
# 3 -0.000188 -0.001907 0.015716 0.000000 -0.011226 0.000000
# 4 0.000000 0.000000 0.000000 0.044589 0.000000 -0.002795
# 5 -0.006384 0.003256 -0.011226 0.000000 0.049939 0.000000
# 6 0.000000 0.000000 0.000000 -0.002795 0.000000 0.058131
#
#
# Mechanical properties :
#
#
# Convention : Reuss Voigt Hill
#
# Bulk Modulus (GPa) = 33.14361 41.53338 37.33849
# Shear Modulus (GPa) = 23.67116 28.90403 26.28759
#
# Velocity S-wave (km/s) = 3.48551 3.85155 3.67309
# Velocity P-wave (km/s) = 5.76270 6.41057 6.09525
#
# Compressibility (1/GPa) = 0.03017172
#
# Stress axis : x y z
#
# Youngs Moduli (GPa) = 108.80086 69.27864 63.62940
#
# Poissons Ratio (x) = 0.17254 0.01194
# Poissons Ratio (y) = 0.27097 0.12133
# Poissons Ratio (z) = 0.02041 0.13210
#
# Static dielectric constant tensor:
#      x y z
#    x 1.678130 0.000000 -0.004380 
#    y 0.000000 1.780920 0.000000 
#    z -0.004380 0.000000 1.711770 
# 
# From -- ./inp_files/260333.got.cif
#   From: 2010.05.17/outbox.cif.g08.bks.cpg/sg12_131_cif.got.tgz:260333.got - 2010.06.03 13:09:07.
