data_PCOD9215117
_publ_section_title
;
Structure prediction by ZEFSAII (Michael W. Deem and Ramdas Pophale) SiO2 
 PCOD9215117
Probable space group: C 2/M
;
_chemical_formula_sum "Si O2"
_cell_formula_units_Z 32
_cell_length_a 7.863306
_cell_length_b 13.677274
_cell_length_c 14.949967
_cell_angle_alpha 90.000000
_cell_angle_beta 130.321295
_cell_angle_gamma 90.000000
_cell_volume 1225.868062
_symmetry_space_group_name_H-M "C 2/M"
_symmetry_group_IT_number 12
_symmetry_cell_setting 'monoclinic'
loop_
_space_group_symop_operation_xyz
x,y,z
-x,y,-z
-x,-y,-z
x,-y,z
1/2+x,1/2+y,z
1/2-x,1/2+y,-z
1/2-x,1/2-y,-z
1/2+x,1/2-y,z
loop_
_atom_site_type_symbol
_atom_site_label
_atom_site_fract_x
_atom_site_fract_y
_atom_site_fract_z
Si Si1 0.843430 0.614450 0.309434
Si Si2 0.223952 0.383582 0.246705
Si Si3 0.806472 0.885774 0.532546
Si Si4 0.595762 0.723903 0.864383
O O1 0.854853 0.500000 0.287311
O O2 0.758414 0.616776 0.384652
O O3 0.634570 0.666985 0.190993
O O4 0.095501 0.656672 0.407936
O O5 0.205441 0.500000 0.238789
O O6 0.435237 0.355151 0.380646
O O7 0.281287 0.342966 0.166993
O O8 0.001431 0.328658 0.200993
O O9 0.808082 0.000000 0.507506
O O10 0.750000 0.750000 0.000000
#
# Coordination Sequence:
#
# PCOD9215117 Si02
#       4
#     8   8   8   8
#     4   8  14  28  52  81 111 142 184 237 282 333
#     4  10  22  41  62  85 117 151 189 244 291 333
#     4   7  12  27  53  81 106 139 183 229 287 342
#     4  11  22  35  56  85 115 156 200 228 278 350
#
# _framework density 26.103952
#
# number of rings (size 3 to 8) (size 9 to 14) (size 15 to 20)
#    0.000    3.000    0.000    4.500    0.000    4.000 
#    0.000    2.500    0.000    7.500    0.000   19.250 
#    0.000    0.000    0.000    0.000    0.000    0.000 
#
# Total GULP energy -89507.769152 kJ/mol
# GULP energy per Si atom -5594.235572 kJ/mol
# Density = 2.604454 g / cm^3
# Si number density = 26.103952 Si / 1000 Ang^3
#
#
#
# Elastic Constant Matrix: (Units=GPa)
#
#
# Indices 1 2 3 4 5 6 
#
# 1 124.6510 13.8387 43.0784 0.0000 18.0065 0.0000
# 2 13.8387 167.7202 61.3201 0.0000 0.9162 0.0000
# 3 43.0784 61.3201 259.9317 0.0000 -3.6396 0.0000
# 4 0.0000 0.0000 0.0000 60.8748 0.0000 12.1768
# 5 18.0065 0.9162 -3.6396 0.0000 37.4263 0.0000
# 6 0.0000 0.0000 0.0000 12.1768 0.0000 41.1805
#
#
#
# Elastic Compliance Matrix: (Units=1/GPa)
#
#
# Indices 1 2 3 4 5 6 
#
# 1 0.009243 -0.000169 -0.001556 0.000000 -0.004594 0.000000
# 2 -0.000169 0.006532 -0.001516 0.000000 -0.000226 0.000000
# 3 -0.001556 -0.001516 0.004480 0.000000 0.001222 0.000000
# 4 0.000000 0.000000 0.000000 0.017460 0.000000 -0.005163
# 5 -0.004594 -0.000226 0.001222 0.000000 0.029054 0.000000
# 6 0.000000 0.000000 0.000000 -0.005163 0.000000 0.025810
#
#
# Mechanical properties :
#
#
# Convention : Reuss Voigt Hill
#
# Bulk Modulus (GPa) = 72.60977 87.64192 80.12585
# Shear Modulus (GPa) = 48.23903 56.83404 52.53654
#
# Velocity S-wave (km/s) = 4.30345 4.67113 4.49106
# Velocity P-wave (km/s) = 7.25044 7.92084 7.59304
#
# Compressibility (1/GPa) = 0.01377225
#
# Stress axis : x y z
#
# Youngs Moduli (GPa) = 108.19473 153.09799 223.22064
#
# Poissons Ratio (x) = 0.02580 0.34741
# Poissons Ratio (y) = 0.01823 0.33843
# Poissons Ratio (z) = 0.16839 0.23212
#
# Static dielectric constant tensor:
#      x y z
#    x 2.264760 0.000000 -0.029650 
#    y 0.000000 2.066160 0.000000 
#    z -0.029650 0.000000 1.985290 
# 
# From -- ./inp_files/117655.got.cif
#   From: 2010.05.17/outbox.cif.g08.bks.cpg/sg12_59_cif.got.tgz:117655.got - 2010.06.03 13:09:07.
