data_PCOD9215796
_publ_section_title
;
Structure prediction by ZEFSAII (Michael W. Deem and Ramdas Pophale) SiO2 
 PCOD9215796
Probable space group: C 2/M
;
_chemical_formula_sum "Si O2"
_cell_formula_units_Z 42
_cell_length_a 20.844281
_cell_length_b 20.279588
_cell_length_c 5.256492
_cell_angle_alpha 90.000000
_cell_angle_beta 70.340982
_cell_angle_gamma 90.000000
_cell_volume 2092.473136
_symmetry_space_group_name_H-M "C 2/M"
_symmetry_group_IT_number 12
_symmetry_cell_setting 'monoclinic'
loop_
_space_group_symop_operation_xyz
x,y,z
-x,y,-z
-x,-y,-z
x,-y,z
1/2+x,1/2+y,z
1/2-x,1/2+y,-z
1/2-x,1/2-y,-z
1/2+x,1/2-y,z
loop_
_atom_site_type_symbol
_atom_site_label
_atom_site_fract_x
_atom_site_fract_y
_atom_site_fract_z
Si Si1 0.336369 0.169489 0.415690
Si Si2 0.375556 0.596727 0.832167
Si Si3 0.832389 0.247349 0.914333
Si Si4 0.500000 0.500000 0.500000
Si Si5 0.458343 0.075095 0.316585
Si Si6 0.788433 0.927406 0.444104
O O1 0.353074 0.211100 0.642263
O O2 0.389185 0.110838 0.346843
O O3 0.262276 0.134504 0.519121
O O4 0.345978 0.215393 0.159010
O O5 0.369240 0.676490 0.853131
O O6 0.446003 0.558415 0.679084
O O7 0.325346 0.577866 0.666489
O O8 0.344036 0.575202 0.144894
O O9 0.750000 0.250000 0.000000
O O10 0.500000 0.104426 0.500000
O O11 0.443149 0.000000 0.409541
O O12 0.500000 0.076300 0.000000
O O13 0.754524 0.000000 0.474147
#
# Coordination Sequence:
#
# PCOD9215796 Si02
#       6
#     8   8   8   2   8   8
#     4  12  23  41  71  98 140 170 229 295 354 405
#     4  12  26  44  70  95 135 183 235 280 361 412
#     4  12  23  43  68 101 134 178 222 300 356 409
#     4  12  28  54  68  98 148 198 226 302 336 438
#     4  10  22  42  65  95 138 183 219 267 344 426
#     4  12  22  41  69 104 129 172 234 293 342 416
#
# _framework density 20.071942
#
# number of rings (size 3 to 8) (size 9 to 14) (size 15 to 20)
#    0.000    0.381    5.714    3.429    0.000    1.524 
#    5.143    5.714    0.000    0.000    0.000    0.000 
#    0.000    0.000    0.000    0.000    0.000    0.000 
#
# Total GULP energy -116980.247498 kJ/mol
# GULP energy per Si atom -5570.487976 kJ/mol
# Density = 2.002626 g / cm^3
# Si number density = 20.071942 Si / 1000 Ang^3
#
#
#
# Elastic Constant Matrix: (Units=GPa)
#
#
# Indices 1 2 3 4 5 6 
#
# 1 65.4529 27.7138 37.8392 0.0000 6.4570 0.0000
# 2 27.7138 146.9469 59.3654 0.0000 -13.9505 0.0000
# 3 37.8392 59.3654 100.8229 0.0000 17.1416 0.0000
# 4 0.0000 0.0000 0.0000 13.6068 0.0000 -2.9510
# 5 6.4570 -13.9505 17.1416 0.0000 57.6879 0.0000
# 6 0.0000 0.0000 0.0000 -2.9510 0.0000 16.1200
#
#
#
# Elastic Compliance Matrix: (Units=1/GPa)
#
#
# Indices 1 2 3 4 5 6 
#
# 1 0.019623 -0.001053 -0.006665 0.000000 -0.000471 0.000000
# 2 -0.001053 0.009915 -0.006183 0.000000 0.004353 0.000000
# 3 -0.006665 -0.006183 0.017049 0.000000 -0.005815 0.000000
# 4 0.000000 0.000000 0.000000 0.076531 0.000000 0.014010
# 5 -0.000471 0.004353 -0.005815 0.000000 0.020168 0.000000
# 6 0.000000 0.000000 0.000000 0.014010 0.000000 0.064599
#
#
# Mechanical properties :
#
#
# Convention : Reuss Voigt Hill
#
# Bulk Modulus (GPa) = 53.23106 62.56218 57.89662
# Shear Modulus (GPa) = 20.66561 30.03658 25.35110
#
# Velocity S-wave (km/s) = 3.21218 3.87259 3.55774
# Velocity P-wave (km/s) = 6.35100 7.15769 6.76638
#
# Compressibility (1/GPa) = 0.01878602
#
# Stress axis : x y z
#
# Youngs Moduli (GPa) = 50.95956 100.85948 58.65558
#
# Poissons Ratio (x) = 0.10622 0.39091
# Poissons Ratio (y) = 0.05367 0.36265
# Poissons Ratio (z) = 0.33962 0.62358
#
# Static dielectric constant tensor:
#      x y z
#    x 1.685300 0.000000 -0.021160 
#    y 0.000000 1.749870 0.000000 
#    z -0.021160 0.000000 1.645220 
# 
# From -- ./inp_files/20874.got.cif
#   From: 2010.05.17/outbox.cif.g08.bks.cpg/sg12_11_cif.got.tgz:20874.got - 2010.06.03 13:09:07.
