data_PCOD9215894
_publ_section_title
;
Structure prediction by ZEFSAII (Michael W. Deem and Ramdas Pophale) SiO2 
 PCOD9215894
Probable space group: C 2/M
;
_chemical_formula_sum "Si O2"
_cell_formula_units_Z 32
_cell_length_a 16.043613
_cell_length_b 21.163087
_cell_length_c 9.133333
_cell_angle_alpha 90.000000
_cell_angle_beta 152.930145
_cell_angle_gamma 90.000000
_cell_volume 1411.220493
_symmetry_space_group_name_H-M "C 2/M"
_symmetry_group_IT_number 12
_symmetry_cell_setting 'monoclinic'
loop_
_space_group_symop_operation_xyz
x,y,z
-x,y,-z
-x,-y,-z
x,-y,z
1/2+x,1/2+y,z
1/2-x,1/2+y,-z
1/2-x,1/2-y,-z
1/2+x,1/2-y,z
loop_
_atom_site_type_symbol
_atom_site_label
_atom_site_fract_x
_atom_site_fract_y
_atom_site_fract_z
Si Si1 0.563556 0.928026 0.270791
Si Si2 0.330589 0.430693 0.344906
Si Si3 0.530832 0.301592 0.374699
Si Si4 0.796173 0.812034 0.749886
O O1 0.700365 0.875831 0.544907
O O2 0.629373 0.000000 0.393346
O O3 0.500000 0.919863 0.000000
O O4 0.365154 0.922881 0.039000
O O5 0.500000 0.432244 0.500000
O O6 0.327263 0.500000 0.413644
O O7 0.365213 0.367886 0.490644
O O8 0.500000 0.294036 0.500000
O O9 0.654538 0.245170 0.505682
O O10 0.340697 0.308655 0.992545
O O11 0.000000 0.805188 0.000000
#
# Coordination Sequence:
#
# PCOD9215894 Si02
#       4
#     8   8   8   8
#     4  10  22  42  67  96 131 168 213 271 330 387
#     4   9  19  39  65  90 121 164 212 263 319 378
#     4  11  24  42  64  93 134 176 217 271 327 384
#     4  12  25  41  66  96 130 174 224 270 324 392
#
# _framework density 22.675408000000001
#
# number of rings (size 3 to 8) (size 9 to 14) (size 15 to 20)
#    0.000    1.500    0.000    4.500    0.000    5.500 
#    0.000    0.000    0.000   14.250    0.000    0.000 
#    0.000    0.000    0.000    0.000    0.000    0.000 
#
# Total GULP energy -89316.901961 kJ/mol
# GULP energy per Si atom -5582.306373 kJ/mol
# Density = 2.262380 g / cm^3
# Si number density = 22.675408 Si / 1000 Ang^3
#
#
#
# Elastic Constant Matrix: (Units=GPa)
#
#
# Indices 1 2 3 4 5 6 
#
# 1 100.6039 28.6753 55.5947 0.0000 6.9233 0.0000
# 2 28.6753 237.9938 111.6789 0.0000 -5.1324 0.0000
# 3 55.5947 111.6789 147.5809 0.0000 -5.5023 0.0000
# 4 0.0000 0.0000 0.0000 57.1905 0.0000 -7.4773
# 5 6.9233 -5.1324 -5.5023 0.0000 44.2506 0.0000
# 6 0.0000 0.0000 0.0000 -7.4773 0.0000 5.0659
#
#
#
# Elastic Compliance Matrix: (Units=1/GPa)
#
#
# Indices 1 2 3 4 5 6 
#
# 1 0.013040 0.001121 -0.005859 0.000000 -0.002639 0.000000
# 2 0.001121 0.006613 -0.005430 0.000000 -0.000084 0.000000
# 3 -0.005859 -0.005430 0.013164 0.000000 0.001924 0.000000
# 4 0.000000 0.000000 0.000000 0.021667 0.000000 0.031980
# 5 -0.002639 -0.000084 0.001924 0.000000 0.023241 0.000000
# 6 0.000000 0.000000 0.000000 0.031980 0.000000 0.244600
#
#
# Mechanical properties :
#
#
# Convention : Reuss Voigt Hill
#
# Bulk Modulus (GPa) = 80.11943 97.56404 88.84174
# Shear Modulus (GPa) = 14.41674 40.65004 27.53339
#
# Velocity S-wave (km/s) = 2.52422 4.23861 3.48838
# Velocity P-wave (km/s) = 6.62612 8.18989 7.44915
#
# Compressibility (1/GPa) = 0.01248137
#
# Stress axis : x y z
#
# Youngs Moduli (GPa) = 76.68872 151.22379 75.96735
#
# Poissons Ratio (x) = -0.16958 0.44510
# Poissons Ratio (y) = -0.08600 0.41247
# Poissons Ratio (z) = 0.44933 0.82108
#
# Static dielectric constant tensor:
#      x y z
#    x 2.006680 0.000000 0.011930 
#    y 0.000000 1.855850 0.000000 
#    z 0.011930 0.000000 1.839920 
# 
# From -- ./inp_files/169786.got.cif
#   From: 2010.05.17/outbox.cif.g08.bks.cpg/sg12_85_cif.got.tgz:169786.got - 2010.06.03 13:09:07.
