data_PCOD9215742
_publ_section_title
;
Structure prediction by ZEFSAII (Michael W. Deem and Ramdas Pophale) SiO2 
 PCOD9215742
Probable space group: C 2/M
;
_chemical_formula_sum "Si O2"
_cell_formula_units_Z 32
_cell_length_a 10.049429
_cell_length_b 10.012791
_cell_length_c 24.843111
_cell_angle_alpha 90.000000
_cell_angle_beta 45.346251
_cell_angle_gamma 90.000000
_cell_volume 1778.264093
_symmetry_space_group_name_H-M "C 2/M"
_symmetry_group_IT_number 12
_symmetry_cell_setting 'monoclinic'
loop_
_space_group_symop_operation_xyz
x,y,z
-x,y,-z
-x,-y,-z
x,-y,z
1/2+x,1/2+y,z
1/2-x,1/2+y,-z
1/2-x,1/2-y,-z
1/2+x,1/2-y,z
loop_
_atom_site_type_symbol
_atom_site_label
_atom_site_fract_x
_atom_site_fract_y
_atom_site_fract_z
Si Si1 0.483756 0.837002 0.218512
Si Si2 0.008914 0.000000 0.589014
Si Si3 0.710732 0.343581 0.960703
Si Si4 0.318493 0.000000 0.409321
Si Si5 0.932950 0.752133 0.685904
O O1 0.643555 0.815642 0.128729
O O2 0.289114 0.771336 0.256113
O O3 0.530913 0.764706 0.261006
O O4 0.467145 0.000000 0.229829
O O5 0.185039 0.000000 0.499088
O O6 0.825586 0.000000 0.601276
O O7 0.009022 0.125096 0.629103
O O8 0.731008 0.500000 0.969843
O O9 0.500000 0.323369 0.000000
O O10 0.750000 0.250000 0.000000
O O11 0.457187 0.125336 0.368796
#
# Coordination Sequence:
#
# PCOD9215742 Si02
#       5
#     8   4   8   4   8
#     4  11  23  41  64  90 131 162 199 259 309 360
#     4  11  24  43  63  91 127 162 200 266 307 361
#     4  10  22  42  64  92 124 163 207 250 306 366
#     4  11  24  43  65  89 127 163 204 255 315 361
#     4  12  20  44  62  92 123 165 205 250 312 362
#
# _framework density 17.995077999999999
#
# number of rings (size 3 to 8) (size 9 to 14) (size 15 to 20)
#    0.000    1.000    5.000    2.250    0.000    1.500 
#    4.500    1.250    0.000    0.000    0.000    0.000 
#    0.000    0.000    0.000    0.000    0.000    0.000 
#
# Total GULP energy -89247.881750 kJ/mol
# GULP energy per Si atom -5577.992609 kJ/mol
# Density = 1.795412 g / cm^3
# Si number density = 17.995078 Si / 1000 Ang^3
#
#
#
# Elastic Constant Matrix: (Units=GPa)
#
#
# Indices 1 2 3 4 5 6 
#
# 1 274.5241 164.9882 200.1831 0.0000 41.4947 0.0000
# 2 164.9882 196.7267 156.0834 0.0000 26.4834 0.0000
# 3 200.1831 156.0834 307.3668 0.0000 31.0097 0.0000
# 4 0.0000 0.0000 0.0000 80.0715 0.0000 -1.3762
# 5 41.4947 26.4834 31.0097 0.0000 40.6991 0.0000
# 6 0.0000 0.0000 0.0000 -1.3762 0.0000 35.6917
#
#
#
# Elastic Compliance Matrix: (Units=1/GPa)
#
#
# Indices 1 2 3 4 5 6 
#
# 1 0.009669 -0.004838 -0.003427 0.000000 -0.004098 0.000000
# 2 -0.004838 0.011163 -0.002472 0.000000 -0.000447 0.000000
# 3 -0.003427 -0.002472 0.006744 0.000000 -0.000036 0.000000
# 4 0.000000 0.000000 0.000000 0.012497 0.000000 0.000482
# 5 -0.004098 -0.000447 -0.000036 0.000000 0.029068 0.000000
# 6 0.000000 0.000000 0.000000 0.000482 0.000000 0.028036
#
#
# Mechanical properties :
#
#
# Convention : Reuss Voigt Hill
#
# Bulk Modulus (GPa) = 163.90426 202.34746 183.12586
# Shear Modulus (GPa) = 41.43023 48.44999 44.94011
#
# Velocity S-wave (km/s) = 4.80344 5.19447 5.00278
# Velocity P-wave (km/s) = 11.04738 12.19290 11.63425
#
# Compressibility (1/GPa) = 0.00610112
#
# Stress axis : x y z
#
# Youngs Moduli (GPa) = 103.42638 89.58455 148.27555
#
# Poissons Ratio (x) = 0.43345 0.50808
# Poissons Ratio (y) = 0.50042 0.36657
# Poissons Ratio (z) = 0.35440 0.22147
#
# Static dielectric constant tensor:
#      x y z
#    x 1.612070 0.000000 -0.006570 
#    y 0.000000 1.565810 0.000000 
#    z -0.006570 0.000000 1.607980 
# 
# From -- ./inp_files/254318.got.cif
#   From: 2010.05.17/outbox.cif.g08.bks.cpg/sg12_128_cif.got.tgz:254318.got - 2010.06.03 13:09:07.
