data_PCOD9215430
_publ_section_title
;
Structure prediction by ZEFSAII (Michael W. Deem and Ramdas Pophale) SiO2 
 PCOD9215430
Probable space group: C 2/M
;
_chemical_formula_sum "Si O2"
_cell_formula_units_Z 40
_cell_length_a 11.922793
_cell_length_b 15.653668
_cell_length_c 9.959043
_cell_angle_alpha 90.000000
_cell_angle_beta 93.828867
_cell_angle_gamma 90.000000
_cell_volume 1854.561672
_symmetry_space_group_name_H-M "C 2/M"
_symmetry_group_IT_number 12
_symmetry_cell_setting 'monoclinic'
loop_
_space_group_symop_operation_xyz
x,y,z
-x,y,-z
-x,-y,-z
x,-y,z
1/2+x,1/2+y,z
1/2-x,1/2+y,-z
1/2-x,1/2-y,-z
1/2+x,1/2-y,z
loop_
_atom_site_type_symbol
_atom_site_label
_atom_site_fract_x
_atom_site_fract_y
_atom_site_fract_z
Si Si1 0.132852 0.674050 0.021642
Si Si2 0.115191 0.500000 0.590338
Si Si3 0.110025 0.500000 0.909576
Si Si4 0.260303 0.175794 0.389570
Si Si5 0.170721 0.196904 0.809661
Si Si6 0.974384 0.901141 0.657172
O O1 0.174687 0.587887 0.949531
O O2 0.148282 0.767371 0.956057
O O3 0.198490 0.669961 0.168434
O O4 0.000000 0.666118 0.000000
O O5 0.088831 0.500000 0.748470
O O6 0.185897 0.585823 0.562348
O O7 0.000000 0.500000 0.500000
O O8 0.000000 0.500000 0.000000
O O9 0.250000 0.250000 0.500000
O O10 0.337389 0.219739 0.283815
O O11 0.136422 0.154097 0.324692
O O12 0.082557 0.129802 0.748224
O O13 0.000000 0.892357 0.500000
O O14 0.950561 0.000000 0.683266
#
# Coordination Sequence:
#
# PCOD9215430 Si02
#       6
#     8   4   4   8   8   8
#     4  10  22  41  65  98 129 172 229 286 341 420
#     4  12  28  46  72 110 142 186 247 295 358 427
#     4  10  22  44  69  98 141 179 226 300 350 414
#     4  12  25  44  69  99 141 187 229 298 355 422
#     4  11  23  40  70  93 132 180 228 281 356 417
#     4  11  24  43  61  96 138 177 228 283 348 429
#
# _framework density 21.568436999999999
#
# number of rings (size 3 to 8) (size 9 to 14) (size 15 to 20)
#    0.000    1.000    5.000    1.200    4.200    3.200 
#    0.000    0.000    0.000    4.200    0.000    0.000 
#    0.000    0.000    0.000    0.000    0.000    0.000 
#
# Total GULP energy -111477.354928 kJ/mol
# GULP energy per Si atom -5573.867746 kJ/mol
# Density = 2.151935 g / cm^3
# Si number density = 21.568437 Si / 1000 Ang^3
#
#
#
# Elastic Constant Matrix: (Units=GPa)
#
#
# Indices 1 2 3 4 5 6 
#
# 1 69.5706 26.2340 23.9332 0.0000 33.4314 0.0000
# 2 26.2340 118.0707 45.9785 0.0000 17.0479 0.0000
# 3 23.9332 45.9785 83.1346 0.0000 33.2901 0.0000
# 4 0.0000 0.0000 0.0000 27.0980 0.0000 -0.1584
# 5 33.4314 17.0479 33.2901 0.0000 42.5147 0.0000
# 6 0.0000 0.0000 0.0000 -0.1584 0.0000 35.2022
#
#
#
# Elastic Compliance Matrix: (Units=1/GPa)
#
#
# Indices 1 2 3 4 5 6 
#
# 1 0.024365 -0.003714 0.003082 0.000000 -0.020083 0.000000
# 2 -0.003714 0.011368 -0.006646 0.000000 0.003566 0.000000
# 3 0.003082 -0.006646 0.021444 0.000000 -0.016550 0.000000
# 4 0.000000 0.000000 0.000000 0.036904 0.000000 0.000166
# 5 -0.020083 0.003566 -0.016550 0.000000 0.050843 0.000000
# 6 0.000000 0.000000 0.000000 0.000166 0.000000 0.028408
#
#
# Mechanical properties :
#
#
# Convention : Reuss Voigt Hill
#
# Bulk Modulus (GPa) = 23.46265 51.45193 37.45729
# Shear Modulus (GPa) = 24.74086 32.60499 28.67292
#
# Velocity S-wave (km/s) = 3.39054 3.89228 3.65004
# Velocity P-wave (km/s) = 5.12148 6.64129 5.93027
#
# Compressibility (1/GPa) = 0.04262093
#
# Stress axis : x y z
#
# Youngs Moduli (GPa) = 41.04246 87.96767 46.63277
#
# Poissons Ratio (x) = 0.32671 -0.14371
# Poissons Ratio (y) = 0.15243 0.30991
# Poissons Ratio (z) = -0.12648 0.58462
#
# Static dielectric constant tensor:
#      x y z
#    x 1.885080 0.000000 -0.070190 
#    y 0.000000 1.952870 0.000000 
#    z -0.070190 0.000000 1.815620 
# 
# From -- ./inp_files/129843.got.cif
#   From: 2010.05.17/outbox.cif.g08.bks.cpg/sg12_65_cif.got.tgz:129843.got - 2010.06.03 13:09:07.
