data_PCOD9215992
_publ_section_title
;
Structure prediction by ZEFSAII (Michael W. Deem and Ramdas Pophale) SiO2 
 PCOD9215992
Probable space group: C 2/M
;
_chemical_formula_sum "Si O2"
_cell_formula_units_Z 32
_cell_length_a 10.661915
_cell_length_b 17.587168
_cell_length_c 12.473484
_cell_angle_alpha 90.000000
_cell_angle_beta 145.634538
_cell_angle_gamma 90.000000
_cell_volume 1320.259798
_symmetry_space_group_name_H-M "C 2/M"
_symmetry_group_IT_number 12
_symmetry_cell_setting 'monoclinic'
loop_
_space_group_symop_operation_xyz
x,y,z
-x,y,-z
-x,-y,-z
x,-y,z
1/2+x,1/2+y,z
1/2-x,1/2+y,-z
1/2-x,1/2-y,-z
1/2+x,1/2-y,z
loop_
_atom_site_type_symbol
_atom_site_label
_atom_site_fract_x
_atom_site_fract_y
_atom_site_fract_z
Si Si1 0.886510 0.666000 0.723419
Si Si2 0.232930 0.668332 0.610170
Si Si3 0.578715 0.000000 0.680844
Si Si4 0.855272 0.864084 0.988231
Si Si5 0.242296 0.500000 0.348190
O O1 0.800653 0.662949 0.540074
O O2 0.778796 0.745164 0.682015
O O3 0.839291 0.584781 0.746790
O O4 0.151460 0.675197 0.902970
O O5 0.000000 0.647902 0.500000
O O6 0.449390 0.617958 0.790450
O O7 0.500000 0.000000 0.500000
O O8 0.732972 0.930937 0.835134
O O9 0.358890 0.000000 0.601677
O O10 0.000000 0.821630 0.000000
O O11 0.500000 0.500000 0.500000
#
# Coordination Sequence:
#
# PCOD9215992 Si02
#       5
#     8   8   4   8   4
#     4  10  23  40  65  94 135 183 231 285 345 430
#     4  11  22  40  64  99 135 179 233 289 357 407
#     4  10  25  42  70 106 141 182 230 290 354 423
#     4  11  22  38  63  98 134 174 227 290 349 412
#     4  10  22  42  69  96 132 183 227 278 347 420
#
# _framework density 24.237655
#
# number of rings (size 3 to 8) (size 9 to 14) (size 15 to 20)
#    0.000    1.500    2.500    1.875    7.000    1.000 
#    0.000    0.625    0.000    6.000    0.000    0.000 
#    0.000    0.000    0.000    0.125    0.000    0.000 
#
# Total GULP energy -89069.550932 kJ/mol
# GULP energy per Si atom -5566.846933 kJ/mol
# Density = 2.418249 g / cm^3
# Si number density = 24.237655 Si / 1000 Ang^3
#
#
#
# Elastic Constant Matrix: (Units=GPa)
#
#
# Indices 1 2 3 4 5 6 
#
# 1 65.2370 8.5447 60.8862 -0.0001 30.5345 0.0000
# 2 8.5447 191.3697 57.2332 0.0000 18.3293 0.0000
# 3 60.8862 57.2332 213.1034 -0.0002 20.5333 0.0000
# 4 -0.0001 0.0000 -0.0002 33.9009 -0.0001 7.4427
# 5 30.5345 18.3293 20.5333 -0.0001 54.0515 0.0000
# 6 0.0000 0.0000 0.0000 7.4427 0.0000 -5.5767
#
#
#
# Elastic Compliance Matrix: (Units=1/GPa)
#
#
# Indices 1 2 3 4 5 6 
#
# 1 0.028538 0.002291 -0.007412 0.000000 -0.014083 0.000000
# 2 0.002291 0.005970 -0.002012 0.000000 -0.002554 0.000000
# 3 -0.007412 -0.002012 0.007143 0.000000 0.002156 0.000000
# 4 0.000000 0.000000 0.000000 0.022813 0.000000 0.030447
# 5 -0.014083 -0.002554 0.002156 0.000000 0.026504 0.000000
# 6 0.000000 0.000000 0.000000 0.030447 0.000000 -0.138683
#
#
# Mechanical properties :
#
#
# Convention : Reuss Voigt Hill
#
# Bulk Modulus (GPa) = 36.51602 80.33759 58.42680
# Shear Modulus (GPa) = -205.57523 39.34488 -83.11518
#
# Velocity S-wave (km/s) = -9.21958 4.03339 -5.86227
# Velocity P-wave (km/s) = 9.91139 7.41004 4.65440
#
# Compressibility (1/GPa) = 0.02738524
#
# Stress axis : x y z
#
# Youngs Moduli (GPa) = 35.04118 167.51801 140.00029
#
# Poissons Ratio (x) = -0.38384 1.03769
# Poissons Ratio (y) = -0.08029 0.28165
# Poissons Ratio (z) = 0.25973 0.33701
#
# Static dielectric constant tensor:
#      x y z
#    x 1.936140 0.000000 -0.028850 
#    y 0.000000 2.121930 0.000000 
#    z -0.028850 0.000000 1.967770 
# 
# From -- ./inp_files/207453.got.cif
#   From: 2010.05.17/outbox.cif.g08.bks.cpg/sg12_104_cif.got.tgz:207453.got - 2010.06.03 13:09:07.
