data_PCOD9215579
_publ_section_title
;
Structure prediction by ZEFSAII (Michael W. Deem and Ramdas Pophale) SiO2 
 PCOD9215579
Probable space group: C 2/M
;
_chemical_formula_sum "Si O2"
_cell_formula_units_Z 48
_cell_length_a 12.008490
_cell_length_b 17.673680
_cell_length_c 9.545090
_cell_angle_alpha 90.000000
_cell_angle_beta 67.984402
_cell_angle_gamma 90.000000
_cell_volume 1878.077411
_symmetry_space_group_name_H-M "C 2/M"
_symmetry_group_IT_number 12
_symmetry_cell_setting 'monoclinic'
loop_
_space_group_symop_operation_xyz
x,y,z
-x,y,-z
-x,-y,-z
x,-y,z
1/2+x,1/2+y,z
1/2-x,1/2+y,-z
1/2-x,1/2-y,-z
1/2+x,1/2-y,z
loop_
_atom_site_type_symbol
_atom_site_label
_atom_site_fract_x
_atom_site_fract_y
_atom_site_fract_z
Si Si1 0.894753 0.407467 0.849860
Si Si2 0.503438 0.500000 0.269808
Si Si3 0.298349 0.195840 0.638241
Si Si4 0.850426 0.655337 0.317348
Si Si5 0.943555 0.152189 0.195906
Si Si6 0.205964 0.000000 0.406574
Si Si7 0.320902 0.674346 0.951886
O O1 0.906244 0.500000 0.829565
O O2 0.850989 0.362048 0.729760
O O3 0.783448 0.389206 0.009523
O O4 0.023660 0.366826 0.818825
O O5 0.502584 0.571001 0.171963
O O6 0.615338 0.500000 0.318834
O O7 0.382758 0.500000 0.418531
O O8 0.243460 0.280793 0.699109
O O9 0.376281 0.189349 0.460727
O O10 0.170023 0.158904 0.652013
O O11 0.785790 0.574875 0.362937
O O12 0.885691 0.166302 0.073023
O O13 0.060586 0.195671 0.194686
O O14 0.250000 0.750000 0.000000
#
# Coordination Sequence:
#
# PCOD9215579 Si02
#       7
#     8   4   8   8   8   4   8
#     4  11  24  40  69  99 135 176 229 283 349 417
#     4  11  24  41  64  97 132 179 227 280 332 397
#     4  10  23  38  64  96 132 178 229 276 346 418
#     4  11  22  41  62  95 139 180 221 284 347 409
#     4  10  22  41  68  90 132 170 222 282 331 401
#     4  11  24  42  65  96 141 183 230 281 345 407
#     4  10  23  40  65 100 129 171 222 282 341 405
#
# _framework density 25.558052
#
# number of rings (size 3 to 8) (size 9 to 14) (size 15 to 20)
#    0.000    1.500    2.500    1.500    7.000    5.333 
#    3.000    0.000    0.000    1.000    0.000    0.000 
#    0.000    0.000    0.000    0.000    0.000    0.000 
#
# Total GULP energy -133668.335071 kJ/mol
# GULP energy per Si atom -5569.513961 kJ/mol
# Density = 2.549988 g / cm^3
# Si number density = 25.558052 Si / 1000 Ang^3
#
#
#
# Elastic Constant Matrix: (Units=GPa)
#
#
# Indices 1 2 3 4 5 6 
#
# 1 145.9233 36.5427 33.5987 0.0000 -31.9336 0.0000
# 2 36.5427 176.7253 9.1339 0.0000 0.3684 0.0000
# 3 33.5987 9.1339 73.6465 0.0000 -20.2089 0.0000
# 4 0.0000 0.0000 0.0000 36.7278 0.0000 -6.3902
# 5 -31.9336 0.3684 -20.2089 0.0000 48.1484 0.0000
# 6 0.0000 0.0000 0.0000 -6.3902 0.0000 39.1398
#
#
#
# Elastic Compliance Matrix: (Units=1/GPa)
#
#
# Indices 1 2 3 4 5 6 
#
# 1 0.008934 -0.001727 -0.002523 0.000000 0.004880 0.000000
# 2 -0.001727 0.006035 -0.000325 0.000000 -0.001328 0.000000
# 3 -0.002523 -0.000325 0.016174 0.000000 0.005118 0.000000
# 4 0.000000 0.000000 0.000000 0.028023 0.000000 0.004575
# 5 0.004880 -0.001328 0.005118 0.000000 0.026164 0.000000
# 6 0.000000 0.000000 0.000000 0.004575 0.000000 0.026296
#
#
# Mechanical properties :
#
#
# Convention : Reuss Voigt Hill
#
# Bulk Modulus (GPa) = 45.46755 61.64954 53.55854
# Shear Modulus (GPa) = 39.02959 45.93784 42.48372
#
# Velocity S-wave (km/s) = 3.91205 4.24417 4.08149
# Velocity P-wave (km/s) = 6.18337 6.94197 6.57362
#
# Compressibility (1/GPa) = 0.02199371
#
# Stress axis : x y z
#
# Youngs Moduli (GPa) = 111.92966 165.69448 61.82783
#
# Poissons Ratio (x) = 0.28618 0.15597
# Poissons Ratio (y) = 0.19332 0.02009
# Poissons Ratio (z) = 0.28236 0.05385
#
# Static dielectric constant tensor:
#      x y z
#    x 2.121850 0.000000 -0.120110 
#    y 0.000000 1.936650 0.000000 
#    z -0.120110 0.000000 2.208700 
# 
# From -- ./inp_files/131693.got.cif
#   From: 2010.05.17/outbox.cif.g08.bks.cpg/sg12_66_cif.got.tgz:131693.got - 2010.06.03 13:09:07.
