data_PCOD9215621
_publ_section_title
;
Structure prediction by ZEFSAII (Michael W. Deem and Ramdas Pophale) SiO2 
 PCOD9215621
Probable space group: C 2/M
;
_chemical_formula_sum "Si O2"
_cell_formula_units_Z 32
_cell_length_a 12.224380
_cell_length_b 24.171522
_cell_length_c 8.847070
_cell_angle_alpha 90.000000
_cell_angle_beta 146.891727
_cell_angle_gamma 90.000000
_cell_volume 1427.907970
_symmetry_space_group_name_H-M "C 2/M"
_symmetry_group_IT_number 12
_symmetry_cell_setting 'monoclinic'
loop_
_space_group_symop_operation_xyz
x,y,z
-x,y,-z
-x,-y,-z
x,-y,z
1/2+x,1/2+y,z
1/2-x,1/2+y,-z
1/2-x,1/2-y,-z
1/2+x,1/2-y,z
loop_
_atom_site_type_symbol
_atom_site_label
_atom_site_fract_x
_atom_site_fract_y
_atom_site_fract_z
Si Si1 0.257095 0.846013 0.543263
Si Si2 0.428393 0.061513 0.585802
Si Si3 0.452273 0.744773 0.130712
Si Si4 0.240088 0.936658 0.774141
O O1 0.262727 0.892187 0.421330
O O2 0.430582 0.802078 0.707880
O O3 0.290087 0.884693 0.726206
O O4 0.062256 0.808481 0.328027
O O5 0.500000 0.064998 0.500000
O O6 0.348389 0.000000 0.520649
O O7 0.624010 0.069630 0.919272
O O8 0.500000 0.737860 0.000000
O O9 0.250000 0.750000 0.000000
O O10 0.000000 0.934795 0.500000
O O11 0.284405 0.000000 0.772851
#
# Coordination Sequence:
#
# PCOD9215621 Si02
#       4
#     8   8   8   8
#     4  11  25  41  74  98 139 191 242 295 369 436
#     4  10  22  41  69 105 145 187 236 299 369 439
#     4  11  28  47  70 104 145 192 248 307 366 434
#     4  10  22  41  69 106 142 186 240 296 364 443
#
# _framework density 22.410406999999999
#
# number of rings (size 3 to 8) (size 9 to 14) (size 15 to 20)
#    0.000    1.500    0.000    3.000   10.500    4.000 
#    0.000    0.000    0.000    7.500    0.000    0.000 
#    0.000    0.000    0.000    0.000    0.000    0.000 
#
# Total GULP energy -89095.862506 kJ/mol
# GULP energy per Si atom -5568.491407 kJ/mol
# Density = 2.235940 g / cm^3
# Si number density = 22.410407 Si / 1000 Ang^3
#
#
#
# Elastic Constant Matrix: (Units=GPa)
#
#
# Indices 1 2 3 4 5 6 
#
# 1 156.8462 73.4930 76.2277 0.0000 15.7509 0.0000
# 2 73.4930 200.1994 72.2317 0.0000 10.9386 0.0000
# 3 76.2277 72.2317 60.6719 0.0000 19.9359 0.0000
# 4 0.0000 0.0000 0.0000 69.9216 0.0000 -12.4518
# 5 15.7509 10.9386 19.9359 0.0000 53.3687 0.0000
# 6 0.0000 0.0000 0.0000 -12.4518 0.0000 16.6144
#
#
#
# Elastic Compliance Matrix: (Units=1/GPa)
#
#
# Indices 1 2 3 4 5 6 
#
# 1 0.017957 0.003211 -0.027845 0.000000 0.004443 0.000000
# 2 0.003211 0.009607 -0.016545 0.000000 0.003263 0.000000
# 3 -0.027845 -0.016545 0.076771 0.000000 -0.017069 0.000000
# 4 0.000000 0.000000 0.000000 0.016505 0.000000 0.012369
# 5 0.004443 0.003263 -0.017069 0.000000 0.023133 0.000000
# 6 0.000000 0.000000 0.000000 0.012369 0.000000 0.069459
#
#
# Mechanical properties :
#
#
# Convention : Reuss Voigt Hill
#
# Bulk Modulus (GPa) = 45.49597 95.73582 70.61590
# Shear Modulus (GPa) = 16.49539 41.03196 28.76367
#
# Velocity S-wave (km/s) = 2.71598 4.28358 3.58648
# Velocity P-wave (km/s) = 5.49370 8.20229 6.98063
#
# Compressibility (1/GPa) = 0.02197997
#
# Stress axis : x y z
#
# Youngs Moduli (GPa) = 55.68777 104.08986 13.02569
#
# Poissons Ratio (x) = -0.33428 0.36270
# Poissons Ratio (y) = -0.17884 0.21551
# Poissons Ratio (z) = 1.55061 1.72213
#
# Static dielectric constant tensor:
#      x y z
#    x 1.949000 0.000000 -0.027010 
#    y 0.000000 1.800200 0.000000 
#    z -0.027010 0.000000 1.880100 
# 
# From -- ./inp_files/51119.got.cif
#   From: 2010.05.17/outbox.cif.g08.bks.cpg/sg12_26_cif.got.tgz:51119.got - 2010.06.03 13:09:07.
