data_PCOD9215500
_publ_section_title
;
Structure prediction by ZEFSAII (Michael W. Deem and Ramdas Pophale) SiO2 
 PCOD9215500
Probable space group: C 2/M
;
_chemical_formula_sum "Si O2"
_cell_formula_units_Z 42
_cell_length_a 9.678575
_cell_length_b 10.051585
_cell_length_c 23.637625
_cell_angle_alpha 90.000000
_cell_angle_beta 67.350277
_cell_angle_gamma 90.000000
_cell_volume 2122.234314
_symmetry_space_group_name_H-M "C 2/M"
_symmetry_group_IT_number 12
_symmetry_cell_setting 'monoclinic'
loop_
_space_group_symop_operation_xyz
x,y,z
-x,y,-z
-x,-y,-z
x,-y,z
1/2+x,1/2+y,z
1/2-x,1/2+y,-z
1/2-x,1/2-y,-z
1/2+x,1/2-y,z
loop_
_atom_site_type_symbol
_atom_site_label
_atom_site_fract_x
_atom_site_fract_y
_atom_site_fract_z
Si Si1 0.507396 0.500000 0.264526
Si Si2 0.088543 0.500000 0.634224
Si Si3 0.000000 0.500000 0.000000
Si Si4 0.565119 0.500000 0.388546
Si Si5 0.797064 0.500000 0.755475
Si Si6 0.921432 0.728518 0.456393
Si Si7 0.208623 0.225178 0.175564
Si Si8 0.451493 0.856902 0.894721
O O1 0.518593 0.500000 0.330270
O O2 0.337221 0.500000 0.269345
O O3 0.595386 0.627356 0.225601
O O4 0.255285 0.500000 0.633583
O O5 0.069506 0.628577 0.597377
O O6 0.959419 0.500000 0.701002
O O7 0.054542 0.384774 0.037555
O O8 0.498696 0.368280 0.428332
O O9 0.782336 0.364993 0.793542
O O10 0.750000 0.750000 0.500000
O O11 0.000000 0.672390 0.500000
O O12 0.374614 0.166584 0.146675
O O13 0.146902 0.248047 0.121554
O O14 0.407001 0.000000 0.876102
#
# Coordination Sequence:
#
# PCOD9215500 Si02
#       8
#     4   4   2   4   4   8   8   8
#     4  12  27  41  66  97 132 170 222 272 325 389
#     4  12  28  45  67 100 133 169 219 276 330 389
#     4   8  20  44  64 100 134 178 212 278 326 378
#     4  12  28  46  65 101 134 169 217 275 329 392
#     4  12  27  41  66  98 130 174 220 272 329 390
#     4  12  25  47  72  93 129 173 217 268 330 395
#     4  12  23  43  68  94 136 177 220 267 329 394
#     4  10  22  41  66  98 133 175 217 268 328 384
#
# _framework density 19.790464
#
# number of rings (size 3 to 8) (size 9 to 14) (size 15 to 20)
#    0.571    0.000    5.714    2.286    5.333    3.810 
#    0.000    0.000    0.000    2.286    0.000    0.000 
#    0.000    0.000    0.000    0.000    0.000    0.000 
#
# Total GULP energy -117035.593050 kJ/mol
# GULP energy per Si atom -5573.123479 kJ/mol
# Density = 1.974542 g / cm^3
# Si number density = 19.790464 Si / 1000 Ang^3
#
#
#
# Elastic Constant Matrix: (Units=GPa)
#
#
# Indices 1 2 3 4 5 6 
#
# 1 96.6176 1.5101 8.4782 0.0000 19.6953 0.0000
# 2 1.5101 84.5711 9.0313 0.0000 11.9869 0.0000
# 3 8.4782 9.0313 50.1971 0.0000 34.5544 0.0000
# 4 0.0000 0.0000 0.0000 20.0657 0.0000 5.7183
# 5 19.6953 11.9869 34.5544 0.0000 33.5683 0.0000
# 6 0.0000 0.0000 0.0000 5.7183 0.0000 24.7811
#
#
#
# Elastic Compliance Matrix: (Units=1/GPa)
#
#
# Indices 1 2 3 4 5 6 
#
# 1 0.013386 0.001378 0.011106 0.000000 -0.019778 0.000000
# 2 0.001378 0.012714 0.003986 0.000000 -0.009452 0.000000
# 3 0.011106 0.003986 0.078222 0.000000 -0.088459 0.000000
# 4 0.000000 0.000000 0.000000 0.053344 0.000000 -0.012309
# 5 -0.019778 -0.009452 -0.088459 0.000000 0.135828 0.000000
# 6 0.000000 0.000000 0.000000 -0.012309 0.000000 0.043194
#
#
# Mechanical properties :
#
#
# Convention : Reuss Voigt Hill
#
# Bulk Modulus (GPa) = 7.28530 29.93611 18.61070
# Shear Modulus (GPa) = 14.30616 29.84076 22.07346
#
# Velocity S-wave (km/s) = 2.69156 3.88730 3.34332
# Velocity P-wave (km/s) = 3.65357 5.94201 4.93234
#
# Compressibility (1/GPa) = 0.13726275
#
# Stress axis : x y z
#
# Youngs Moduli (GPa) = 74.70640 78.65483 12.78416
#
# Poissons Ratio (x) = -0.10841 -0.14198
# Poissons Ratio (y) = -0.10297 -0.05096
# Poissons Ratio (z) = -0.82969 -0.31355
#
# Static dielectric constant tensor:
#      x y z
#    x 1.642280 0.000000 0.008500 
#    y 0.000000 1.659410 0.000000 
#    z 0.008500 0.000000 1.676970 
# 
# From -- ./inp_files/299265.got.cif
#   From: 2010.05.17/outbox.cif.g08.bks.cpg/sg12_150_cif.got.tgz:299265.got - 2010.06.03 13:09:07.
