data_PCOD9215363
_publ_section_title
;
Structure prediction by ZEFSAII (Michael W. Deem and Ramdas Pophale) SiO2 
 PCOD9215363
Probable space group: C 2/M
;
_chemical_formula_sum "Si O2"
_cell_formula_units_Z 64
_cell_length_a 17.079082
_cell_length_b 15.433752
_cell_length_c 23.845243
_cell_angle_alpha 90.000000
_cell_angle_beta 150.695974
_cell_angle_gamma 90.000000
_cell_volume 3076.384124
_symmetry_space_group_name_H-M "C 2/M"
_symmetry_group_IT_number 12
_symmetry_cell_setting 'monoclinic'
loop_
_space_group_symop_operation_xyz
x,y,z
-x,y,-z
-x,-y,-z
x,-y,z
1/2+x,1/2+y,z
1/2-x,1/2+y,-z
1/2-x,1/2-y,-z
1/2+x,1/2-y,z
loop_
_atom_site_type_symbol
_atom_site_label
_atom_site_fract_x
_atom_site_fract_y
_atom_site_fract_z
Si Si1 0.490313 0.401456 0.714768
Si Si2 0.901434 0.279643 0.384389
Si Si3 0.139507 0.595744 0.920325
Si Si4 0.830554 0.175542 0.512162
Si Si5 0.855501 0.639495 0.951370
Si Si6 0.759615 0.900227 0.804544
Si Si7 0.886378 0.728387 0.717577
Si Si8 0.377721 0.657023 0.991735
O O1 0.475555 0.500000 0.728172
O O2 0.388825 0.394053 0.593720
O O3 0.677454 0.382184 0.818652
O O4 0.431100 0.321655 0.717605
O O5 0.857050 0.345299 0.307222
O O6 0.738293 0.244193 0.309756
O O7 0.000000 0.315398 0.500000
O O8 0.014699 0.209357 0.425388
O O9 0.100539 0.500000 0.873667
O O10 0.317872 0.622885 0.013754
O O11 0.035808 0.675257 0.832928
O O12 0.124058 0.593243 0.976915
O O13 0.750000 0.250000 0.500000
O O14 0.698821 0.165926 0.381479
O O15 0.867839 0.741322 0.974080
O O16 0.000000 0.618300 0.000000
O O17 0.758193 0.882777 0.870202
O O18 0.733336 0.000000 0.777010
O O19 0.941957 0.874120 0.903931
#
# Coordination Sequence:
#
# PCOD9215363 Si02
#       8
#     8   8   8   8   8   8   8   8
#     4  11  24  42  68  97 130 172 220 271 329 389
#     4  10  22  41  65  91 127 173 216 266 328 390
#     4  12  26  42  66 100 135 172 218 271 326 390
#     4   9  21  43  67  91 122 167 218 262 320 386
#     4  12  25  44  67  93 133 178 223 267 324 394
#     4  11  22  36  63  98 132 169 217 273 328 396
#     4  10  23  43  67  94 130 171 218 268 328 386
#     4  11  22  42  65  94 131 175 220 263 333 387
#
# _framework density 20.803643999999998
#
# number of rings (size 3 to 8) (size 9 to 14) (size 15 to 20)
#    0.000    1.250    2.500    3.750    5.250    2.250 
#    0.000    5.000    0.000    2.250    0.000    0.000 
#    0.000    0.000    0.000    0.000    0.000    0.000 
#
# Total GULP energy -178668.810413 kJ/mol
# GULP energy per Si atom -5583.400325 kJ/mol
# Density = 2.075629 g / cm^3
# Si number density = 20.803644 Si / 1000 Ang^3
#
#
#
# Elastic Constant Matrix: (Units=GPa)
#
#
# Indices 1 2 3 4 5 6 
#
# 1 114.3975 22.4671 14.5404 -0.0002 10.3873 0.0002
# 2 22.4671 66.3370 7.0203 -0.0023 -3.7362 -0.0003
# 3 14.5404 7.0203 47.1402 -0.0002 -7.0686 0.0006
# 4 -0.0002 -0.0023 -0.0002 11.0833 0.0010 -13.8578
# 5 10.3873 -3.7362 -7.0686 0.0010 32.5248 0.0005
# 6 0.0002 -0.0003 0.0006 -13.8578 0.0005 11.7379
#
#
#
# Elastic Compliance Matrix: (Units=1/GPa)
#
#
# Indices 1 2 3 4 5 6 
#
# 1 0.010217 -0.003357 -0.003307 0.000000 -0.004367 0.000000
# 2 -0.003357 0.016472 -0.001006 -0.000008 0.002746 -0.000009
# 3 -0.003307 -0.001006 0.023283 0.000004 0.006001 0.000004
# 4 0.000000 -0.000008 0.000004 -0.189493 0.000009 -0.223716
# 5 -0.004367 0.002746 0.006001 0.000009 0.033760 0.000009
# 6 0.000000 -0.000009 0.000004 -0.223716 0.000009 -0.178926
#
#
# Mechanical properties :
#
#
# Convention : Reuss Voigt Hill
#
# Bulk Modulus (GPa) = 28.87313 35.10338 31.98825
# Shear Modulus (GPa) = -19.39466 23.32567 1.96551
#
# Velocity S-wave (km/s) = -3.05663 3.35211 0.97306
# Velocity P-wave (km/s) = 1.20488 5.64734 4.08315
#
# Compressibility (1/GPa) = 0.03463428
#
# Stress axis : x y z
#
# Youngs Moduli (GPa) = 97.87150 60.70742 42.95008
#
# Poissons Ratio (x) = 0.20377 0.14202
# Poissons Ratio (y) = 0.32851 0.04321
# Poissons Ratio (z) = 0.32362 0.06108
#
# Static dielectric constant tensor:
#      x y z
#    x 1.753190 0.000010 -0.035780 
#    y 0.000010 1.639940 -0.000020 
#    z -0.035780 -0.000020 1.758580 
# 
# From -- ./inp_files/344091.got.cif
#   From: 2010.05.17/outbox.cif.g08.bks.cpg/sg12_173_cif.got.tgz:344091.got - 2010.06.03 13:09:07.
