data_PCOD9215127
_publ_section_title
;
Structure prediction by ZEFSAII (Michael W. Deem and Ramdas Pophale) SiO2 
 PCOD9215127
Probable space group: C 2/M
;
_chemical_formula_sum "Si O2"
_cell_formula_units_Z 56
_cell_length_a 9.208664
_cell_length_b 18.398850
_cell_length_c 19.107311
_cell_angle_alpha 90.000000
_cell_angle_beta 112.327841
_cell_angle_gamma 90.000000
_cell_volume 2994.611266
_symmetry_space_group_name_H-M "C 2/M"
_symmetry_group_IT_number 12
_symmetry_cell_setting 'monoclinic'
loop_
_space_group_symop_operation_xyz
x,y,z
-x,y,-z
-x,-y,-z
x,-y,z
1/2+x,1/2+y,z
1/2-x,1/2+y,-z
1/2-x,1/2-y,-z
1/2+x,1/2-y,z
loop_
_atom_site_type_symbol
_atom_site_label
_atom_site_fract_x
_atom_site_fract_y
_atom_site_fract_z
Si Si1 0.017344 0.170618 0.924467
Si Si2 0.411250 0.282312 0.555323
Si Si3 0.634264 0.828878 0.075527
Si Si4 0.548343 0.795383 0.712747
Si Si5 0.523999 0.580753 0.344427
Si Si6 0.690705 0.583653 0.224431
Si Si7 0.765321 0.340321 0.759839
O O1 0.199166 0.177529 0.934115
O O2 0.935411 0.250050 0.914215
O O3 0.922224 0.121164 0.852992
O O4 0.000000 0.140550 0.000000
O O5 0.500000 0.296979 0.500000
O O6 0.250000 0.250000 0.500000
O O7 0.497691 0.227125 0.624882
O O8 0.397171 0.357100 0.595022
O O9 0.664290 0.869000 0.154562
O O10 0.500000 0.860373 0.000000
O O11 0.656798 0.866041 0.738070
O O12 0.647952 0.726128 0.757687
O O13 0.397032 0.807783 0.733169
O O14 0.541675 0.500000 0.376529
O O15 0.600013 0.583468 0.281568
O O16 0.341966 0.602322 0.300574
O O17 0.727257 0.500000 0.212783
#
# Coordination Sequence:
#
# PCOD9215127 Si02
#       7
#     8   8   8   8   8   8   8
#     4  11  22  36  58  87 122 157 201 255 306 356
#     4  11  22  39  63  94 120 150 191 246 304 364
#     4  11  21  33  57  93 118 153 196 254 310 340
#     4  11  22  37  62  90 118 154 201 250 298 356
#     4  10  22  41  62  87 120 161 201 240 297 364
#     4  11  23  40  60  83 119 166 210 249 296 357
#     4  11  20  36  63  87 118 158 202 250 295 353
#
# _framework density 18.700256
#
# number of rings (size 3 to 8) (size 9 to 14) (size 15 to 20)
#    0.000    1.143    2.857    6.857    2.000    1.143 
#    0.000    0.714    0.000    3.429    0.000    0.000 
#    0.000    0.000    0.000    0.000    0.000    0.000 
#
# Total GULP energy -156374.200588 kJ/mol
# GULP energy per Si atom -5584.792878 kJ/mol
# Density = 1.865769 g / cm^3
# Si number density = 18.700256 Si / 1000 Ang^3
#
#
#
# Elastic Constant Matrix: (Units=GPa)
#
#
# Indices 1 2 3 4 5 6 
#
# 1 79.8149 32.7190 22.0125 0.0000 2.8256 0.0000
# 2 32.7190 87.1804 32.7543 0.0000 16.8866 0.0000
# 3 22.0125 32.7543 124.4049 0.0000 13.7666 0.0000
# 4 0.0000 0.0000 0.0000 16.5201 0.0000 -5.5576
# 5 2.8256 16.8866 13.7666 0.0000 37.3516 0.0000
# 6 0.0000 0.0000 0.0000 -5.5576 0.0000 5.4239
#
#
#
# Elastic Compliance Matrix: (Units=1/GPa)
#
#
# Indices 1 2 3 4 5 6 
#
# 1 0.015111 -0.005494 -0.001434 0.000000 0.001869 0.000000
# 2 -0.005494 0.015576 -0.002497 0.000000 -0.005706 0.000000
# 3 -0.001434 -0.002497 0.009187 0.000000 -0.002149 0.000000
# 4 0.000000 0.000000 0.000000 0.092374 0.000000 0.094650
# 5 0.001869 -0.005706 -0.002149 0.000000 0.030003 0.000000
# 6 0.000000 0.000000 0.000000 0.094650 0.000000 0.281352
#
#
# Mechanical properties :
#
#
# Convention : Reuss Voigt Hill
#
# Bulk Modulus (GPa) = 47.56825 51.81908 49.69366
# Shear Modulus (GPa) = 10.65049 25.45340 18.05195
#
# Velocity S-wave (km/s) = 2.38909 3.69335 3.11035
# Velocity P-wave (km/s) = 5.75350 6.77925 6.28733
#
# Compressibility (1/GPa) = 0.02102243
#
# Stress axis : x y z
#
# Youngs Moduli (GPa) = 66.17851 64.20130 108.84599
#
# Poissons Ratio (x) = 0.35275 0.15608
# Poissons Ratio (y) = 0.36361 0.27183
# Poissons Ratio (z) = 0.09490 0.16033
#
# Static dielectric constant tensor:
#      x y z
#    x 1.638030 0.000000 0.008990 
#    y 0.000000 1.609210 0.000000 
#    z 0.008990 0.000000 1.674560 
# 
# From -- ./inp_files/257211.got.cif
#   From: 2010.05.17/outbox.cif.g08.bks.cpg/sg12_129_cif.got.tgz:257211.got - 2010.06.03 13:09:07.
