data_PCOD9215118
_publ_section_title
;
Structure prediction by ZEFSAII (Michael W. Deem and Ramdas Pophale) SiO2 
 PCOD9215118
Probable space group: C 2/M
;
_chemical_formula_sum "Si O2"
_cell_formula_units_Z 40
_cell_length_a 7.894233
_cell_length_b 13.631418
_cell_length_c 20.846031
_cell_angle_alpha 90.000000
_cell_angle_beta 138.351475
_cell_angle_gamma 90.000000
_cell_volume 1490.761250
_symmetry_space_group_name_H-M "C 2/M"
_symmetry_group_IT_number 12
_symmetry_cell_setting 'monoclinic'
loop_
_space_group_symop_operation_xyz
x,y,z
-x,y,-z
-x,-y,-z
x,-y,z
1/2+x,1/2+y,z
1/2-x,1/2+y,-z
1/2-x,1/2-y,-z
1/2+x,1/2-y,z
loop_
_atom_site_type_symbol
_atom_site_label
_atom_site_fract_x
_atom_site_fract_y
_atom_site_fract_z
Si Si1 0.451805 0.884117 0.742668
Si Si2 0.980811 0.883200 0.203699
Si Si3 0.481994 0.776383 0.111643
Si Si4 0.145875 0.884031 0.386162
Si Si5 0.704138 0.883919 0.437338
O O1 0.586912 0.833538 0.841736
O O2 0.152436 0.876112 0.679497
O O3 0.440351 0.844262 0.666052
O O4 0.513864 0.000000 0.758021
O O5 0.696173 0.843112 0.138634
O O6 0.067265 0.829058 0.164074
O O7 0.153797 0.853828 0.314057
O O8 0.978785 0.000000 0.197935
O O9 0.250000 0.750000 0.000000
O O10 0.304735 0.845014 0.492053
O O11 0.199858 0.000000 0.400421
O O12 0.000000 0.879984 0.500000
O O13 0.639023 0.000000 0.421749
#
# Coordination Sequence:
#
# PCOD9215118 Si02
#       5
#     8   8   8   8   8
#     4   8  14  26  46  74 108 142 179 228 280 329
#     4  10  22  41  62  85 117 152 187 236 292 340
#     4  11  22  36  57  83 111 150 199 240 281 339
#     4   7  11  23  46  74 104 139 175 216 272 333
#     4   7   9  17  39  71 103 135 172 216 269 328
#
# _framework density 26.831931000000001
#
# number of rings (size 3 to 8) (size 9 to 14) (size 15 to 20)
#    0.000    3.400    0.000    4.800    0.000    2.400 
#    0.000    3.000    0.000    6.000    0.000    0.000 
#    0.000   26.400    0.000    0.000    0.000    0.000 
#
# Total GULP energy -111897.100349 kJ/mol
# GULP energy per Si atom -5594.855017 kJ/mol
# Density = 2.677086 g / cm^3
# Si number density = 26.831931 Si / 1000 Ang^3
#
#
#
# Elastic Constant Matrix: (Units=GPa)
#
#
# Indices 1 2 3 4 5 6 
#
# 1 145.1686 16.3678 54.7673 0.0000 -23.5360 0.0000
# 2 16.3678 161.4334 53.2293 0.0000 -3.5320 0.0000
# 3 54.7673 53.2293 280.8453 0.0001 -10.6747 0.0000
# 4 0.0000 0.0000 0.0001 52.3344 0.0000 -6.5211
# 5 -23.5360 -3.5320 -10.6747 0.0000 37.8536 0.0000
# 6 0.0000 0.0000 0.0000 -6.5211 0.0000 31.5435
#
#
#
# Elastic Compliance Matrix: (Units=1/GPa)
#
#
# Indices 1 2 3 4 5 6 
#
# 1 0.008195 -0.000278 -0.001367 0.000000 0.004684 0.000000
# 2 -0.000278 0.006619 -0.001196 0.000000 0.000108 0.000000
# 3 -0.001367 -0.001196 0.004061 0.000000 0.000183 0.000000
# 4 0.000000 0.000000 0.000000 0.019613 0.000000 0.004055
# 5 0.004684 0.000108 0.000183 0.000000 0.029392 0.000000
# 6 0.000000 0.000000 0.000000 0.004055 0.000000 0.032541
#
#
# Mechanical properties :
#
#
# Convention : Reuss Voigt Hill
#
# Bulk Modulus (GPa) = 75.79845 92.90845 84.35345
# Shear Modulus (GPa) = 45.24828 55.21849 50.23339
#
# Velocity S-wave (km/s) = 4.11099 4.54137 4.33153
# Velocity P-wave (km/s) = 7.13052 7.88670 7.51812
#
# Compressibility (1/GPa) = 0.01319288
#
# Stress axis : x y z
#
# Youngs Moduli (GPa) = 122.02345 151.06917 246.24015
#
# Poissons Ratio (x) = 0.04193 0.33673
# Poissons Ratio (y) = 0.03386 0.29460
# Poissons Ratio (z) = 0.16687 0.18074
#
# Static dielectric constant tensor:
#      x y z
#    x 2.261560 0.000000 0.048330 
#    y 0.000000 2.104950 0.000000 
#    z 0.048330 0.000000 2.054450 
# 
# From -- ./inp_files/335399.got.cif
#   From: 2010.05.17/outbox.cif.g08.bks.cpg/sg12_168_cif.got.tgz:335399.got - 2010.06.03 13:09:07.
