data_PCOD9215679
_publ_section_title
;
Structure prediction by ZEFSAII (Michael W. Deem and Ramdas Pophale) SiO2 
 PCOD9215679
Probable space group: C 2/M
;
_chemical_formula_sum "Si O2"
_cell_formula_units_Z 36
_cell_length_a 15.371756
_cell_length_b 19.444478
_cell_length_c 9.036654
_cell_angle_alpha 90.000000
_cell_angle_beta 146.326400
_cell_angle_gamma 90.000000
_cell_volume 1497.609043
_symmetry_space_group_name_H-M "C 2/M"
_symmetry_group_IT_number 12
_symmetry_cell_setting 'monoclinic'
loop_
_space_group_symop_operation_xyz
x,y,z
-x,y,-z
-x,-y,-z
x,-y,z
1/2+x,1/2+y,z
1/2-x,1/2+y,-z
1/2-x,1/2-y,-z
1/2+x,1/2-y,z
loop_
_atom_site_type_symbol
_atom_site_label
_atom_site_fract_x
_atom_site_fract_y
_atom_site_fract_z
Si Si1 0.320085 0.291995 0.793988
Si Si2 0.325294 0.500000 0.914725
Si Si3 0.160222 0.072961 0.350018
Si Si4 0.827205 0.358097 0.824466
Si Si5 0.664686 0.863945 0.812077
O O1 0.270760 0.360492 0.633842
O O2 0.251461 0.216070 0.672400
O O3 0.289851 0.310289 0.921021
O O4 0.500000 0.285856 0.000000
O O5 0.476402 0.560069 0.108661
O O6 0.214509 0.438910 0.828739
O O7 0.229405 0.080872 0.610801
O O8 0.215416 0.000000 0.341935
O O9 0.840629 0.361359 0.019081
O O10 0.000000 0.362541 0.000000
O O11 0.500000 0.845473 0.500000
#
# Coordination Sequence:
#
# PCOD9215679 Si02
#       5
#     8   4   8   8   8
#     4  10  22  42  62  88 120 166 199 244 305 360
#     4   8  19  36  55  84 120 156 190 242 300 344
#     4   9  20  38  59  88 120 158 201 245 300 351
#     4  11  22  36  63  93 124 156 202 250 302 358
#     4  11  22  39  61  91 123 158 201 249 303 357
#
# _framework density 24.038318
#
# number of rings (size 3 to 8) (size 9 to 14) (size 15 to 20)
#    0.667    1.333    0.000    4.333    1.556    2.667 
#    0.000    1.111    0.000    1.333    0.000    0.000 
#    0.000    0.000    0.000    0.000    0.000    0.000 
#
# Total GULP energy -100201.453288 kJ/mol
# GULP energy per Si atom -5566.747405 kJ/mol
# Density = 2.398361 g / cm^3
# Si number density = 24.038318 Si / 1000 Ang^3
#
#
#
# Elastic Constant Matrix: (Units=GPa)
#
#
# Indices 1 2 3 4 5 6 
#
# 1 176.0680 48.2442 57.9775 0.0000 -31.9867 0.0000
# 2 48.2442 167.8260 47.8719 0.0000 -23.2073 0.0000
# 3 57.9775 47.8719 94.8792 0.0000 -32.1386 0.0000
# 4 0.0000 0.0000 0.0000 24.4845 0.0000 -8.7136
# 5 -31.9867 -23.2073 -32.1386 0.0000 43.6769 0.0000
# 6 0.0000 0.0000 0.0000 -8.7136 0.0000 43.4079
#
#
#
# Elastic Compliance Matrix: (Units=1/GPa)
#
#
# Indices 1 2 3 4 5 6 
#
# 1 0.007457 -0.000858 -0.003234 0.000000 0.002625 0.000000
# 2 -0.000858 0.007132 -0.002669 0.000000 0.001198 0.000000
# 3 -0.003234 -0.002669 0.016756 0.000000 0.008543 0.000000
# 4 0.000000 0.000000 0.000000 0.043984 0.000000 0.008829
# 5 0.002625 0.001198 0.008543 0.000000 0.031740 0.000000
# 6 0.000000 0.000000 0.000000 0.008829 0.000000 0.024810
#
#
# Mechanical properties :
#
#
# Convention : Reuss Voigt Hill
#
# Bulk Modulus (GPa) = 56.10664 82.99557 69.55111
# Shear Modulus (GPa) = 33.03764 41.29251 37.16508
#
# Velocity S-wave (km/s) = 3.71128 4.14911 3.93628
# Velocity P-wave (km/s) = 6.46188 7.58649 7.04666
#
# Compressibility (1/GPa) = 0.01782320
#
# Stress axis : x y z
#
# Youngs Moduli (GPa) = 134.10798 140.21341 59.67841
#
# Poissons Ratio (x) = 0.12029 0.19303
# Poissons Ratio (y) = 0.11505 0.15926
# Poissons Ratio (z) = 0.43377 0.37417
#
# Static dielectric constant tensor:
#      x y z
#    x 1.936280 0.000000 -0.090170 
#    y 0.000000 2.052500 0.000000 
#    z -0.090170 0.000000 1.969430 
# 
# From -- ./inp_files/64155.got.cif
#   From: 2010.05.17/outbox.cif.g08.bks.cpg/sg12_33_cif.got.tgz:64155.got - 2010.06.03 13:09:07.
