data_PCOD9215376
_publ_section_title
;
Structure prediction by ZEFSAII (Michael W. Deem and Ramdas Pophale) SiO2 
 PCOD9215376
Probable space group: C 2/M
;
_chemical_formula_sum "Si O2"
_cell_formula_units_Z 56
_cell_length_a 18.079781
_cell_length_b 14.558248
_cell_length_c 21.703738
_cell_angle_alpha 90.000000
_cell_angle_beta 149.130571
_cell_angle_gamma 90.000000
_cell_volume 2931.060179
_symmetry_space_group_name_H-M "C 2/M"
_symmetry_group_IT_number 12
_symmetry_cell_setting 'monoclinic'
loop_
_space_group_symop_operation_xyz
x,y,z
-x,y,-z
-x,-y,-z
x,-y,z
1/2+x,1/2+y,z
1/2-x,1/2+y,-z
1/2-x,1/2-y,-z
1/2+x,1/2-y,z
loop_
_atom_site_type_symbol
_atom_site_label
_atom_site_fract_x
_atom_site_fract_y
_atom_site_fract_z
Si Si1 0.704632 0.816557 0.411620
Si Si2 0.628459 0.107783 0.015388
Si Si3 0.497822 0.602764 0.572711
Si Si4 0.895338 0.395676 0.221584
Si Si5 0.758166 0.760432 0.207419
Si Si6 0.331209 0.603993 0.048785
Si Si7 0.928007 0.253252 0.809031
O O1 0.750000 0.750000 0.500000
O O2 0.840458 0.877799 0.488214
O O3 0.562047 0.871359 0.330157
O O4 0.657353 0.763609 0.315624
O O5 0.657313 0.173533 0.093844
O O6 0.771334 0.116065 0.074837
O O7 0.606005 0.000000 0.013117
O O8 0.499044 0.150669 0.882436
O O9 0.500000 0.608518 0.500000
O O10 0.545100 0.500000 0.623851
O O11 0.608180 0.677151 0.676717
O O12 0.881643 0.500000 0.234235
O O13 0.819097 0.323515 0.211678
O O14 0.807396 0.388895 0.094743
O O15 0.674013 0.726053 0.207360
O O16 0.389030 0.500000 0.083756
O O17 0.444803 0.680509 0.110897
#
# Coordination Sequence:
#
# PCOD9215376 Si02
#       7
#     8   8   8   8   8   8   8
#     4  12  24  42  69  91 124 167 218 269 313 376
#     4  11  23  39  63  96 131 168 209 263 325 385
#     4  11  24  43  65  91 128 171 212 259 318 380
#     4  11  23  42  68  93 123 169 217 259 313 376
#     4  12  24  41  63  94 134 168 209 267 315 384
#     4  10  22  41  65  92 126 166 212 261 313 378
#     4  12  24  40  64  93 130 167 209 263 327 375
#
# _framework density 19.105713999999999
#
# number of rings (size 3 to 8) (size 9 to 14) (size 15 to 20)
#    0.000    0.714    5.714    2.571    0.000    2.857 
#    0.000    2.143    0.000    1.286    0.000    0.000 
#    0.000    0.000    0.000    0.000    0.000    0.000 
#
# Total GULP energy -156546.159887 kJ/mol
# GULP energy per Si atom -5590.934282 kJ/mol
# Density = 1.906223 g / cm^3
# Si number density = 19.105714 Si / 1000 Ang^3
#
#
#
# Elastic Constant Matrix: (Units=GPa)
#
#
# Indices 1 2 3 4 5 6 
#
# 1 119.2664 50.3091 25.6021 0.0006 -0.7912 0.0001
# 2 50.3091 95.3243 24.5628 0.0010 -7.7624 0.0001
# 3 25.6021 24.5628 69.9001 0.0017 -9.2035 0.0004
# 4 0.0006 0.0010 0.0017 -1.3888 0.0010 -1.1887
# 5 -0.7912 -7.7624 -9.2035 0.0010 34.3928 0.0002
# 6 0.0001 0.0001 0.0004 -1.1887 0.0002 2.4691
#
#
#
# Elastic Compliance Matrix: (Units=1/GPa)
#
#
# Indices 1 2 3 4 5 6 
#
# 1 0.011171 -0.005407 -0.002403 -0.000003 -0.001606 -0.000001
# 2 -0.005407 0.014235 -0.002711 0.000005 0.002363 0.000002
# 3 -0.002403 -0.002711 0.016637 0.000016 0.003785 0.000005
# 4 -0.000003 0.000005 0.000016 -0.509929 0.000021 -0.245499
# 5 -0.001606 0.002363 0.003785 0.000021 0.030585 0.000007
# 6 -0.000001 0.000002 0.000005 -0.245499 0.000007 0.286819
#
#
# Mechanical properties :
#
#
# Convention : Reuss Voigt Hill
#
# Bulk Modulus (GPa) = 47.61549 53.93764 50.77656
# Shear Modulus (GPa) = -40.83633 19.36241 -10.73696
#
# Velocity S-wave (km/s) = -4.62821 3.18690 -2.37318
# Velocity P-wave (km/s) = 1.89319 6.46794 4.37322
#
# Compressibility (1/GPa) = 0.02100157
#
# Stress axis : x y z
#
# Youngs Moduli (GPa) = 89.52080 70.24884 60.10676
#
# Poissons Ratio (x) = 0.37985 0.14443
# Poissons Ratio (y) = 0.48405 0.16293
# Poissons Ratio (z) = 0.21511 0.19042
#
# Static dielectric constant tensor:
#      x y z
#    x 1.669080 0.000000 -0.009450 
#    y 0.000000 1.643840 0.000000 
#    z -0.009450 0.000000 1.661160 
# 
# From -- ./inp_files/316696.got.cif
#   From: 2010.05.17/outbox.cif.g08.bks.cpg/sg12_159_cif.got.tgz:316696.got - 2010.06.03 13:09:07.
