data_PCOD9215539
_publ_section_title
;
Structure prediction by ZEFSAII (Michael W. Deem and Ramdas Pophale) SiO2 
 PCOD9215539
Probable space group: C 2/M
;
_chemical_formula_sum "Si O2"
_cell_formula_units_Z 64
_cell_length_a 13.495056
_cell_length_b 17.440157
_cell_length_c 16.806109
_cell_angle_alpha 90.000000
_cell_angle_beta 133.357958
_cell_angle_gamma 90.000000
_cell_volume 2875.899092
_symmetry_space_group_name_H-M "C 2/M"
_symmetry_group_IT_number 12
_symmetry_cell_setting 'monoclinic'
loop_
_space_group_symop_operation_xyz
x,y,z
-x,y,-z
-x,-y,-z
x,-y,z
1/2+x,1/2+y,z
1/2-x,1/2+y,-z
1/2-x,1/2-y,-z
1/2+x,1/2-y,z
loop_
_atom_site_type_symbol
_atom_site_label
_atom_site_fract_x
_atom_site_fract_y
_atom_site_fract_z
Si Si1 0.297504 0.709692 0.943450
Si Si2 0.121557 0.802205 0.505076
Si Si3 0.098529 0.083962 0.353860
Si Si4 0.841503 0.626517 0.907776
Si Si5 0.102628 0.912909 0.899057
Si Si6 0.693886 0.913034 0.289860
Si Si7 0.422977 0.913368 0.227151
Si Si8 0.597962 0.125810 0.478627
O O1 0.338328 0.780692 0.911332
O O2 0.182056 0.655923 0.840907
O O3 0.250000 0.750000 0.000000
O O4 0.405559 0.648253 0.035102
O O5 0.071787 0.851382 0.403347
O O6 0.238441 0.850054 0.615251
O O7 0.145300 0.714286 0.494795
O O8 0.000000 0.798579 0.500000
O O9 0.260637 0.082587 0.431447
O O10 0.019125 0.101015 0.229573
O O11 0.052379 0.000000 0.356683
O O12 0.743008 0.596843 0.924504
O O13 0.781611 0.601245 0.789673
O O14 0.000000 0.601645 0.000000
O O15 0.096423 0.000000 0.924018
O O16 0.531849 0.908791 0.215595
O O17 0.737633 0.000000 0.336160
O O18 0.513328 0.902171 0.356058
O O19 0.364012 0.000000 0.195074
O O20 0.500000 0.118829 0.500000
#
# Coordination Sequence:
#
# PCOD9215539 Si02
#       8
#     8   8   8   8   8   8   8   8
#     4  10  23  40  65  91 129 169 214 271 326 392
#     4  11  24  38  61  96 134 175 217 270 336 403
#     4  11  23  42  67  97 138 178 220 277 338 405
#     4  11  24  40  64  99 133 174 221 278 336 404
#     4  10  22  41  67  96 132 177 221 269 334 400
#     4  11  23  39  64  96 132 169 216 273 335 403
#     4  11  24  44  70  97 129 173 226 279 335 396
#     4  11  26  43  69  99 132 179 232 281 332 397
#
# _framework density 22.253910999999999
#
# number of rings (size 3 to 8) (size 9 to 14) (size 15 to 20)
#    0.000    1.250    1.250    4.125    7.000    6.000 
#    0.000    0.000    0.000    0.750    0.000    0.000 
#    0.000    0.000    0.000    0.000    0.000    0.000 
#
# Total GULP energy -178946.402056 kJ/mol
# GULP energy per Si atom -5592.075064 kJ/mol
# Density = 2.220326 g / cm^3
# Si number density = 22.253911 Si / 1000 Ang^3
#
#
#
# Elastic Constant Matrix: (Units=GPa)
#
#
# Indices 1 2 3 4 5 6 
#
# 1 36.8781 4.4732 -2.8709 0.0000 -6.0499 0.0000
# 2 4.4732 120.5099 39.0920 0.0000 -0.9968 0.0000
# 3 -2.8709 39.0920 106.4502 0.0000 12.2008 0.0000
# 4 0.0000 0.0000 0.0000 23.8808 0.0000 -28.2010
# 5 -6.0499 -0.9968 12.2008 0.0000 24.5554 0.0000
# 6 0.0000 0.0000 0.0000 -28.2010 0.0000 12.4919
#
#
#
# Elastic Compliance Matrix: (Units=1/GPa)
#
#
# Indices 1 2 3 4 5 6 
#
# 1 0.028392 -0.001130 0.000408 0.000000 0.006747 0.000000
# 2 -0.001130 0.009582 -0.003777 0.000000 0.001987 0.000000
# 3 0.000408 -0.003777 0.011450 0.000000 -0.005742 0.000000
# 4 0.000000 0.000000 0.000000 -0.025135 0.000000 -0.056745
# 5 0.006747 0.001987 -0.005742 0.000000 0.045320 0.000000
# 6 0.000000 0.000000 0.000000 -0.056745 0.000000 -0.048052
#
#
# Mechanical properties :
#
#
# Convention : Reuss Voigt Hill
#
# Bulk Modulus (GPa) = 24.73748 38.35854 31.54801
# Shear Modulus (GPa) = 113.55597 27.06190 70.30893
#
# Velocity S-wave (km/s) = 7.15110 3.49098 5.62695
# Velocity P-wave (km/s) = 8.90643 5.78994 7.51158
#
# Compressibility (1/GPa) = 0.04042449
#
# Stress axis : x y z
#
# Youngs Moduli (GPa) = 35.22114 104.36610 87.33471
#
# Poissons Ratio (x) = 0.11796 -0.03559
# Poissons Ratio (y) = 0.03981 0.32986
# Poissons Ratio (z) = -0.01435 0.39418
#
# Static dielectric constant tensor:
#      x y z
#    x 1.830580 0.000000 0.019170 
#    y 0.000000 1.813750 0.000000 
#    z 0.019170 0.000000 1.798400 
# 
# From -- ./inp_files/271770.got.cif
#   From: 2010.05.17/outbox.cif.g08.bks.cpg/sg12_136_cif.got.tgz:271770.got - 2010.06.03 13:09:07.
