data_PCOD9215206
_publ_section_title
;
Structure prediction by ZEFSAII (Michael W. Deem and Ramdas Pophale) SiO2 
 PCOD9215206
Probable space group: C 2/M
;
_chemical_formula_sum "Si O2"
_cell_formula_units_Z 56
_cell_length_a 20.657986
_cell_length_b 22.478631
_cell_length_c 18.458964
_cell_angle_alpha 90.000000
_cell_angle_beta 161.537778
_cell_angle_gamma 90.000000
_cell_volume 2714.468770
_symmetry_space_group_name_H-M "C 2/M"
_symmetry_group_IT_number 12
_symmetry_cell_setting 'monoclinic'
loop_
_space_group_symop_operation_xyz
x,y,z
-x,y,-z
-x,-y,-z
x,-y,z
1/2+x,1/2+y,z
1/2-x,1/2+y,-z
1/2-x,1/2-y,-z
1/2+x,1/2-y,z
loop_
_atom_site_type_symbol
_atom_site_label
_atom_site_fract_x
_atom_site_fract_y
_atom_site_fract_z
Si Si1 0.598116 0.235899 0.028459
Si Si2 0.189108 0.769642 0.514889
Si Si3 0.937379 0.320932 0.348665
Si Si4 0.002440 0.104564 0.304999
Si Si5 0.964207 0.431653 0.802175
Si Si6 0.366509 0.929592 0.172520
Si Si7 0.302755 0.613094 0.244428
O O1 0.715674 0.288718 0.112883
O O2 0.763074 0.183253 0.214940
O O3 0.500000 0.255814 0.000000
O O4 0.404569 0.211151 0.778987
O O5 0.250000 0.750000 0.500000
O O6 0.037819 0.824755 0.343809
O O7 0.086653 0.720147 0.457857
O O8 0.927950 0.385981 0.302823
O O9 0.000000 0.321695 0.500000
O O10 0.222052 0.075834 0.548735
O O11 0.871305 0.094116 0.237215
O O12 0.873253 0.080400 0.100736
O O13 0.021964 0.500000 0.856918
O O14 0.022259 0.406396 0.783483
O O15 0.071137 0.410809 0.990764
O O16 0.406654 0.000000 0.227106
O O17 0.500000 0.594526 0.500000
#
# Coordination Sequence:
#
# PCOD9215206 Si02
#       7
#     8   8   8   8   8   8   8
#     4  12  23  41  63  94 135 175 211 264 339 405
#     4  12  24  37  65 100 131 167 215 272 336 403
#     4  12  25  43  66 100 137 174 220 277 338 403
#     4  11  21  40  64  92 126 168 217 273 331 390
#     4  10  22  41  63  89 125 173 222 271 325 388
#     4  10  24  44  67  93 127 171 225 279 327 390
#     4  11  23  37  60  92 129 171 215 265 332 396
#
# _framework density 20.630186999999999
#
# number of rings (size 3 to 8) (size 9 to 14) (size 15 to 20)
#    0.000    0.857    4.286    3.429    2.000    2.286 
#    0.000    0.714    0.000    0.429    0.000    0.000 
#    0.000    0.000    0.000    0.000    0.000    0.000 
#
# Total GULP energy -156126.788085 kJ/mol
# GULP energy per Si atom -5575.956717 kJ/mol
# Density = 2.058323 g / cm^3
# Si number density = 20.630187 Si / 1000 Ang^3
#
#
#
# Elastic Constant Matrix: (Units=GPa)
#
#
# Indices 1 2 3 4 5 6 
#
# 1 95.6185 25.0338 24.5534 -0.0004 -9.6418 -0.0001
# 2 25.0338 77.9109 8.6883 0.0004 -9.7646 0.0002
# 3 24.5534 8.6883 58.0514 -0.0018 6.2864 -0.0010
# 4 -0.0004 0.0004 -0.0018 20.0710 -0.0009 1.1762
# 5 -9.6418 -9.7646 6.2864 -0.0009 25.5459 -0.0005
# 6 -0.0001 0.0002 -0.0010 1.1762 -0.0005 23.7993
#
#
#
# Elastic Compliance Matrix: (Units=1/GPa)
#
#
# Indices 1 2 3 4 5 6 
#
# 1 0.013234 -0.002952 -0.005727 0.000000 0.005276 0.000000
# 2 -0.002952 0.014547 -0.001449 0.000000 0.004803 0.000000
# 3 -0.005727 -0.001449 0.020711 0.000001 -0.007812 0.000001
# 4 0.000000 0.000000 0.000001 0.049968 0.000001 -0.002470
# 5 0.005276 0.004803 -0.007812 0.000001 0.044895 0.000001
# 6 0.000000 0.000000 0.000001 -0.002470 0.000001 0.042140
#
#
# Mechanical properties :
#
#
# Convention : Reuss Voigt Hill
#
# Bulk Modulus (GPa) = 35.41498 38.68131 37.04814
# Shear Modulus (GPa) = 23.23832 25.43694 24.33763
#
# Velocity S-wave (km/s) = 3.35986 3.51521 3.43842
# Velocity P-wave (km/s) = 5.67939 5.93854 5.81041
#
# Compressibility (1/GPa) = 0.02823664
#
# Stress axis : x y z
#
# Youngs Moduli (GPa) = 75.56479 68.74143 48.28343
#
# Poissons Ratio (x) = 0.20295 0.27651
# Poissons Ratio (y) = 0.22309 0.06994
# Poissons Ratio (z) = 0.43274 0.09958
#
# Static dielectric constant tensor:
#      x y z
#    x 1.700210 0.000000 -0.060990 
#    y 0.000000 1.759120 0.000000 
#    z -0.060990 0.000000 1.726600 
# 
# From -- ./inp_files/286060.got.cif
#   From: 2010.05.17/outbox.cif.g08.bks.cpg/sg12_144_cif.got.tgz:286060.got - 2010.06.03 13:09:07.
