data_PCOD9215764
_publ_section_title
;
Structure prediction by ZEFSAII (Michael W. Deem and Ramdas Pophale) SiO2 
 PCOD9215764
Probable space group: C 2/M
;
_chemical_formula_sum "Si O2"
_cell_formula_units_Z 36
_cell_length_a 14.994402
_cell_length_b 7.312593
_cell_length_c 19.531731
_cell_angle_alpha 90.000000
_cell_angle_beta 37.766678
_cell_angle_gamma 90.000000
_cell_volume 1311.626224
_symmetry_space_group_name_H-M "C 2/M"
_symmetry_group_IT_number 12
_symmetry_cell_setting 'monoclinic'
loop_
_space_group_symop_operation_xyz
x,y,z
-x,y,-z
-x,-y,-z
x,-y,z
1/2+x,1/2+y,z
1/2-x,1/2+y,-z
1/2-x,1/2-y,-z
1/2+x,1/2-y,z
loop_
_atom_site_type_symbol
_atom_site_label
_atom_site_fract_x
_atom_site_fract_y
_atom_site_fract_z
Si Si1 0.156628 0.214607 0.922349
Si Si2 0.079671 0.283238 0.596863
Si Si3 0.792495 0.279220 0.261067
Si Si4 0.926132 0.721015 0.832915
Si Si5 0.000000 0.249032 0.500000
O O1 0.234708 0.231477 0.801319
O O2 0.261352 0.289144 0.918576
O O3 0.136495 0.000000 0.949132
O O4 0.000000 0.298773 0.000000
O O5 0.052489 0.500000 0.601180
O O6 0.250000 0.250000 0.500000
O O7 0.023348 0.183486 0.563438
O O8 0.007681 0.233161 0.712314
O O9 0.784743 0.500000 0.276326
O O10 0.668811 0.191236 0.383850
O O11 0.957897 0.220200 0.180096
O O12 0.917589 0.500000 0.842340
#
# Coordination Sequence:
#
# PCOD9215764 Si02
#       5
#     8   8   8   8   4
#     4  10  22  42  65  86 114 155 201 246 295 353
#     4  11  22  37  58  86 122 159 196 241 293 351
#     4  11  23  38  60  88 121 157 195 243 296 352
#     4   9  19  38  57  82 119 156 188 237 301 347
#     4  12  22  36  60  92 120 160 200 238 288 356
#
# _framework density 27.446845
#
# number of rings (size 3 to 8) (size 9 to 14) (size 15 to 20)
#    0.000    1.556    4.444    0.667    0.000    3.111 
#    0.000    1.111    0.000    0.000    0.000    0.000 
#    0.000    0.000    0.000    0.000    0.000    0.000 
#
# Total GULP energy -100485.778532 kJ/mol
# GULP energy per Si atom -5582.543252 kJ/mol
# Density = 2.738437 g / cm^3
# Si number density = 27.446845 Si / 1000 Ang^3
#
#
#
# Elastic Constant Matrix: (Units=GPa)
#
#
# Indices 1 2 3 4 5 6 
#
# 1 236.2959 10.1507 24.9182 0.0000 -27.5672 0.0000
# 2 10.1507 152.6145 3.5847 0.0000 -2.6440 0.0000
# 3 24.9182 3.5847 110.2329 0.0000 -25.9341 0.0000
# 4 0.0000 0.0000 0.0000 -66.5658 0.0000 2.3116
# 5 -27.5672 -2.6440 -25.9341 0.0000 80.1773 0.0000
# 6 0.0000 0.0000 0.0000 2.3116 0.0000 -13.9456
#
#
#
# Elastic Compliance Matrix: (Units=1/GPa)
#
#
# Indices 1 2 3 4 5 6 
#
# 1 0.004468 -0.000258 -0.000695 0.000000 0.001303 0.000000
# 2 -0.000258 0.006574 -0.000136 0.000000 0.000084 0.000000
# 3 -0.000695 -0.000136 0.009932 0.000000 0.002969 0.000000
# 4 0.000000 0.000000 0.000000 -0.015110 0.000000 -0.002505
# 5 0.001303 0.000084 0.002969 0.000000 0.013884 0.000000
# 6 0.000000 0.000000 0.000000 -0.002505 0.000000 -0.072123
#
#
# Mechanical properties :
#
#
# Convention : Reuss Voigt Hill
#
# Bulk Modulus (GPa) = 53.20179 64.05003 58.62591
# Shear Modulus (GPa) = -113.81552 30.63250 -41.59151
#
# Velocity S-wave (km/s) = -6.44652 3.34438 -3.89697
# Velocity P-wave (km/s) = 5.99871 6.18869 1.07595
#
# Compressibility (1/GPa) = 0.01879636
#
# Stress axis : x y z
#
# Youngs Moduli (GPa) = 223.79409 152.10787 100.68706
#
# Poissons Ratio (x) = 0.03929 0.06999
# Poissons Ratio (y) = 0.05781 0.01365
# Poissons Ratio (z) = 0.15557 0.02063
#
# Static dielectric constant tensor:
#      x y z
#    x 2.087050 0.000000 -0.080620 
#    y 0.000000 2.166000 0.000000 
#    z -0.080620 0.000000 2.175790 
# 
# From -- ./inp_files/308850.got.cif
#   From: 2010.05.17/outbox.cif.g08.bks.cpg/sg12_155_cif.got.tgz:308850.got - 2010.06.03 13:09:07.
