data_PCOD9215195
_publ_section_title
;
Structure prediction by ZEFSAII (Michael W. Deem and Ramdas Pophale) SiO2 
 PCOD9215195
Probable space group: C 2/M
;
_chemical_formula_sum "Si O2"
_cell_formula_units_Z 48
_cell_length_a 9.373047
_cell_length_b 13.429753
_cell_length_c 23.355185
_cell_angle_alpha 90.000000
_cell_angle_beta 45.231459
_cell_angle_gamma 90.000000
_cell_volume 2087.202058
_symmetry_space_group_name_H-M "C 2/M"
_symmetry_group_IT_number 12
_symmetry_cell_setting 'monoclinic'
loop_
_space_group_symop_operation_xyz
x,y,z
-x,y,-z
-x,-y,-z
x,-y,z
1/2+x,1/2+y,z
1/2-x,1/2+y,-z
1/2-x,1/2-y,-z
1/2+x,1/2-y,z
loop_
_atom_site_type_symbol
_atom_site_label
_atom_site_fract_x
_atom_site_fract_y
_atom_site_fract_z
Si Si1 0.886572 0.378295 0.869561
Si Si2 0.234275 0.881626 0.675631
Si Si3 0.199539 0.621350 0.976386
Si Si4 0.479318 0.280274 0.444104
Si Si5 0.844768 0.119383 0.718191
Si Si6 0.646227 0.378951 0.825998
O O1 0.882920 0.500000 0.869012
O O2 0.753585 0.343819 0.853469
O O3 0.118852 0.347993 0.796420
O O4 0.805325 0.351942 0.955210
O O5 0.387562 0.819937 0.594274
O O6 0.261787 0.855520 0.734672
O O7 0.009126 0.854343 0.719720
O O8 0.259324 0.000000 0.661637
O O9 0.193260 0.500000 0.975567
O O10 0.412798 0.650771 0.889344
O O11 0.000000 0.656716 0.000000
O O12 0.500000 0.330871 0.500000
O O13 0.250000 0.250000 0.500000
O O14 0.570628 0.343056 0.366217
O O15 0.837660 0.000000 0.718343
O O16 0.644710 0.500000 0.828819
#
# Coordination Sequence:
#
# PCOD9215195 Si02
#       6
#     8   8   8   8   8   8
#     4   9  17  29  50  82 118 155 199 248 294 343
#     4  10  22  41  64  88 121 162 201 243 300 365
#     4   9  15  25  45  76 117 160 201 242 287 347
#     4  12  26  44  65  92 120 153 199 251 308 366
#     4  10  22  41  63  89 122 160 200 246 301 361
#     4   9  17  29  50  82 117 156 200 246 294 345
#
# _framework density 22.997294
#
# number of rings (size 3 to 8) (size 9 to 14) (size 15 to 20)
#    0.000    2.167    1.667    1.500    2.333    7.333 
#    0.000    0.000    0.000    1.000    0.000    0.000 
#    0.000    0.000    0.000    0.000    0.000    0.000 
#
# Total GULP energy -134343.868792 kJ/mol
# GULP energy per Si atom -5597.661200 kJ/mol
# Density = 2.294495 g / cm^3
# Si number density = 22.997294 Si / 1000 Ang^3
#
#
#
# Elastic Constant Matrix: (Units=GPa)
#
#
# Indices 1 2 3 4 5 6 
#
# 1 124.6653 -0.5302 44.4573 -0.0001 2.9841 0.0001
# 2 -0.5302 56.8161 2.7902 -0.0001 -4.8026 0.0001
# 3 44.4573 2.7902 128.2108 -0.0003 1.3948 0.0002
# 4 -0.0001 -0.0001 -0.0003 36.5678 0.0001 0.3086
# 5 2.9841 -4.8026 1.3948 0.0001 48.3273 -0.0001
# 6 0.0001 0.0001 0.0002 0.3086 -0.0001 19.5193
#
#
#
# Elastic Compliance Matrix: (Units=1/GPa)
#
#
# Indices 1 2 3 4 5 6 
#
# 1 0.009167 0.000203 -0.003178 0.000000 -0.000454 0.000000
# 2 0.000203 0.017775 -0.000477 0.000000 0.001768 0.000000
# 3 -0.003178 -0.000477 0.008913 0.000000 -0.000108 0.000000
# 4 0.000000 0.000000 0.000000 0.027350 0.000000 -0.000432
# 5 -0.000454 0.001768 -0.000108 0.000000 0.020899 0.000000
# 6 0.000000 0.000000 0.000000 -0.000432 0.000000 0.051238
#
#
# Mechanical properties :
#
#
# Convention : Reuss Voigt Hill
#
# Bulk Modulus (GPa) = 34.53938 44.79188 39.66563
# Shear Modulus (GPa) = 32.91729 38.41453 35.66591
#
# Velocity S-wave (km/s) = 3.78743 4.09148 3.94239
# Velocity P-wave (km/s) = 5.84617 6.46835 6.16511
#
# Compressibility (1/GPa) = 0.02895246
#
# Stress axis : x y z
#
# Youngs Moduli (GPa) = 109.09251 56.25762 112.19338
#
# Poissons Ratio (x) = -0.01143 0.35655
# Poissons Ratio (y) = -0.02217 0.05346
# Poissons Ratio (z) = 0.34670 0.02681
#
# Static dielectric constant tensor:
#      x y z
#    x 1.826950 0.000000 0.005900 
#    y 0.000000 1.917990 0.000000 
#    z 0.005900 0.000000 1.771560 
# 
# From -- ./inp_files/256725.got.cif
#   From: 2010.05.17/outbox.cif.g08.bks.cpg/sg12_129_cif.got.tgz:256725.got - 2010.06.03 13:09:07.
