data_PCOD9215097
_publ_section_title
;
Structure prediction by ZEFSAII (Michael W. Deem and Ramdas Pophale) SiO2 
 PCOD9215097
Probable space group: C 2/M
;
_chemical_formula_sum "Si O2"
_cell_formula_units_Z 56
_cell_length_a 8.986702
_cell_length_b 17.998150
_cell_length_c 27.814702
_cell_angle_alpha 90.000000
_cell_angle_beta 38.138862
_cell_angle_gamma 90.000000
_cell_volume 2778.359563
_symmetry_space_group_name_H-M "C 2/M"
_symmetry_group_IT_number 12
_symmetry_cell_setting 'monoclinic'
loop_
_space_group_symop_operation_xyz
x,y,z
-x,y,-z
-x,-y,-z
x,-y,z
1/2+x,1/2+y,z
1/2-x,1/2+y,-z
1/2-x,1/2-y,-z
1/2+x,1/2-y,z
loop_
_atom_site_type_symbol
_atom_site_label
_atom_site_fract_x
_atom_site_fract_y
_atom_site_fract_z
Si Si1 0.478423 0.696225 0.449081
Si Si2 0.632784 0.304381 0.790826
Si Si3 0.786969 0.087262 0.421137
Si Si4 0.365282 0.083956 0.983998
Si Si5 0.708970 0.584302 0.851160
Si Si6 0.713772 0.190416 0.080995
Si Si7 0.077878 0.199899 0.693802
O O1 0.500000 0.679660 0.500000
O O2 0.250000 0.750000 0.500000
O O3 0.425678 0.624642 0.430300
O O4 0.709504 0.741276 0.371566
O O5 0.732191 0.375120 0.794250
O O6 0.410269 0.268588 0.876543
O O7 0.569851 0.319608 0.751930
O O8 0.833395 0.240429 0.741231
O O9 0.500000 0.101089 0.500000
O O10 0.872425 0.129137 0.351727
O O11 0.827071 0.000000 0.408614
O O12 0.401475 0.147696 0.935170
O O13 0.435719 0.000000 0.949259
O O14 0.500000 0.096959 0.000000
O O15 0.077775 0.081198 0.065403
O O16 0.801328 0.500000 0.828953
O O17 0.817883 0.637160 0.864573
O O18 0.000000 0.198946 0.000000
#
# Coordination Sequence:
#
# PCOD9215097 Si02
#       7
#     8   8   8   8   8   8   8
#     4  12  20  40  73  99 126 176 214 255 311 386
#     4  12  25  40  63  96 124 171 217 268 323 386
#     4  11  24  43  69 104 137 170 216 266 315 377
#     4   9  19  35  60  89 119 158 211 272 328 382
#     4  10  22  41  61  86 120 163 212 264 325 385
#     4  10  22  41  63  88 122 170 218 272 321 386
#     4  12  23  42  65  95 132 170 211 258 322 387
#
# _framework density 20.15578
#
# number of rings (size 3 to 8) (size 9 to 14) (size 15 to 20)
#    0.000    1.143    5.714    0.429    2.000    5.429 
#    0.000    3.571    0.000    0.000    0.000    0.000 
#    0.000    0.000    0.000    0.000    0.000    0.000 
#
# Total GULP energy -156636.282664 kJ/mol
# GULP energy per Si atom -5594.152952 kJ/mol
# Density = 2.010990 g / cm^3
# Si number density = 20.155780 Si / 1000 Ang^3
#
#
#
# Elastic Constant Matrix: (Units=GPa)
#
#
# Indices 1 2 3 4 5 6 
#
# 1 104.3263 30.9152 21.2376 -0.0006 27.2950 0.0022
# 2 30.9152 104.3934 31.2495 0.0012 13.5730 0.0018
# 3 21.2376 31.2495 58.6182 0.0064 13.7852 -0.0026
# 4 -0.0006 0.0012 0.0064 15.1214 -0.0021 8.8138
# 5 27.2950 13.5730 13.7852 -0.0021 41.3918 0.0001
# 6 0.0022 0.0018 -0.0026 8.8138 0.0001 25.3427
#
#
#
# Elastic Compliance Matrix: (Units=1/GPa)
#
#
# Indices 1 2 3 4 5 6 
#
# 1 0.012398 -0.002281 -0.001659 0.000001 -0.006875 -0.000002
# 2 -0.002281 0.011951 -0.005400 0.000002 -0.000616 -0.000002
# 3 -0.001659 -0.005400 0.021554 -0.000014 -0.004314 0.000008
# 4 0.000001 0.000002 -0.000014 0.082945 0.000007 -0.028847
# 5 -0.006875 -0.000616 -0.004314 0.000007 0.030332 -0.000002
# 6 -0.000002 -0.000002 0.000008 -0.028847 -0.000002 0.049492
#
#
# Mechanical properties :
#
#
# Convention : Reuss Voigt Hill
#
# Bulk Modulus (GPa) = 36.73363 48.23805 42.48584
# Shear Modulus (GPa) = 21.14834 28.63356 24.89095
#
# Velocity S-wave (km/s) = 3.24272 3.77319 3.51797
# Velocity P-wave (km/s) = 5.68196 6.55494 6.13400
#
# Compressibility (1/GPa) = 0.02722301
#
# Stress axis : x y z
#
# Youngs Moduli (GPa) = 80.66046 83.67360 46.39576
#
# Poissons Ratio (x) = 0.19086 0.07697
# Poissons Ratio (y) = 0.18399 0.25053
# Poissons Ratio (z) = 0.13381 0.45182
#
# Static dielectric constant tensor:
#      x y z
#    x 1.700710 0.000000 -0.008770 
#    y 0.000000 1.698240 0.000000 
#    z -0.008770 0.000000 1.719710 
# 
# From -- ./inp_files/356687.got.cif
#   From: 2010.05.17/outbox.cif.g08.bks.cpg/sg12_179_cif.got.tgz:356687.got - 2010.06.03 13:09:07.
