data_PCOD9215695
_publ_section_title
;
Structure prediction by ZEFSAII (Michael W. Deem and Ramdas Pophale) SiO2 
 PCOD9215695
Probable space group: C 2/M
;
_chemical_formula_sum "Si O2"
_cell_formula_units_Z 56
_cell_length_a 8.262006
_cell_length_b 13.860480
_cell_length_c 22.201049
_cell_angle_alpha 90.000000
_cell_angle_beta 66.116561
_cell_angle_gamma 90.000000
_cell_volume 2324.661512
_symmetry_space_group_name_H-M "C 2/M"
_symmetry_group_IT_number 12
_symmetry_cell_setting 'monoclinic'
loop_
_space_group_symop_operation_xyz
x,y,z
-x,y,-z
-x,-y,-z
x,-y,z
1/2+x,1/2+y,z
1/2-x,1/2+y,-z
1/2-x,1/2-y,-z
1/2+x,1/2-y,z
loop_
_atom_site_type_symbol
_atom_site_label
_atom_site_fract_x
_atom_site_fract_y
_atom_site_fract_z
Si Si1 0.808923 0.614525 0.951923
Si Si2 0.491652 0.387754 0.344465
Si Si3 0.703478 0.810796 0.913596
Si Si4 0.798464 0.357591 0.510789
Si Si5 0.308723 0.106716 0.373484
Si Si6 0.897733 0.386228 0.753580
Si Si7 0.966619 0.207988 0.218615
O O1 0.790803 0.500000 0.939883
O O2 0.702517 0.695391 0.929559
O O3 0.014589 0.650027 0.919293
O O4 0.758321 0.634023 0.029345
O O5 0.511160 0.500000 0.323713
O O6 0.327722 0.385751 0.415561
O O7 0.652940 0.342598 0.359971
O O8 0.469737 0.330017 0.286535
O O9 0.862311 0.826951 0.843443
O O10 0.750000 0.250000 0.500000
O O11 0.771397 0.401801 0.449072
O O12 0.000000 0.370364 0.500000
O O13 0.508662 0.131703 0.325758
O O14 0.295372 0.000000 0.349461
O O15 0.882255 0.500000 0.767873
O O16 0.709897 0.334428 0.783379
O O17 0.023211 0.324601 0.778882
#
# Coordination Sequence:
#
# PCOD9215695 Si02
#       7
#     8   8   8   8   8   8   8
#     4  10  22  43  69  98 136 178 223 278 334 392
#     4  11  24  41  65  96 129 172 224 277 344 417
#     4  10  22  42  67 100 136 175 227 277 330 405
#     4  12  24  39  61  87 121 167 222 282 342 401
#     4  10  22  42  63  87 124 166 217 278 332 393
#     4  11  25  43  65  95 131 175 225 277 338 405
#     4  12  24  43  67  96 138 176 219 279 338 404
#
# _framework density 24.089527
#
# number of rings (size 3 to 8) (size 9 to 14) (size 15 to 20)
#    0.000    1.143    0.000    6.429    0.000    6.286 
#    0.000    8.571    0.000    0.000    0.000    0.000 
#    0.000    0.000    0.000    0.000    0.000    0.000 
#
# Total GULP energy -156497.355740 kJ/mol
# GULP energy per Si atom -5589.191276 kJ/mol
# Density = 2.403470 g / cm^3
# Si number density = 24.089527 Si / 1000 Ang^3
#
#
#
# Elastic Constant Matrix: (Units=GPa)
#
#
# Indices 1 2 3 4 5 6 
#
# 1 92.9684 39.9964 44.8951 0.0000 -7.8156 0.0000
# 2 39.9964 190.9009 21.5986 0.0000 -4.9823 0.0000
# 3 44.8951 21.5986 155.7238 0.0000 -12.7972 0.0000
# 4 0.0000 0.0000 0.0000 3.6619 0.0000 -5.2340
# 5 -7.8156 -4.9823 -12.7972 0.0000 43.2262 0.0000
# 6 0.0000 0.0000 0.0000 -5.2340 0.0000 25.7465
#
#
#
# Elastic Compliance Matrix: (Units=1/GPa)
#
#
# Indices 1 2 3 4 5 6 
#
# 1 0.013576 -0.002420 -0.003484 0.000000 0.001144 0.000000
# 2 -0.002420 0.005760 -0.000085 0.000000 0.000201 0.000000
# 3 -0.003484 -0.000085 0.007569 0.000000 0.001601 0.000000
# 4 0.000000 0.000000 0.000000 0.384935 0.000000 0.078254
# 5 0.001144 0.000201 0.001601 0.000000 0.023838 0.000000
# 6 0.000000 0.000000 0.000000 0.078254 0.000000 0.054748
#
#
# Mechanical properties :
#
#
# Convention : Reuss Voigt Hill
#
# Bulk Modulus (GPa) = 66.99040 72.50814 69.74927
# Shear Modulus (GPa) = 9.85449 36.73377 23.29413
#
# Velocity S-wave (km/s) = 2.02476 3.90921 3.11301
# Velocity P-wave (km/s) = 5.77369 7.10920 6.47597
#
# Compressibility (1/GPa) = 0.01492751
#
# Stress axis : x y z
#
# Youngs Moduli (GPa) = 73.65713 173.60373 132.10943
#
# Poissons Ratio (x) = 0.42018 0.46032
# Poissons Ratio (y) = 0.17828 0.01118
# Poissons Ratio (z) = 0.25665 0.01469
#
# Static dielectric constant tensor:
#      x y z
#    x 1.481110 0.000000 -0.470000 
#    y 0.000000 1.930330 0.000000 
#    z -0.470000 0.000000 1.521610 
# 
# From -- ./inp_files/332826.got.cif
#   From: 2010.05.17/outbox.cif.g08.bks.cpg/sg12_167_cif.got.tgz:332826.got - 2010.06.03 13:09:07.
