data_PCOD9215074
_publ_section_title
;
Structure prediction by ZEFSAII (Michael W. Deem and Ramdas Pophale) SiO2 
 PCOD9215074
Probable space group: C 2/M
;
_chemical_formula_sum "Si O2"
_cell_formula_units_Z 36
_cell_length_a 12.381427
_cell_length_b 27.417065
_cell_length_c 8.502409
_cell_angle_alpha 90.000000
_cell_angle_beta 141.972274
_cell_angle_gamma 90.000000
_cell_volume 1778.052139
_symmetry_space_group_name_H-M "C 2/M"
_symmetry_group_IT_number 12
_symmetry_cell_setting 'monoclinic'
loop_
_space_group_symop_operation_xyz
x,y,z
-x,y,-z
-x,-y,-z
x,-y,z
1/2+x,1/2+y,z
1/2-x,1/2+y,-z
1/2-x,1/2-y,-z
1/2+x,1/2-y,z
loop_
_atom_site_type_symbol
_atom_site_label
_atom_site_fract_x
_atom_site_fract_y
_atom_site_fract_z
Si Si1 0.021126 0.147001 0.840818
Si Si2 0.041786 0.752857 0.727107
Si Si3 0.000000 0.584465 0.000000
Si Si4 0.375413 0.447785 0.507733
Si Si5 0.436515 0.142445 0.251715
O O1 0.963377 0.202401 0.734856
O O2 0.917220 0.102525 0.643811
O O3 0.224714 0.143740 0.021544
O O4 0.000000 0.140565 0.000000
O O5 0.984065 0.696916 0.680732
O O6 0.000000 0.765955 0.500000
O O7 0.250000 0.750000 0.000000
O O8 0.823080 0.554534 0.777707
O O9 0.017086 0.613987 0.854550
O O10 0.500000 0.447625 0.500000
O O11 0.404721 0.500000 0.626962
O O12 0.500000 0.125391 0.500000
#
# Coordination Sequence:
#
# PCOD9215074 Si02
#       5
#     8   8   4   8   8
#     4  11  22  40  65  94 133 172 219 278 328 393
#     4   9  20  37  60  91 135 175 220 267 324 399
#     4  12  23  42  74  94 136 174 217 278 336 394
#     4  11  24  44  68  95 127 170 224 276 333 397
#     4  10  22  41  60 101 137 173 220 267 331 401
#
# _framework density 20.246874999999999
#
# number of rings (size 3 to 8) (size 9 to 14) (size 15 to 20)
#    0.000    1.556    2.222    2.333    4.667    0.444 
#    0.000    4.444    0.000    3.333    0.000    0.000 
#    0.000    0.000    0.000    0.000    0.000    0.000 
#
# Total GULP energy -100366.581078 kJ/mol
# GULP energy per Si atom -5575.921171 kJ/mol
# Density = 2.020079 g / cm^3
# Si number density = 20.246875 Si / 1000 Ang^3
#
#
#
# Elastic Constant Matrix: (Units=GPa)
#
#
# Indices 1 2 3 4 5 6 
#
# 1 112.4997 51.9255 39.7438 0.0000 -1.9705 0.0000
# 2 51.9255 132.1498 41.6412 0.0000 -15.1671 0.0000
# 3 39.7438 41.6412 101.9769 0.0000 -3.6666 0.0000
# 4 0.0000 0.0000 0.0000 17.9669 0.0000 -32.8514
# 5 -1.9705 -15.1671 -3.6666 0.0000 40.1516 0.0000
# 6 0.0000 0.0000 0.0000 -32.8514 0.0000 -129.5457
#
#
#
# Elastic Compliance Matrix: (Units=1/GPa)
#
#
# Indices 1 2 3 4 5 6 
#
# 1 0.011684 -0.003756 -0.003060 0.000000 -0.001125 0.000000
# 2 -0.003756 0.010259 -0.002601 0.000000 0.003453 0.000000
# 3 -0.003060 -0.002601 0.012060 0.000000 -0.000031 0.000000
# 4 0.000000 0.000000 0.000000 0.038026 0.000000 -0.009643
# 5 -0.001125 0.003453 -0.000031 0.000000 0.026152 0.000000
# 6 0.000000 0.000000 0.000000 -0.009643 0.000000 -0.005274
#
#
# Mechanical properties :
#
#
# Convention : Reuss Voigt Hill
#
# Bulk Modulus (GPa) = 65.92815 68.13861 67.03338
# Shear Modulus (GPa) = 42.80901 -0.06438 21.37231
#
# Velocity S-wave (km/s) = 4.60320 -0.17852 3.25250
# Velocity P-wave (km/s) = 7.80291 5.80383 6.87640
#
# Compressibility (1/GPa) = 0.01516803
#
# Stress axis : x y z
#
# Youngs Moduli (GPa) = 85.58799 97.47627 82.91900
#
# Poissons Ratio (x) = 0.36609 0.25377
# Poissons Ratio (y) = 0.32144 0.21569
# Poissons Ratio (z) = 0.26194 0.25356
#
# Static dielectric constant tensor:
#      x y z
#    x 1.671390 0.000000 0.012790 
#    y 0.000000 1.769760 0.000000 
#    z 0.012790 0.000000 1.706250 
# 
# From -- ./inp_files/52226.got.cif
#   From: 2010.05.17/outbox.cif.g08.bks.cpg/sg12_27_cif.got.tgz:52226.got - 2010.06.03 13:09:07.
