data_PCOD9215578
_publ_section_title
;
Structure prediction by ZEFSAII (Michael W. Deem and Ramdas Pophale) SiO2 
 PCOD9215578
Probable space group: C 2/M
;
_chemical_formula_sum "Si O2"
_cell_formula_units_Z 40
_cell_length_a 11.849121
_cell_length_b 28.492226
_cell_length_c 4.968012
_cell_angle_alpha 90.000000
_cell_angle_beta 74.864376
_cell_angle_gamma 90.000000
_cell_volume 1619.057115
_symmetry_space_group_name_H-M "C 2/M"
_symmetry_group_IT_number 12
_symmetry_cell_setting 'monoclinic'
loop_
_space_group_symop_operation_xyz
x,y,z
-x,y,-z
-x,-y,-z
x,-y,z
1/2+x,1/2+y,z
1/2-x,1/2+y,-z
1/2-x,1/2-y,-z
1/2+x,1/2-y,z
loop_
_atom_site_type_symbol
_atom_site_label
_atom_site_fract_x
_atom_site_fract_y
_atom_site_fract_z
Si Si1 0.579249 0.120837 0.206822
Si Si2 0.380499 0.700049 0.716307
Si Si3 0.390793 0.590838 0.742717
Si Si4 0.640753 0.210499 0.924987
Si Si5 0.764624 0.944876 0.329019
O O1 0.500000 0.138185 0.500000
O O2 0.666070 0.164045 0.090102
O O3 0.648909 0.076115 0.268204
O O4 0.500000 0.108442 0.000000
O O5 0.500000 0.717599 0.500000
O O6 0.407279 0.646408 0.771672
O O7 0.359504 0.736138 0.972129
O O8 0.251840 0.704154 0.653625
O O9 0.500000 0.572096 0.500000
O O10 0.286139 0.581418 0.597448
O O11 0.363276 0.567352 0.043903
O O12 0.500000 0.202627 0.000000
O O13 0.760537 0.000000 0.378711
#
# Coordination Sequence:
#
# PCOD9215578 Si02
#       5
#     8   8   8   8   8
#     4  11  24  44  70 101 142 186 235 295 362 430
#     4  10  22  42  64 105 145 189 236 293 352 433
#     4  11  25  46  70 103 142 189 236 297 364 429
#     4  10  22  41  68 104 144 194 235 290 356 434
#     4  12  26  45  71 103 138 184 246 304 365 426
#
# _framework density 24.705736000000002
#
# number of rings (size 3 to 8) (size 9 to 14) (size 15 to 20)
#    0.000    1.200    2.000    3.000    2.800    7.200 
#    0.000    0.000    0.000    0.000    0.000    0.000 
#    0.000    0.000    0.000    0.000    0.000    0.000 
#
# Total GULP energy -111559.632775 kJ/mol
# GULP energy per Si atom -5577.981639 kJ/mol
# Density = 2.464950 g / cm^3
# Si number density = 24.705736 Si / 1000 Ang^3
#
#
#
# Elastic Constant Matrix: (Units=GPa)
#
#
# Indices 1 2 3 4 5 6 
#
# 1 112.2498 -2.5388 27.6565 0.0000 -18.4995 0.0000
# 2 -2.5388 104.6145 8.0312 0.0000 -1.6894 0.0000
# 3 27.6565 8.0312 103.2154 0.0000 -9.2275 0.0000
# 4 0.0000 0.0000 0.0000 -12.5525 0.0000 2.9746
# 5 -18.4995 -1.6894 -9.2275 0.0000 52.7558 0.0000
# 6 0.0000 0.0000 0.0000 2.9746 0.0000 27.1724
#
#
#
# Elastic Compliance Matrix: (Units=1/GPa)
#
#
# Indices 1 2 3 4 5 6 
#
# 1 0.010035 0.000482 -0.002449 0.000000 0.003106 0.000000
# 2 0.000482 0.009641 -0.000850 0.000000 0.000329 0.000000
# 3 -0.002449 -0.000850 0.010496 0.000000 0.000950 0.000000
# 4 0.000000 0.000000 0.000000 -0.077651 0.000000 0.008501
# 5 0.003106 0.000329 0.000950 0.000000 0.020221 0.000000
# 6 0.000000 0.000000 0.000000 0.008501 0.000000 0.035871
#
#
# Mechanical properties :
#
#
# Convention : Reuss Voigt Hill
#
# Bulk Modulus (GPa) = 40.75314 42.93085 41.84200
# Shear Modulus (GPa) = 222.95377 32.60386 127.77881
#
# Velocity S-wave (km/s) = 9.50998 3.63669 7.19948
# Velocity P-wave (km/s) = 11.70971 5.92019 9.27809
#
# Compressibility (1/GPa) = 0.02453798
#
# Stress axis : x y z
#
# Youngs Moduli (GPa) = 99.65346 103.72214 95.27777
#
# Poissons Ratio (x) = -0.04996 0.23330
# Poissons Ratio (y) = -0.04800 0.08097
# Poissons Ratio (z) = 0.24401 0.08815
#
# Static dielectric constant tensor:
#      x y z
#    x 2.555350 0.000000 0.051660 
#    y 0.000000 1.884460 0.000000 
#    z 0.051660 0.000000 1.995790 
# 
# From -- ./inp_files/8327.got.cif
#   From: 2010.05.17/outbox.cif.g08.bks.cpg/sg12_5_cif.got.tgz:8327.got - 2010.06.03 13:09:07.
