data_PCOD9215950
_publ_section_title
;
Structure prediction by ZEFSAII (Michael W. Deem and Ramdas Pophale) SiO2 
 PCOD9215950
Probable space group: C 2/M
;
_chemical_formula_sum "Si O2"
_cell_formula_units_Z 48
_cell_length_a 8.900066
_cell_length_b 27.939696
_cell_length_c 8.116290
_cell_angle_alpha 90.000000
_cell_angle_beta 92.248261
_cell_angle_gamma 90.000000
_cell_volume 2016.684792
_symmetry_space_group_name_H-M "C 2/M"
_symmetry_group_IT_number 12
_symmetry_cell_setting 'monoclinic'
loop_
_space_group_symop_operation_xyz
x,y,z
-x,y,-z
-x,-y,-z
x,-y,z
1/2+x,1/2+y,z
1/2-x,1/2+y,-z
1/2-x,1/2-y,-z
1/2+x,1/2-y,z
loop_
_atom_site_type_symbol
_atom_site_label
_atom_site_fract_x
_atom_site_fract_y
_atom_site_fract_z
Si Si1 0.094406 0.215006 0.648220
Si Si2 0.805818 0.780037 0.840746
Si Si3 0.448798 0.445726 0.302945
Si Si4 0.779454 0.622956 0.610392
Si Si5 0.280281 0.943433 0.286786
Si Si6 0.565731 0.138682 0.830781
O O1 0.235609 0.246117 0.700341
O O2 0.160329 0.165405 0.580667
O O3 0.000000 0.238454 0.500000
O O4 0.980268 0.211240 0.800563
O O5 0.714257 0.829439 0.816482
O O6 0.750000 0.750000 0.000000
O O7 0.500000 0.442138 0.500000
O O8 0.400615 0.500000 0.273544
O O9 0.311921 0.410577 0.265234
O O10 0.607459 0.437106 0.222446
O O11 0.803842 0.588594 0.453790
O O12 0.933448 0.643140 0.690874
O O13 0.389143 0.917020 0.165852
O O14 0.304830 0.000000 0.316470
O O15 0.500000 0.155333 0.000000
#
# Coordination Sequence:
#
# PCOD9215950 Si02
#       6
#     8   8   8   8   8   8
#     4  12  24  40  67  99 129 161 217 282 334 390
#     4  12  26  47  68  91 132 182 223 267 339 413
#     4   8  15  32  59  88 117 154 204 255 309 376
#     4  11  21  38  65  96 128 165 212 271 333 393
#     4  10  22  42  68  97 132 174 218 269 332 395
#     4  12  26  42  61  91 131 174 225 272 323 392
#
# _framework density 23.801438000000001
#
# number of rings (size 3 to 8) (size 9 to 14) (size 15 to 20)
#    0.000    1.167    0.000    9.500    0.000    3.667 
#    0.000    2.500    0.000    2.000    0.000    0.000 
#    0.000    0.000    0.000    0.000    0.000    0.000 
#
# Total GULP energy -134036.890183 kJ/mol
# GULP energy per Si atom -5584.870424 kJ/mol
# Density = 2.374726 g / cm^3
# Si number density = 23.801438 Si / 1000 Ang^3
#
#
#
# Elastic Constant Matrix: (Units=GPa)
#
#
# Indices 1 2 3 4 5 6 
#
# 1 113.6197 35.3447 13.8127 0.0000 -15.4689 0.0000
# 2 35.3447 111.8852 17.2683 0.0000 -4.3297 0.0000
# 3 13.8127 17.2683 42.3951 0.0000 -8.7936 0.0000
# 4 0.0000 0.0000 0.0000 22.0676 0.0000 -11.2095
# 5 -15.4689 -4.3297 -8.7936 0.0000 30.8929 0.0000
# 6 0.0000 0.0000 0.0000 -11.2095 0.0000 40.9302
#
#
#
# Elastic Compliance Matrix: (Units=1/GPa)
#
#
# Indices 1 2 3 4 5 6 
#
# 1 0.010481 -0.002939 -0.001291 0.000000 0.004469 0.000000
# 2 -0.002939 0.010363 -0.003473 0.000000 -0.001008 0.000000
# 3 -0.001291 -0.003473 0.026768 0.000000 0.006486 0.000000
# 4 0.000000 0.000000 0.000000 0.052638 0.000000 0.014416
# 5 0.004469 -0.001008 0.006486 0.000000 0.036313 0.000000
# 6 0.000000 0.000000 0.000000 0.014416 0.000000 0.028380
#
#
# Mechanical properties :
#
#
# Convention : Reuss Voigt Hill
#
# Bulk Modulus (GPa) = 31.04854 44.52793 37.78824
# Shear Modulus (GPa) = 26.16665 32.20974 29.18820
#
# Velocity S-wave (km/s) = 3.31928 3.68267 3.50569
# Velocity P-wave (km/s) = 5.26909 6.06889 5.68308
#
# Compressibility (1/GPa) = 0.03220763
#
# Stress axis : x y z
#
# Youngs Moduli (GPa) = 95.41253 96.49673 37.35789
#
# Poissons Ratio (x) = 0.28358 0.04822
# Poissons Ratio (y) = 0.28039 0.12973
# Poissons Ratio (z) = 0.12316 0.33509
#
# Static dielectric constant tensor:
#      x y z
#    x 1.905850 0.000000 -0.036380 
#    y 0.000000 1.909330 0.000000 
#    z -0.036380 0.000000 1.998970 
# 
# From -- ./inp_files/42185.got.cif
#   From: 2010.05.17/outbox.cif.g08.bks.cpg/sg12_22_cif.got.tgz:42185.got - 2010.06.03 13:09:07.
