data_PCOD9215164
_publ_section_title
;
Structure prediction by ZEFSAII (Michael W. Deem and Ramdas Pophale) SiO2 
 PCOD9215164
Probable space group: C 2/M
;
_chemical_formula_sum "Si O2"
_cell_formula_units_Z 56
_cell_length_a 23.467939
_cell_length_b 8.884941
_cell_length_c 15.309824
_cell_angle_alpha 90.000000
_cell_angle_beta 114.761439
_cell_angle_gamma 90.000000
_cell_volume 2898.771864
_symmetry_space_group_name_H-M "C 2/M"
_symmetry_group_IT_number 12
_symmetry_cell_setting 'monoclinic'
loop_
_space_group_symop_operation_xyz
x,y,z
-x,y,-z
-x,-y,-z
x,-y,z
1/2+x,1/2+y,z
1/2-x,1/2+y,-z
1/2-x,1/2-y,-z
1/2+x,1/2-y,z
loop_
_atom_site_type_symbol
_atom_site_label
_atom_site_fract_x
_atom_site_fract_y
_atom_site_fract_z
Si Si1 0.512483 0.180091 0.650027
Si Si2 0.735585 0.679663 0.584383
Si Si3 0.590925 0.321963 0.842104
Si Si4 0.929509 0.679130 0.983983
Si Si5 0.721794 0.179399 0.893400
Si Si6 0.808166 0.319793 0.800563
Si Si7 0.102961 0.319698 0.545187
O O1 0.530887 0.266930 0.748921
O O2 0.444883 0.215533 0.564902
O O3 0.564211 0.216067 0.608389
O O4 0.514840 0.000000 0.666423
O O5 0.734379 0.500000 0.575796
O O6 0.750000 0.750000 0.500000
O O7 0.788391 0.720833 0.689960
O O8 0.668590 0.736940 0.576914
O O9 0.598786 0.500000 0.841343
O O10 0.651162 0.238960 0.840054
O O11 0.586821 0.269796 0.939510
O O12 0.924980 0.500000 0.000967
O O13 0.879098 0.712164 0.875969
O O14 0.000000 0.711787 0.000000
O O15 0.762965 0.235616 0.839096
O O16 0.722541 0.000000 0.900105
O O17 0.750000 0.250000 0.000000
O O18 0.798337 0.500000 0.804178
O O19 0.113379 0.500000 0.551653
#
# Coordination Sequence:
#
# PCOD9215164 Si02
#       7
#     8   8   8   8   8   8   8
#     4   9  19  37  62  89 119 156 195 242 301 362
#     4  11  24  40  60  87 120 161 206 254 305 360
#     4  12  24  37  57  90 125 159 198 243 297 357
#     4  10  22  41  63  84 113 158 204 247 297 354
#     4  12  23  37  61  91 123 159 198 246 303 360
#     4  10  22  41  63  89 121 157 202 253 305 363
#     4   9  19  38  62  88 117 153 200 250 301 358
#
# _framework density 19.318525000000001
#
# number of rings (size 3 to 8) (size 9 to 14) (size 15 to 20)
#    0.000    1.571    1.429    4.714    0.000    6.000 
#    0.000    4.286    0.000    0.000    0.000    0.000 
#    0.000    0.000    0.000    0.000    0.000    0.000 
#
# Total GULP energy -156524.210721 kJ/mol
# GULP energy per Si atom -5590.150383 kJ/mol
# Density = 1.927456 g / cm^3
# Si number density = 19.318525 Si / 1000 Ang^3
#
#
#
# Elastic Constant Matrix: (Units=GPa)
#
#
# Indices 1 2 3 4 5 6 
#
# 1 70.1887 42.3360 46.6932 0.0000 13.0569 0.0000
# 2 42.3360 62.9323 63.5918 0.0000 5.5555 0.0000
# 3 46.6932 63.5918 160.5680 0.0000 12.5907 0.0000
# 4 0.0000 0.0000 0.0000 21.6371 0.0000 2.3385
# 5 13.0569 5.5555 12.5907 0.0000 23.0566 0.0000
# 6 0.0000 0.0000 0.0000 2.3385 0.0000 22.3115
#
#
#
# Elastic Compliance Matrix: (Units=1/GPa)
#
#
# Indices 1 2 3 4 5 6 
#
# 1 0.026421 -0.016526 -0.000290 0.000000 -0.010822 0.000000
# 2 -0.016526 0.036839 -0.010261 0.000000 0.006086 0.000000
# 3 -0.000290 -0.010261 0.010624 0.000000 -0.003165 0.000000
# 4 0.000000 0.000000 0.000000 0.046746 0.000000 -0.004900
# 5 -0.010822 0.006086 -0.003165 0.000000 0.049762 0.000000
# 6 0.000000 0.000000 0.000000 -0.004900 0.000000 0.045333
#
#
# Mechanical properties :
#
#
# Convention : Reuss Voigt Hill
#
# Bulk Modulus (GPa) = 50.68290 66.54789 58.61539
# Shear Modulus (GPa) = 18.08592 22.80559 20.44575
#
# Velocity S-wave (km/s) = 3.06305 3.43957 3.25676
# Velocity P-wave (km/s) = 6.22913 7.09202 6.67453
#
# Compressibility (1/GPa) = 0.01973052
#
# Stress axis : x y z
#
# Youngs Moduli (GPa) = 37.84803 27.14496 94.12463
#
# Poissons Ratio (x) = 0.44860 0.02726
# Poissons Ratio (y) = 0.62549 0.96584
# Poissons Ratio (z) = 0.01096 0.27854
#
# Static dielectric constant tensor:
#      x y z
#    x 1.648470 0.000000 0.018990 
#    y 0.000000 1.643980 0.000000 
#    z 0.018990 0.000000 1.690280 
# 
# From -- ./inp_files/238966.got.cif
#   From: 2010.05.17/outbox.cif.g08.bks.cpg/sg12_120_cif.got.tgz:238966.got - 2010.06.03 13:09:07.
