data_PCOD9215976
_publ_section_title
;
Structure prediction by ZEFSAII (Michael W. Deem and Ramdas Pophale) SiO2 
 PCOD9215976
Probable space group: C 2/M
;
_chemical_formula_sum "Si O2"
_cell_formula_units_Z 32
_cell_length_a 12.456060
_cell_length_b 14.021536
_cell_length_c 12.227211
_cell_angle_alpha 90.000000
_cell_angle_beta 144.999470
_cell_angle_gamma 90.000000
_cell_volume 1224.900264
_symmetry_space_group_name_H-M "C 2/M"
_symmetry_group_IT_number 12
_symmetry_cell_setting 'monoclinic'
loop_
_space_group_symop_operation_xyz
x,y,z
-x,y,-z
-x,-y,-z
x,-y,z
1/2+x,1/2+y,z
1/2-x,1/2+y,-z
1/2-x,1/2-y,-z
1/2+x,1/2-y,z
loop_
_atom_site_type_symbol
_atom_site_label
_atom_site_fract_x
_atom_site_fract_y
_atom_site_fract_z
Si Si1 0.714897 0.690536 0.715518
Si Si2 0.120710 0.658354 0.366938
Si Si3 0.260648 0.609922 0.021768
Si Si4 0.828812 0.102895 0.743504
O O1 0.500000 0.696731 0.500000
O O2 0.816421 0.631463 0.703053
O O3 0.732722 0.641087 0.846614
O O4 0.794097 0.798741 0.777924
O O5 0.250000 0.750000 0.500000
O O6 0.177293 0.598470 0.519221
O O7 0.899374 0.670903 0.172347
O O8 0.196998 0.500000 0.961318
O O9 0.467082 0.612964 0.142092
O O10 0.817725 0.000000 0.793135
#
# Coordination Sequence:
#
# PCOD9215976 Si02
#       4
#     8   8   8   8
#     4  11  23  42  68 107 144 182 234 294 352 415
#     4  10  22  42  69 101 136 181 232 289 350 412
#     4  11  24  44  74 104 137 185 237 291 352 418
#     4  10  23  45  71 100 140 186 235 290 349 419
#
# _framework density 26.124576000000001
#
# number of rings (size 3 to 8) (size 9 to 14) (size 15 to 20)
#    0.000    1.500    2.500    1.500    0.000    8.000 
#    9.000    0.000    0.000   13.500    0.000    0.000 
#    0.000    0.000    0.000    0.000    0.000    0.000 
#
# Total GULP energy -89671.521936 kJ/mol
# GULP energy per Si atom -5604.470121 kJ/mol
# Density = 2.606512 g / cm^3
# Si number density = 26.124576 Si / 1000 Ang^3
#
#
#
# Elastic Constant Matrix: (Units=GPa)
#
#
# Indices 1 2 3 4 5 6 
#
# 1 132.3814 -3.6945 33.9097 0.0003 -7.2944 0.0001
# 2 -3.6945 69.5739 -11.3285 0.0003 -17.5684 0.0001
# 3 33.9097 -11.3285 201.2092 0.0010 -3.4493 0.0004
# 4 0.0003 0.0003 0.0010 18.2602 0.0004 1.8434
# 5 -7.2944 -17.5684 -3.4493 0.0004 44.1286 0.0001
# 6 0.0001 0.0001 0.0004 1.8434 0.0001 30.1322
#
#
#
# Elastic Compliance Matrix: (Units=1/GPa)
#
#
# Indices 1 2 3 4 5 6 
#
# 1 0.007980 0.000580 -0.001287 0.000000 0.001449 0.000000
# 2 0.000580 0.016229 0.000930 0.000000 0.006630 0.000000
# 3 -0.001287 0.000930 0.005249 0.000000 0.000568 0.000000
# 4 0.000000 0.000000 0.000000 0.055104 -0.000001 -0.003371
# 5 0.001449 0.006630 0.000568 -0.000001 0.025584 0.000000
# 6 0.000000 0.000000 0.000000 -0.003371 0.000000 0.033393
#
#
# Mechanical properties :
#
#
# Convention : Reuss Voigt Hill
#
# Bulk Modulus (GPa) = 33.44139 48.99311 41.21725
# Shear Modulus (GPa) = 32.66628 44.12272 38.39450
#
# Velocity S-wave (km/s) = 3.53994 4.11412 3.83779
# Velocity P-wave (km/s) = 5.43477 6.43136 5.95396
#
# Compressibility (1/GPa) = 0.02990307
#
# Stress axis : x y z
#
# Youngs Moduli (GPa) = 125.31757 61.61624 190.51348
#
# Poissons Ratio (x) = -0.03574 0.24525
# Poissons Ratio (y) = -0.07270 -0.17711
# Poissons Ratio (z) = 0.16132 -0.05728
#
# Static dielectric constant tensor:
#      x y z
#    x 2.091610 0.000000 -0.022160 
#    y 0.000000 2.148230 0.000000 
#    z -0.022160 0.000000 2.003490 
# 
# From -- ./inp_files/215140.got.cif
#   From: 2010.05.17/outbox.cif.g08.bks.cpg/sg12_108_cif.got.tgz:215140.got - 2010.06.03 13:09:07.
