data_PCOD9215100
_publ_section_title
;
Structure prediction by ZEFSAII (Michael W. Deem and Ramdas Pophale) SiO2 
 PCOD9215100
Probable space group: C 2/M
;
_chemical_formula_sum "Si O2"
_cell_formula_units_Z 60
_cell_length_a 7.816847
_cell_length_b 32.100448
_cell_length_c 11.940891
_cell_angle_alpha 90.000000
_cell_angle_beta 71.063235
_cell_angle_gamma 90.000000
_cell_volume 2834.093992
_symmetry_space_group_name_H-M "C 2/M"
_symmetry_group_IT_number 12
_symmetry_cell_setting 'monoclinic'
loop_
_space_group_symop_operation_xyz
x,y,z
-x,y,-z
-x,-y,-z
x,-y,z
1/2+x,1/2+y,z
1/2-x,1/2+y,-z
1/2-x,1/2-y,-z
1/2+x,1/2-y,z
loop_
_atom_site_type_symbol
_atom_site_label
_atom_site_fract_x
_atom_site_fract_y
_atom_site_fract_z
Si Si1 0.787576 0.613249 0.276638
Si Si2 0.293583 0.048117 0.084575
Si Si3 0.000000 0.098652 0.000000
Si Si4 0.881844 0.716397 0.423937
Si Si5 0.616289 0.738964 0.186789
Si Si6 0.443212 0.347426 0.226078
Si Si7 0.201110 0.633686 0.494123
Si Si8 0.020846 0.684495 0.872729
O O1 0.801704 0.571465 0.201644
O O2 0.626929 0.636697 0.245025
O O3 0.748661 0.602746 0.414750
O O4 0.957444 0.645707 0.216497
O O5 0.155352 0.071738 0.029245
O O6 0.236752 0.000000 0.105559
O O7 0.500000 0.049662 0.000000
O O8 0.916127 0.127622 0.116502
O O9 0.750000 0.750000 0.500000
O O10 0.767474 0.674993 0.431494
O O11 0.000000 0.699731 0.500000
O O12 0.022834 0.737432 0.311527
O O13 0.477169 0.701260 0.190118
O O14 0.802608 0.715035 0.172231
O O15 0.633706 0.779723 0.104402
O O16 0.302487 0.356505 0.356294
O O17 0.000000 0.620746 0.500000
O O18 0.000000 0.665719 0.000000
#
# Coordination Sequence:
#
# PCOD9215100 Si02
#       8
#     8   8   4   8   8   8   8   8
#     4  10  22  41  61  88 123 159 208 262 314 378
#     4  10  22  43  74 102 127 163 205 259 322 392
#     4  10  23  44  68 100 136 164 206 260 313 388
#     4  11  21  33  51  75 107 155 216 265 298 348
#     4  11  22  36  52  77 114 162 217 257 303 358
#     4  10  23  38  60  89 124 172 209 254 310 367
#     4  11  23  36  57  87 120 165 209 259 311 362
#     4  11  23  37  52  78 116 166 208 258 310 363
#
# _framework density 21.170786
#
# number of rings (size 3 to 8) (size 9 to 14) (size 15 to 20)
#    0.000    1.467    2.667    2.200    6.533    0.000 
#    2.400    0.000    0.000    7.600    0.000    0.000 
#    0.000    0.000    0.000    0.000    0.000    0.000 
#
# Total GULP energy -167023.922973 kJ/mol
# GULP energy per Si atom -5567.464099 kJ/mol
# Density = 2.112260 g / cm^3
# Si number density = 21.170786 Si / 1000 Ang^3
#
#
#
# Elastic Constant Matrix: (Units=GPa)
#
#
# Indices 1 2 3 4 5 6 
#
# 1 50.0497 23.3762 6.9760 0.0000 5.4840 0.0000
# 2 23.3762 97.0826 40.7991 0.0000 14.4716 0.0000
# 3 6.9760 40.7991 115.4754 0.0000 15.4993 0.0000
# 4 0.0000 0.0000 0.0000 14.5322 0.0000 -1.2942
# 5 5.4840 14.4716 15.4993 0.0000 26.4147 0.0000
# 6 0.0000 0.0000 0.0000 -1.2942 0.0000 19.6828
#
#
#
# Elastic Compliance Matrix: (Units=1/GPa)
#
#
# Indices 1 2 3 4 5 6 
#
# 1 0.022667 -0.005494 0.000868 0.000000 -0.002205 0.000000
# 2 -0.005494 0.013935 -0.004038 0.000000 -0.004125 0.000000
# 3 0.000868 -0.004038 0.010596 0.000000 -0.004185 0.000000
# 4 0.000000 0.000000 0.000000 0.069218 0.000000 0.004551
# 5 -0.002205 -0.004125 -0.004185 0.000000 0.043031 0.000000
# 6 0.000000 0.000000 0.000000 0.004551 0.000000 0.051105
#
#
# Mechanical properties :
#
#
# Convention : Reuss Voigt Hill
#
# Bulk Modulus (GPa) = 33.47890 44.99003 39.23446
# Shear Modulus (GPa) = 21.02284 24.88969 22.95627
#
# Velocity S-wave (km/s) = 3.15463 3.43251 3.29650
# Velocity P-wave (km/s) = 5.39601 6.08331 5.74994
#
# Compressibility (1/GPa) = 0.02986956
#
# Stress axis : x y z
#
# Youngs Moduli (GPa) = 44.11747 71.76094 94.37649
#
# Poissons Ratio (x) = 0.39424 -0.08189
# Poissons Ratio (y) = 0.24237 0.38109
# Poissons Ratio (z) = -0.03828 0.28977
#
# Static dielectric constant tensor:
#      x y z
#    x 1.754930 0.000000 -0.033020 
#    y 0.000000 1.922600 0.000000 
#    z -0.033020 0.000000 1.935050 
# 
# From -- ./inp_files/125712.got.cif
#   From: 2010.05.17/outbox.cif.g08.bks.cpg/sg12_63_cif.got.tgz:125712.got - 2010.06.03 13:09:07.
