data_PCOD9215060
_publ_section_title
;
Structure prediction by ZEFSAII (Michael W. Deem and Ramdas Pophale) SiO2 
 PCOD9215060
Probable space group: C 2/M
;
_chemical_formula_sum "Si O2"
_cell_formula_units_Z 64
_cell_length_a 14.363868
_cell_length_b 14.020159
_cell_length_c 22.323180
_cell_angle_alpha 90.000000
_cell_angle_beta 136.420503
_cell_angle_gamma 90.000000
_cell_volume 3099.036642
_symmetry_space_group_name_H-M "C 2/M"
_symmetry_group_IT_number 12
_symmetry_cell_setting 'monoclinic'
loop_
_space_group_symop_operation_xyz
x,y,z
-x,y,-z
-x,-y,-z
x,-y,z
1/2+x,1/2+y,z
1/2-x,1/2+y,-z
1/2-x,1/2-y,-z
1/2+x,1/2-y,z
loop_
_atom_site_type_symbol
_atom_site_label
_atom_site_fract_x
_atom_site_fract_y
_atom_site_fract_z
Si Si1 0.048059 0.112946 0.732976
Si Si2 0.549771 0.771210 0.580241
Si Si3 0.358913 0.389755 0.533461
Si Si4 0.805047 0.107857 0.960757
Si Si5 0.454137 0.888219 0.645417
Si Si6 0.224430 0.709083 0.246163
Si Si7 0.900148 0.106613 0.867095
Si Si8 0.035250 0.292372 0.808415
O O1 0.176622 0.149673 0.752029
O O2 0.033446 0.182443 0.783486
O O3 0.915989 0.124154 0.627982
O O4 0.062567 0.000000 0.753131
O O5 0.500000 0.828948 0.500000
O O6 0.444816 0.684431 0.535678
O O7 0.535013 0.833521 0.632253
O O8 0.696723 0.725954 0.654587
O O9 0.388706 0.500000 0.532287
O O10 0.202300 0.372608 0.446597
O O11 0.856354 0.103383 0.916037
O O12 0.680873 0.179636 0.902162
O O13 0.761931 0.000000 0.957297
O O14 0.940417 0.131649 0.060727
O O15 0.499675 0.848743 0.730620
O O16 0.480316 0.000000 0.656299
O O17 0.188721 0.811570 0.202430
O O18 0.077277 0.673371 0.196523
O O19 0.881022 0.000000 0.833106
#
# Coordination Sequence:
#
# PCOD9215060 Si02
#       8
#     8   8   8   8   8   8   8   8
#     4  10  22  41  58  82 124 165 200 243 302 363
#     4  11  22  36  55  82 121 153 190 245 300 356
#     4   9  19  36  57  77 106 154 200 237 287 352
#     4   9  18  35  63  91 117 149 188 245 304 353
#     4  11  22  37  58  83 114 152 198 255 302 347
#     4  11  23  37  60  90 115 162 203 249 293 358
#     4   9  18  37  63  90 118 149 190 241 302 361
#     4  12  22  37  63  88 117 158 204 248 299 360
#
# _framework density 20.651579999999999
#
# number of rings (size 3 to 8) (size 9 to 14) (size 15 to 20)
#    0.000    1.750    3.750    2.250    1.750    4.000 
#    0.000    2.500    0.000    1.500    0.000    0.000 
#    0.000    0.000    0.000    0.000    0.000    0.000 
#
# Total GULP energy -178497.965233 kJ/mol
# GULP energy per Si atom -5578.061414 kJ/mol
# Density = 2.060458 g / cm^3
# Si number density = 20.651580 Si / 1000 Ang^3
#
#
#
# Elastic Constant Matrix: (Units=GPa)
#
#
# Indices 1 2 3 4 5 6 
#
# 1 40.3427 2.7801 7.8235 0.0000 11.3574 0.0000
# 2 2.7801 81.8504 46.6725 0.0000 16.6430 0.0000
# 3 7.8235 46.6725 71.7757 0.0000 15.6159 0.0000
# 4 0.0000 0.0000 0.0000 30.2366 0.0000 12.7960
# 5 11.3574 16.6430 15.6159 0.0000 26.0784 0.0000
# 6 0.0000 0.0000 0.0000 12.7960 0.0000 -8.0102
#
#
#
# Elastic Compliance Matrix: (Units=1/GPa)
#
#
# Indices 1 2 3 4 5 6 
#
# 1 0.028685 0.002929 -0.002192 0.000000 -0.013049 0.000000
# 2 0.002929 0.020442 -0.012068 0.000000 -0.007095 0.000000
# 3 -0.002192 -0.012068 0.023151 0.000000 -0.005207 0.000000
# 4 0.000000 0.000000 0.000000 0.019732 0.000000 0.031522
# 5 -0.013049 -0.007095 -0.005207 0.000000 0.051675 0.000000
# 6 0.000000 0.000000 0.000000 0.031522 0.000000 -0.074485
#
#
# Mechanical properties :
#
#
# Convention : Reuss Voigt Hill
#
# Bulk Modulus (GPa) = 20.15506 34.28012 27.21759
# Shear Modulus (GPa) = 46.12502 18.77380 32.44941
#
# Velocity S-wave (km/s) = 4.73110 3.01836 3.96824
# Velocity P-wave (km/s) = 6.29486 5.36494 5.84841
#
# Compressibility (1/GPa) = 0.04961533
#
# Stress axis : x y z
#
# Youngs Moduli (GPa) = 34.86203 48.91875 43.19389
#
# Poissons Ratio (x) = -0.14329 0.09469
# Poissons Ratio (y) = -0.10211 0.52127
# Poissons Ratio (z) = 0.07643 0.59036
#
# Static dielectric constant tensor:
#      x y z
#    x 1.800280 0.000000 -0.001640 
#    y 0.000000 1.739890 0.000000 
#    z -0.001640 0.000000 1.766000 
# 
# From -- ./inp_files/340188.got.cif
#   From: 2010.05.17/outbox.cif.g08.bks.cpg/sg12_171_cif.got.tgz:340188.got - 2010.06.03 13:09:07.
