data_PCOD9215966
_publ_section_title
;
Structure prediction by ZEFSAII (Michael W. Deem and Ramdas Pophale) SiO2 
 PCOD9215966
Probable space group: C 2/M
;
_chemical_formula_sum "Si O2"
_cell_formula_units_Z 28
_cell_length_a 9.114532
_cell_length_b 22.626594
_cell_length_c 10.188910
_cell_angle_alpha 90.000000
_cell_angle_beta 30.210725
_cell_angle_gamma 90.000000
_cell_volume 1057.319248
_symmetry_space_group_name_H-M "C 2/M"
_symmetry_group_IT_number 12
_symmetry_cell_setting 'monoclinic'
loop_
_space_group_symop_operation_xyz
x,y,z
-x,y,-z
-x,-y,-z
x,-y,z
1/2+x,1/2+y,z
1/2-x,1/2+y,-z
1/2-x,1/2-y,-z
1/2+x,1/2-y,z
loop_
_atom_site_type_symbol
_atom_site_label
_atom_site_fract_x
_atom_site_fract_y
_atom_site_fract_z
Si Si1 0.654844 0.932728 0.239042
Si Si2 0.839526 0.000000 0.762650
Si Si3 0.838577 0.128869 0.766712
Si Si4 0.174968 0.686196 0.497848
O O1 0.500000 0.936560 0.500000
O O2 0.496903 0.872092 0.307133
O O3 0.606187 0.000000 0.216726
O O4 0.000000 0.925885 0.000000
O O5 0.901000 0.936915 0.772894
O O6 0.000000 0.000000 0.500000
O O7 0.500000 0.000000 0.000000
O O8 0.000000 0.137184 0.500000
O O9 0.990398 0.165776 0.762055
O O10 0.500000 0.138580 0.000000
O O11 0.250000 0.750000 0.500000
O O12 0.000000 0.696578 0.500000
#
# Coordination Sequence:
#
# PCOD9215966 Si02
#       4
#     8   4   8   8
#     4   9  20  41  68 100 137 179 231 292 354 418
#     4   8  16  34  61  94 131 172 216 272 342 410
#     4  10  22  42  68  99 138 182 229 283 348 421
#     4  11  25  45  72 105 145 191 242 299 361 431
#
# _framework density 26.482068000000002
#
# number of rings (size 3 to 8) (size 9 to 14) (size 15 to 20)
#    0.000    2.286    0.000    0.857    2.000    5.714 
#    0.000    8.571    0.000    0.000    0.000    0.000 
#    0.000    0.000    0.000    0.000    0.000    0.000 
#
# Total GULP energy -78065.629659 kJ/mol
# GULP energy per Si atom -5576.116404 kJ/mol
# Density = 2.642179 g / cm^3
# Si number density = 26.482068 Si / 1000 Ang^3
#
#
#
# Elastic Constant Matrix: (Units=GPa)
#
#
# Indices 1 2 3 4 5 6 
#
# 1 182.4372 71.5094 63.7237 0.0000 -49.1607 0.0000
# 2 71.5094 249.4020 50.1259 0.0000 -38.7771 0.0000
# 3 63.7237 50.1259 202.8707 0.0000 -27.5266 0.0000
# 4 0.0000 0.0000 0.0000 34.9712 0.0000 -23.8617
# 5 -49.1607 -38.7771 -27.5266 0.0000 41.3154 0.0000
# 6 0.0000 0.0000 0.0000 -23.8617 0.0000 39.9447
#
#
#
# Elastic Compliance Matrix: (Units=1/GPa)
#
#
# Indices 1 2 3 4 5 6 
#
# 1 0.008578 -0.000870 -0.001325 0.000000 0.008507 0.000000
# 2 -0.000870 0.004855 -0.000493 0.000000 0.003192 0.000000
# 3 -0.001325 -0.000493 0.005706 0.000000 0.001763 0.000000
# 4 0.000000 0.000000 0.000000 0.048270 0.000000 0.028835
# 5 0.008507 0.003192 0.001763 0.000000 0.038496 0.000000
# 6 0.000000 0.000000 0.000000 0.028835 0.000000 0.042259
#
#
# Mechanical properties :
#
#
# Convention : Reuss Voigt Hill
#
# Bulk Modulus (GPa) = 72.66534 111.71421 92.18978
# Shear Modulus (GPa) = 31.61996 53.20298 42.41147
#
# Velocity S-wave (km/s) = 3.45920 4.48707 4.00624
# Velocity P-wave (km/s) = 6.59195 8.31393 7.50251
#
# Compressibility (1/GPa) = 0.01376172
#
# Stress axis : x y z
#
# Youngs Moduli (GPa) = 116.58294 205.99184 175.24156
#
# Poissons Ratio (x) = 0.17931 0.23220
# Poissons Ratio (y) = 0.10148 0.08638
# Poissons Ratio (z) = 0.15447 0.10154
#
# Static dielectric constant tensor:
#      x y z
#    x 2.148010 0.000000 0.140430 
#    y 0.000000 2.395060 0.000000 
#    z 0.140430 0.000000 2.135650 
# 
# From -- ./inp_files/123306.got.cif
#   From: 2010.05.17/outbox.cif.g08.bks.cpg/sg12_62_cif.got.tgz:123306.got - 2010.06.03 13:09:07.
