data_PCOD9215234
_publ_section_title
;
Structure prediction by ZEFSAII (Michael W. Deem and Ramdas Pophale) SiO2 
 PCOD9215234
Probable space group: C 2/M
;
_chemical_formula_sum "Si O2"
_cell_formula_units_Z 56
_cell_length_a 19.666129
_cell_length_b 28.340766
_cell_length_c 8.770831
_cell_angle_alpha 90.000000
_cell_angle_beta 149.418791
_cell_angle_gamma 90.000000
_cell_volume 2487.043590
_symmetry_space_group_name_H-M "C 2/M"
_symmetry_group_IT_number 12
_symmetry_cell_setting 'monoclinic'
loop_
_space_group_symop_operation_xyz
x,y,z
-x,y,-z
-x,-y,-z
x,-y,z
1/2+x,1/2+y,z
1/2-x,1/2+y,-z
1/2-x,1/2-y,-z
1/2+x,1/2-y,z
loop_
_atom_site_type_symbol
_atom_site_label
_atom_site_fract_x
_atom_site_fract_y
_atom_site_fract_z
Si Si1 0.265762 0.292852 0.148660
Si Si2 0.194704 0.444908 0.052881
Si Si3 0.021783 0.353267 0.724977
Si Si4 0.640705 0.387540 0.839428
Si Si5 0.638307 0.715442 0.345795
Si Si6 0.852940 0.945034 0.659472
Si Si7 0.748546 0.632425 0.364620
O O1 0.317941 0.339159 0.164014
O O2 0.364332 0.281402 0.477357
O O3 0.250000 0.250000 0.000000
O O4 0.127031 0.311091 0.956728
O O5 0.153658 0.500000 0.973482
O O6 0.252910 0.427585 0.002685
O O7 0.314440 0.439264 0.407910
O O8 0.085428 0.404818 0.881429
O O9 0.000000 0.351272 0.500000
O O10 0.885097 0.348390 0.554885
O O11 0.500000 0.402230 0.500000
O O12 0.647428 0.375104 0.029045
O O13 0.750000 0.750000 0.500000
O O14 0.685642 0.664790 0.373912
O O15 0.500000 0.726835 0.000000
O O16 0.739131 0.918055 0.533291
O O17 0.847443 0.000000 0.683354
O O18 0.000000 0.928748 0.000000
#
# Coordination Sequence:
#
# PCOD9215234 Si02
#       7
#     8   8   8   8   8   8   8
#     4  11  25  46  71  95 137 183 229 284 346 417
#     4  10  22  41  63  94 136 177 224 285 341 411
#     4  11  24  44  67 100 134 184 227 282 350 415
#     4  11  22  40  64  96 128 177 230 279 346 413
#     4  12  29  47  71 107 140 179 231 288 349 415
#     4  10  22  41  66  97 134 178 226 282 348 414
#     4  12  23  43  69  98 138 176 229 288 347 410
#
# _framework density 22.516694999999999
#
# number of rings (size 3 to 8) (size 9 to 14) (size 15 to 20)
#    0.000    1.000    2.857    4.714    2.000    4.000 
#    0.000    1.429    0.000    0.000    0.000    0.000 
#    0.000    0.000    0.000    0.000    0.000    0.000 
#
# Total GULP energy -156572.846464 kJ/mol
# GULP energy per Si atom -5591.887374 kJ/mol
# Density = 2.246545 g / cm^3
# Si number density = 22.516695 Si / 1000 Ang^3
#
#
#
# Elastic Constant Matrix: (Units=GPa)
#
#
# Indices 1 2 3 4 5 6 
#
# 1 77.0570 24.7094 21.8543 0.0000 -12.0497 0.0000
# 2 24.7094 81.1651 30.0884 0.0000 -7.3484 0.0000
# 3 21.8543 30.0884 105.0480 0.0000 -10.9547 0.0000
# 4 0.0000 0.0000 0.0000 31.2241 0.0000 -6.0211
# 5 -12.0497 -7.3484 -10.9547 0.0000 45.3424 0.0000
# 6 0.0000 0.0000 0.0000 -6.0211 0.0000 20.8848
#
#
#
# Elastic Compliance Matrix: (Units=1/GPa)
#
#
# Indices 1 2 3 4 5 6 
#
# 1 0.015129 -0.003674 -0.001783 0.000000 0.002994 0.000000
# 2 -0.003674 0.014753 -0.003399 0.000000 0.000593 0.000000
# 3 -0.001783 -0.003399 0.011035 0.000000 0.001641 0.000000
# 4 0.000000 0.000000 0.000000 0.033912 0.000000 0.009777
# 5 0.002994 0.000593 0.001641 0.000000 0.023343 0.000000
# 6 0.000000 0.000000 0.000000 0.009777 0.000000 0.050700
#
#
# Mechanical properties :
#
#
# Convention : Reuss Voigt Hill
#
# Bulk Modulus (GPa) = 43.09404 46.28603 44.69004
# Shear Modulus (GPa) = 28.68285 31.93146 30.30716
#
# Velocity S-wave (km/s) = 3.57297 3.76988 3.67275
# Velocity P-wave (km/s) = 6.01679 6.28890 6.15435
#
# Compressibility (1/GPa) = 0.02320506
#
# Stress axis : x y z
#
# Youngs Moduli (GPa) = 66.09648 67.78327 90.61878
#
# Poissons Ratio (x) = 0.24902 0.16157
# Poissons Ratio (y) = 0.24283 0.30805
# Poissons Ratio (z) = 0.11785 0.23042
#
# Static dielectric constant tensor:
#      x y z
#    x 1.923260 0.000000 -0.010770 
#    y 0.000000 1.316730 0.000000 
#    z -0.010770 0.000000 1.935410 
# 
# From -- ./inp_files/91623.got.cif
#   From: 2010.05.17/outbox.cif.g08.bks.cpg/sg12_46_cif.got.tgz:91623.got - 2010.06.03 13:09:07.
