data_PCOD9215450
_publ_section_title
;
Structure prediction by ZEFSAII (Michael W. Deem and Ramdas Pophale) SiO2 
 PCOD9215450
Probable space group: C 2/M
;
_chemical_formula_sum "Si O2"
_cell_formula_units_Z 36
_cell_length_a 19.631331
_cell_length_b 16.143634
_cell_length_c 5.135385
_cell_angle_alpha 90.000000
_cell_angle_beta 80.395144
_cell_angle_gamma 90.000000
_cell_volume 1604.696846
_symmetry_space_group_name_H-M "C 2/M"
_symmetry_group_IT_number 12
_symmetry_cell_setting 'monoclinic'
loop_
_space_group_symop_operation_xyz
x,y,z
-x,y,-z
-x,-y,-z
x,-y,z
1/2+x,1/2+y,z
1/2-x,1/2+y,-z
1/2-x,1/2-y,-z
1/2+x,1/2-y,z
loop_
_atom_site_type_symbol
_atom_site_label
_atom_site_fract_x
_atom_site_fract_y
_atom_site_fract_z
Si Si1 0.073545 0.183849 0.574344
Si Si2 0.863352 0.245809 0.970196
Si Si3 0.178498 0.408683 0.744376
Si Si4 0.951846 0.500000 0.285018
Si Si5 0.305698 0.406858 0.275253
O O1 0.076416 0.228619 0.852877
O O2 0.126746 0.108202 0.585409
O O3 0.000000 0.160908 0.500000
O O4 0.109340 0.242088 0.337288
O O5 0.827754 0.331406 0.063825
O O6 0.814636 0.166376 0.060318
O O7 0.191936 0.500000 0.860589
O O8 0.101775 0.423509 0.677622
O O9 0.237068 0.395795 0.491069
O O10 0.000000 0.500000 0.500000
O O11 0.000000 0.500000 0.000000
O O12 0.308312 0.500000 0.170552
#
# Coordination Sequence:
#
# PCOD9215450 Si02
#       5
#     8   8   8   4   8
#     4  10  23  40  64  94 129 169 210 267 321 378
#     4  10  22  41  66  92 126 169 219 258 322 375
#     4   9  21  44  65  95 129 170 213 264 313 386
#     4  10  24  44  62  96 127 169 205 259 316 382
#     4   9  21  42  65  96 126 169 216 266 318 377
#
# _framework density 22.434142999999999
#
# number of rings (size 3 to 8) (size 9 to 14) (size 15 to 20)
#    2.000    0.444    0.000    1.333    0.000    6.667 
#    4.000    1.111    0.000    0.000    0.000    0.000 
#    0.000    0.000    0.000    0.000    0.000    0.000 
#
# Total GULP energy -100371.509691 kJ/mol
# GULP energy per Si atom -5576.194983 kJ/mol
# Density = 2.238308 g / cm^3
# Si number density = 22.434143 Si / 1000 Ang^3
#
#
#
# Elastic Constant Matrix: (Units=GPa)
#
#
# Indices 1 2 3 4 5 6 
#
# 1 159.9579 17.3941 24.4450 0.0000 3.9615 0.0000
# 2 17.3941 119.3139 35.4365 0.0000 -14.3790 0.0000
# 3 24.4450 35.4365 61.4551 0.0000 0.7123 0.0000
# 4 0.0000 0.0000 0.0000 -58.1206 0.0000 -48.5882
# 5 3.9615 -14.3790 0.7123 0.0000 43.2404 0.0000
# 6 0.0000 0.0000 0.0000 -48.5882 0.0000 -8.3361
#
#
#
# Elastic Compliance Matrix: (Units=1/GPa)
#
#
# Indices 1 2 3 4 5 6 
#
# 1 0.006680 -0.000324 -0.002462 0.000000 -0.000679 0.000000
# 2 -0.000324 0.010674 -0.006069 0.000000 0.003679 0.000000
# 3 -0.002462 -0.006069 0.020776 0.000000 -0.002135 0.000000
# 4 0.000000 0.000000 0.000000 0.004443 0.000000 -0.025896
# 5 -0.000679 0.003679 -0.002135 0.000000 0.024447 0.000000
# 6 0.000000 0.000000 0.000000 -0.025896 0.000000 0.030976
#
#
# Mechanical properties :
#
#
# Convention : Reuss Voigt Hill
#
# Bulk Modulus (GPa) = 48.97323 55.03090 52.00207
# Shear Modulus (GPa) = 40.81197 12.92016 26.86607
#
# Velocity S-wave (km/s) = 4.26982 2.40243 3.46432
# Velocity P-wave (km/s) = 6.79601 5.68144 6.26356
#
# Compressibility (1/GPa) = 0.02041932
#
# Stress axis : x y z
#
# Youngs Moduli (GPa) = 149.70013 93.68225 48.13354
#
# Poissons Ratio (x) = 0.03039 0.11851
# Poissons Ratio (y) = 0.04857 0.29211
# Poissons Ratio (z) = 0.36859 0.56853
#
# Static dielectric constant tensor:
#      x y z
#    x 1.875880 0.000000 0.039370 
#    y 0.000000 1.828750 0.000000 
#    z 0.039370 0.000000 1.775610 
# 
# From -- ./inp_files/19970.got.cif
#   From: 2010.05.17/outbox.cif.g08.bks.cpg/sg12_10_cif.got.tgz:19970.got - 2010.06.03 13:09:07.
