data_PCOD9215568
_publ_section_title
;
Structure prediction by ZEFSAII (Michael W. Deem and Ramdas Pophale) SiO2 
 PCOD9215568
Probable space group: C 2/M
;
_chemical_formula_sum "Si O2"
_cell_formula_units_Z 32
_cell_length_a 21.076366
_cell_length_b 11.246185
_cell_length_c 5.520283
_cell_angle_alpha 90.000000
_cell_angle_beta 106.486886
_cell_angle_gamma 90.000000
_cell_volume 1254.667631
_symmetry_space_group_name_H-M "C 2/M"
_symmetry_group_IT_number 12
_symmetry_cell_setting 'monoclinic'
loop_
_space_group_symop_operation_xyz
x,y,z
-x,y,-z
-x,-y,-z
x,-y,z
1/2+x,1/2+y,z
1/2-x,1/2+y,-z
1/2-x,1/2-y,-z
1/2+x,1/2-y,z
loop_
_atom_site_type_symbol
_atom_site_label
_atom_site_fract_x
_atom_site_fract_y
_atom_site_fract_z
Si Si1 0.826560 0.210258 0.089104
Si Si2 0.457451 0.365575 0.708605
Si Si3 0.293959 0.371180 0.555014
Si Si4 0.078049 0.631244 0.533646
O O1 0.830001 0.131218 0.334186
O O2 0.877012 0.318322 0.196825
O O3 0.750000 0.250000 0.000000
O O4 0.835087 0.140970 0.848881
O O5 0.500000 0.363675 0.500000
O O6 0.429459 0.500000 0.682786
O O7 0.419840 0.238084 0.655782
O O8 0.500000 0.358229 0.000000
O O9 0.258751 0.500000 0.531913
O O10 0.250000 0.250000 0.500000
O O11 0.101538 0.500000 0.486315
O O12 0.000000 0.619907 0.500000
#
# Coordination Sequence:
#
# PCOD9215568 Si02
#       4
#     8   8   8   8
#     4  10  23  42  66  97 135 176 220 271 334 401
#     4   9  19  37  60  88 125 168 211 258 317 387
#     4  10  22  41  68 100 135 176 225 279 336 399
#     4  10  23  44  70 101 136 176 225 283 342 399
#
# _framework density 25.504764999999999
#
# number of rings (size 3 to 8) (size 9 to 14) (size 15 to 20)
#    0.000    2.250    0.000    0.750    0.000   14.500 
#    0.000   10.000    0.000    0.000    0.000    0.000 
#    0.000    0.000    0.000    0.000    0.000    0.000 
#
# Total GULP energy -89150.545557 kJ/mol
# GULP energy per Si atom -5571.909097 kJ/mol
# Density = 2.544672 g / cm^3
# Si number density = 25.504765 Si / 1000 Ang^3
#
#
#
# Elastic Constant Matrix: (Units=GPa)
#
#
# Indices 1 2 3 4 5 6 
#
# 1 92.3081 44.1842 40.2421 0.0000 9.4546 0.0000
# 2 44.1842 304.7536 91.0556 0.0000 11.6042 0.0000
# 3 40.2421 91.0556 223.5618 0.0000 -8.4004 0.0000
# 4 0.0000 0.0000 0.0000 31.4482 0.0000 8.2049
# 5 9.4546 11.6042 -8.4004 0.0000 56.8055 0.0000
# 6 0.0000 0.0000 0.0000 8.2049 0.0000 25.2432
#
#
#
# Elastic Compliance Matrix: (Units=1/GPa)
#
#
# Indices 1 2 3 4 5 6 
#
# 1 0.012409 -0.001171 -0.001836 0.000000 -0.002098 0.000000
# 2 -0.001171 0.003903 -0.001409 0.000000 -0.000811 0.000000
# 3 -0.001836 -0.001409 0.005430 0.000000 0.001396 0.000000
# 4 0.000000 0.000000 0.000000 0.034745 0.000000 -0.011293
# 5 -0.002098 -0.000811 0.001396 0.000000 0.018325 0.000000
# 6 0.000000 0.000000 0.000000 -0.011293 0.000000 0.043285
#
#
# Mechanical properties :
#
#
# Convention : Reuss Voigt Hill
#
# Bulk Modulus (GPa) = 77.45790 107.95413 92.70602
# Shear Modulus (GPa) = 38.10047 52.37549 45.23798
#
# Velocity S-wave (km/s) = 3.86924 4.53654 4.21611
# Velocity P-wave (km/s) = 7.09910 8.35818 7.75424
#
# Compressibility (1/GPa) = 0.01291024
#
# Stress axis : x y z
#
# Youngs Moduli (GPa) = 80.58827 256.20861 184.16275
#
# Poissons Ratio (x) = 0.29995 0.33805
# Poissons Ratio (y) = 0.09435 0.25956
# Poissons Ratio (z) = 0.14793 0.36111
#
# Static dielectric constant tensor:
#      x y z
#    x 9.362140 0.000000 0.852260 
#    y 0.000000 1.934670 0.000000 
#    z 0.852260 0.000000 2.159580 
# 
# From -- ./inp_files/27182.got.cif
#   From: 2010.05.17/outbox.cif.g08.bks.cpg/sg12_14_cif.got.tgz:27182.got - 2010.06.03 13:09:07.
