data_PCOD9215854
_publ_section_title
;
Structure prediction by ZEFSAII (Michael W. Deem and Ramdas Pophale) SiO2 
 PCOD9215854
Probable space group: C 2/M
;
_chemical_formula_sum "Si O2"
_cell_formula_units_Z 34
_cell_length_a 6.897858
_cell_length_b 12.803898
_cell_length_c 21.078511
_cell_angle_alpha 90.000000
_cell_angle_beta 37.634054
_cell_angle_gamma 90.000000
_cell_volume 1136.748876
_symmetry_space_group_name_H-M "C 2/M"
_symmetry_group_IT_number 12
_symmetry_cell_setting 'monoclinic'
loop_
_space_group_symop_operation_xyz
x,y,z
-x,y,-z
-x,-y,-z
x,-y,z
1/2+x,1/2+y,z
1/2-x,1/2+y,-z
1/2-x,1/2-y,-z
1/2+x,1/2-y,z
loop_
_atom_site_type_symbol
_atom_site_label
_atom_site_fract_x
_atom_site_fract_y
_atom_site_fract_z
Si Si1 0.102035 0.154554 0.333640
Si Si2 0.691111 0.842677 0.863667
Si Si3 0.876406 0.384991 0.388576
Si Si4 0.000000 0.500000 0.500000
Si Si5 0.012890 0.889270 0.906714
O O1 0.048030 0.278103 0.362663
O O2 0.201956 0.138513 0.235280
O O3 0.363991 0.114458 0.315476
O O4 0.780207 0.091697 0.428192
O O5 0.934339 0.887480 0.851946
O O6 0.679098 0.718669 0.880553
O O7 0.339190 0.881818 0.970715
O O8 0.500000 0.375396 0.500000
O O9 0.979629 0.500000 0.389219
O O10 0.152014 0.000000 0.889675
#
# Coordination Sequence:
#
# PCOD9215854 Si02
#       5
#     8   8   8   2   8
#     4  12  25  45  66  98 132 176 221 268 328 390
#     4  10  22  42  66  97 133 165 219 265 321 395
#     4  11  25  44  65  91 129 172 222 279 319 379
#     4  12  28  40  72  98 132 178 224 266 328 384
#     4  10  22  42  67  98 130 169 210 271 326 385
#
# _framework density 29.909859999999998
#
# number of rings (size 3 to 8) (size 9 to 14) (size 15 to 20)
#    0.000    1.176    2.353    3.529    3.294    0.941 
#    0.000   10.588    0.000    0.000    0.000    0.000 
#    0.000    0.000    0.000    0.000    0.000    0.000 
#
# Total GULP energy -95513.405642 kJ/mol
# GULP energy per Si atom -5618.435626 kJ/mol
# Density = 2.984178 g / cm^3
# Si number density = 29.909860 Si / 1000 Ang^3
#
#
#
# Elastic Constant Matrix: (Units=GPa)
#
#
# Indices 1 2 3 4 5 6 
#
# 1 113.0563 49.1382 32.3433 -0.0009 -2.5628 -0.0244
# 2 49.1382 303.8194 43.9461 0.0023 -8.2352 -0.0081
# 3 32.3433 43.9461 136.2055 -0.0101 5.8457 0.0025
# 4 -0.0009 0.0023 -0.0101 41.6401 -0.0004 -16.7621
# 5 -2.5628 -8.2352 5.8457 -0.0004 52.2120 0.0292
# 6 -0.0244 -0.0081 0.0025 -16.7621 0.0292 173.9674
#
#
#
# Elastic Compliance Matrix: (Units=1/GPa)
#
#
# Indices 1 2 3 4 5 6 
#
# 1 0.009993 -0.001318 -0.001969 0.000000 0.000503 0.000001
# 2 -0.001318 0.003650 -0.000891 -0.000001 0.000611 0.000000
# 3 -0.001969 -0.000891 0.008146 0.000002 -0.001149 0.000000
# 4 0.000000 -0.000001 0.000002 0.024984 -0.000001 0.002407
# 5 0.000503 0.000611 -0.001149 -0.000001 0.019402 -0.000003
# 6 0.000001 0.000000 0.000000 0.002407 -0.000003 0.005980
#
#
# Mechanical properties :
#
#
# Convention : Reuss Voigt Hill
#
# Bulk Modulus (GPa) = 74.44351 89.32626 81.88488
# Shear Modulus (GPa) = 58.83092 82.07415 70.45254
#
# Velocity S-wave (km/s) = 4.43983 5.24405 4.85861
# Velocity P-wave (km/s) = 7.15724 8.16068 7.67538
#
# Compressibility (1/GPa) = 0.01343300
#
# Stress axis : x y z
#
# Youngs Moduli (GPa) = 100.07369 273.97476 122.75564
#
# Poissons Ratio (x) = 0.36101 0.24174
# Poissons Ratio (y) = 0.13186 0.10937
# Poissons Ratio (z) = 0.19707 0.24410
#
# Static dielectric constant tensor:
#      x y z
#    x 2.126460 -0.000010 -0.155340 
#    y -0.000010 2.186720 0.000000 
#    z -0.155340 0.000000 2.063220 
# 
# From -- ./inp_files/357624.got.cif
#   From: 2010.05.17/outbox.cif.g08.bks.cpg/sg12_179_cif.got.tgz:357624.got - 2010.06.03 13:09:07.
