data_PCOD9215540
_publ_section_title
;
Structure prediction by ZEFSAII (Michael W. Deem and Ramdas Pophale) SiO2 
 PCOD9215540
Probable space group: C 2/M
;
_chemical_formula_sum "Si O2"
_cell_formula_units_Z 64
_cell_length_a 8.855905
_cell_length_b 24.696689
_cell_length_c 15.423107
_cell_angle_alpha 90.000000
_cell_angle_beta 90.414912
_cell_angle_gamma 90.000000
_cell_volume 3373.122908
_symmetry_space_group_name_H-M "C 2/M"
_symmetry_group_IT_number 12
_symmetry_cell_setting 'monoclinic'
loop_
_space_group_symop_operation_xyz
x,y,z
-x,y,-z
-x,-y,-z
x,-y,z
1/2+x,1/2+y,z
1/2-x,1/2+y,-z
1/2-x,1/2-y,-z
1/2+x,1/2-y,z
loop_
_atom_site_type_symbol
_atom_site_label
_atom_site_fract_x
_atom_site_fract_y
_atom_site_fract_z
Si Si1 0.934413 0.939062 0.594653
Si Si2 0.569801 0.133879 0.251036
Si Si3 0.072171 0.064009 0.092848
Si Si4 0.571392 0.629364 0.751061
Si Si5 0.718913 0.716545 0.414713
Si Si6 0.614856 0.102466 0.579553
Si Si7 0.067605 0.563761 0.904222
Si Si8 0.968339 0.753107 0.295554
O O1 0.752547 0.938867 0.589980
O O2 0.000000 0.925379 0.500000
O O3 0.992058 0.896833 0.666327
O O4 0.987025 0.000000 0.617079
O O5 0.748710 0.124980 0.258546
O O6 0.483000 0.109300 0.333951
O O7 0.507557 0.103535 0.165880
O O8 0.534873 0.198372 0.254716
O O9 0.252180 0.072959 0.093773
O O10 0.990997 0.097024 0.167535
O O11 0.046967 0.000000 0.107233
O O12 0.000000 0.077990 0.000000
O O13 0.531904 0.692800 0.760713
O O14 0.750000 0.750000 0.500000
O O15 0.790055 0.658067 0.432681
O O16 0.548423 0.727108 0.385233
O O17 0.802939 0.737549 0.328511
O O18 0.500000 0.093072 0.500000
O O19 0.041314 0.500000 0.881575
O O20 0.000000 0.572205 0.000000
#
# Coordination Sequence:
#
# PCOD9215540 Si02
#       8
#     8   8   8   8   8   8   8   8
#     4  11  25  41  59  85 121 166 213 260 314 376
#     4  11  24  40  61  94 128 163 205 258 315 363
#     4  10  22  41  67  97 124 155 204 257 307 368
#     4  12  23  40  64  87 125 167 206 257 310 373
#     4  11  21  36  57  87 115 158 211 263 307 359
#     4  11  23  39  59  87 123 163 213 259 306 373
#     4  10  22  42  70  99 126 160 203 254 310 371
#     4  11  23  37  57  89 124 161 206 258 313 371
#
# _framework density 18.973516
#
# number of rings (size 3 to 8) (size 9 to 14) (size 15 to 20)
#    0.000    1.125    2.500    4.500    3.500    3.750 
#    0.000    0.625    0.000    3.000    0.000    0.000 
#    0.000    0.000    0.000    0.000    0.000    0.000 
#
# Total GULP energy -178694.883028 kJ/mol
# GULP energy per Si atom -5584.215095 kJ/mol
# Density = 1.893033 g / cm^3
# Si number density = 18.973516 Si / 1000 Ang^3
#
#
#
# Elastic Constant Matrix: (Units=GPa)
#
#
# Indices 1 2 3 4 5 6 
#
# 1 116.0059 50.5075 51.9516 0.0000 0.3401 0.0000
# 2 50.5075 102.4985 69.8320 0.0000 -0.9018 0.0000
# 3 51.9516 69.8320 100.5895 0.0000 1.4818 0.0000
# 4 0.0000 0.0000 0.0000 27.6081 0.0000 2.2922
# 5 0.3401 -0.9018 1.4818 0.0000 38.1801 0.0000
# 6 0.0000 0.0000 0.0000 2.2922 0.0000 24.8096
#
#
#
# Elastic Compliance Matrix: (Units=1/GPa)
#
#
# Indices 1 2 3 4 5 6 
#
# 1 0.011721 -0.003135 -0.003877 0.000000 -0.000028 0.000000
# 2 -0.003135 0.019384 -0.011852 0.000000 0.000946 0.000000
# 3 -0.003877 -0.011852 0.020187 0.000000 -0.001029 0.000000
# 4 0.000000 0.000000 0.000000 0.036501 0.000000 -0.003372
# 5 -0.000028 0.000946 -0.001029 0.000000 0.026254 0.000000
# 6 0.000000 0.000000 0.000000 -0.003372 0.000000 0.040619
#
#
# Mechanical properties :
#
#
# Convention : Reuss Voigt Hill
#
# Bulk Modulus (GPa) = 73.71981 73.74179 73.73080
# Shear Modulus (GPa) = 25.39169 27.90642 26.64905
#
# Velocity S-wave (km/s) = 3.66221 3.83927 3.75178
# Velocity P-wave (km/s) = 7.53795 7.65528 7.59685
#
# Compressibility (1/GPa) = 0.01356488
#
# Stress axis : x y z
#
# Youngs Moduli (GPa) = 85.31350 51.58971 49.53720
#
# Poissons Ratio (x) = 0.16171 0.19207
# Poissons Ratio (y) = 0.26742 0.58710
# Poissons Ratio (z) = 0.33079 0.61143
#
# Static dielectric constant tensor:
#      x y z
#    x 1.677800 0.000000 -0.005070 
#    y 0.000000 1.676780 0.000000 
#    z -0.005070 0.000000 1.625030 
# 
# From -- ./inp_files/198889.got.cif
#   From: 2010.05.17/outbox.cif.g08.bks.cpg/sg12_100_cif.got.tgz:198889.got - 2010.06.03 13:09:07.
