data_PCOD9215875
_publ_section_title
;
Structure prediction by ZEFSAII (Michael W. Deem and Ramdas Pophale) SiO2 
 PCOD9215875
Probable space group: C 2/M
;
_chemical_formula_sum "Si O2"
_cell_formula_units_Z 42
_cell_length_a 27.021776
_cell_length_b 12.067759
_cell_length_c 6.610165
_cell_angle_alpha 90.000000
_cell_angle_beta 105.893464
_cell_angle_gamma 90.000000
_cell_volume 2073.123613
_symmetry_space_group_name_H-M "C 2/M"
_symmetry_group_IT_number 12
_symmetry_cell_setting 'monoclinic'
loop_
_space_group_symop_operation_xyz
x,y,z
-x,y,-z
-x,-y,-z
x,-y,z
1/2+x,1/2+y,z
1/2-x,1/2+y,-z
1/2-x,1/2-y,-z
1/2+x,1/2-y,z
loop_
_atom_site_type_symbol
_atom_site_label
_atom_site_fract_x
_atom_site_fract_y
_atom_site_fract_z
Si Si1 0.816821 0.371820 0.549172
Si Si2 0.042750 0.874421 0.215518
Si Si3 0.920021 0.296941 0.424988
Si Si4 0.616912 0.620287 0.940318
Si Si5 0.776660 0.199841 0.834149
Si Si6 0.000000 0.500000 0.500000
O O1 0.823098 0.500000 0.615818
O O2 0.868028 0.333102 0.486757
O O3 0.803917 0.293659 0.725519
O O4 0.767139 0.358611 0.348198
O O5 0.047977 0.785342 0.394268
O O6 0.033071 0.000000 0.276809
O O7 0.094487 0.873743 0.140911
O O8 0.000000 0.846839 0.000000
O O9 0.903200 0.222457 0.214804
O O10 0.955327 0.402525 0.419561
O O11 0.600589 0.500000 0.835764
O O12 0.677776 0.624702 0.030730
O O13 0.750000 0.250000 0.000000
#
# Coordination Sequence:
#
# PCOD9215875 Si02
#       6
#     8   8   8   8   8   2
#     4  11  24  43  67  96 142 181 221 284 345 411
#     4  10  22  42  67  93 127 169 220 281 340 394
#     4  12  23  45  65  98 137 176 228 278 338 403
#     4  11  23  41  69 100 130 172 228 286 339 403
#     4  11  23  44  66  99 134 178 230 280 344 415
#     4  12  28  44  72  96 136 190 228 274 336 420
#
# _framework density 20.259284999999998
#
# number of rings (size 3 to 8) (size 9 to 14) (size 15 to 20)
#    0.000    0.952    4.762    2.286    0.000    1.524 
#    1.714    8.095    0.000    0.000    0.000    0.000 
#    0.000    0.000    0.000    0.000    0.000    0.000 
#
# Total GULP energy -117068.229254 kJ/mol
# GULP energy per Si atom -5574.677584 kJ/mol
# Density = 2.021317 g / cm^3
# Si number density = 20.259285 Si / 1000 Ang^3
#
#
#
# Elastic Constant Matrix: (Units=GPa)
#
#
# Indices 1 2 3 4 5 6 
#
# 1 105.5429 47.7717 14.4224 0.0000 0.8505 0.0000
# 2 47.7717 171.7976 61.3897 0.0000 10.1535 0.0000
# 3 14.4224 61.3897 65.8950 0.0000 7.2451 0.0000
# 4 0.0000 0.0000 0.0000 11.8309 0.0000 6.8476
# 5 0.8505 10.1535 7.2451 0.0000 35.3340 0.0000
# 6 0.0000 0.0000 0.0000 6.8476 0.0000 27.6626
#
#
#
# Elastic Compliance Matrix: (Units=1/GPa)
#
#
# Indices 1 2 3 4 5 6 
#
# 1 0.010868 -0.003273 0.000609 0.000000 0.000554 0.000000
# 2 -0.003273 0.009737 -0.008242 0.000000 -0.001029 0.000000
# 3 0.000609 -0.008242 0.022980 0.000000 -0.002358 0.000000
# 4 0.000000 0.000000 0.000000 0.098660 0.000000 -0.024422
# 5 0.000554 -0.001029 -0.002358 0.000000 0.029067 0.000000
# 6 0.000000 0.000000 0.000000 -0.024422 0.000000 0.042195
#
#
# Mechanical properties :
#
#
# Convention : Reuss Voigt Hill
#
# Bulk Modulus (GPa) = 45.92455 65.60035 55.76245
# Shear Modulus (GPa) = 20.61214 29.60894 25.11054
#
# Velocity S-wave (km/s) = 3.19316 3.82710 3.52441
# Velocity P-wave (km/s) = 6.02600 7.20969 6.64426
#
# Compressibility (1/GPa) = 0.02177485
#
# Stress axis : x y z
#
# Youngs Moduli (GPa) = 92.01011 102.70488 43.51674
#
# Poissons Ratio (x) = 0.33611 -0.02651
# Poissons Ratio (y) = 0.30111 0.35864
# Poissons Ratio (z) = -0.05605 0.84644
#
# Static dielectric constant tensor:
#      x y z
#    x 1.813940 0.000000 -0.005220 
#    y 0.000000 1.709200 0.000000 
#    z -0.005220 0.000000 1.699290 
# 
# From -- ./inp_files/30803.got.cif
#   From: 2010.05.17/outbox.cif.g08.bks.cpg/sg12_16_cif.got.tgz:30803.got - 2010.06.03 13:09:07.
