data_PCOD9215807
_publ_section_title
;
Structure prediction by ZEFSAII (Michael W. Deem and Ramdas Pophale) SiO2 
 PCOD9215807
Probable space group: C 2/M
;
_chemical_formula_sum "Si O2"
_cell_formula_units_Z 36
_cell_length_a 22.580389
_cell_length_b 7.919131
_cell_length_c 9.768482
_cell_angle_alpha 90.000000
_cell_angle_beta 86.856918
_cell_angle_gamma 90.000000
_cell_volume 1744.143593
_symmetry_space_group_name_H-M "C 2/M"
_symmetry_group_IT_number 12
_symmetry_cell_setting 'monoclinic'
loop_
_space_group_symop_operation_xyz
x,y,z
-x,y,-z
-x,-y,-z
x,-y,z
1/2+x,1/2+y,z
1/2-x,1/2+y,-z
1/2-x,1/2-y,-z
1/2+x,1/2-y,z
loop_
_atom_site_type_symbol
_atom_site_label
_atom_site_fract_x
_atom_site_fract_y
_atom_site_fract_z
Si Si1 0.243120 0.300400 0.161425
Si Si2 0.626123 0.197747 0.806062
Si Si3 0.928506 0.000000 0.008913
Si Si4 0.842998 0.000000 0.754569
Si Si5 0.515412 0.177472 0.657799
Si Si6 0.041414 0.000000 0.359052
O O1 0.228647 0.500000 0.173668
O O2 0.307212 0.262600 0.219298
O O3 0.196322 0.168447 0.230225
O O4 0.250000 0.250000 0.000000
O O5 0.593803 0.329955 0.910414
O O6 0.584812 0.202239 0.676436
O O7 0.627843 0.000000 0.851621
O O8 0.000000 0.000000 0.000000
O O9 0.888539 0.000000 0.876677
O O10 0.889019 0.000000 0.622597
O O11 0.500000 0.166439 0.500000
O O12 0.478423 0.332842 0.716801
O O13 0.498556 0.000000 0.726779
O O14 0.000000 0.000000 0.500000
#
# Coordination Sequence:
#
# PCOD9215807 Si02
#       6
#     8   8   4   4   8   4
#     4  12  21  37  60  89 128 174 203 252 303 373
#     4  11  20  35  59  87 127 166 202 252 308 372
#     4  12  24  36  55  89 132 164 206 245 304 382
#     4  12  24  38  62  93 127 164 217 246 316 377
#     4   9  19  36  61  90 114 159 208 259 317 358
#     4  10  22  42  66  88 119 162 209 269 312 365
#
# _framework density 20.640504
#
# number of rings (size 3 to 8) (size 9 to 14) (size 15 to 20)
#    0.000    1.111    5.556    2.000    0.000    1.333 
#    0.000    0.000    0.000    5.333    0.000    0.000 
#    0.000    0.000    0.000    0.000    0.000    0.000 
#
# Total GULP energy -100339.915133 kJ/mol
# GULP energy per Si atom -5574.439730 kJ/mol
# Density = 2.059353 g / cm^3
# Si number density = 20.640504 Si / 1000 Ang^3
#
#
#
# Elastic Constant Matrix: (Units=GPa)
#
#
# Indices 1 2 3 4 5 6 
#
# 1 188.9450 87.3681 36.0606 0.0000 -1.2974 0.0000
# 2 87.3681 224.4507 13.2237 0.0000 -12.8545 0.0000
# 3 36.0606 13.2237 37.5154 0.0000 10.6149 0.0000
# 4 0.0000 0.0000 0.0000 3.5299 0.0000 4.6856
# 5 -1.2974 -12.8545 10.6149 0.0000 40.0885 0.0000
# 6 0.0000 0.0000 0.0000 4.6856 0.0000 40.8198
#
#
#
# Elastic Compliance Matrix: (Units=1/GPa)
#
#
# Indices 1 2 3 4 5 6 
#
# 1 0.007815 -0.002558 -0.006972 0.000000 0.001279 0.000000
# 2 -0.002558 0.005546 0.000026 0.000000 0.001689 0.000000
# 3 -0.006972 0.000026 0.036115 0.000000 -0.009780 0.000000
# 4 0.000000 0.000000 0.000000 0.334219 0.000000 -0.038364
# 5 0.001279 0.001689 -0.009780 0.000000 0.028117 0.000000
# 6 0.000000 0.000000 0.000000 -0.038364 0.000000 0.028902
#
#
# Mechanical properties :
#
#
# Convention : Reuss Voigt Hill
#
# Bulk Modulus (GPa) = 32.82074 80.46844 56.64459
# Shear Modulus (GPa) = 10.64106 37.83824 24.23965
#
# Velocity S-wave (km/s) = 2.27302 4.28624 3.43063
# Velocity P-wave (km/s) = 4.77750 7.97284 6.57231
#
# Compressibility (1/GPa) = 0.03046854
#
# Stress axis : x y z
#
# Youngs Moduli (GPa) = 127.96408 180.30421 27.68910
#
# Poissons Ratio (x) = 0.46120 0.19304
# Poissons Ratio (y) = 0.32732 -0.00072
# Poissons Ratio (z) = 0.89215 -0.00467
#
# Static dielectric constant tensor:
#      x y z
#    x 1.761000 0.000000 -0.001900 
#    y 0.000000 1.755270 0.000000 
#    z -0.001900 0.000000 1.660610 
# 
# From -- ./inp_files/161977.got.cif
#   From: 2010.05.17/outbox.cif.g08.bks.cpg/sg12_81_cif.got.tgz:161977.got - 2010.06.03 13:09:07.
