data_PCOD9215547
_publ_section_title
;
Structure prediction by ZEFSAII (Michael W. Deem and Ramdas Pophale) SiO2 
 PCOD9215547
Probable space group: C 2/M
;
_chemical_formula_sum "Si O2"
_cell_formula_units_Z 64
_cell_length_a 26.256100
_cell_length_b 25.599709
_cell_length_c 8.264952
_cell_angle_alpha 90.000000
_cell_angle_beta 146.626820
_cell_angle_gamma 90.000000
_cell_volume 3055.900750
_symmetry_space_group_name_H-M "C 2/M"
_symmetry_group_IT_number 12
_symmetry_cell_setting 'monoclinic'
loop_
_space_group_symop_operation_xyz
x,y,z
-x,y,-z
-x,-y,-z
x,-y,z
1/2+x,1/2+y,z
1/2-x,1/2+y,-z
1/2-x,1/2-y,-z
1/2+x,1/2-y,z
loop_
_atom_site_type_symbol
_atom_site_label
_atom_site_fract_x
_atom_site_fract_y
_atom_site_fract_z
Si Si1 0.790286 0.058780 0.710396
Si Si2 0.601052 0.647524 0.184564
Si Si3 0.139798 0.720526 0.737840
Si Si4 0.654015 0.250837 0.150617
Si Si5 0.599594 0.439934 0.674858
Si Si6 0.578363 0.056945 0.067953
Si Si7 0.480280 0.839113 0.139503
Si Si8 0.170622 0.831895 0.704487
O O1 0.858869 0.097334 0.799251
O O2 0.681019 0.070595 0.406289
O O3 0.803896 0.000000 0.683449
O O4 0.821816 0.059255 0.979416
O O5 0.603045 0.695571 0.064777
O O6 0.673576 0.659407 0.520673
O O7 0.500000 0.641718 0.000000
O O8 0.122664 0.775029 0.596971
O O9 0.056973 0.684480 0.460173
O O10 0.152205 0.741269 0.953742
O O11 0.231066 0.684179 0.953987
O O12 0.750000 0.250000 0.500000
O O13 0.602011 0.201140 0.079061
O O14 0.500000 0.434981 0.500000
O O15 0.599645 0.500000 0.599760
O O16 0.622157 0.385416 0.640231
O O17 0.584234 0.000000 0.006104
O O18 0.500000 0.053128 0.000000
O O19 0.548228 0.104010 0.875448
O O20 0.500000 0.843736 0.000000
#
# Coordination Sequence:
#
# PCOD9215547 Si02
#       8
#     8   8   8   8   8   8   8   8
#     4  10  22  41  67  97 133 180 227 278 342 410
#     4  12  24  40  65  98 133 177 228 279 342 411
#     4  11  25  42  62  94 132 175 223 277 343 404
#     4  12  23  41  64  90 129 174 222 272 337 405
#     4  10  22  41  67  98 134 179 229 281 342 412
#     4   9  20  39  65  95 126 168 225 279 331 402
#     4  11  24  39  66  96 128 166 219 278 334 401
#     4  11  24  40  63  94 133 172 223 277 340 408
#
# _framework density 20.943090000000002
#
# number of rings (size 3 to 8) (size 9 to 14) (size 15 to 20)
#    0.000    1.250    1.250    4.500    5.250    1.750 
#    0.000    0.000    0.000    1.500    0.000    0.000 
#    0.000    0.000    0.000    0.000    0.000    0.000 
#
# Total GULP energy -178303.737069 kJ/mol
# GULP energy per Si atom -5571.991783 kJ/mol
# Density = 2.089542 g / cm^3
# Si number density = 20.943090 Si / 1000 Ang^3
#
#
#
# Elastic Constant Matrix: (Units=GPa)
#
#
# Indices 1 2 3 4 5 6 
#
# 1 46.7813 34.1448 13.0077 0.0000 10.4979 0.0000
# 2 34.1448 173.4312 47.6719 0.0000 15.1583 0.0000
# 3 13.0077 47.6719 111.2020 0.0000 16.2497 0.0000
# 4 0.0000 0.0000 0.0000 31.0944 0.0000 -0.1750
# 5 10.4979 15.1583 16.2497 0.0000 35.6279 0.0000
# 6 0.0000 0.0000 0.0000 -0.1750 0.0000 42.3776
#
#
#
# Elastic Compliance Matrix: (Units=1/GPa)
#
#
# Indices 1 2 3 4 5 6 
#
# 1 0.026040 -0.004562 -0.000271 0.000000 -0.005608 0.000000
# 2 -0.004562 0.007423 -0.002554 0.000000 -0.000649 0.000000
# 3 -0.000271 -0.002554 0.010659 0.000000 -0.003695 0.000000
# 4 0.000000 0.000000 0.000000 0.032161 0.000000 0.000133
# 5 -0.005608 -0.000649 -0.003695 0.000000 0.031682 0.000000
# 6 0.000000 0.000000 0.000000 0.000133 0.000000 0.023598
#
#
# Mechanical properties :
#
#
# Convention : Reuss Voigt Hill
#
# Bulk Modulus (GPa) = 34.07311 57.89593 45.98452
# Shear Modulus (GPa) = 32.02708 37.59263 34.80985
#
# Velocity S-wave (km/s) = 3.91480 4.24133 4.08133
# Velocity P-wave (km/s) = 6.06126 7.18955 6.64938
#
# Compressibility (1/GPa) = 0.02934866
#
# Stress axis : x y z
#
# Youngs Moduli (GPa) = 38.40310 134.71984 93.81716
#
# Poissons Ratio (x) = 0.61460 0.02540
# Poissons Ratio (y) = 0.17520 0.23957
# Poissons Ratio (z) = 0.01040 0.34402
#
# Static dielectric constant tensor:
#      x y z
#    x 1.730040 0.000000 0.096800 
#    y 0.000000 1.813970 0.000000 
#    z 0.096800 0.000000 1.705530 
# 
# From -- ./inp_files/113652.got.cif
#   From: 2010.05.17/outbox.cif.g08.bks.cpg/sg12_57_cif.got.tgz:113652.got - 2010.06.03 13:09:07.
