data_PCOD9215590
_publ_section_title
;
Structure prediction by ZEFSAII (Michael W. Deem and Ramdas Pophale) SiO2 
 PCOD9215590
Probable space group: C 2/M
;
_chemical_formula_sum "Si O2"
_cell_formula_units_Z 44
_cell_length_a 18.970053
_cell_length_b 17.532739
_cell_length_c 7.545763
_cell_angle_alpha 90.000000
_cell_angle_beta 132.639228
_cell_angle_gamma 90.000000
_cell_volume 1846.217923
_symmetry_space_group_name_H-M "C 2/M"
_symmetry_group_IT_number 12
_symmetry_cell_setting 'monoclinic'
loop_
_space_group_symop_operation_xyz
x,y,z
-x,y,-z
-x,-y,-z
x,-y,z
1/2+x,1/2+y,z
1/2-x,1/2+y,-z
1/2-x,1/2-y,-z
1/2+x,1/2-y,z
loop_
_atom_site_type_symbol
_atom_site_label
_atom_site_fract_x
_atom_site_fract_y
_atom_site_fract_z
Si Si1 0.482951 0.662104 0.261795
Si Si2 0.500000 0.776245 0.000000
Si Si3 0.713064 0.000000 0.268965
Si Si4 0.145437 0.627279 0.377577
Si Si5 0.515521 0.500000 0.738220
Si Si6 0.000527 0.500000 0.285780
Si Si7 0.742938 0.326602 0.109550
Si Si8 0.272678 0.500000 0.006472
O O1 0.500000 0.670472 0.500000
O O2 0.520697 0.580678 0.258264
O O3 0.523641 0.727808 0.211392
O O4 0.369143 0.665686 0.042958
O O5 0.406812 0.827064 0.866862
O O6 0.719194 0.071808 0.407596
O O7 0.790184 0.000000 0.246336
O O8 0.605911 0.000000 0.988095
O O9 0.063054 0.572844 0.324978
O O10 0.195374 0.679499 0.607826
O O11 0.500000 0.500000 0.500000
O O12 0.631566 0.500000 0.947137
O O13 0.000000 0.500000 0.500000
O O14 0.750000 0.250000 0.000000
O O15 0.772391 0.414386 0.096510
#
# Coordination Sequence:
#
# PCOD9215590 Si02
#       8
#     8   4   4   8   4   4   8   4
#     4  10  23  44  66  91 129 172 227 284 339 402
#     4  12  24  40  64  96 136 174 216 276 344 408
#     4  11  21  42  65 100 138 179 211 272 354 413
#     4  11  23  41  60  97 141 166 221 280 330 417
#     4   8  18  43  66  87 118 161 228 280 316 389
#     4  11  21  39  70  94 129 187 222 263 339 421
#     4  11  24  43  68  97 132 177 231 283 339 405
#     4  10  22  41  68  96 128 176 226 272 339 407
#
# _framework density 23.832507
#
# number of rings (size 3 to 8) (size 9 to 14) (size 15 to 20)
#    0.000    1.455    1.818    3.818    2.545    3.273 
#    9.818    0.000    0.000    0.000    0.000    0.000 
#    0.000    0.000    0.000    0.000    0.000    0.000 
#
# Total GULP energy -122733.701774 kJ/mol
# GULP energy per Si atom -5578.804626 kJ/mol
# Density = 2.377826 g / cm^3
# Si number density = 23.832507 Si / 1000 Ang^3
#
#
#
# Elastic Constant Matrix: (Units=GPa)
#
#
# Indices 1 2 3 4 5 6 
#
# 1 36.7759 3.2817 4.8953 0.0000 -5.8283 0.0000
# 2 3.2817 125.3708 44.2291 0.0000 -8.2035 0.0000
# 3 4.8953 44.2291 125.1380 0.0000 -3.1448 0.0000
# 4 0.0000 0.0000 0.0000 43.5653 0.0000 -10.3032
# 5 -5.8283 -8.2035 -3.1448 0.0000 34.8014 0.0000
# 6 0.0000 0.0000 0.0000 -10.3032 0.0000 6.8080
#
#
#
# Elastic Compliance Matrix: (Units=1/GPa)
#
#
# Indices 1 2 3 4 5 6 
#
# 1 0.028054 -0.000100 -0.000947 0.000000 0.004589 0.000000
# 2 -0.000100 0.009235 -0.003213 0.000000 0.001870 0.000000
# 3 -0.000947 -0.003213 0.009162 0.000000 -0.000088 0.000000
# 4 0.000000 0.000000 0.000000 0.035750 0.000000 0.054103
# 5 0.004589 0.001870 -0.000088 0.000000 0.029936 0.000000
# 6 0.000000 0.000000 0.000000 0.054103 0.000000 0.228767
#
#
# Mechanical properties :
#
#
# Convention : Reuss Voigt Hill
#
# Bulk Modulus (GPa) = 26.36390 43.56632 34.96511
# Shear Modulus (GPa) = 13.80963 32.69350 23.25156
#
# Velocity S-wave (km/s) = 2.40978 3.70780 3.12689
# Velocity P-wave (km/s) = 4.33923 6.05395 5.26684
#
# Compressibility (1/GPa) = 0.03793065
#
# Stress axis : x y z
#
# Youngs Moduli (GPa) = 35.64559 108.28566 109.15075
#
# Poissons Ratio (x) = 0.01083 0.10334
# Poissons Ratio (y) = 0.00357 0.35071
# Poissons Ratio (z) = 0.03375 0.34793
#
# Static dielectric constant tensor:
#      x y z
#    x 1.883520 0.000000 0.020760 
#    y 0.000000 1.997450 0.000000 
#    z 0.020760 0.000000 1.915990 
# 
# From -- ./inp_files/98280.got.cif
#   From: 2010.05.17/outbox.cif.g08.bks.cpg/sg12_50_cif.got.tgz:98280.got - 2010.06.03 13:09:07.
