data_PCOD9215126
_publ_section_title
;
Structure prediction by ZEFSAII (Michael W. Deem and Ramdas Pophale) SiO2 
 PCOD9215126
Probable space group: C 2/M
;
_chemical_formula_sum "Si O2"
_cell_formula_units_Z 64
_cell_length_a 9.328965
_cell_length_b 15.327906
_cell_length_c 32.045698
_cell_angle_alpha 90.000000
_cell_angle_beta 135.021632
_cell_angle_gamma 90.000000
_cell_volume 3238.970557
_symmetry_space_group_name_H-M "C 2/M"
_symmetry_group_IT_number 12
_symmetry_cell_setting 'monoclinic'
loop_
_space_group_symop_operation_xyz
x,y,z
-x,y,-z
-x,-y,-z
x,-y,z
1/2+x,1/2+y,z
1/2-x,1/2+y,-z
1/2-x,1/2-y,-z
1/2+x,1/2-y,z
loop_
_atom_site_type_symbol
_atom_site_label
_atom_site_fract_x
_atom_site_fract_y
_atom_site_fract_z
Si Si1 0.272893 0.106413 0.440155
Si Si2 0.128926 0.240379 0.850660
Si Si3 0.671983 0.241414 0.768437
Si Si4 0.428704 0.902477 0.940766
Si Si5 0.730276 0.320608 0.034322
Si Si6 0.495564 0.897403 0.325418
Si Si7 0.547305 0.606109 0.556042
Si Si8 0.132820 0.104540 0.317160
O O1 0.500000 0.134555 0.500000
O O2 0.202999 0.128741 0.378730
O O3 0.108242 0.136971 0.440408
O O4 0.275366 0.000000 0.441560
O O5 0.219568 0.276822 0.826676
O O6 0.245520 0.149964 0.882629
O O7 0.169919 0.289726 0.902002
O O8 0.891580 0.240221 0.792636
O O9 0.549232 0.162850 0.723041
O O10 0.549045 0.331511 0.735091
O O11 0.627669 0.897505 0.953235
O O12 0.361080 0.000000 0.934763
O O13 0.500000 0.863972 0.000000
O O14 0.500000 0.340556 0.000000
O O15 0.750000 0.250000 0.000000
O O16 0.719702 0.874238 0.386850
O O17 0.324991 0.883769 0.325869
O O18 0.492257 0.000000 0.314143
O O19 0.500000 0.638317 0.500000
O O20 0.528960 0.500000 0.551756
O O21 0.080184 0.000000 0.305675
#
# Coordination Sequence:
#
# PCOD9215126 Si02
#       8
#     8   8   8   8   8   8   8   8
#     4   9  17  31  56  88 120 159 208 260 321 382
#     4  12  23  41  65  92 122 170 209 252 305 377
#     4  12  25  41  63  92 125 169 220 256 311 379
#     4  11  24  42  67  99 130 163 208 262 317 372
#     4  12  20  40  71  96 127 166 206 253 314 377
#     4  10  22  41  62  86 122 166 211 262 319 376
#     4   9  17  31  56  88 121 158 205 262 323 382
#     4  10  22  41  63  87 123 167 210 263 318 378
#
# _framework density 19.759364000000001
#
# number of rings (size 3 to 8) (size 9 to 14) (size 15 to 20)
#    0.000    1.375    5.000    0.750    1.750    4.250 
#    0.000    1.250    0.000    3.000    0.000    0.000 
#    0.000    0.000    0.000    0.000    0.000    0.000 
#
# Total GULP energy -178488.989425 kJ/mol
# GULP energy per Si atom -5577.780920 kJ/mol
# Density = 1.971439 g / cm^3
# Si number density = 19.759364 Si / 1000 Ang^3
#
#
#
# Elastic Constant Matrix: (Units=GPa)
#
#
# Indices 1 2 3 4 5 6 
#
# 1 106.7801 34.0944 36.5877 0.0000 9.4573 0.0000
# 2 34.0944 49.3500 44.3750 0.0000 1.8213 0.0000
# 3 36.5877 44.3750 112.3934 0.0000 -2.5544 0.0000
# 4 0.0000 0.0000 0.0000 32.2697 0.0000 -4.1817
# 5 9.4573 1.8213 -2.5544 0.0000 49.5683 0.0000
# 6 0.0000 0.0000 0.0000 -4.1817 0.0000 3.9411
#
#
#
# Elastic Compliance Matrix: (Units=1/GPa)
#
#
# Indices 1 2 3 4 5 6 
#
# 1 0.012306 -0.007407 -0.001130 0.000000 -0.002134 0.000000
# 2 -0.007407 0.036036 -0.011828 0.000000 -0.000520 0.000000
# 3 -0.001130 -0.011828 0.013966 0.000000 0.001370 0.000000
# 4 0.000000 0.000000 0.000000 0.035929 0.000000 0.038123
# 5 -0.002134 -0.000520 0.001370 0.000000 0.020671 0.000000
# 6 0.000000 0.000000 0.000000 0.038123 0.000000 0.294190
#
#
# Mechanical properties :
#
#
# Convention : Reuss Voigt Hill
#
# Bulk Modulus (GPa) = 46.34437 55.40418 50.87428
# Shear Modulus (GPa) = 10.84548 27.38691 19.11620
#
# Velocity S-wave (km/s) = 2.34536 3.72697 3.11376
# Velocity P-wave (km/s) = 5.55334 6.82794 6.22336
#
# Compressibility (1/GPa) = 0.02157759
#
# Stress axis : x y z
#
# Youngs Moduli (GPa) = 81.25895 27.75028 71.60079
#
# Poissons Ratio (x) = 0.20555 0.08092
# Poissons Ratio (y) = 0.60189 0.84690
# Poissons Ratio (z) = 0.09184 0.32823
#
# Static dielectric constant tensor:
#      x y z
#    x 1.571350 0.000000 -0.116380 
#    y 0.000000 1.701850 0.000000 
#    z -0.116380 0.000000 1.553640 
# 
# From -- ./inp_files/372598.got.cif
#   From: 2010.05.17/outbox.cif.g08.bks.cpg/sg12_187_cif.got.tgz:372598.got - 2010.06.03 13:09:07.
