data_PCOD9215331
_publ_section_title
;
Structure prediction by ZEFSAII (Michael W. Deem and Ramdas Pophale) SiO2 
 PCOD9215331
Probable space group: C 2/M
;
_chemical_formula_sum "Si O2"
_cell_formula_units_Z 48
_cell_length_a 26.040752
_cell_length_b 8.157046
_cell_length_c 12.675493
_cell_angle_alpha 90.000000
_cell_angle_beta 66.455797
_cell_angle_gamma 90.000000
_cell_volume 2468.330105
_symmetry_space_group_name_H-M "C 2/M"
_symmetry_group_IT_number 12
_symmetry_cell_setting 'monoclinic'
loop_
_space_group_symop_operation_xyz
x,y,z
-x,y,-z
-x,-y,-z
x,-y,z
1/2+x,1/2+y,z
1/2-x,1/2+y,-z
1/2-x,1/2-y,-z
1/2+x,1/2-y,z
loop_
_atom_site_type_symbol
_atom_site_label
_atom_site_fract_x
_atom_site_fract_y
_atom_site_fract_z
Si Si1 0.914325 0.687183 0.270299
Si Si2 0.666386 0.500000 0.215367
Si Si3 0.740704 0.821352 0.187104
Si Si4 0.659678 0.500000 0.983252
Si Si5 0.218366 0.308904 0.628842
Si Si6 0.440329 0.500000 0.105184
Si Si7 0.050146 0.000000 0.369487
Si Si8 0.504001 0.824625 0.369605
O O1 0.925335 0.500000 0.221136
O O2 0.847895 0.705887 0.334037
O O3 0.945054 0.696497 0.358545
O O4 0.935165 0.835549 0.180282
O O5 0.703752 0.663629 0.192616
O O6 0.615944 0.500000 0.342666
O O7 0.640783 0.500000 0.118832
O O8 0.797678 0.846865 0.072576
O O9 0.762000 0.797209 0.288544
O O10 0.711383 0.000000 0.200898
O O11 0.610022 0.500000 0.939330
O O12 0.230984 0.500000 0.640441
O O13 0.250000 0.250000 0.500000
O O14 0.500000 0.500000 0.000000
O O15 0.000000 0.000000 0.500000
O O16 0.039928 0.833646 0.314733
O O17 0.500000 0.830832 0.500000
O O18 0.527702 0.000000 0.315288
#
# Coordination Sequence:
#
# PCOD9215331 Si02
#       8
#     8   4   8   4   8   4   4   8
#     4  10  22  41  64  94 130 170 214 267 323 388
#     4  12  24  42  69  99 130 174 225 264 341 394
#     4  10  22  43  66  94 132 167 220 278 331 382
#     4  10  24  45  69  97 132 167 222 280 333 391
#     4  11  22  38  64  97 134 175 220 270 329 402
#     4  12  25  42  73  93 127 177 214 279 330 382
#     4  10  23  39  60  94 131 171 212 263 317 391
#     4   9  19  38  61  84 126 169 207 252 315 373
#
# _framework density 19.446345000000001
#
# number of rings (size 3 to 8) (size 9 to 14) (size 15 to 20)
#    0.500    1.167    2.500    1.500    3.500    3.667 
#    0.000    3.333    0.000    0.000    0.000    0.000 
#    0.000    0.000    0.000    0.000    0.000    0.000 
#
# Total GULP energy -133694.658354 kJ/mol
# GULP energy per Si atom -5570.610765 kJ/mol
# Density = 1.940208 g / cm^3
# Si number density = 19.446345 Si / 1000 Ang^3
#
#
#
# Elastic Constant Matrix: (Units=GPa)
#
#
# Indices 1 2 3 4 5 6 
#
# 1 86.3312 60.4240 45.9296 0.0000 9.3886 0.0000
# 2 60.4240 175.7376 40.6971 0.0000 -8.9096 0.0000
# 3 45.9296 40.6971 87.8511 0.0000 -4.4682 0.0000
# 4 0.0000 0.0000 0.0000 12.5893 0.0000 -1.7019
# 5 9.3886 -8.9096 -4.4682 0.0000 36.6285 0.0000
# 6 0.0000 0.0000 0.0000 -1.7019 0.0000 26.0538
#
#
#
# Elastic Compliance Matrix: (Units=1/GPa)
#
#
# Indices 1 2 3 4 5 6 
#
# 1 0.021029 -0.005588 -0.008803 0.000000 -0.007823 0.000000
# 2 -0.005588 0.007912 -0.000576 0.000000 0.003287 0.000000
# 3 -0.008803 -0.000576 0.016462 0.000000 0.004124 0.000000
# 4 0.000000 0.000000 0.000000 0.080140 0.000000 0.005235
# 5 -0.007823 0.003287 0.004124 0.000000 0.030609 0.000000
# 6 0.000000 0.000000 0.000000 0.005235 0.000000 0.038724
#
#
# Mechanical properties :
#
#
# Convention : Reuss Voigt Hill
#
# Bulk Modulus (GPa) = 64.65406 71.55792 68.10599
# Shear Modulus (GPa) = 21.74220 28.57893 25.16057
#
# Velocity S-wave (km/s) = 3.34737 3.83773 3.60091
# Velocity P-wave (km/s) = 6.94690 7.51765 7.23791
#
# Compressibility (1/GPa) = 0.01546693
#
# Stress axis : x y z
#
# Youngs Moduli (GPa) = 47.55356 126.39264 60.74561
#
# Poissons Ratio (x) = 0.70633 0.53476
# Poissons Ratio (y) = 0.26575 0.03501
# Poissons Ratio (z) = 0.41863 0.07284
#
# Static dielectric constant tensor:
#      x y z
#    x 1.689080 0.000000 -0.004010 
#    y 0.000000 1.734690 0.000000 
#    z -0.004010 0.000000 1.676720 
# 
# From -- ./inp_files/173024.got.cif
#   From: 2010.05.17/outbox.cif.g08.bks.cpg/sg12_87_cif.got.tgz:173024.got - 2010.06.03 13:09:07.
