data_PCOD9215473
_publ_section_title
;
Structure prediction by ZEFSAII (Michael W. Deem and Ramdas Pophale) SiO2 
 PCOD9215473
Probable space group: C 2/M
;
_chemical_formula_sum "Si O2"
_cell_formula_units_Z 64
_cell_length_a 14.270308
_cell_length_b 28.564890
_cell_length_c 12.342431
_cell_angle_alpha 90.000000
_cell_angle_beta 142.684714
_cell_angle_gamma 90.000000
_cell_volume 3049.881568
_symmetry_space_group_name_H-M "C 2/M"
_symmetry_group_IT_number 12
_symmetry_cell_setting 'monoclinic'
loop_
_space_group_symop_operation_xyz
x,y,z
-x,y,-z
-x,-y,-z
x,-y,z
1/2+x,1/2+y,z
1/2-x,1/2+y,-z
1/2-x,1/2-y,-z
1/2+x,1/2-y,z
loop_
_atom_site_type_symbol
_atom_site_label
_atom_site_fract_x
_atom_site_fract_y
_atom_site_fract_z
Si Si1 0.208840 0.882342 0.801250
Si Si2 0.178646 0.898584 0.135000
Si Si3 0.171795 0.445019 0.517448
Si Si4 0.826604 0.798896 0.601526
Si Si5 0.845005 0.445351 0.107714
Si Si6 0.172864 0.690882 0.689079
Si Si7 0.832557 0.779493 0.168253
Si Si8 0.838831 0.107707 0.491278
O O1 0.240398 0.827618 0.855459
O O2 0.223515 0.894421 0.688133
O O3 0.025777 0.890405 0.658802
O O4 0.314047 0.914246 0.974152
O O5 0.271775 0.916245 0.326371
O O6 0.206481 0.934553 0.063689
O O7 0.248915 0.848438 0.163878
O O8 0.000000 0.894213 0.000000
O O9 0.173657 0.500000 0.546513
O O10 0.283474 0.433128 0.519648
O O11 0.000602 0.432753 0.317051
O O12 0.750000 0.750000 0.500000
O O13 0.782635 0.807550 0.685208
O O14 0.775701 0.844167 0.486513
O O15 0.004448 0.793031 0.734500
O O16 0.853303 0.500000 0.088019
O O17 0.155057 0.742224 0.723092
O O18 0.000000 0.675407 0.500000
O O19 0.750000 0.750000 0.000000
#
# Coordination Sequence:
#
# PCOD9215473 Si02
#       8
#     8   8   8   8   8   8   8   8
#     4  10  23  43  66  93 135 176 226 275 336 399
#     4  12  26  42  68 101 138 172 222 277 337 406
#     4  11  24  44  69  98 131 173 223 277 342 407
#     4  11  22  40  65  93 129 177 226 271 335 398
#     4  11  25  44  68  97 133 175 223 280 342 407
#     4  12  24  41  68  97 133 180 227 275 334 404
#     4  11  25  40  61  96 135 178 225 281 332 398
#     4  10  22  41  66  95 128 175 223 280 333 398
#
# _framework density 20.984421999999999
#
# number of rings (size 3 to 8) (size 9 to 14) (size 15 to 20)
#    0.000    1.000    2.500    3.750    5.250    5.500 
#    0.000    3.750    0.000    0.000    0.000    0.000 
#    0.000    0.000    0.000    0.000    0.000    0.000 
#
# Total GULP energy -178945.011998 kJ/mol
# GULP energy per Si atom -5592.031625 kJ/mol
# Density = 2.093666 g / cm^3
# Si number density = 20.984422 Si / 1000 Ang^3
#
#
#
# Elastic Constant Matrix: (Units=GPa)
#
#
# Indices 1 2 3 4 5 6 
#
# 1 81.3659 14.3838 13.3320 0.0000 -13.8491 0.0000
# 2 14.3838 88.7782 52.7802 0.0000 2.6404 0.0000
# 3 13.3320 52.7802 95.5331 0.0000 -12.1255 0.0000
# 4 0.0000 0.0000 0.0000 24.2174 0.0000 9.6751
# 5 -13.8491 2.6404 -12.1255 0.0000 26.3860 0.0000
# 6 0.0000 0.0000 0.0000 9.6751 0.0000 17.7437
#
#
#
# Elastic Compliance Matrix: (Units=1/GPa)
#
#
# Indices 1 2 3 4 5 6 
#
# 1 0.014052 -0.002902 0.000653 0.000000 0.007966 0.000000
# 2 -0.002902 0.018422 -0.010832 0.000000 -0.008344 0.000000
# 3 0.000653 -0.010832 0.017567 0.000000 0.009500 0.000000
# 4 0.000000 0.000000 0.000000 0.052793 0.000000 -0.028786
# 5 0.007966 -0.008344 0.009500 0.000000 0.047280 0.000000
# 6 0.000000 0.000000 0.000000 -0.028786 0.000000 0.072054
#
#
# Mechanical properties :
#
#
# Convention : Reuss Voigt Hill
#
# Bulk Modulus (GPa) = 41.87708 47.40770 44.64239
# Shear Modulus (GPa) = 19.50914 26.01483 22.76199
#
# Velocity S-wave (km/s) = 3.05240 3.52479 3.29706
# Velocity P-wave (km/s) = 5.69407 6.26150 5.98452
#
# Compressibility (1/GPa) = 0.02387941
#
# Stress axis : x y z
#
# Youngs Moduli (GPa) = 71.16420 54.28218 56.92619
#
# Poissons Ratio (x) = 0.15753 -0.03720
# Poissons Ratio (y) = 0.20653 0.61663
# Poissons Ratio (z) = -0.04650 0.58799
#
# Static dielectric constant tensor:
#      x y z
#    x 1.483030 0.000000 0.074910 
#    y 0.000000 1.731370 0.000000 
#    z 0.074910 0.000000 1.735900 
# 
# From -- ./inp_files/149812.got.cif
#   From: 2010.05.17/outbox.cif.g08.bks.cpg/sg12_75_cif.got.tgz:149812.got - 2010.06.03 13:09:07.
