data_PCOD9215827
_publ_section_title
;
Structure prediction by ZEFSAII (Michael W. Deem and Ramdas Pophale) SiO2 
 PCOD9215827
Probable space group: C 2/M
;
_chemical_formula_sum "Si O2"
_cell_formula_units_Z 52
_cell_length_a 9.355426
_cell_length_b 18.778597
_cell_length_c 14.798628
_cell_angle_alpha 90.000000
_cell_angle_beta 106.914603
_cell_angle_gamma 90.000000
_cell_volume 2487.378352
_symmetry_space_group_name_H-M "C 2/M"
_symmetry_group_IT_number 12
_symmetry_cell_setting 'monoclinic'
loop_
_space_group_symop_operation_xyz
x,y,z
-x,y,-z
-x,-y,-z
x,-y,z
1/2+x,1/2+y,z
1/2-x,1/2+y,-z
1/2-x,1/2-y,-z
1/2+x,1/2-y,z
loop_
_atom_site_type_symbol
_atom_site_label
_atom_site_fract_x
_atom_site_fract_y
_atom_site_fract_z
Si Si1 0.673712 0.692050 0.550415
Si Si2 0.040582 0.703114 0.867100
Si Si3 0.500000 0.686475 0.000000
Si Si4 0.359347 0.916168 0.225665
Si Si5 0.973727 0.915240 0.821282
Si Si6 0.192084 0.189439 0.766147
Si Si7 0.583723 0.084888 0.426034
O O1 0.500000 0.690939 0.500000
O O2 0.750000 0.750000 0.500000
O O3 0.700260 0.702850 0.661476
O O4 0.753498 0.617542 0.544816
O O5 0.089872 0.753425 0.958630
O O6 0.119796 0.628024 0.862995
O O7 0.093303 0.748034 0.790495
O O8 0.861520 0.692691 0.835157
O O9 0.532083 0.631517 0.087641
O O10 0.197888 0.905523 0.242976
O O11 0.489610 0.895248 0.319499
O O12 0.371809 0.000000 0.208893
O O13 0.100792 0.881326 0.780247
O O14 0.998163 0.000000 0.840199
O O15 0.500000 0.111512 0.500000
O O16 0.587895 0.000000 0.429653
#
# Coordination Sequence:
#
# PCOD9215827 Si02
#       7
#     8   8   4   8   8   8   8
#     4  12  26  41  64  96 132 169 216 266 316 372
#     4  11  22  40  65  91 130 163 213 262 321 383
#     4  10  23  42  65 100 128 166 210 268 327 382
#     4  10  22  42  66  92 129 175 214 256 318 382
#     4  10  23  42  68  96 129 169 214 264 322 387
#     4  11  24  40  62  94 126 173 211 263 318 377
#     4  10  23  43  66  93 128 171 216 262 312 376
#
# _framework density 20.905543999999999
#
# number of rings (size 3 to 8) (size 9 to 14) (size 15 to 20)
#    0.000    1.385    1.538    3.462    4.308    7.077 
#    0.000    0.385    0.000    0.000    0.000    0.000 
#    0.000    0.000    0.000    0.000    0.000    0.000 
#
# Total GULP energy -144962.556326 kJ/mol
# GULP energy per Si atom -5575.482936 kJ/mol
# Density = 2.085796 g / cm^3
# Si number density = 20.905544 Si / 1000 Ang^3
#
#
#
# Elastic Constant Matrix: (Units=GPa)
#
#
# Indices 1 2 3 4 5 6 
#
# 1 162.1643 58.8364 32.7964 0.0000 3.4077 0.0000
# 2 58.8364 95.1172 34.5312 0.0000 -12.7745 0.0000
# 3 32.7964 34.5312 78.3860 0.0000 -23.0594 0.0000
# 4 0.0000 0.0000 0.0000 22.4987 0.0000 -5.5405
# 5 3.4077 -12.7745 -23.0594 0.0000 23.6576 0.0000
# 6 0.0000 0.0000 0.0000 -5.5405 0.0000 34.5298
#
#
#
# Elastic Compliance Matrix: (Units=1/GPa)
#
#
# Indices 1 2 3 4 5 6 
#
# 1 0.008989 -0.005248 -0.003735 0.000000 -0.007769 0.000000
# 2 -0.005248 0.015643 -0.002787 0.000000 0.006486 0.000000
# 3 -0.003735 -0.002787 0.021399 0.000000 0.019891 0.000000
# 4 0.000000 0.000000 0.000000 0.046276 0.000000 0.007425
# 5 -0.007769 0.006486 0.019891 0.000000 0.066279 0.000000
# 6 0.000000 0.000000 0.000000 0.007425 0.000000 0.030152
#
#
# Mechanical properties :
#
#
# Convention : Reuss Voigt Hill
#
# Bulk Modulus (GPa) = 44.46154 65.33285 54.89719
# Shear Modulus (GPa) = 22.75064 30.10411 26.42738
#
# Velocity S-wave (km/s) = 3.30246 3.79886 3.55932
# Velocity P-wave (km/s) = 5.98796 7.11063 6.57330
#
# Compressibility (1/GPa) = 0.02249135
#
# Stress axis : x y z
#
# Youngs Moduli (GPa) = 111.24459 63.92824 46.73066
#
# Poissons Ratio (x) = 0.33550 0.17452
# Poissons Ratio (y) = 0.58381 0.13025
# Poissons Ratio (z) = 0.41545 0.17818
#
# Static dielectric constant tensor:
#      x y z
#    x 1.762960 0.000000 0.026500 
#    y 0.000000 1.773820 0.000000 
#    z 0.026500 0.000000 1.856310 
# 
# From -- ./inp_files/197125.got.cif
#   From: 2010.05.17/outbox.cif.g08.bks.cpg/sg12_99_cif.got.tgz:197125.got - 2010.06.03 13:09:07.
