data_PCOD9215237
_publ_section_title
;
Structure prediction by ZEFSAII (Michael W. Deem and Ramdas Pophale) SiO2 
 PCOD9215237
Probable space group: C 2/M
;
_chemical_formula_sum "Si O2"
_cell_formula_units_Z 48
_cell_length_a 18.361968
_cell_length_b 23.520901
_cell_length_c 5.158593
_cell_angle_alpha 90.000000
_cell_angle_beta 73.774118
_cell_angle_gamma 90.000000
_cell_volume 2139.200412
_symmetry_space_group_name_H-M "C 2/M"
_symmetry_group_IT_number 12
_symmetry_cell_setting 'monoclinic'
loop_
_space_group_symop_operation_xyz
x,y,z
-x,y,-z
-x,-y,-z
x,-y,z
1/2+x,1/2+y,z
1/2-x,1/2+y,-z
1/2-x,1/2-y,-z
1/2+x,1/2-y,z
loop_
_atom_site_type_symbol
_atom_site_label
_atom_site_fract_x
_atom_site_fract_y
_atom_site_fract_z
Si Si1 0.821854 0.881485 0.224588
Si Si2 0.811360 0.660105 0.913921
Si Si3 0.088539 0.437172 0.437112
Si Si4 0.550559 0.758604 0.206903
Si Si5 0.581539 0.370070 0.355918
Si Si6 0.787309 0.438184 0.311795
O O1 0.761799 0.832250 0.197366
O O2 0.874977 0.865596 0.413457
O O3 0.766887 0.931337 0.383699
O O4 0.870633 0.898406 0.923624
O O5 0.868475 0.614150 0.735627
O O6 0.867105 0.712177 0.909772
O O7 0.777732 0.622060 0.179706
O O8 0.105732 0.500000 0.310822
O O9 0.124841 0.438362 0.686954
O O10 0.000000 0.429044 0.500000
O O11 0.500000 0.781339 0.500000
O O12 0.565407 0.692732 0.257627
O O13 0.500000 0.764894 0.000000
O O14 0.500000 0.397186 0.500000
O O15 0.769616 0.500000 0.210918
#
# Coordination Sequence:
#
# PCOD9215237 Si02
#       6
#     8   8   8   8   8   8
#     4  11  23  43  68 100 124 172 216 268 323 392
#     4  11  23  37  62  95 134 174 220 261 318 373
#     4   9  19  34  55  86 126 178 228 267 305 365
#     4  11  26  42  65  97 136 178 216 267 318 373
#     4  11  23  46  70  94 125 165 216 270 338 397
#     4  10  22  41  63  95 136 176 216 265 325 376
#
# _framework density 22.438293000000002
#
# number of rings (size 3 to 8) (size 9 to 14) (size 15 to 20)
#    0.000    1.500    1.667    3.500    7.000    2.000 
#    0.000    2.500    0.000    3.000    0.000    0.000 
#    0.000    0.000    0.000    0.000    0.000    0.000 
#
# Total GULP energy -133797.250457 kJ/mol
# GULP energy per Si atom -5574.885436 kJ/mol
# Density = 2.238722 g / cm^3
# Si number density = 22.438293 Si / 1000 Ang^3
#
#
#
# Elastic Constant Matrix: (Units=GPa)
#
#
# Indices 1 2 3 4 5 6 
#
# 1 167.4095 -2.2750 61.8170 0.0000 15.0117 0.0000
# 2 -2.2750 19.6162 7.9308 0.0000 -2.7442 0.0000
# 3 61.8170 7.9308 123.2528 0.0000 8.3275 0.0000
# 4 0.0000 0.0000 0.0000 18.5795 0.0000 1.2021
# 5 15.0117 -2.7442 8.3275 0.0000 36.2183 0.0000
# 6 0.0000 0.0000 0.0000 1.2021 0.0000 14.2371
#
#
#
# Elastic Compliance Matrix: (Units=1/GPa)
#
#
# Indices 1 2 3 4 5 6 
#
# 1 0.007596 0.002123 -0.003804 0.000000 -0.002113 0.000000
# 2 0.002123 0.053773 -0.004816 0.000000 0.004301 0.000000
# 3 -0.003804 -0.004816 0.010411 0.000000 -0.001182 0.000000
# 4 0.000000 0.000000 0.000000 0.054118 0.000000 -0.004569
# 5 -0.002113 0.004301 -0.001182 0.000000 0.029084 0.000000
# 6 0.000000 0.000000 0.000000 -0.004569 0.000000 0.070625
#
#
# Mechanical properties :
#
#
# Convention : Reuss Voigt Hill
#
# Bulk Modulus (GPa) = 17.01021 49.46932 33.23977
# Shear Modulus (GPa) = 19.36517 29.99403 24.67960
#
# Velocity S-wave (km/s) = 2.94094 3.66010 3.32005
# Velocity P-wave (km/s) = 4.37373 6.32112 5.43535
#
# Compressibility (1/GPa) = 0.05878821
#
# Stress axis : x y z
#
# Youngs Moduli (GPa) = 131.64375 18.59660 96.05339
#
# Poissons Ratio (x) = -0.03948 0.36536
# Poissons Ratio (y) = -0.27951 0.46255
# Poissons Ratio (z) = 0.50074 0.08955
#
# Static dielectric constant tensor:
#      x y z
#    x 1.877400 0.000000 0.008560 
#    y 0.000000 1.897130 0.000000 
#    z 0.008560 0.000000 1.974260 
# 
# From -- ./inp_files/16879.got.cif
#   From: 2010.05.17/outbox.cif.g08.bks.cpg/sg12_9_cif.got.tgz:16879.got - 2010.06.03 13:09:07.
