data_PCOD9215283
_publ_section_title
;
Structure prediction by ZEFSAII (Michael W. Deem and Ramdas Pophale) SiO2 
 PCOD9215283
Probable space group: C 2/M
;
_chemical_formula_sum "Si O2"
_cell_formula_units_Z 40
_cell_length_a 9.720978
_cell_length_b 13.144566
_cell_length_c 15.976917
_cell_angle_alpha 90.000000
_cell_angle_beta 59.668299
_cell_angle_gamma 90.000000
_cell_volume 1762.051080
_symmetry_space_group_name_H-M "C 2/M"
_symmetry_group_IT_number 12
_symmetry_cell_setting 'monoclinic'
loop_
_space_group_symop_operation_xyz
x,y,z
-x,y,-z
-x,-y,-z
x,-y,z
1/2+x,1/2+y,z
1/2-x,1/2+y,-z
1/2-x,1/2-y,-z
1/2+x,1/2-y,z
loop_
_atom_site_type_symbol
_atom_site_label
_atom_site_fract_x
_atom_site_fract_y
_atom_site_fract_z
Si Si1 0.953367 0.618465 0.423474
Si Si2 0.785335 0.118539 0.224965
Si Si3 0.432024 0.382244 0.746691
Si Si4 0.332767 0.617498 0.598604
Si Si5 0.682187 0.781564 0.931529
O O1 0.907162 0.500000 0.456088
O O2 0.108250 0.617530 0.317192
O O3 0.000000 0.662980 0.500000
O O4 0.804420 0.663188 0.418083
O O5 0.803807 0.186926 0.137213
O O6 0.909468 0.158229 0.257229
O O7 0.826824 0.000000 0.193967
O O8 0.468047 0.500000 0.717715
O O9 0.371400 0.336618 0.677686
O O10 0.290835 0.367650 0.856175
O O11 0.500000 0.612626 0.500000
O O12 0.278510 0.500000 0.631554
O O13 0.500000 0.811874 0.000000
O O14 0.750000 0.750000 0.000000
#
# Coordination Sequence:
#
# PCOD9215283 Si02
#       5
#     8   8   8   8   8
#     4   9  17  31  56  90 125 161 199 241 295 361
#     4  10  22  41  65  90 122 163 204 246 302 369
#     4  10  22  41  64  91 123 161 203 249 304 363
#     4   9  17  31  56  90 126 160 197 244 297 356
#     4  12  26  44  64  89 121 158 205 261 310 359
#
# _framework density 22.700818000000002
#
# number of rings (size 3 to 8) (size 9 to 14) (size 15 to 20)
#    0.000    2.000    2.000    1.200    2.800    6.400 
#    0.000    1.000    0.000    4.800    0.000    0.000 
#    0.000    0.000    0.000    0.000    0.000    0.000 
#
# Total GULP energy -111829.180848 kJ/mol
# GULP energy per Si atom -5591.459042 kJ/mol
# Density = 2.264915 g / cm^3
# Si number density = 22.700818 Si / 1000 Ang^3
#
#
#
# Elastic Constant Matrix: (Units=GPa)
#
#
# Indices 1 2 3 4 5 6 
#
# 1 222.5358 -5.1212 74.1592 0.0000 28.0235 0.0000
# 2 -5.1212 68.9048 -9.1936 0.0000 21.9890 0.0000
# 3 74.1592 -9.1936 114.8869 0.0000 28.0887 0.0000
# 4 0.0000 0.0000 0.0000 36.3997 0.0000 3.3980
# 5 28.0235 21.9890 28.0887 0.0000 56.8683 0.0000
# 6 0.0000 0.0000 0.0000 3.3980 0.0000 12.8546
#
#
#
# Elastic Compliance Matrix: (Units=1/GPa)
#
#
# Indices 1 2 3 4 5 6 
#
# 1 0.005800 0.000409 -0.003382 0.000000 -0.001346 0.000000
# 2 0.000409 0.017753 0.003280 0.000000 -0.008686 0.000000
# 3 -0.003382 0.003280 0.012570 0.000000 -0.005811 0.000000
# 4 0.000000 0.000000 0.000000 0.028168 0.000000 -0.007446
# 5 -0.001346 -0.008686 -0.005811 0.000000 0.024476 0.000000
# 6 0.000000 0.000000 0.000000 -0.007446 0.000000 0.079761
#
#
# Mechanical properties :
#
#
# Convention : Reuss Voigt Hill
#
# Bulk Modulus (GPa) = 27.21987 58.44627 42.83307
# Shear Modulus (GPa) = 27.75332 44.32341 36.03836
#
# Velocity S-wave (km/s) = 3.50032 4.42351 3.98871
# Velocity P-wave (km/s) = 5.32476 7.20362 6.33424
#
# Compressibility (1/GPa) = 0.03673787
#
# Stress axis : x y z
#
# Youngs Moduli (GPa) = 172.42811 56.32911 79.55279
#
# Poissons Ratio (x) = -0.02305 0.26903
# Poissons Ratio (y) = -0.07057 -0.26094
# Poissons Ratio (z) = 0.58312 -0.18477
#
# Static dielectric constant tensor:
#      x y z
#    x 1.832830 0.000000 0.041790 
#    y 0.000000 1.897900 0.000000 
#    z 0.041790 0.000000 1.783230 
# 
# From -- ./inp_files/194436.got.cif
#   From: 2010.05.17/outbox.cif.g08.bks.cpg/sg12_98_cif.got.tgz:194436.got - 2010.06.03 13:09:07.
