data_PCOD9215756
_publ_section_title
;
Structure prediction by ZEFSAII (Michael W. Deem and Ramdas Pophale) SiO2 
 PCOD9215756
Probable space group: C 2/M
;
_chemical_formula_sum "Si O2"
_cell_formula_units_Z 42
_cell_length_a 19.780139
_cell_length_b 9.334517
_cell_length_c 11.782180
_cell_angle_alpha 90.000000
_cell_angle_beta 109.691132
_cell_angle_gamma 90.000000
_cell_volume 2048.224904
_symmetry_space_group_name_H-M "C 2/M"
_symmetry_group_IT_number 12
_symmetry_cell_setting 'monoclinic'
loop_
_space_group_symop_operation_xyz
x,y,z
-x,y,-z
-x,-y,-z
x,-y,z
1/2+x,1/2+y,z
1/2-x,1/2+y,-z
1/2-x,1/2-y,-z
1/2+x,1/2-y,z
loop_
_atom_site_type_symbol
_atom_site_label
_atom_site_fract_x
_atom_site_fract_y
_atom_site_fract_z
Si Si1 0.675171 0.672806 0.182031
Si Si2 0.500000 0.500000 0.500000
Si Si3 0.175557 0.335342 0.643519
Si Si4 0.129023 0.663828 0.378358
Si Si5 0.930541 0.330109 0.042576
Si Si6 0.031010 0.736886 0.685842
O O1 0.668456 0.500000 0.167398
O O2 0.758727 0.717997 0.243315
O O3 0.640439 0.731613 0.279183
O O4 0.635017 0.753834 0.058193
O O5 0.515501 0.377443 0.605361
O O6 0.193629 0.500000 0.630506
O O7 0.166717 0.271787 0.512416
O O8 0.100120 0.330231 0.664139
O O9 0.153274 0.500000 0.365919
O O10 0.044588 0.654925 0.358281
O O11 0.917038 0.500000 0.055870
O O12 0.948234 0.252672 0.170461
O O13 0.000000 0.321278 0.000000
#
# Coordination Sequence:
#
# PCOD9215756 Si02
#       6
#     8   2   8   8   8   8
#     4  11  25  41  64  98 140 176 224 284 340 394
#     4  12  28  44  64 116 136 164 228 284 358 392
#     4  10  22  42  64  95 132 181 228 273 339 402
#     4  11  21  40  69  97 129 181 232 280 330 399
#     4  11  24  44  70  99 131 179 234 274 330 411
#     4  12  24  43  69  96 136 172 222 283 333 403
#
# _framework density 20.505561
#
# number of rings (size 3 to 8) (size 9 to 14) (size 15 to 20)
#    0.000    0.952    3.810    2.857    2.667    2.667 
#    3.429    0.000    0.000    0.000    0.000    0.000 
#    0.000    0.000    0.000    0.000    0.000    0.000 
#
# Total GULP energy -116948.036218 kJ/mol
# GULP energy per Si atom -5568.954106 kJ/mol
# Density = 2.045889 g / cm^3
# Si number density = 20.505561 Si / 1000 Ang^3
#
#
#
# Elastic Constant Matrix: (Units=GPa)
#
#
# Indices 1 2 3 4 5 6 
#
# 1 56.5307 8.6510 5.6213 0.0000 9.2993 0.0000
# 2 8.6510 83.5990 46.1323 0.0000 2.3479 0.0000
# 3 5.6213 46.1323 169.6911 0.0000 -1.0585 0.0000
# 4 0.0000 0.0000 0.0000 52.4221 0.0000 -45.6200
# 5 9.2993 2.3479 -1.0585 0.0000 29.4981 0.0000
# 6 0.0000 0.0000 0.0000 -45.6200 0.0000 144.9928
#
#
#
# Elastic Compliance Matrix: (Units=1/GPa)
#
#
# Indices 1 2 3 4 5 6 
#
# 1 0.018928 -0.001681 -0.000207 0.000000 -0.005841 0.000000
# 2 -0.001681 0.014269 -0.003828 0.000000 -0.000743 0.000000
# 3 -0.000207 -0.003828 0.006944 0.000000 0.000619 0.000000
# 4 0.000000 0.000000 0.000000 0.026269 0.000000 0.008265
# 5 -0.005841 -0.000743 0.000619 0.000000 0.035823 0.000000
# 6 0.000000 0.000000 0.000000 0.008265 0.000000 0.009497
#
#
# Mechanical properties :
#
#
# Convention : Reuss Voigt Hill
#
# Bulk Modulus (GPa) = 34.83004 47.84779 41.33891
# Shear Modulus (GPa) = 37.66993 62.01034 49.84013
#
# Velocity S-wave (km/s) = 4.29074 5.50512 4.93543
# Velocity P-wave (km/s) = 6.44747 7.98707 7.25820
#
# Compressibility (1/GPa) = 0.02871085
#
# Stress axis : x y z
#
# Youngs Moduli (GPa) = 52.83165 70.08119 143.99890
#
# Poissons Ratio (x) = 0.11779 0.02974
# Poissons Ratio (y) = 0.08879 0.55125
# Poissons Ratio (z) = 0.01091 0.26828
#
# Static dielectric constant tensor:
#      x y z
#    x 1.760210 0.000000 0.028450 
#    y 0.000000 1.711930 0.000000 
#    z 0.028450 0.000000 1.749090 
# 
# From -- ./inp_files/162987.got.cif
#   From: 2010.05.17/outbox.cif.g08.bks.cpg/sg12_82_cif.got.tgz:162987.got - 2010.06.03 13:09:07.
