data_PCOD9215275
_publ_section_title
;
Structure prediction by ZEFSAII (Michael W. Deem and Ramdas Pophale) SiO2 
 PCOD9215275
Probable space group: C 2/M
;
_chemical_formula_sum "Si O2"
_cell_formula_units_Z 40
_cell_length_a 19.341590
_cell_length_b 7.855739
_cell_length_c 25.358613
_cell_angle_alpha 90.000000
_cell_angle_beta 25.674161
_cell_angle_gamma 90.000000
_cell_volume 1669.344495
_symmetry_space_group_name_H-M "C 2/M"
_symmetry_group_IT_number 12
_symmetry_cell_setting 'monoclinic'
loop_
_space_group_symop_operation_xyz
x,y,z
-x,y,-z
-x,-y,-z
x,-y,z
1/2+x,1/2+y,z
1/2-x,1/2+y,-z
1/2-x,1/2-y,-z
1/2+x,1/2-y,z
loop_
_atom_site_type_symbol
_atom_site_label
_atom_site_fract_x
_atom_site_fract_y
_atom_site_fract_z
Si Si1 0.994477 0.304985 0.561834
Si Si2 0.825606 0.695013 0.374511
Si Si3 0.573650 0.799939 0.003570
Si Si4 0.934284 0.805240 0.876328
Si Si5 0.092736 0.292605 0.268348
O O1 0.938391 0.500000 0.593246
O O2 0.174210 0.302096 0.460595
O O3 0.000000 0.223611 0.500000
O O4 0.895479 0.231689 0.679177
O O5 0.774466 0.500000 0.418086
O O6 0.953156 0.698787 0.239128
O O7 0.926038 0.757652 0.355807
O O8 0.762726 0.774901 0.865824
O O9 0.537530 0.000000 0.032537
O O10 0.500000 0.730648 0.000000
O O11 0.517582 0.713231 0.095652
O O12 0.947900 0.000000 0.850132
O O13 0.750000 0.750000 0.000000
O O14 0.097202 0.500000 0.264711
#
# Coordination Sequence:
#
# PCOD9215275 Si02
#       5
#     8   8   8   8   8
#     4  10  23  42  63  92 125 163 212 263 316 374
#     4  11  23  40  64  93 125 166 212 260 312 374
#     4  11  25  42  63  95 131 168 210 259 314 376
#     4  12  24  41  66  95 128 167 210 259 314 375
#     4  10  22  41  64  90 124 169 214 256 311 376
#
# _framework density 23.961500999999998
#
# number of rings (size 3 to 8) (size 9 to 14) (size 15 to 20)
#    0.000    1.200    2.000    3.600    2.800    3.600 
#    0.000    0.000    0.000    0.000    0.000    0.000 
#    0.000    0.000    0.000    0.000    0.000    0.000 
#
# Total GULP energy -111925.487957 kJ/mol
# GULP energy per Si atom -5596.274398 kJ/mol
# Density = 2.390696 g / cm^3
# Si number density = 23.961501 Si / 1000 Ang^3
#
#
#
# Elastic Constant Matrix: (Units=GPa)
#
#
# Indices 1 2 3 4 5 6 
#
# 1 129.0945 0.5202 0.5277 0.0004 31.3934 0.0000
# 2 0.5202 69.0775 -10.9270 0.0003 4.2920 -0.0001
# 3 0.5277 -10.9270 51.0484 0.0025 24.6952 -0.0002
# 4 0.0004 0.0003 0.0025 19.3841 -0.0003 -4.0322
# 5 31.3934 4.2920 24.6952 -0.0003 49.5975 0.0000
# 6 0.0000 -0.0001 -0.0002 -4.0322 0.0000 19.1807
#
#
#
# Elastic Compliance Matrix: (Units=1/GPa)
#
#
# Indices 1 2 3 4 5 6 
#
# 1 0.009755 0.001106 0.004175 -0.000001 -0.008349 0.000000
# 2 0.001106 0.015677 0.005716 -0.000001 -0.004902 0.000000
# 3 0.004175 0.005716 0.029359 -0.000004 -0.017755 -0.000001
# 4 -0.000001 -0.000001 -0.000004 0.053948 0.000003 0.011341
# 5 -0.008349 -0.004902 -0.017755 0.000003 0.034712 0.000000
# 6 0.000000 0.000000 -0.000001 0.011341 0.000000 0.054520
#
#
# Mechanical properties :
#
#
# Convention : Reuss Voigt Hill
#
# Bulk Modulus (GPa) = 13.02368 25.49581 19.25974
# Shear Modulus (GPa) = 24.80503 34.90576 29.85539
#
# Velocity S-wave (km/s) = 3.22095 3.82087 3.53366
# Velocity P-wave (km/s) = 4.39087 5.48897 4.97034
#
# Compressibility (1/GPa) = 0.07678324
#
# Stress axis : x y z
#
# Youngs Moduli (GPa) = 102.51111 63.78801 34.06128
#
# Poissons Ratio (x) = -0.07053 -0.14220
# Poissons Ratio (y) = -0.11334 -0.19469
# Poissons Ratio (z) = -0.42795 -0.36460
#
# Static dielectric constant tensor:
#      x y z
#    x 1.950600 0.000000 0.010690 
#    y 0.000000 1.858840 0.000000 
#    z 0.010690 0.000000 1.915320 
# 
# From -- ./inp_files/151712.got.cif
#   From: 2010.05.17/outbox.cif.g08.bks.cpg/sg12_76_cif.got.tgz:151712.got - 2010.06.03 13:09:07.
