data_PCOD9215598
_publ_section_title
;
Structure prediction by ZEFSAII (Michael W. Deem and Ramdas Pophale) SiO2 
 PCOD9215598
Probable space group: C 2/M
;
_chemical_formula_sum "Si O2"
_cell_formula_units_Z 48
_cell_length_a 14.466593
_cell_length_b 11.550349
_cell_length_c 15.032185
_cell_angle_alpha 90.000000
_cell_angle_beta 110.868259
_cell_angle_gamma 90.000000
_cell_volume 2347.022333
_symmetry_space_group_name_H-M "C 2/M"
_symmetry_group_IT_number 12
_symmetry_cell_setting 'monoclinic'
loop_
_space_group_symop_operation_xyz
x,y,z
-x,y,-z
-x,-y,-z
x,-y,z
1/2+x,1/2+y,z
1/2-x,1/2+y,-z
1/2-x,1/2-y,-z
1/2+x,1/2-y,z
loop_
_atom_site_type_symbol
_atom_site_label
_atom_site_fract_x
_atom_site_fract_y
_atom_site_fract_z
Si Si1 0.877052 0.316382 0.127498
Si Si2 0.604459 0.861506 0.215398
Si Si3 0.303008 0.709231 0.608260
Si Si4 0.723156 0.127944 0.087117
Si Si5 0.487947 0.629781 0.389439
Si Si6 0.366138 0.871671 0.319697
O O1 0.823771 0.193728 0.103820
O O2 0.838749 0.372596 0.205877
O O3 0.994173 0.312631 0.175245
O O4 0.842860 0.374361 0.024184
O O5 0.662347 0.819043 0.321530
O O6 0.661716 0.819187 0.147361
O O7 0.595022 0.000000 0.210632
O O8 0.250000 0.750000 0.500000
O O9 0.403767 0.642762 0.617611
O O10 0.225348 0.641595 0.644038
O O11 0.747674 0.000000 0.124507
O O12 0.500000 0.629638 0.500000
O O13 0.446896 0.500000 0.351321
O O14 0.427889 0.749959 0.349473
O O15 0.414102 0.000000 0.353571
#
# Coordination Sequence:
#
# PCOD9215598 Si02
#       6
#     8   8   8   8   8   8
#     4  11  22  40  68  99 134 167 220 274 330 394
#     4  11  23  41  67  96 131 176 225 271 326 398
#     4  12  25  44  64  99 132 177 224 278 331 393
#     4  10  22  41  68  97 131 174 219 270 330 399
#     4  11  25  46  68  93 129 177 225 275 334 396
#     4  12  25  43  67  99 133 173 221 276 336 392
#
# _framework density 20.451443999999999
#
# number of rings (size 3 to 8) (size 9 to 14) (size 15 to 20)
#    0.000    0.833    5.000    2.500    0.000    4.333 
#    0.000    0.000    0.000    2.000    0.000    0.000 
#    0.000    0.000    0.000    0.000    0.000    0.000 
#
# Total GULP energy -133876.241487 kJ/mol
# GULP energy per Si atom -5578.176729 kJ/mol
# Density = 2.040490 g / cm^3
# Si number density = 20.451444 Si / 1000 Ang^3
#
#
#
# Elastic Constant Matrix: (Units=GPa)
#
#
# Indices 1 2 3 4 5 6 
#
# 1 107.5626 63.2466 40.5757 0.0000 -8.1527 0.0000
# 2 63.2466 87.7694 35.9456 0.0000 7.8551 0.0000
# 3 40.5757 35.9456 130.7404 0.0000 -4.2640 0.0000
# 4 0.0000 0.0000 0.0000 1.6333 0.0000 -5.8021
# 5 -8.1527 7.8551 -4.2640 0.0000 34.4652 0.0000
# 6 0.0000 0.0000 0.0000 -5.8021 0.0000 108.0250
#
#
#
# Elastic Compliance Matrix: (Units=1/GPa)
#
#
# Indices 1 2 3 4 5 6 
#
# 1 0.018130 -0.012938 -0.001841 0.000000 0.007010 0.000000
# 2 -0.012938 0.022476 -0.002441 0.000000 -0.008485 0.000000
# 3 -0.001841 -0.002441 0.008931 0.000000 0.001226 0.000000
# 4 0.000000 0.000000 0.000000 0.756613 0.000000 0.040638
# 5 0.007010 -0.008485 0.001226 0.000000 0.032758 0.000000
# 6 0.000000 0.000000 0.000000 0.040638 0.000000 0.011440
#
#
# Mechanical properties :
#
#
# Convention : Reuss Voigt Hill
#
# Bulk Modulus (GPa) = 66.23662 67.28979 66.76321
# Shear Modulus (GPa) = 5.61911 41.24501 23.43206
#
# Velocity S-wave (km/s) = 1.65937 4.49567 3.38855
# Velocity P-wave (km/s) = 6.01073 7.74091 6.93003
#
# Compressibility (1/GPa) = 0.01509739
#
# Stress axis : x y z
#
# Youngs Moduli (GPa) = 55.15669 44.49280 111.96767
#
# Poissons Ratio (x) = 0.57565 0.20613
# Poissons Ratio (y) = 0.71361 0.27329
# Poissons Ratio (z) = 0.10154 0.10860
#
# Static dielectric constant tensor:
#      x y z
#    x 1.729560 0.000000 -0.013840 
#    y 0.000000 1.797070 0.000000 
#    z -0.013840 0.000000 1.731640 
# 
# From -- ./inp_files/212913.got.cif
#   From: 2010.05.17/outbox.cif.g08.bks.cpg/sg12_107_cif.got.tgz:212913.got - 2010.06.03 13:09:07.
