data_PCOD9215785
_publ_section_title
;
Structure prediction by ZEFSAII (Michael W. Deem and Ramdas Pophale) SiO2 
 PCOD9215785
Probable space group: C 2/M
;
_chemical_formula_sum "Si O2"
_cell_formula_units_Z 58
_cell_length_a 23.269132
_cell_length_b 8.233552
_cell_length_c 16.053224
_cell_angle_alpha 90.000000
_cell_angle_beta 123.983806
_cell_angle_gamma 90.000000
_cell_volume 2550.272952
_symmetry_space_group_name_H-M "C 2/M"
_symmetry_group_IT_number 12
_symmetry_cell_setting 'monoclinic'
loop_
_space_group_symop_operation_xyz
x,y,z
-x,y,-z
-x,-y,-z
x,-y,z
1/2+x,1/2+y,z
1/2-x,1/2+y,-z
1/2-x,1/2-y,-z
1/2+x,1/2-y,z
loop_
_atom_site_type_symbol
_atom_site_label
_atom_site_fract_x
_atom_site_fract_y
_atom_site_fract_z
Si Si1 0.392927 0.316226 0.260064
Si Si2 0.739470 0.691896 0.585420
Si Si3 0.905637 0.190256 0.977436
Si Si4 0.000000 0.500000 0.500000
Si Si5 0.414125 0.690250 0.474126
Si Si6 0.619695 0.310688 0.222858
Si Si7 0.006641 0.314420 0.796219
Si Si8 0.742089 0.803974 0.088659
O O1 0.392572 0.500000 0.225523
O O2 0.410220 0.321234 0.370676
O O3 0.446546 0.222250 0.245957
O O4 0.314311 0.255053 0.189450
O O5 0.742552 0.500000 0.588811
O O6 0.750000 0.750000 0.500000
O O7 0.662586 0.732269 0.555058
O O8 0.804178 0.748981 0.693490
O O9 0.913813 0.256949 0.890089
O O10 0.824242 0.214585 0.928577
O O11 0.925390 0.000000 0.997408
O O12 0.945994 0.276305 0.084765
O O13 0.039346 0.352063 0.477210
O O14 0.432591 0.500000 0.516982
O O15 0.626798 0.500000 0.212921
O O16 0.564550 0.284218 0.251881
O O17 0.985866 0.500000 0.779955
O O18 0.732836 0.000000 0.088117
O O19 0.750000 0.750000 0.000000
#
# Coordination Sequence:
#
# PCOD9215785 Si02
#       8
#     8   8   8   2   8   8   8   8
#     4  10  22  42  65  92 138 180 225 282 344 409
#     4  11  25  48  77 106 140 178 232 295 353 425
#     4  11  23  40  62  92 133 179 228 280 339 405
#     4  12  26  44  80 106 144 184 230 298 352 446
#     4  10  25  48  74 109 145 186 231 290 358 425
#     4  11  25  44  68  96 131 179 231 282 347 412
#     4  12  25  39  62  96 136 182 232 282 340 413
#     4  11  21  35  59  90 125 173 219 269 329 394
#
# _framework density 22.742664000000001
#
# number of rings (size 3 to 8) (size 9 to 14) (size 15 to 20)
#    0.000    1.103    1.379    4.345    2.897    6.621 
#    0.000    1.379    0.000    0.000    0.000    0.000 
#    0.000    0.000    0.000    0.000    0.000    0.000 
#
# Total GULP energy -161851.110734 kJ/mol
# GULP energy per Si atom -5581.072784 kJ/mol
# Density = 2.269090 g / cm^3
# Si number density = 22.742664 Si / 1000 Ang^3
#
#
#
# Elastic Constant Matrix: (Units=GPa)
#
#
# Indices 1 2 3 4 5 6 
#
# 1 141.1502 26.0504 23.4328 0.0000 8.4954 0.0000
# 2 26.0504 64.3345 25.5093 0.0000 9.1495 0.0000
# 3 23.4328 25.5093 57.9447 0.0000 1.6279 0.0000
# 4 0.0000 0.0000 0.0000 23.3190 0.0000 5.2680
# 5 8.4954 9.1495 1.6279 0.0000 32.0753 0.0000
# 6 0.0000 0.0000 0.0000 5.2680 0.0000 30.4930
#
#
#
# Elastic Compliance Matrix: (Units=1/GPa)
#
#
# Indices 1 2 3 4 5 6 
#
# 1 0.007931 -0.002131 -0.002231 0.000000 -0.001380 0.000000
# 2 -0.002131 0.020225 -0.007907 0.000000 -0.004804 0.000000
# 3 -0.002231 -0.007907 0.021592 0.000000 0.001750 0.000000
# 4 0.000000 0.000000 0.000000 0.044625 0.000000 -0.007709
# 5 -0.001380 -0.004804 0.001750 0.000000 0.032823 0.000000
# 6 0.000000 0.000000 0.000000 -0.007709 0.000000 0.034126
#
#
# Mechanical properties :
#
#
# Convention : Reuss Voigt Hill
#
# Bulk Modulus (GPa) = 39.66543 45.93497 42.80020
# Shear Modulus (GPa) = 25.73826 29.73993 27.73909
#
# Velocity S-wave (km/s) = 3.36775 3.62010 3.49620
# Velocity P-wave (km/s) = 5.70974 6.14126 5.92943
#
# Compressibility (1/GPa) = 0.02521087
#
# Stress axis : x y z
#
# Youngs Moduli (GPa) = 126.08337 49.44378 46.31421
#
# Poissons Ratio (x) = 0.10536 0.10331
# Poissons Ratio (y) = 0.26867 0.36621
# Poissons Ratio (z) = 0.28123 0.39096
#
# Static dielectric constant tensor:
#      x y z
#    x 1.839530 0.000000 0.031620 
#    y 0.000000 1.826900 0.000000 
#    z 0.031620 0.000000 1.883890 
# 
# From -- ./inp_files/282247.got.cif
#   From: 2010.05.17/outbox.cif.g08.bks.cpg/sg12_142_cif.got.tgz:282247.got - 2010.06.03 13:09:07.
