data_PCOD9215442
_publ_section_title
;
Structure prediction by ZEFSAII (Michael W. Deem and Ramdas Pophale) SiO2 
 PCOD9215442
Probable space group: C 2/M
;
_chemical_formula_sum "Si O2"
_cell_formula_units_Z 60
_cell_length_a 13.419504
_cell_length_b 12.188353
_cell_length_c 17.048553
_cell_angle_alpha 90.000000
_cell_angle_beta 73.469723
_cell_angle_gamma 90.000000
_cell_volume 2673.239875
_symmetry_space_group_name_H-M "C 2/M"
_symmetry_group_IT_number 12
_symmetry_cell_setting 'monoclinic'
loop_
_space_group_symop_operation_xyz
x,y,z
-x,y,-z
-x,-y,-z
x,-y,z
1/2+x,1/2+y,z
1/2-x,1/2+y,-z
1/2-x,1/2-y,-z
1/2+x,1/2-y,z
loop_
_atom_site_type_symbol
_atom_site_label
_atom_site_fract_x
_atom_site_fract_y
_atom_site_fract_z
Si Si1 0.016447 0.843167 0.087041
Si Si2 0.043740 0.123284 0.352752
Si Si3 0.724770 0.840606 0.703825
Si Si4 0.752397 0.875983 0.964196
Si Si5 0.793112 0.376581 0.474751
Si Si6 0.131455 0.119981 0.737992
Si Si7 0.500000 0.204634 0.500000
Si Si8 0.428348 0.883349 0.123668
O O1 0.128027 0.881073 0.091055
O O2 0.922852 0.878133 0.164658
O O3 0.009877 0.711930 0.093371
O O4 0.000000 0.874896 0.000000
O O5 0.161432 0.123763 0.294811
O O6 0.035133 0.213632 0.422194
O O7 0.959764 0.145696 0.303961
O O8 0.023245 0.000000 0.387995
O O9 0.706838 0.878220 0.619452
O O10 0.719392 0.709369 0.709458
O O11 0.630135 0.876385 0.780174
O O12 0.665341 0.872241 0.916959
O O13 0.738538 0.000000 0.006712
O O14 0.750000 0.750000 0.000000
O O15 0.747782 0.500000 0.507438
O O16 0.750000 0.250000 0.500000
O O17 0.905412 0.367052 0.489157
O O18 0.172288 0.000000 0.712692
O O19 0.480186 0.000000 0.102219
#
# Coordination Sequence:
#
# PCOD9215442 Si02
#       8
#     8   8   8   8   8   8   4   8
#     4  11  22  39  64  94 126 165 217 264 325 382
#     4  11  22  40  66  94 127 169 217 263 312 381
#     4  11  22  41  66  94 123 163 221 263 315 378
#     4  11  23  41  62  92 126 167 208 262 318 378
#     4  12  26  44  68  96 131 169 212 262 321 384
#     4  10  23  41  63  91 127 168 214 270 325 380
#     4  12  24  42  62 100 131 170 207 264 321 380
#     4  10  22  41  66  90 125 168 215 264 322 385
#
# _framework density 22.444675
#
# number of rings (size 3 to 8) (size 9 to 14) (size 15 to 20)
#    0.000    1.067    4.000    2.800    0.000    5.067 
#    0.000    0.000    0.000    3.200    0.000    0.000 
#    0.000    0.000    0.000    0.000    0.000    0.000 
#
# Total GULP energy -167411.905140 kJ/mol
# GULP energy per Si atom -5580.396838 kJ/mol
# Density = 2.239359 g / cm^3
# Si number density = 22.444675 Si / 1000 Ang^3
#
#
#
# Elastic Constant Matrix: (Units=GPa)
#
#
# Indices 1 2 3 4 5 6 
#
# 1 63.0207 35.5614 -4.5596 0.0000 -5.7476 0.0000
# 2 35.5614 204.3918 28.7088 0.0000 -0.1804 0.0000
# 3 -4.5596 28.7088 81.6937 0.0000 2.8686 0.0000
# 4 0.0000 0.0000 0.0000 -7.6283 0.0000 12.1739
# 5 -5.7476 -0.1804 2.8686 0.0000 23.2588 0.0000
# 6 0.0000 0.0000 0.0000 12.1739 0.0000 47.5560
#
#
#
# Elastic Compliance Matrix: (Units=1/GPa)
#
#
# Indices 1 2 3 4 5 6 
#
# 1 0.018377 -0.003489 0.002102 0.000000 0.004255 0.000000
# 2 -0.003489 0.005811 -0.002218 0.000000 -0.000544 0.000000
# 3 0.002102 -0.002218 0.013177 0.000000 -0.001123 0.000000
# 4 0.000000 0.000000 0.000000 -0.093069 0.000000 0.023825
# 5 0.004255 -0.000544 -0.001123 0.000000 0.044180 0.000000
# 6 0.000000 0.000000 0.000000 0.023825 0.000000 0.014929
#
#
# Mechanical properties :
#
#
# Convention : Reuss Voigt Hill
#
# Bulk Modulus (GPa) = 33.16098 52.05860 42.60979
# Shear Modulus (GPa) = 241.96224 31.93033 136.94629
#
# Velocity S-wave (km/s) = 10.39413 3.77586 7.81969
# Velocity P-wave (km/s) = 12.60385 6.50031 10.02774
#
# Compressibility (1/GPa) = 0.03015592
#
# Stress axis : x y z
#
# Youngs Moduli (GPa) = 54.41693 172.10005 75.89024
#
# Poissons Ratio (x) = 0.60043 -0.15954
# Poissons Ratio (y) = 0.18985 0.16829
# Poissons Ratio (z) = -0.11440 0.38165
#
# Static dielectric constant tensor:
#      x y z
#    x 1.755330 0.000000 -0.011950 
#    y 0.000000 1.935240 0.000000 
#    z -0.011950 0.000000 1.837770 
# 
# From -- ./inp_files/269255.got.cif
#   From: 2010.05.17/outbox.cif.g08.bks.cpg/sg12_135_cif.got.tgz:269255.got - 2010.06.03 13:09:07.
