data_PCOD9215688
_publ_section_title
;
Structure prediction by ZEFSAII (Michael W. Deem and Ramdas Pophale) SiO2 
 PCOD9215688
Probable space group: C 2/M
;
_chemical_formula_sum "Si O2"
_cell_formula_units_Z 34
_cell_length_a 12.153431
_cell_length_b 21.390961
_cell_length_c 12.398727
_cell_angle_alpha 90.000000
_cell_angle_beta 30.320723
_cell_angle_gamma 90.000000
_cell_volume 1627.271197
_symmetry_space_group_name_H-M "C 2/M"
_symmetry_group_IT_number 12
_symmetry_cell_setting 'monoclinic'
loop_
_space_group_symop_operation_xyz
x,y,z
-x,y,-z
-x,-y,-z
x,-y,z
1/2+x,1/2+y,z
1/2-x,1/2+y,-z
1/2-x,1/2-y,-z
1/2+x,1/2-y,z
loop_
_atom_site_type_symbol
_atom_site_label
_atom_site_fract_x
_atom_site_fract_y
_atom_site_fract_z
Si Si1 0.784104 0.898706 0.021942
Si Si2 0.116901 0.571382 0.788745
Si Si3 0.096602 0.841112 0.586504
Si Si4 0.500000 0.500000 0.000000
Si Si5 0.977003 0.295210 0.644726
O O1 0.566510 0.924975 0.149330
O O2 0.717638 0.833470 0.135370
O O3 0.881576 0.945735 0.025856
O O4 0.955000 0.885438 0.782449
O O5 0.197720 0.500000 0.728653
O O6 0.300593 0.620094 0.598501
O O7 0.000000 0.587909 0.000000
O O8 0.302844 0.816694 0.481423
O O9 0.961145 0.779525 0.669409
O O10 0.000000 0.311775 0.500000
#
# Coordination Sequence:
#
# PCOD9215688 Si02
#       5
#     8   8   8   2   8
#     4  11  23  42  64  98 131 172 220 271 326 398
#     4  10  23  42  63  96 134 168 217 275 327 392
#     4  10  23  41  66  96 125 178 219 267 335 391
#     4  12  24  40  68 102 130 180 214 260 346 390
#     4  10  22  42  62  96 132 167 221 274 329 383
#
# _framework density 20.893874
#
# number of rings (size 3 to 8) (size 9 to 14) (size 15 to 20)
#    0.000    1.647    1.176    2.118    4.941    0.000 
#    0.000    5.294    0.000    0.000    0.000    0.000 
#    0.000    0.000    0.000    0.000    0.000    0.000 
#
# Total GULP energy -94790.661008 kJ/mol
# GULP energy per Si atom -5575.921236 kJ/mol
# Density = 2.084632 g / cm^3
# Si number density = 20.893874 Si / 1000 Ang^3
#
#
#
# Elastic Constant Matrix: (Units=GPa)
#
#
# Indices 1 2 3 4 5 6 
#
# 1 101.6244 44.9677 32.0865 -0.0031 12.0284 0.0049
# 2 44.9677 152.8846 74.3192 0.0021 8.2871 0.0174
# 3 32.0865 74.3192 88.4302 0.0203 15.3786 0.0586
# 4 -0.0031 0.0021 0.0203 0.5768 -0.0020 10.7446
# 5 12.0284 8.2871 15.3786 -0.0020 28.1398 -0.0172
# 6 0.0049 0.0174 0.0586 10.7446 -0.0172 19.6109
#
#
#
# Elastic Compliance Matrix: (Units=1/GPa)
#
#
# Indices 1 2 3 4 5 6 
#
# 1 0.011870 -0.002541 -0.001568 -0.000011 -0.003469 0.000007
# 2 -0.002541 0.011707 -0.009400 0.000011 0.002775 0.000015
# 3 -0.001568 -0.009400 0.021193 -0.000044 -0.008144 -0.000038
# 4 -0.000011 0.000011 -0.000044 -0.188322 0.000075 0.103180
# 5 -0.003469 0.002775 -0.008144 0.000075 0.040653 0.000017
# 6 0.000007 0.000015 -0.000038 0.103180 0.000017 -0.005539
#
#
# Mechanical properties :
#
#
# Convention : Reuss Voigt Hill
#
# Bulk Modulus (GPa) = 56.32912 71.74287 64.03600
# Shear Modulus (GPa) = -66.22399 22.43654 -21.89372
#
# Velocity S-wave (km/s) = -5.63598 3.28049 -3.24057
# Velocity P-wave (km/s) = 3.91588 6.98285 4.08816
#
# Compressibility (1/GPa) = 0.01775281
#
# Stress axis : x y z
#
# Youngs Moduli (GPa) = 84.24431 85.41823 47.18436
#
# Poissons Ratio (x) = 0.21704 0.07400
# Poissons Ratio (y) = 0.21406 0.44352
# Poissons Ratio (z) = 0.13213 0.80290
#
# Static dielectric constant tensor:
#      x y z
#    x 1.738150 0.000000 -0.008260 
#    y 0.000000 1.734890 -0.000010 
#    z -0.008260 -0.000010 1.717720 
# 
# From -- ./inp_files/7058.got.cif
#   From: 2010.05.17/outbox.cif.g08.bks.cpg/sg12_4_cif.got.tgz:7058.got - 2010.06.03 13:09:07.
