data_PCOD9215783
_publ_section_title
;
Structure prediction by ZEFSAII (Michael W. Deem and Ramdas Pophale) SiO2 
 PCOD9215783
Probable space group: C 2/M
;
_chemical_formula_sum "Si O2"
_cell_formula_units_Z 40
_cell_length_a 21.011895
_cell_length_b 15.565496
_cell_length_c 17.315134
_cell_angle_alpha 90.000000
_cell_angle_beta 19.750219
_cell_angle_gamma 90.000000
_cell_volume 1913.675712
_symmetry_space_group_name_H-M "C 2/M"
_symmetry_group_IT_number 12
_symmetry_cell_setting 'monoclinic'
loop_
_space_group_symop_operation_xyz
x,y,z
-x,y,-z
-x,-y,-z
x,-y,z
1/2+x,1/2+y,z
1/2-x,1/2+y,-z
1/2-x,1/2-y,-z
1/2+x,1/2-y,z
loop_
_atom_site_type_symbol
_atom_site_label
_atom_site_fract_x
_atom_site_fract_y
_atom_site_fract_z
Si Si1 0.283268 0.682245 0.031058
Si Si2 0.872384 0.403419 0.507725
Si Si3 0.210518 0.268340 0.280517
Si Si4 0.294786 0.351414 0.461112
Si Si5 0.788773 0.594092 0.272818
O O1 0.314539 0.726026 0.079896
O O2 0.091955 0.626381 0.253568
O O3 0.250000 0.750000 0.000000
O O4 0.480031 0.635452 0.790396
O O5 0.860927 0.500000 0.551636
O O6 0.745411 0.337884 0.703753
O O7 0.793167 0.398226 0.511735
O O8 0.201435 0.174547 0.327934
O O9 0.000000 0.293751 0.500000
O O10 0.250000 0.250000 0.500000
O O11 0.210802 0.383879 0.637375
O O12 0.700433 0.500000 0.361225
O O13 0.000000 0.590964 0.000000
#
# Coordination Sequence:
#
# PCOD9215783 Si02
#       5
#     8   8   8   8   8
#     4  11  23  41  68  98 125 175 218 265 326 383
#     4  11  25  43  66  98 135 173 215 266 323 386
#     4  10  22  42  65  92 130 169 212 262 323 383
#     4  12  21  42  70  96 132 173 217 266 325 389
#     4  11  24  41  64  94 127 166 213 268 326 386
#
# _framework density 20.902183000000001
#
# number of rings (size 3 to 8) (size 9 to 14) (size 15 to 20)
#    0.000    1.000    4.000    3.000    0.000    5.600 
#    0.000    1.000    0.000    0.000    0.000    0.000 
#    0.000    0.000    0.000    0.000    0.000    0.000 
#
# Total GULP energy -111650.195530 kJ/mol
# GULP energy per Si atom -5582.509776 kJ/mol
# Density = 2.085461 g / cm^3
# Si number density = 20.902183 Si / 1000 Ang^3
#
#
#
# Elastic Constant Matrix: (Units=GPa)
#
#
# Indices 1 2 3 4 5 6 
#
# 1 145.5437 41.4469 48.2781 -0.0590 30.2730 -0.0559
# 2 41.4469 124.6062 16.0376 -0.2462 21.8837 -0.2182
# 3 48.2781 16.0376 87.2214 0.0047 9.6088 0.0321
# 4 -0.0590 -0.2462 0.0047 -124.3549 0.0315 -148.7955
# 5 30.2730 21.8837 9.6088 0.0315 43.9718 0.0257
# 6 -0.0559 -0.2182 0.0321 -148.7955 0.0257 -129.1633
#
#
#
# Elastic Compliance Matrix: (Units=1/GPa)
#
#
# Indices 1 2 3 4 5 6 
#
# 1 0.009957 -0.001852 -0.004629 -0.000004 -0.004922 0.000001
# 2 -0.001852 0.009255 -0.000317 -0.000001 -0.003262 -0.000015
# 3 -0.004629 -0.000317 0.014055 0.000010 0.000273 -0.000006
# 4 -0.000004 -0.000001 0.000010 0.021251 0.000000 -0.024481
# 5 -0.004922 -0.003262 0.000273 0.000000 0.027694 0.000013
# 6 0.000001 -0.000015 -0.000006 -0.024481 0.000013 0.020460
#
#
# Mechanical properties :
#
#
# Convention : Reuss Voigt Hill
#
# Bulk Modulus (GPa) = 50.83447 63.21071 57.02259
# Shear Modulus (GPa) = 40.70807 -25.13538 7.78635
#
# Velocity S-wave (km/s) = 4.41789 -3.47150 1.93216
# Velocity P-wave (km/s) = 7.09906 3.77338 5.68485
#
# Compressibility (1/GPa) = 0.01967169
#
# Stress axis : x y z
#
# Youngs Moduli (GPa) = 100.42822 108.05098 71.14695
#
# Poissons Ratio (x) = 0.20009 0.32932
# Poissons Ratio (y) = 0.18598 0.02258
# Poissons Ratio (z) = 0.46486 0.03429
#
# Static dielectric constant tensor:
#      x y z
#    x 1.792050 -0.000040 0.011780 
#    y -0.000040 1.800070 0.000030 
#    z 0.011780 0.000030 1.766350 
# 
# From -- ./inp_files/284421.got.cif
#   From: 2010.05.17/outbox.cif.g08.bks.cpg/sg12_143_cif.got.tgz:284421.got - 2010.06.03 13:09:07.
