data_PCOD9215718
_publ_section_title
;
Structure prediction by ZEFSAII (Michael W. Deem and Ramdas Pophale) SiO2 
 PCOD9215718
Probable space group: C 2/M
;
_chemical_formula_sum "Si O2"
_cell_formula_units_Z 56
_cell_length_a 9.561626
_cell_length_b 14.388704
_cell_length_c 20.445027
_cell_angle_alpha 90.000000
_cell_angle_beta 90.698380
_cell_angle_gamma 90.000000
_cell_volume 2812.605725
_symmetry_space_group_name_H-M "C 2/M"
_symmetry_group_IT_number 12
_symmetry_cell_setting 'monoclinic'
loop_
_space_group_symop_operation_xyz
x,y,z
-x,y,-z
-x,-y,-z
x,-y,z
1/2+x,1/2+y,z
1/2-x,1/2+y,-z
1/2-x,1/2-y,-z
1/2+x,1/2-y,z
loop_
_atom_site_type_symbol
_atom_site_label
_atom_site_fract_x
_atom_site_fract_y
_atom_site_fract_z
Si Si1 0.091192 0.889278 0.562388
Si Si2 0.840135 0.113096 0.006146
Si Si3 0.331847 0.111252 0.865568
Si Si4 0.714779 0.734692 0.234996
Si Si5 0.967843 0.751564 0.326293
Si Si6 0.582716 0.110950 0.433593
Si Si7 0.160346 0.388047 0.878574
O O1 0.254375 0.866510 0.554707
O O2 0.000000 0.858852 0.500000
O O3 0.037300 0.839422 0.626487
O O4 0.078561 0.000000 0.568110
O O5 0.764633 0.137850 0.073413
O O6 0.845490 0.000000 0.005333
O O7 0.742190 0.140206 0.944804
O O8 0.000000 0.146929 0.000000
O O9 0.279967 0.166717 0.802158
O O10 0.495160 0.135729 0.879352
O O11 0.324343 0.000000 0.856826
O O12 0.560641 0.726990 0.263399
O O13 0.763767 0.659524 0.182283
O O14 0.815521 0.729490 0.297787
O O15 0.026231 0.667844 0.371204
O O16 0.500000 0.132226 0.500000
O O17 0.570012 0.000000 0.421732
O O18 0.168657 0.500000 0.873225
#
# Coordination Sequence:
#
# PCOD9215718 Si02
#       7
#     8   8   8   8   8   8   8
#     4  10  23  43  67  95 124 158 204 255 305 355
#     4   9  19  36  63  94 119 153 205 263 313 354
#     4  10  22  42  65  87 121 165 206 253 308 367
#     4  12  26  41  60  93 126 164 210 247 301 370
#     4  12  25  42  63  90 128 167 202 249 303 365
#     4  10  23  43  68  94 122 161 206 251 302 361
#     4  10  22  42  64  88 122 162 207 255 306 367
#
# _framework density 19.910363
#
# number of rings (size 3 to 8) (size 9 to 14) (size 15 to 20)
#    0.000    1.571    2.857    0.857    4.000    5.714 
#    0.000    0.000    0.000    0.000    0.000    0.000 
#    0.000    0.000    0.000    0.000    0.000    0.000 
#
# Total GULP energy -156503.950181 kJ/mol
# GULP energy per Si atom -5589.426792 kJ/mol
# Density = 1.986505 g / cm^3
# Si number density = 19.910363 Si / 1000 Ang^3
#
#
#
# Elastic Constant Matrix: (Units=GPa)
#
#
# Indices 1 2 3 4 5 6 
#
# 1 67.6404 41.4727 24.2802 0.0000 0.0799 0.0000
# 2 41.4727 53.8243 34.1871 0.0000 -1.5736 0.0000
# 3 24.2802 34.1871 101.3143 0.0000 -5.4546 0.0000
# 4 0.0000 0.0000 0.0000 3088.1457 0.0000 -498.8221
# 5 0.0799 -1.5736 -5.4546 0.0000 46.3216 0.0000
# 6 0.0000 0.0000 0.0000 -498.8221 0.0000 101.2187
#
#
#
# Elastic Compliance Matrix: (Units=1/GPa)
#
#
# Indices 1 2 3 4 5 6 
#
# 1 0.028089 -0.022100 0.000687 0.000000 -0.000718 0.000000
# 2 -0.022100 0.041037 -0.008528 0.000000 0.000428 0.000000
# 3 0.000687 -0.008528 0.012648 0.000000 0.001198 0.000000
# 4 0.000000 0.000000 0.000000 0.001588 0.000000 0.007824
# 5 -0.000718 0.000428 0.001198 0.000000 0.021745 0.000000
# 6 0.000000 0.000000 0.000000 0.007824 0.000000 0.048438
#
#
# Mechanical properties :
#
#
# Convention : Reuss Voigt Hill
#
# Bulk Modulus (GPa) = 45.68034 46.96212 46.32123
# Shear Modulus (GPa) = 22.65281 655.32647 338.98964
#
# Velocity S-wave (km/s) = 3.37670 18.16185 13.06245
# Velocity P-wave (km/s) = 6.18026 21.52770 15.83726
#
# Compressibility (1/GPa) = 0.02189126
#
# Stress axis : x y z
#
# Youngs Moduli (GPa) = 35.60139 24.36835 79.06586
#
# Poissons Ratio (x) = 0.53855 -0.05434
# Poissons Ratio (y) = 0.78681 0.67426
# Poissons Ratio (z) = -0.02447 0.20781
#
# Static dielectric constant tensor:
#      x y z
#    x 1.680250 0.000000 0.001380 
#    y 0.000000 1.699980 0.000000 
#    z 0.001380 0.000000 1.665700 
# 
# From -- ./inp_files/300162.got.cif
#   From: 2010.05.17/outbox.cif.g08.bks.cpg/sg12_151_cif.got.tgz:300162.got - 2010.06.03 13:09:07.
