data_PCOD9215465
_publ_section_title
;
Structure prediction by ZEFSAII (Michael W. Deem and Ramdas Pophale) SiO2 
 PCOD9215465
Probable space group: C 2/M
;
_chemical_formula_sum "Si O2"
_cell_formula_units_Z 64
_cell_length_a 18.964430
_cell_length_b 28.594193
_cell_length_c 8.703272
_cell_angle_alpha 90.000000
_cell_angle_beta 42.325749
_cell_angle_gamma 90.000000
_cell_volume 3177.881733
_symmetry_space_group_name_H-M "C 2/M"
_symmetry_group_IT_number 12
_symmetry_cell_setting 'monoclinic'
loop_
_space_group_symop_operation_xyz
x,y,z
-x,y,-z
-x,-y,-z
x,-y,z
1/2+x,1/2+y,z
1/2-x,1/2+y,-z
1/2-x,1/2-y,-z
1/2+x,1/2-y,z
loop_
_atom_site_type_symbol
_atom_site_label
_atom_site_fract_x
_atom_site_fract_y
_atom_site_fract_z
Si Si1 0.505068 0.819458 0.814865
Si Si2 0.514429 0.715661 0.718628
Si Si3 0.091965 0.448267 0.736047
Si Si4 0.284875 0.446459 0.658897
Si Si5 0.830140 0.212379 0.801156
Si Si6 0.308836 0.869556 0.612174
Si Si7 0.400278 0.623733 0.255640
Si Si8 0.812220 0.629174 0.972975
O O1 0.479297 0.764428 0.849755
O O2 0.621676 0.826897 0.562749
O O3 0.424711 0.851442 0.847117
O O4 0.500000 0.833636 0.000000
O O5 0.410552 0.695943 0.803514
O O6 0.596317 0.730144 0.453567
O O7 0.566491 0.675084 0.735618
O O8 0.065113 0.500000 0.721726
O O9 0.195220 0.450140 0.674104
O O10 0.120831 0.413587 0.554471
O O11 0.000000 0.434043 0.000000
O O12 0.319286 0.500000 0.638700
O O13 0.369940 0.411803 0.443057
O O14 0.227654 0.419433 0.891155
O O15 0.750000 0.250000 0.000000
O O16 0.766222 0.168925 0.839506
O O17 0.198948 0.871570 0.699157
O O18 0.302332 0.869431 0.805438
O O19 0.500000 0.605390 0.000000
#
# Coordination Sequence:
#
# PCOD9215465 Si02
#       8
#     8   8   8   8   8   8   8   8
#     4  12  25  40  63  95 130 172 216 268 325 395
#     4  11  24  40  64  93 127 169 221 262 323 387
#     4   9  18  37  63  91 124 164 211 267 330 396
#     4  10  22  41  66  94 127 171 217 268 331 389
#     4  11  22  40  65  92 127 169 212 265 325 378
#     4  11  24  38  63  93 129 167 215 268 326 383
#     4  11  23  44  65  92 126 170 221 271 322 388
#     4  12  23  42  65  94 134 169 212 279 322 388
#
# _framework density 20.139202999999998
#
# number of rings (size 3 to 8) (size 9 to 14) (size 15 to 20)
#    0.000    1.125    2.500    4.875    1.750    1.250 
#    0.000    0.000    0.000    9.000    0.000    0.000 
#    0.000    0.000    0.000    0.000    0.000    0.000 
#
# Total GULP energy -178628.719907 kJ/mol
# GULP energy per Si atom -5582.147497 kJ/mol
# Density = 2.009337 g / cm^3
# Si number density = 20.139203 Si / 1000 Ang^3
#
#
#
# Elastic Constant Matrix: (Units=GPa)
#
#
# Indices 1 2 3 4 5 6 
#
# 1 94.2082 27.7184 35.3222 0.0000 -5.1321 0.0000
# 2 27.7184 116.0436 25.2352 0.0000 -2.9721 0.0000
# 3 35.3222 25.2352 96.7223 0.0000 -8.8320 0.0000
# 4 0.0000 0.0000 0.0000 19.8045 0.0000 10.8390
# 5 -5.1321 -2.9721 -8.8320 0.0000 34.4405 0.0000
# 6 0.0000 0.0000 0.0000 10.8390 0.0000 -42.0641
#
#
#
# Elastic Compliance Matrix: (Units=1/GPa)
#
#
# Indices 1 2 3 4 5 6 
#
# 1 0.012806 -0.002161 -0.004051 0.000000 0.000683 0.000000
# 2 -0.002161 0.009501 -0.001684 0.000000 0.000066 0.000000
# 3 -0.004051 -0.001684 0.012481 0.000000 0.002452 0.000000
# 4 0.000000 0.000000 0.000000 0.044253 0.000000 0.011403
# 5 0.000683 0.000066 0.002452 0.000000 0.029772 0.000000
# 6 0.000000 0.000000 0.000000 0.011403 0.000000 -0.020835
#
#
# Mechanical properties :
#
#
# Convention : Reuss Voigt Hill
#
# Bulk Modulus (GPa) = 52.63477 53.72507 53.17992
# Shear Modulus (GPa) = 45.41235 17.01607 31.21421
#
# Velocity S-wave (km/s) = 4.75375 2.90991 3.94118
# Velocity P-wave (km/s) = 7.50487 6.16643 6.86833
#
# Compressibility (1/GPa) = 0.01899885
#
# Stress axis : x y z
#
# Youngs Moduli (GPa) = 78.08552 105.24755 80.11931
#
# Poissons Ratio (x) = 0.22740 0.32454
# Poissons Ratio (y) = 0.16871 0.13491
# Poissons Ratio (z) = 0.31630 0.17722
#
# Static dielectric constant tensor:
#      x y z
#    x 1.702380 0.000000 0.002490 
#    y 0.000000 1.748930 0.000000 
#    z 0.002490 0.000000 1.741410 
# 
# From -- ./inp_files/80707.got.cif
#   From: 2010.05.17/outbox.cif.g08.bks.cpg/sg12_41_cif.got.tgz:80707.got - 2010.06.03 13:09:07.
