data_PCOD9215010
_publ_section_title
;
Structure prediction by ZEFSAII (Michael W. Deem and Ramdas Pophale) SiO2 
 PCOD9215010
Probable space group: C 2/M
;
_chemical_formula_sum "Si O2"
_cell_formula_units_Z 58
_cell_length_a 28.066496
_cell_length_b 11.646330
_cell_length_c 17.579001
_cell_angle_alpha 90.000000
_cell_angle_beta 28.238152
_cell_angle_gamma 90.000000
_cell_volume 2718.684742
_symmetry_space_group_name_H-M "C 2/M"
_symmetry_group_IT_number 12
_symmetry_cell_setting 'monoclinic'
loop_
_space_group_symop_operation_xyz
x,y,z
-x,y,-z
-x,-y,-z
x,-y,z
1/2+x,1/2+y,z
1/2-x,1/2+y,-z
1/2-x,1/2-y,-z
1/2+x,1/2-y,z
loop_
_atom_site_type_symbol
_atom_site_label
_atom_site_fract_x
_atom_site_fract_y
_atom_site_fract_z
Si Si1 0.698865 0.755974 0.374247
Si Si2 0.211302 0.128544 0.889049
Si Si3 0.613715 0.138596 0.817777
Si Si4 0.000000 0.500000 0.500000
Si Si5 0.122916 0.630021 0.634314
Si Si6 0.616608 0.124270 0.050972
Si Si7 0.379091 0.160416 0.779441
Si Si8 0.996600 0.871810 0.413541
O O1 0.722635 0.856920 0.280699
O O2 0.801022 0.685601 0.246492
O O3 0.663395 0.802026 0.505540
O O4 0.609053 0.680400 0.465600
O O5 0.285242 0.135634 0.857315
O O6 0.164043 0.000000 0.955052
O O7 0.151997 0.249281 0.975214
O O8 0.640148 0.177533 0.694743
O O9 0.614093 0.000000 0.817355
O O10 0.500000 0.174762 0.000000
O O11 0.030462 0.598576 0.393344
O O12 0.163742 0.500000 0.574020
O O13 0.002438 0.623221 0.795601
O O14 0.636022 0.120573 0.113868
O O15 0.656409 0.000000 0.963219
O O16 0.411007 0.292496 0.740952
O O17 0.000000 0.873962 0.500000
O O18 0.007358 0.000000 0.368418
#
# Coordination Sequence:
#
# PCOD9215010 Si02
#       8
#     8   8   8   2   8   8   8   8
#     4  12  22  41  69  95 129 177 221 278 337 399
#     4  12  26  41  62  97 136 180 227 279 339 399
#     4  10  22  42  67  97 131 170 218 277 336 405
#     4  12  20  36  66  92 116 160 226 278 328 376
#     4  10  22  40  67  99 128 163 223 282 331 398
#     4  11  24  42  66  94 132 182 227 274 335 402
#     4  12  22  39  64  91 130 174 218 277 326 393
#     4  11  23  38  59  98 136 171 219 276 329 385
#
# _framework density 21.333845
#
# number of rings (size 3 to 8) (size 9 to 14) (size 15 to 20)
#    0.000    0.828    4.828    2.483    0.000    3.310 
#    0.000    0.000    0.000    9.103    0.000    0.000 
#    0.000    0.000    0.000    0.000    0.000    0.000 
#
# Total GULP energy -161721.976248 kJ/mol
# GULP energy per Si atom -5576.619871 kJ/mol
# Density = 2.128529 g / cm^3
# Si number density = 21.333845 Si / 1000 Ang^3
#
#
#
# Elastic Constant Matrix: (Units=GPa)
#
#
# Indices 1 2 3 4 5 6 
#
# 1 110.5263 16.9115 27.9721 0.0000 10.7911 0.0000
# 2 16.9115 160.8394 46.4748 0.0000 7.4482 0.0000
# 3 27.9721 46.4748 47.0054 0.0000 9.5032 0.0000
# 4 0.0000 0.0000 0.0000 -10.3509 0.0000 -23.3866
# 5 10.7911 7.4482 9.5032 0.0000 31.7731 0.0000
# 6 0.0000 0.0000 0.0000 -23.3866 0.0000 10.8689
#
#
#
# Elastic Compliance Matrix: (Units=1/GPa)
#
#
# Indices 1 2 3 4 5 6 
#
# 1 0.010863 0.000985 -0.007074 0.000000 -0.001805 0.000000
# 2 0.000985 0.008803 -0.009372 0.000000 0.000405 0.000000
# 3 -0.007074 -0.009372 0.035997 0.000000 -0.006167 0.000000
# 4 0.000000 0.000000 0.000000 -0.016482 0.000000 -0.035464
# 5 -0.001805 0.000405 -0.006167 0.000000 0.033836 0.000000
# 6 0.000000 0.000000 0.000000 -0.035464 0.000000 0.015697
#
#
# Mechanical properties :
#
#
# Convention : Reuss Voigt Hill
#
# Bulk Modulus (GPa) = 40.41702 55.67643 48.04673
# Shear Modulus (GPa) = 39.09863 21.59241 30.34552
#
# Velocity S-wave (km/s) = 4.28565 3.18483 3.77558
# Velocity P-wave (km/s) = 6.59358 6.29909 6.44802
#
# Compressibility (1/GPa) = 0.02474205
#
# Stress axis : x y z
#
# Youngs Moduli (GPa) = 92.05276 113.59686 27.78031
#
# Poissons Ratio (x) = -0.11194 0.19652
# Poissons Ratio (y) = -0.09071 0.26036
# Poissons Ratio (z) = 0.65118 1.06462
#
# Static dielectric constant tensor:
#      x y z
#    x 1.755360 0.000000 0.014280 
#    y 0.000000 1.826800 0.000000 
#    z 0.014280 0.000000 1.814740 
# 
# From -- ./inp_files/293265.got.cif
#   From: 2010.05.17/outbox.cif.g08.bks.cpg/sg12_147_cif.got.tgz:293265.got - 2010.06.03 13:09:07.
