data_PCOD9215516
_publ_section_title
;
Structure prediction by ZEFSAII (Michael W. Deem and Ramdas Pophale) SiO2 
 PCOD9215516
Probable space group: C 2/M
;
_chemical_formula_sum "Si O2"
_cell_formula_units_Z 48
_cell_length_a 14.339280
_cell_length_b 27.387957
_cell_length_c 9.621626
_cell_angle_alpha 90.000000
_cell_angle_beta 135.271053
_cell_angle_gamma 90.000000
_cell_volume 2659.231581
_symmetry_space_group_name_H-M "C 2/M"
_symmetry_group_IT_number 12
_symmetry_cell_setting 'monoclinic'
loop_
_space_group_symop_operation_xyz
x,y,z
-x,y,-z
-x,-y,-z
x,-y,z
1/2+x,1/2+y,z
1/2-x,1/2+y,-z
1/2-x,1/2-y,-z
1/2+x,1/2-y,z
loop_
_atom_site_type_symbol
_atom_site_label
_atom_site_fract_x
_atom_site_fract_y
_atom_site_fract_z
Si Si1 0.861449 0.274008 0.308674
Si Si2 0.261792 0.180949 0.953051
Si Si3 0.648342 0.884651 0.197367
Si Si4 0.506131 0.360132 0.839482
Si Si5 0.765759 0.307613 0.490855
Si Si6 0.912210 0.942111 0.545070
O O1 0.766286 0.229333 0.168226
O O2 0.814738 0.308580 0.383652
O O3 0.000000 0.251384 0.500000
O O4 0.874585 0.304778 0.181931
O O5 0.295971 0.138472 0.885097
O O6 0.136343 0.165621 0.914689
O O7 0.648820 0.840352 0.311826
O O8 0.760697 0.922894 0.366057
O O9 0.500000 0.901940 0.000000
O O10 0.381105 0.329028 0.655722
O O11 0.481948 0.412782 0.744104
O O12 0.500000 0.361661 0.000000
O O13 0.750000 0.250000 0.500000
O O14 0.000000 0.931207 0.500000
O O15 0.912437 0.000000 0.566885
#
# Coordination Sequence:
#
# PCOD9215516 Si02
#       6
#     8   8   8   8   8   8
#     4  11  22  35  51  77 119 164 198 238 276 335
#     4  11  22  37  54  83 116 158 201 238 285 334
#     4  11  23  38  61  88 117 152 194 244 292 356
#     4  11  22  38  60  84 116 154 200 243 286 346
#     4  11  21  34  53  81 118 158 198 234 277 337
#     4  10  22  41  67  90 112 147 190 247 313 359
#
# _framework density 18.050326999999999
#
# number of rings (size 3 to 8) (size 9 to 14) (size 15 to 20)
#    0.000    1.167    5.000    2.000    2.333    2.667 
#    0.000    0.000    0.000    0.000    0.000    1.167 
#    0.000    0.000    0.000    0.000    0.000    0.000 
#
# Total GULP energy -133876.985556 kJ/mol
# GULP energy per Si atom -5578.207731 kJ/mol
# Density = 1.800924 g / cm^3
# Si number density = 18.050327 Si / 1000 Ang^3
#
#
#
# Elastic Constant Matrix: (Units=GPa)
#
#
# Indices 1 2 3 4 5 6 
#
# 1 72.8632 14.1423 18.6287 0.0000 -6.1067 0.0000
# 2 14.1423 72.1491 18.0713 0.0000 -1.1676 0.0000
# 3 18.6287 18.0713 86.4383 0.0000 -0.2576 0.0000
# 4 0.0000 0.0000 0.0000 18.9376 0.0000 -3.6152
# 5 -6.1067 -1.1676 -0.2576 0.0000 27.8775 0.0000
# 6 0.0000 0.0000 0.0000 -3.6152 0.0000 22.5490
#
#
#
# Elastic Compliance Matrix: (Units=1/GPa)
#
#
# Indices 1 2 3 4 5 6 
#
# 1 0.015136 -0.002216 -0.002789 0.000000 0.003197 0.000000
# 2 -0.002216 0.014960 -0.002650 0.000000 0.000117 0.000000
# 3 -0.002789 -0.002650 0.012722 0.000000 -0.000604 0.000000
# 4 0.000000 0.000000 0.000000 0.054472 0.000000 0.008733
# 5 0.003197 0.000117 -0.000604 0.000000 0.036571 0.000000
# 6 0.000000 0.000000 0.000000 0.008733 0.000000 0.045748
#
#
# Mechanical properties :
#
#
# Convention : Reuss Voigt Hill
#
# Bulk Modulus (GPa) = 36.35352 37.01501 36.68427
# Shear Modulus (GPa) = 24.49917 25.91337 25.20627
#
# Velocity S-wave (km/s) = 3.68811 3.79307 3.74096
# Velocity P-wave (km/s) = 6.19032 6.30351 6.24717
#
# Compressibility (1/GPa) = 0.02750765
#
# Stress axis : x y z
#
# Youngs Moduli (GPa) = 66.06967 66.84403 78.60294
#
# Poissons Ratio (x) = 0.14816 0.21922
# Poissons Ratio (y) = 0.14644 0.20827
# Poissons Ratio (z) = 0.18427 0.17711
#
# Static dielectric constant tensor:
#      x y z
#    x 1.670020 0.000000 -0.009740 
#    y 0.000000 1.595050 0.000000 
#    z -0.009740 0.000000 1.657140 
# 
# From -- ./inp_files/52797.got.cif
#   From: 2010.05.17/outbox.cif.g08.bks.cpg/sg12_27_cif.got.tgz:52797.got - 2010.06.03 13:09:07.
