data_PCOD9215942
_publ_section_title
;
Structure prediction by ZEFSAII (Michael W. Deem and Ramdas Pophale) SiO2 
 PCOD9215942
Probable space group: C 2/M
;
_chemical_formula_sum "Si O2"
_cell_formula_units_Z 60
_cell_length_a 25.172734
_cell_length_b 7.644106
_cell_length_c 13.218259
_cell_angle_alpha 90.000000
_cell_angle_beta 109.490904
_cell_angle_gamma 90.000000
_cell_volume 2397.741198
_symmetry_space_group_name_H-M "C 2/M"
_symmetry_group_IT_number 12
_symmetry_cell_setting 'monoclinic'
loop_
_space_group_symop_operation_xyz
x,y,z
-x,y,-z
-x,-y,-z
x,-y,z
1/2+x,1/2+y,z
1/2-x,1/2+y,-z
1/2-x,1/2-y,-z
1/2+x,1/2-y,z
loop_
_atom_site_type_symbol
_atom_site_label
_atom_site_fract_x
_atom_site_fract_y
_atom_site_fract_z
Si Si1 0.175988 0.197002 0.871317
Si Si2 0.911552 0.305293 0.538859
Si Si3 0.912430 0.213007 0.916577
Si Si4 0.517775 0.303347 0.235702
Si Si5 0.783202 0.793155 0.419686
Si Si6 0.218416 0.200966 0.177248
Si Si7 0.111691 0.500000 0.951618
Si Si8 0.072377 0.206655 0.671943
O O1 0.240327 0.207321 0.876419
O O2 0.137022 0.224523 0.746538
O O3 0.163297 0.000000 0.899907
O O4 0.153588 0.346340 0.929959
O O5 0.921168 0.500000 0.582537
O O6 0.937370 0.188360 0.643175
O O7 0.846049 0.273890 0.477322
O O8 0.937918 0.283279 0.444460
O O9 0.949402 0.260455 0.841804
O O10 0.846225 0.259852 0.853536
O O11 0.925835 0.341469 0.017422
O O12 0.916882 0.000000 0.934863
O O13 0.498645 0.500000 0.196610
O O14 0.464978 0.215124 0.260382
O O15 0.750000 0.750000 0.500000
O O16 0.749282 0.714984 0.304338
O O17 0.786243 0.000000 0.404265
O O18 0.216830 0.000000 0.145122
O O19 0.060070 0.000000 0.656144
#
# Coordination Sequence:
#
# PCOD9215942 Si02
#       8
#     8   8   8   8   8   8   4   8
#     4  11  24  44  68 101 135 172 221 280 341 400
#     4  12  24  37  61  99 139 175 222 270 321 394
#     4  10  25  46  68  98 134 173 221 279 342 406
#     4  10  22  44  69  93 131 179 222 272 332 398
#     4  12  24  38  61  93 133 183 224 265 322 394
#     4  11  22  42  66  95 134 173 216 272 331 395
#     4  12  26  46  73  98 132 170 225 285 347 412
#     4  10  22  42  68  96 132 177 223 272 331 395
#
# _framework density 25.02355
#
# number of rings (size 3 to 8) (size 9 to 14) (size 15 to 20)
#    0.000    1.067    2.000    4.400    3.733    3.733 
#    0.000    1.333    0.000    3.200    0.000    0.000 
#    0.000    0.000    0.000    0.000    0.000    0.000 
#
# Total GULP energy -167454.357014 kJ/mol
# GULP energy per Si atom -5581.811900 kJ/mol
# Density = 2.496660 g / cm^3
# Si number density = 25.023550 Si / 1000 Ang^3
#
#
#
# Elastic Constant Matrix: (Units=GPa)
#
#
# Indices 1 2 3 4 5 6 
#
# 1 165.9437 24.9601 45.3145 0.0000 -19.5429 0.0000
# 2 24.9601 117.4887 5.3811 0.0000 -11.6503 0.0000
# 3 45.3145 5.3811 99.2131 0.0000 -17.6222 0.0000
# 4 0.0000 0.0000 0.0000 21.2415 0.0000 -20.9307
# 5 -19.5429 -11.6503 -17.6222 0.0000 53.0203 0.0000
# 6 0.0000 0.0000 0.0000 -20.9307 0.0000 28.6518
#
#
#
# Elastic Compliance Matrix: (Units=1/GPa)
#
#
# Indices 1 2 3 4 5 6 
#
# 1 0.007189 -0.001254 -0.002969 0.000000 0.001387 0.000000
# 2 -0.001254 0.008922 0.000377 0.000000 0.001624 0.000000
# 3 -0.002969 0.000377 0.011940 0.000000 0.002957 0.000000
# 4 0.000000 0.000000 0.000000 0.168031 0.000000 0.122750
# 5 0.001387 0.001624 0.002957 0.000000 0.020712 0.000000
# 6 0.000000 0.000000 0.000000 0.122750 0.000000 0.124573
#
#
# Mechanical properties :
#
#
# Convention : Reuss Voigt Hill
#
# Bulk Modulus (GPa) = 49.11737 59.32853 54.22295
# Shear Modulus (GPa) = 14.05112 41.04871 27.54991
#
# Velocity S-wave (km/s) = 2.37220 4.05458 3.32167
# Velocity P-wave (km/s) = 5.21289 6.75870 6.03549
#
# Compressibility (1/GPa) = 0.02035940
#
# Stress axis : x y z
#
# Youngs Moduli (GPa) = 139.10411 112.08851 83.75106
#
# Poissons Ratio (x) = 0.14052 0.24866
# Poissons Ratio (y) = 0.17439 -0.03158
# Poissons Ratio (z) = 0.41300 -0.04227
#
# Static dielectric constant tensor:
#      x y z
#    x 1.974850 0.000000 0.036980 
#    y 0.000000 1.974000 0.000000 
#    z 0.036980 0.000000 2.028650 
# 
# From -- ./inp_files/237692.got.cif
#   From: 2010.05.17/outbox.cif.g08.bks.cpg/sg12_119_cif.got.tgz:237692.got - 2010.06.03 13:09:07.
