data_PCOD9215693
_publ_section_title
;
Structure prediction by ZEFSAII (Michael W. Deem and Ramdas Pophale) SiO2 
 PCOD9215693
Probable space group: C 2/M
;
_chemical_formula_sum "Si O2"
_cell_formula_units_Z 56
_cell_length_a 9.754022
_cell_length_b 14.384941
_cell_length_c 25.534791
_cell_angle_alpha 90.000000
_cell_angle_beta 127.859449
_cell_angle_gamma 90.000000
_cell_volume 2828.697553
_symmetry_space_group_name_H-M "C 2/M"
_symmetry_group_IT_number 12
_symmetry_cell_setting 'monoclinic'
loop_
_space_group_symop_operation_xyz
x,y,z
-x,y,-z
-x,-y,-z
x,-y,z
1/2+x,1/2+y,z
1/2-x,1/2+y,-z
1/2-x,1/2-y,-z
1/2+x,1/2-y,z
loop_
_atom_site_type_symbol
_atom_site_label
_atom_site_fract_x
_atom_site_fract_y
_atom_site_fract_z
Si Si1 0.130944 0.889770 0.369553
Si Si2 0.862375 0.254052 0.264853
Si Si3 0.354441 0.613091 0.506296
Si Si4 0.966841 0.389254 0.382553
Si Si5 0.096061 0.610634 0.941302
Si Si6 0.726810 0.389987 0.911349
Si Si7 0.465462 0.222988 0.174998
O O1 0.108775 0.862460 0.425000
O O2 0.328128 0.875485 0.396564
O O3 0.003799 0.827309 0.305267
O O4 0.093112 0.000000 0.355334
O O5 0.902350 0.331144 0.317833
O O6 0.671501 0.212006 0.227328
O O7 0.880451 0.295160 0.211058
O O8 0.500000 0.647545 0.500000
O O9 0.357337 0.500000 0.505412
O O10 0.160531 0.640213 0.444173
O O11 0.970363 0.500000 0.371972
O O12 0.108607 0.500000 0.936885
O O13 0.904847 0.628995 0.920988
O O14 0.111162 0.661929 0.890002
O O15 0.232831 0.635980 0.018850
O O16 0.694428 0.500000 0.901268
O O17 0.577308 0.328783 0.851331
#
# Coordination Sequence:
#
# PCOD9215693 Si02
#       7
#     8   8   8   8   8   8   8
#     4  10  22  42  64  85 117 160 203 245 295 358
#     4  12  26  39  58  89 124 161 202 242 292 361
#     4   9  19  36  63  94 117 148 198 255 305 343
#     4  10  22  42  63  85 119 159 200 247 299 355
#     4   9  19  38  64  92 117 153 202 247 293 349
#     4   9  19  38  65  90 117 156 201 244 293 355
#     4  12  23  40  59  88 125 159 197 243 298 352
#
# _framework density 19.797096
#
# number of rings (size 3 to 8) (size 9 to 14) (size 15 to 20)
#    0.000    1.857    2.857    1.714    2.000    4.571 
#    0.000    0.000    0.000    1.714    0.000    0.000 
#    0.000    0.000    0.000    0.000    0.000    0.000 
#
# Total GULP energy -156457.422955 kJ/mol
# GULP energy per Si atom -5587.765106 kJ/mol
# Density = 1.975204 g / cm^3
# Si number density = 19.797096 Si / 1000 Ang^3
#
#
#
# Elastic Constant Matrix: (Units=GPa)
#
#
# Indices 1 2 3 4 5 6 
#
# 1 69.7734 16.7348 14.3140 0.0000 -11.9093 0.0000
# 2 16.7348 43.0729 19.0814 0.0000 -6.9331 0.0000
# 3 14.3140 19.0814 72.1977 0.0000 -20.2951 0.0000
# 4 0.0000 0.0000 0.0000 24.3410 0.0000 5.4872
# 5 -11.9093 -6.9331 -20.2951 0.0000 44.6530 0.0000
# 6 0.0000 0.0000 0.0000 5.4872 0.0000 13.1848
#
#
#
# Elastic Compliance Matrix: (Units=1/GPa)
#
#
# Indices 1 2 3 4 5 6 
#
# 1 0.016357 -0.005443 -0.000935 0.000000 0.003092 0.000000
# 2 -0.005443 0.028150 -0.006352 0.000000 0.000032 0.000000
# 3 -0.000935 -0.006352 0.017619 0.000000 0.006772 0.000000
# 4 0.000000 0.000000 0.000000 0.045336 0.000000 -0.018868
# 5 0.003092 0.000032 0.006772 0.000000 0.026303 0.000000
# 6 0.000000 0.000000 0.000000 -0.018868 0.000000 0.083697
#
#
# Mechanical properties :
#
#
# Convention : Reuss Voigt Hill
#
# Bulk Modulus (GPa) = 27.27306 31.70048 29.48677
# Shear Modulus (GPa) = 19.59673 25.43001 22.51337
#
# Velocity S-wave (km/s) = 3.14965 3.58793 3.37591
# Velocity P-wave (km/s) = 5.19935 5.76296 5.48840
#
# Compressibility (1/GPa) = 0.03666623
#
# Stress axis : x y z
#
# Youngs Moduli (GPa) = 61.13484 35.52366 56.75795
#
# Poissons Ratio (x) = 0.19336 0.05308
# Poissons Ratio (y) = 0.33277 0.36051
# Poissons Ratio (z) = 0.05717 0.22564
#
# Static dielectric constant tensor:
#      x y z
#    x 1.681200 0.000000 -0.004670 
#    y 0.000000 1.691500 0.000000 
#    z -0.004670 0.000000 1.670620 
# 
# From -- ./inp_files/332816.got.cif
#   From: 2010.05.17/outbox.cif.g08.bks.cpg/sg12_167_cif.got.tgz:332816.got - 2010.06.03 13:09:07.
