data_PCOD9215498
_publ_section_title
;
Structure prediction by ZEFSAII (Michael W. Deem and Ramdas Pophale) SiO2 
 PCOD9215498
Probable space group: C 2/M
;
_chemical_formula_sum "Si O2"
_cell_formula_units_Z 64
_cell_length_a 26.572326
_cell_length_b 14.969779
_cell_length_c 12.307633
_cell_angle_alpha 90.000000
_cell_angle_beta 138.121234
_cell_angle_gamma 90.000000
_cell_volume 3268.192544
_symmetry_space_group_name_H-M "C 2/M"
_symmetry_group_IT_number 12
_symmetry_cell_setting 'monoclinic'
loop_
_space_group_symop_operation_xyz
x,y,z
-x,y,-z
-x,-y,-z
x,-y,z
1/2+x,1/2+y,z
1/2-x,1/2+y,-z
1/2-x,1/2-y,-z
1/2+x,1/2-y,z
loop_
_atom_site_type_symbol
_atom_site_label
_atom_site_fract_x
_atom_site_fract_y
_atom_site_fract_z
Si Si1 0.407645 0.602449 0.653454
Si Si2 0.258409 0.605448 0.072498
Si Si3 0.619926 0.099026 0.421547
Si Si4 0.742133 0.103234 0.789470
Si Si5 0.579135 0.608246 0.578789
Si Si6 0.003201 0.267197 0.130633
Si Si7 0.261782 0.151059 0.565797
Si Si8 0.669764 0.780813 0.103920
O O1 0.432388 0.500000 0.701716
O O2 0.412118 0.630817 0.533924
O O3 0.460233 0.669038 0.804683
O O4 0.320685 0.610214 0.549506
O O5 0.251459 0.500000 0.092883
O O6 0.345081 0.634109 0.235305
O O7 0.205056 0.667902 0.058232
O O8 0.240360 0.611828 0.916373
O O9 0.662080 0.118311 0.602399
O O10 0.558983 0.170432 0.288160
O O11 0.685700 0.101886 0.436210
O O12 0.586810 0.000000 0.372296
O O13 0.796503 0.180835 0.833863
O O14 0.764724 0.000000 0.800431
O O15 0.500000 0.642070 0.500000
O O16 0.576595 0.500000 0.580710
O O17 0.000000 0.296401 0.000000
O O18 0.919633 0.272268 0.043007
O O19 0.250000 0.250000 0.500000
O O20 0.303698 0.163488 0.747832
#
# Coordination Sequence:
#
# PCOD9215498 Si02
#       8
#     8   8   8   8   8   8   8   8
#     4  11  23  40  65  94 128 168 207 256 326 387
#     4  10  22  41  66  98 130 166 219 268 315 380
#     4  11  24  44  67  90 123 173 221 264 323 377
#     4  10  23  43  67  93 126 168 216 267 316 379
#     4   9  19  36  60  93 129 164 203 255 316 376
#     4  12  26  44  59  92 135 166 207 268 317 382
#     4  12  20  41  66  91 127 162 214 275 310 376
#     4  12  23  40  67  94 129 169 214 261 323 378
#
# _framework density 19.582689999999999
#
# number of rings (size 3 to 8) (size 9 to 14) (size 15 to 20)
#    0.000    1.125    5.000    0.750    1.750    2.000 
#    0.000    0.625    0.000    2.250    0.000    0.000 
#    0.000    0.000    0.000    0.000    0.000    0.000 
#
# Total GULP energy -178841.662962 kJ/mol
# GULP energy per Si atom -5588.801968 kJ/mol
# Density = 1.953812 g / cm^3
# Si number density = 19.582690 Si / 1000 Ang^3
#
#
#
# Elastic Constant Matrix: (Units=GPa)
#
#
# Indices 1 2 3 4 5 6 
#
# 1 40.0480 18.3593 48.8624 0.0000 20.1454 0.0000
# 2 18.3593 80.8318 42.8181 0.0000 15.4756 0.0000
# 3 48.8624 42.8181 105.6466 0.0000 13.4580 0.0000
# 4 0.0000 0.0000 0.0000 19.7026 0.0000 -5.4839
# 5 20.1454 15.4756 13.4580 0.0000 32.7423 0.0000
# 6 0.0000 0.0000 0.0000 -5.4839 0.0000 17.0853
#
#
#
# Elastic Compliance Matrix: (Units=1/GPa)
#
#
# Indices 1 2 3 4 5 6 
#
# 1 0.094187 0.009288 -0.041561 0.000000 -0.045257 0.000000
# 2 0.009288 0.017516 -0.010143 0.000000 -0.009824 0.000000
# 3 -0.041561 -0.010143 0.030529 0.000000 0.017817 0.000000
# 4 0.000000 0.000000 0.000000 0.055734 0.000000 0.017889
# 5 -0.045257 -0.009824 0.017817 0.000000 0.055707 0.000000
# 6 0.000000 0.000000 0.000000 0.017889 0.000000 0.064272
#
#
# Mechanical properties :
#
#
# Convention : Reuss Voigt Hill
#
# Bulk Modulus (GPa) = 17.42206 49.62291 33.52248
# Shear Modulus (GPa) = 11.85083 21.67179 16.76131
#
# Velocity S-wave (km/s) = 2.46269 3.33029 2.92879
# Velocity P-wave (km/s) = 4.12340 6.33900 5.34721
#
# Compressibility (1/GPa) = 0.05739850
#
# Stress axis : x y z
#
# Youngs Moduli (GPa) = 10.61720 57.09123 32.75535
#
# Poissons Ratio (x) = -0.53026 1.36136
# Poissons Ratio (y) = -0.09861 0.33225
# Poissons Ratio (z) = 0.44126 0.57910
#
# Static dielectric constant tensor:
#      x y z
#    x 1.671240 0.000000 -0.014460 
#    y 0.000000 1.712590 0.000000 
#    z -0.014460 0.000000 1.674070 
# 
# From -- ./inp_files/183847.got.cif
#   From: 2010.05.17/outbox.cif.g08.bks.cpg/sg12_92_cif.got.tgz:183847.got - 2010.06.03 13:09:07.
