data_PCOD9215366
_publ_section_title
;
Structure prediction by ZEFSAII (Michael W. Deem and Ramdas Pophale) SiO2 
 PCOD9215366
Probable space group: C 2/M
;
_chemical_formula_sum "Si O2"
_cell_formula_units_Z 48
_cell_length_a 32.607718
_cell_length_b 17.311436
_cell_length_c 9.785651
_cell_angle_alpha 90.000000
_cell_angle_beta 27.513956
_cell_angle_gamma 90.000000
_cell_volume 2551.831380
_symmetry_space_group_name_H-M "C 2/M"
_symmetry_group_IT_number 12
_symmetry_cell_setting 'monoclinic'
loop_
_space_group_symop_operation_xyz
x,y,z
-x,y,-z
-x,-y,-z
x,-y,z
1/2+x,1/2+y,z
1/2-x,1/2+y,-z
1/2-x,1/2-y,-z
1/2+x,1/2-y,z
loop_
_atom_site_type_symbol
_atom_site_label
_atom_site_fract_x
_atom_site_fract_y
_atom_site_fract_z
Si Si1 0.765367 0.411026 0.815475
Si Si2 0.865750 0.000000 0.466361
Si Si3 0.040260 0.000000 0.096216
Si Si4 0.223363 0.842394 0.221809
Si Si5 0.581956 0.216358 0.328217
Si Si6 0.908090 0.114891 0.837450
Si Si7 0.083939 0.708939 0.649277
O O1 0.779058 0.500000 0.821283
O O2 0.858321 0.369848 0.503354
O O3 0.726338 0.354699 0.048870
O O4 0.687387 0.412597 0.934225
O O5 0.807400 0.075618 0.636000
O O6 0.932913 0.000000 0.398415
O O7 0.922877 0.000000 0.162984
O O8 0.077111 0.078167 0.057677
O O9 0.153414 0.777995 0.473138
O O10 0.322934 0.822565 0.967199
O O11 0.500000 0.172938 0.500000
O O12 0.589760 0.295622 0.215928
O O13 0.562718 0.221587 0.549071
O O14 0.000000 0.083875 0.500000
O O15 0.000000 0.711327 0.000000
#
# Coordination Sequence:
#
# PCOD9215366 Si02
#       7
#     8   4   4   8   8   8   8
#     4  11  20  39  67  94 125 169 222 263 323 392
#     4  11  26  40  59  92 140 178 204 264 344 397
#     4  11  25  38  56  98 136 163 203 271 349 386
#     4  11  21  42  65  91 126 175 218 261 325 403
#     4  10  22  41  65  92 121 166 226 264 313 385
#     4  11  20  34  63  94 123 155 210 272 317 380
#     4  11  24  41  64  96 133 173 214 274 329 388
#
# _framework density 18.810020000000002
#
# number of rings (size 3 to 8) (size 9 to 14) (size 15 to 20)
#    0.000    1.167    5.000    2.250    4.667    0.333 
#    3.000    2.083    0.000    0.000    0.000    0.000 
#    0.000    0.000    0.000    0.000    0.000    0.000 
#
# Total GULP energy -133623.790626 kJ/mol
# GULP energy per Si atom -5567.657943 kJ/mol
# Density = 1.876721 g / cm^3
# Si number density = 18.810020 Si / 1000 Ang^3
#
#
#
# Elastic Constant Matrix: (Units=GPa)
#
#
# Indices 1 2 3 4 5 6 
#
# 1 112.2637 42.8217 56.6216 0.0000 -19.4888 0.0000
# 2 42.8217 101.7848 50.4665 0.0000 -18.1312 0.0000
# 3 56.6216 50.4665 147.9907 0.0000 -13.9065 0.0000
# 4 0.0000 0.0000 0.0000 1.9722 0.0000 -47.8205
# 5 -19.4888 -18.1312 -13.9065 0.0000 24.6719 0.0000
# 6 0.0000 0.0000 0.0000 -47.8205 0.0000 319.4772
#
#
#
# Elastic Compliance Matrix: (Units=1/GPa)
#
#
# Indices 1 2 3 4 5 6 
#
# 1 0.012670 -0.002536 -0.003397 0.000000 0.006229 0.000000
# 2 -0.002536 0.013511 -0.003054 0.000000 0.006204 0.000000
# 3 -0.003397 -0.003054 0.009118 0.000000 0.000212 0.000000
# 4 0.000000 0.000000 0.000000 -0.192836 0.000000 -0.028864
# 5 0.006229 0.006204 0.000212 0.000000 0.050132 0.000000
# 6 0.000000 0.000000 0.000000 -0.028864 0.000000 -0.001190
#
#
# Mechanical properties :
#
#
# Convention : Reuss Voigt Hill
#
# Bulk Modulus (GPa) = 57.72266 73.53987 65.63126
# Shear Modulus (GPa) = -58.93074 83.36621 12.21774
#
# Velocity S-wave (km/s) = -5.60334 6.66456 2.55136
# Velocity P-wave (km/s) = 3.33309 9.91982 6.60656
#
# Compressibility (1/GPa) = 0.01732422
#
# Stress axis : x y z
#
# Youngs Moduli (GPa) = 78.92722 74.01316 109.66895
#
# Poissons Ratio (x) = 0.18771 0.37258
# Poissons Ratio (y) = 0.20018 0.33494
# Poissons Ratio (z) = 0.26814 0.22604
#
# Static dielectric constant tensor:
#      x y z
#    x 1.691680 0.000000 0.001180 
#    y 0.000000 1.679500 0.000000 
#    z 0.001180 0.000000 1.675050 
# 
# From -- ./inp_files/112766.got.cif
#   From: 2010.05.17/outbox.cif.g08.bks.cpg/sg12_57_cif.got.tgz:112766.got - 2010.06.03 13:09:07.
