data_PCOD9215837
_publ_section_title
;
Structure prediction by ZEFSAII (Michael W. Deem and Ramdas Pophale) SiO2 
 PCOD9215837
Probable space group: C 2/M
;
_chemical_formula_sum "Si O2"
_cell_formula_units_Z 64
_cell_length_a 11.800846
_cell_length_b 26.476940
_cell_length_c 14.242454
_cell_angle_alpha 90.000000
_cell_angle_beta 137.429202
_cell_angle_gamma 90.000000
_cell_volume 3010.468028
_symmetry_space_group_name_H-M "C 2/M"
_symmetry_group_IT_number 12
_symmetry_cell_setting 'monoclinic'
loop_
_space_group_symop_operation_xyz
x,y,z
-x,y,-z
-x,-y,-z
x,-y,z
1/2+x,1/2+y,z
1/2-x,1/2+y,-z
1/2-x,1/2-y,-z
1/2+x,1/2-y,z
loop_
_atom_site_type_symbol
_atom_site_label
_atom_site_fract_x
_atom_site_fract_y
_atom_site_fract_z
Si Si1 0.587816 0.056915 0.153929
Si Si2 0.692798 0.128888 0.939531
Si Si3 0.249927 0.382104 0.571537
Si Si4 0.999453 0.727009 0.111803
Si Si5 0.864629 0.758956 0.338621
Si Si6 0.127600 0.638179 0.695753
Si Si7 0.548283 0.681049 0.795581
Si Si8 0.537129 0.441692 0.633413
O O1 0.451760 0.088037 0.129124
O O2 0.772473 0.080170 0.248683
O O3 0.612000 0.000000 0.207727
O O4 0.500000 0.053290 0.000000
O O5 0.605570 0.182015 0.910129
O O6 0.730603 0.127089 0.852514
O O7 0.852314 0.131324 0.106977
O O8 0.199072 0.392210 0.649491
O O9 0.358990 0.331540 0.651505
O O10 0.382866 0.416511 0.595870
O O11 0.069878 0.375231 0.412693
O O12 0.185233 0.723738 0.265526
O O13 0.940353 0.781405 0.109681
O O14 0.000000 0.723703 0.000000
O O15 0.867055 0.698638 0.320502
O O16 0.884055 0.789349 0.253261
O O17 0.000000 0.770951 0.500000
O O18 0.500000 0.440417 0.500000
O O19 0.549290 0.500000 0.672920
#
# Coordination Sequence:
#
# PCOD9215837 Si02
#       8
#     8   8   8   8   8   8   8   8
#     4  10  22  42  66  94 129 162 200 267 337 386
#     4  12  24  39  64  94 127 167 223 265 323 386
#     4  11  24  41  63  92 126 167 218 256 326 390
#     4  12  23  38  59  89 128 168 222 272 318 373
#     4  12  24  41  58  87 128 172 217 267 322 373
#     4  11  23  43  60  89 130 174 208 262 318 385
#     4  12  25  39  61  91 127 174 221 268 317 380
#     4  10  22  43  70  98 127 161 207 270 334 387
#
# _framework density 21.259152
#
# number of rings (size 3 to 8) (size 9 to 14) (size 15 to 20)
#    0.000    0.750    5.000    3.000    3.500    1.500 
#    0.000    1.875    0.000    0.000    0.000    4.375 
#    0.000    0.000    0.000    0.000    0.000    0.000 
#
# Total GULP energy -178568.677365 kJ/mol
# GULP energy per Si atom -5580.271168 kJ/mol
# Density = 2.121077 g / cm^3
# Si number density = 21.259152 Si / 1000 Ang^3
#
#
#
# Elastic Constant Matrix: (Units=GPa)
#
#
# Indices 1 2 3 4 5 6 
#
# 1 86.5136 11.5398 25.4132 0.0000 1.3394 0.0000
# 2 11.5398 20.5209 -11.4038 0.0000 -1.6646 0.0000
# 3 25.4132 -11.4038 88.2488 0.0000 1.3606 0.0000
# 4 0.0000 0.0000 0.0000 23.2981 0.0000 12.1698
# 5 1.3394 -1.6646 1.3606 0.0000 44.7427 0.0000
# 6 0.0000 0.0000 0.0000 12.1698 0.0000 22.8881
#
#
#
# Elastic Compliance Matrix: (Units=1/GPa)
#
#
# Indices 1 2 3 4 5 6 
#
# 1 0.014802 -0.011574 -0.005747 0.000000 -0.000699 0.000000
# 2 -0.011574 0.061688 0.011269 0.000000 0.002299 0.000000
# 3 -0.005747 0.011269 0.014441 0.000000 0.000152 0.000000
# 4 0.000000 0.000000 0.000000 0.059427 0.000000 -0.031598
# 5 -0.000699 0.002299 0.000152 0.000000 0.022452 0.000000
# 6 0.000000 0.000000 0.000000 -0.031598 0.000000 0.060492
#
#
# Mechanical properties :
#
#
# Convention : Reuss Voigt Hill
#
# Bulk Modulus (GPa) = 12.68620 27.37575 20.03097
# Shear Modulus (GPa) = 18.40389 29.50139 23.95264
#
# Velocity S-wave (km/s) = 2.94546 3.72923 3.36027
# Velocity P-wave (km/s) = 4.18903 5.60785 4.94954
#
# Compressibility (1/GPa) = 0.07882581
#
# Stress axis : x y z
#
# Youngs Moduli (GPa) = 67.55916 16.21049 69.24928
#
# Poissons Ratio (x) = 0.18763 0.39800
# Poissons Ratio (y) = 0.78195 -0.78038
# Poissons Ratio (z) = 0.38829 -0.18268
#
# Static dielectric constant tensor:
#      x y z
#    x 1.829570 0.000000 0.026550 
#    y 0.000000 1.798410 0.000000 
#    z 0.026550 0.000000 1.784510 
# 
# From -- ./inp_files/209419.got.cif
#   From: 2010.05.17/outbox.cif.g08.bks.cpg/sg12_105_cif.got.tgz:209419.got - 2010.06.03 13:09:07.
