data_PCOD9215789
_publ_section_title
;
Structure prediction by ZEFSAII (Michael W. Deem and Ramdas Pophale) SiO2 
 PCOD9215789
Probable space group: C 2/M
;
_chemical_formula_sum "Si O2"
_cell_formula_units_Z 40
_cell_length_a 9.145989
_cell_length_b 22.879448
_cell_length_c 8.212877
_cell_angle_alpha 90.000000
_cell_angle_beta 82.417299
_cell_angle_gamma 90.000000
_cell_volume 1703.558742
_symmetry_space_group_name_H-M "C 2/M"
_symmetry_group_IT_number 12
_symmetry_cell_setting 'monoclinic'
loop_
_space_group_symop_operation_xyz
x,y,z
-x,y,-z
-x,-y,-z
x,-y,z
1/2+x,1/2+y,z
1/2-x,1/2+y,-z
1/2-x,1/2-y,-z
1/2+x,1/2-y,z
loop_
_atom_site_type_symbol
_atom_site_label
_atom_site_fract_x
_atom_site_fract_y
_atom_site_fract_z
Si Si1 0.118293 0.221094 0.124404
Si Si2 0.914442 0.900584 0.685942
Si Si3 0.359307 0.916548 0.120715
Si Si4 0.706921 0.432622 0.810877
Si Si5 0.560178 0.838996 0.311944
O O1 0.126985 0.163563 0.236023
O O2 0.085222 0.273392 0.252850
O O3 0.250000 0.250000 0.000000
O O4 0.000000 0.208589 0.000000
O O5 0.756642 0.934474 0.719000
O O6 0.000000 0.898111 0.500000
O O7 0.038251 0.928290 0.784506
O O8 0.447173 0.864174 0.193809
O O9 0.500000 0.943410 0.000000
O O10 0.243306 0.914366 0.990144
O O11 0.756270 0.500000 0.778102
O O12 0.800271 0.382783 0.705571
O O13 0.500000 0.840122 0.500000
#
# Coordination Sequence:
#
# PCOD9215789 Si02
#       5
#     8   8   8   8   8
#     4  12  23  40  67  97 135 180 228 276 335 412
#     4  12  25  43  68 103 139 175 225 285 346 399
#     4  10  22  42  65  93 129 177 224 268 328 402
#     4  11  25  45  69  98 135 181 232 280 333 407
#     4  11  23  42  67 100 138 177 226 285 347 402
#
# _framework density 23.480260000000001
#
# number of rings (size 3 to 8) (size 9 to 14) (size 15 to 20)
#    0.000    0.800    0.000   10.200    0.000    6.000 
#    0.000    8.000    0.000    0.000    0.000    0.000 
#    0.000    0.000    0.000    0.000    0.000    0.000 
#
# Total GULP energy -111389.459972 kJ/mol
# GULP energy per Si atom -5569.472999 kJ/mol
# Density = 2.342682 g / cm^3
# Si number density = 23.480260 Si / 1000 Ang^3
#
#
#
# Elastic Constant Matrix: (Units=GPa)
#
#
# Indices 1 2 3 4 5 6 
#
# 1 141.7501 21.6975 33.6440 0.0000 -19.5811 0.0000
# 2 21.6975 161.4097 35.8368 0.0000 -8.8980 0.0000
# 3 33.6440 35.8368 118.5441 0.0000 -29.9392 0.0000
# 4 0.0000 0.0000 0.0000 -3.0480 0.0000 -43.3732
# 5 -19.5811 -8.8980 -29.9392 0.0000 48.1783 0.0000
# 6 0.0000 0.0000 0.0000 -43.3732 0.0000 12.9631
#
#
#
# Elastic Compliance Matrix: (Units=1/GPa)
#
#
# Indices 1 2 3 4 5 6 
#
# 1 0.007795 -0.000599 -0.001493 0.000000 0.002129 0.000000
# 2 -0.000599 0.006687 -0.001899 0.000000 -0.000189 0.000000
# 3 -0.001493 -0.001899 0.010903 0.000000 0.005818 0.000000
# 4 0.000000 0.000000 0.000000 -0.006749 0.000000 -0.022581
# 5 0.002129 -0.000189 0.005818 0.000000 0.025202 0.000000
# 6 0.000000 0.000000 0.000000 -0.022581 0.000000 0.001587
#
#
# Mechanical properties :
#
#
# Convention : Reuss Voigt Hill
#
# Bulk Modulus (GPa) = 57.46464 67.11785 62.29124
# Shear Modulus (GPa) = 84.44673 33.65372 59.05022
#
# Velocity S-wave (km/s) = 6.00359 3.78997 5.02031
# Velocity P-wave (km/s) = 8.51963 6.91366 7.75831
#
# Compressibility (1/GPa) = 0.01740201
#
# Stress axis : x y z
#
# Youngs Moduli (GPa) = 128.28801 149.53936 91.71804
#
# Poissons Ratio (x) = 0.08955 0.13698
# Poissons Ratio (y) = 0.07683 0.17420
# Poissons Ratio (z) = 0.19159 0.28401
#
# Static dielectric constant tensor:
#      x y z
#    x 1.981090 0.000000 -0.072660 
#    y 0.000000 1.896170 0.000000 
#    z -0.072660 0.000000 1.910510 
# 
# From -- ./inp_files/40414.got.cif
#   From: 2010.05.17/outbox.cif.g08.bks.cpg/sg12_21_cif.got.tgz:40414.got - 2010.06.03 13:09:07.
