data_PCOD9215606
_publ_section_title
;
Structure prediction by ZEFSAII (Michael W. Deem and Ramdas Pophale) SiO2 
 PCOD9215606
Probable space group: C 2/M
;
_chemical_formula_sum "Si O2"
_cell_formula_units_Z 50
_cell_length_a 9.429626
_cell_length_b 16.379212
_cell_length_c 16.724455
_cell_angle_alpha 90.000000
_cell_angle_beta 119.507670
_cell_angle_gamma 90.000000
_cell_volume 2248.036325
_symmetry_space_group_name_H-M "C 2/M"
_symmetry_group_IT_number 12
_symmetry_cell_setting 'monoclinic'
loop_
_space_group_symop_operation_xyz
x,y,z
-x,y,-z
-x,-y,-z
x,-y,z
1/2+x,1/2+y,z
1/2-x,1/2+y,-z
1/2-x,1/2-y,-z
1/2+x,1/2-y,z
loop_
_atom_site_type_symbol
_atom_site_label
_atom_site_fract_x
_atom_site_fract_y
_atom_site_fract_z
Si Si1 0.128302 0.410862 0.347268
Si Si2 0.014022 0.087872 0.154123
Si Si3 0.372808 0.367622 0.273657
Si Si4 0.639659 0.670044 0.473974
Si Si5 0.725972 0.850676 0.976630
Si Si6 0.000000 0.500000 0.000000
Si Si7 0.679151 0.815734 0.780128
O O1 0.052745 0.500000 0.325817
O O2 0.241960 0.400778 0.300489
O O3 0.245666 0.398655 0.455558
O O4 0.985856 0.345113 0.307152
O O5 0.158627 0.149107 0.213886
O O6 0.900911 0.083338 0.200950
O O7 0.085875 0.000000 0.155670
O O8 0.903431 0.118342 0.051542
O O9 0.542919 0.356791 0.368488
O O10 0.312986 0.280622 0.225282
O O11 0.500000 0.687787 0.500000
O O12 0.750000 0.750000 0.500000
O O13 0.679223 0.848358 0.870646
O O14 0.750000 0.750000 0.000000
O O15 0.609649 0.922656 0.985420
#
# Coordination Sequence:
#
# PCOD9215606 Si02
#       7
#     8   8   8   8   8   2   8
#     4  11  25  43  70 104 139 183 243 307 372 446
#     4  12  27  46  68 104 145 189 243 308 378 445
#     4  11  24  43  72  99 139 187 244 299 371 456
#     4  10  22  41  68  98 137 183 233 296 369 450
#     4  12  29  48  76 110 152 201 259 320 387 463
#     4  12  32  52  82 118 152 214 278 320 396 478
#     4  12  26  44  70 102 142 190 239 304 374 448
#
# _framework density 22.241633
#
# number of rings (size 3 to 8) (size 9 to 14) (size 15 to 20)
#    0.000    0.640    4.000    2.400    8.960    4.160 
#    0.000    0.000    0.000    2.400    0.000    0.000 
#    0.000    0.000    0.000    0.000    0.000    0.000 
#
# Total GULP energy -139245.632746 kJ/mol
# GULP energy per Si atom -5569.825310 kJ/mol
# Density = 2.219101 g / cm^3
# Si number density = 22.241633 Si / 1000 Ang^3
#
#
#
# Elastic Constant Matrix: (Units=GPa)
#
#
# Indices 1 2 3 4 5 6 
#
# 1 38.0966 27.6892 11.1490 0.0000 2.3175 0.0000
# 2 27.6892 151.9280 5.8291 0.0000 -4.6625 0.0000
# 3 11.1490 5.8291 93.1543 0.0000 -4.5168 0.0000
# 4 0.0000 0.0000 0.0000 16.2652 0.0000 13.2849
# 5 2.3175 -4.6625 -4.5168 0.0000 27.2461 0.0000
# 6 0.0000 0.0000 0.0000 13.2849 0.0000 36.2504
#
#
#
# Elastic Compliance Matrix: (Units=1/GPa)
#
#
# Indices 1 2 3 4 5 6 
#
# 1 0.031783 -0.005784 -0.003650 0.000000 -0.004298 0.000000
# 2 -0.005784 0.007682 0.000302 0.000000 0.001857 0.000000
# 3 -0.003650 0.000302 0.011261 0.000000 0.002229 0.000000
# 4 0.000000 0.000000 0.000000 0.087745 0.000000 -0.032156
# 5 -0.004298 0.001857 0.002229 0.000000 0.037755 0.000000
# 6 0.000000 0.000000 0.000000 -0.032156 0.000000 0.039370
#
#
# Mechanical properties :
#
#
# Convention : Reuss Voigt Hill
#
# Bulk Modulus (GPa) = 30.80764 41.39038 36.09901
# Shear Modulus (GPa) = 20.43465 31.85313 26.14389
#
# Velocity S-wave (km/s) = 3.03439 3.78847 3.43220
# Velocity P-wave (km/s) = 5.11450 6.14707 5.65440
#
# Compressibility (1/GPa) = 0.03245948
#
# Stress axis : x y z
#
# Youngs Moduli (GPa) = 31.46331 130.17972 88.80232
#
# Poissons Ratio (x) = 0.75301 0.32416
# Poissons Ratio (y) = 0.18200 -0.02679
# Poissons Ratio (z) = 0.11485 -0.03927
#
# Static dielectric constant tensor:
#      x y z
#    x 1.831820 0.000000 -0.009890 
#    y 0.000000 1.704750 0.000000 
#    z -0.009890 0.000000 1.804840 
# 
# From -- ./inp_files/257260.got.cif
#   From: 2010.05.17/outbox.cif.g08.bks.cpg/sg12_129_cif.got.tgz:257260.got - 2010.06.03 13:09:07.
