data_PCOD9215605
_publ_section_title
;
Structure prediction by ZEFSAII (Michael W. Deem and Ramdas Pophale) SiO2 
 PCOD9215605
Probable space group: C 2/M
;
_chemical_formula_sum "Si O2"
_cell_formula_units_Z 32
_cell_length_a 8.210771
_cell_length_b 23.182706
_cell_length_c 11.872601
_cell_angle_alpha 90.000000
_cell_angle_beta 38.075130
_cell_angle_gamma 90.000000
_cell_volume 1393.682447
_symmetry_space_group_name_H-M "C 2/M"
_symmetry_group_IT_number 12
_symmetry_cell_setting 'monoclinic'
loop_
_space_group_symop_operation_xyz
x,y,z
-x,y,-z
-x,-y,-z
x,-y,z
1/2+x,1/2+y,z
1/2-x,1/2+y,-z
1/2-x,1/2-y,-z
1/2+x,1/2-y,z
loop_
_atom_site_type_symbol
_atom_site_label
_atom_site_fract_x
_atom_site_fract_y
_atom_site_fract_z
Si Si1 0.723322 0.733975 0.709010
Si Si2 0.734360 0.624874 0.569237
Si Si3 0.077846 0.338531 0.189731
Si Si4 0.735559 0.435167 0.069547
O O1 0.620264 0.686780 0.674030
O O2 0.776651 0.697694 0.791931
O O3 0.541526 0.788985 0.824330
O O4 0.000000 0.752032 0.500000
O O5 0.516373 0.578188 0.715841
O O6 0.000000 0.615292 0.500000
O O7 0.837307 0.630351 0.386681
O O8 0.246127 0.386442 0.035828
O O9 0.720670 0.500000 0.031538
O O10 0.000000 0.430166 0.000000
#
# Coordination Sequence:
#
# PCOD9215605 Si02
#       4
#     8   8   8   8
#     4   9  19  37  65 104 131 164 217 263 333 407
#     4   9  21  43  67  96 134 171 217 265 332 395
#     4  10  22  41  68  98 135 174 208 275 335 387
#     4  11  27  45  63  97 133 173 232 272 311 391
#
# _framework density 22.960754000000001
#
# number of rings (size 3 to 8) (size 9 to 14) (size 15 to 20)
#    0.000    2.750    0.000    3.000    7.000    6.500 
#    0.000   11.250    0.000    0.750    0.000    0.000 
#    0.000    0.000    0.000    0.000    0.000    0.000 
#
# Total GULP energy -89495.835232 kJ/mol
# GULP energy per Si atom -5593.489702 kJ/mol
# Density = 2.290849 g / cm^3
# Si number density = 22.960754 Si / 1000 Ang^3
#
#
#
# Elastic Constant Matrix: (Units=GPa)
#
#
# Indices 1 2 3 4 5 6 
#
# 1 53.2161 31.1143 29.5247 0.0000 3.3211 0.0000
# 2 31.1143 96.3115 60.0433 0.0000 -0.9407 0.0000
# 3 29.5247 60.0433 125.4112 0.0000 -1.7482 0.0000
# 4 0.0000 0.0000 0.0000 1.5291 0.0000 -8.2624
# 5 3.3211 -0.9407 -1.7482 0.0000 28.1443 0.0000
# 6 0.0000 0.0000 0.0000 -8.2624 0.0000 2.2464
#
#
#
# Elastic Compliance Matrix: (Units=1/GPa)
#
#
# Indices 1 2 3 4 5 6 
#
# 1 0.024099 -0.006061 -0.002816 0.000000 -0.003221 0.000000
# 2 -0.006061 0.016325 -0.006377 0.000000 0.000865 0.000000
# 3 -0.002816 -0.006377 0.011702 0.000000 0.000846 0.000000
# 4 0.000000 0.000000 0.000000 -0.034648 0.000000 -0.127442
# 5 -0.003221 0.000865 0.000846 0.000000 0.035993 0.000000
# 6 0.000000 0.000000 0.000000 -0.127442 0.000000 -0.023585
#
#
# Mechanical properties :
#
#
# Convention : Reuss Voigt Hill
#
# Bulk Modulus (GPa) = 46.26069 57.36704 51.81387
# Shear Modulus (GPa) = 73.96532 16.66773 45.31652
#
# Velocity S-wave (km/s) = 5.68188 2.69722 4.44740
# Velocity P-wave (km/s) = 7.95213 5.89398 6.99912
#
# Compressibility (1/GPa) = 0.02161662
#
# Stress axis : x y z
#
# Youngs Moduli (GPa) = 41.49621 61.25544 85.45704
#
# Poissons Ratio (x) = 0.37126 0.24069
# Poissons Ratio (y) = 0.25150 0.54496
# Poissons Ratio (z) = 0.11687 0.39063
#
# Static dielectric constant tensor:
#      x y z
#    x 1.925140 0.000000 -0.020390 
#    y 0.000000 1.826720 0.000000 
#    z -0.020390 0.000000 1.870410 
# 
# From -- ./inp_files/121569.got.cif
#   From: 2010.05.17/outbox.cif.g08.bks.cpg/sg12_61_cif.got.tgz:121569.got - 2010.06.03 13:09:07.
