data_PCOD9215523
_publ_section_title
;
Structure prediction by ZEFSAII (Michael W. Deem and Ramdas Pophale) SiO2 
 PCOD9215523
Probable space group: C 2/M
;
_chemical_formula_sum "Si O2"
_cell_formula_units_Z 50
_cell_length_a 27.409351
_cell_length_b 15.719017
_cell_length_c 8.618696
_cell_angle_alpha 90.000000
_cell_angle_beta 38.202995
_cell_angle_gamma 90.000000
_cell_volume 2296.518364
_symmetry_space_group_name_H-M "C 2/M"
_symmetry_group_IT_number 12
_symmetry_cell_setting 'monoclinic'
loop_
_space_group_symop_operation_xyz
x,y,z
-x,y,-z
-x,-y,-z
x,-y,z
1/2+x,1/2+y,z
1/2-x,1/2+y,-z
1/2-x,1/2-y,-z
1/2+x,1/2-y,z
loop_
_atom_site_type_symbol
_atom_site_label
_atom_site_fract_x
_atom_site_fract_y
_atom_site_fract_z
Si Si1 0.446905 0.735711 0.995579
Si Si2 0.137556 0.631442 0.236208
Si Si3 0.668165 0.832983 0.505610
Si Si4 0.176934 0.092984 0.728158
Si Si5 0.000000 0.500000 0.500000
Si Si6 0.696069 0.360971 0.331218
Si Si7 0.935542 0.196842 0.548511
O O1 0.399701 0.812140 0.197125
O O2 0.385063 0.667773 0.086223
O O3 0.500000 0.695213 0.000000
O O4 0.510605 0.752585 0.704919
O O5 0.140825 0.622372 0.415590
O O6 0.119437 0.730479 0.240563
O O7 0.069378 0.573529 0.338831
O O8 0.223928 0.613057 0.952661
O O9 0.739685 0.882013 0.405936
O O10 0.697224 0.739390 0.376999
O O11 0.185617 0.092983 0.520263
O O12 0.151458 0.000000 0.846404
O O13 0.620948 0.365982 0.404649
O O14 0.000000 0.156645 0.500000
#
# Coordination Sequence:
#
# PCOD9215523 Si02
#       7
#     8   8   8   8   2   8   8
#     4  11  20  41  66  94 125 163 219 276 305 375
#     4  11  24  41  64  93 133 166 215 259 324 387
#     4  10  22  41  67  94 122 167 224 262 311 371
#     4  11  25  40  62  94 132 175 206 258 334 382
#     4  12  28  40  60  98 138 178 190 264 336 388
#     4  10  22  43  64  95 124 173 219 264 311 386
#     4  11  22  38  68  98 121 164 223 272 315 365
#
# _framework density 21.772088
#
# number of rings (size 3 to 8) (size 9 to 14) (size 15 to 20)
#    0.000    1.280    5.600    3.840    8.960    0.320 
#    0.000    0.000    0.000    3.360    0.000    0.000 
#    0.000    0.000    0.000    0.000    0.000    0.000 
#
# Total GULP energy -139351.454306 kJ/mol
# GULP energy per Si atom -5574.058172 kJ/mol
# Density = 2.172253 g / cm^3
# Si number density = 21.772088 Si / 1000 Ang^3
#
#
#
# Elastic Constant Matrix: (Units=GPa)
#
#
# Indices 1 2 3 4 5 6 
#
# 1 136.0878 9.9424 22.1964 0.0000 -30.9025 0.0000
# 2 9.9424 27.5030 -5.5691 0.0000 0.3446 0.0000
# 3 22.1964 -5.5691 93.1854 0.0000 -14.0969 0.0000
# 4 0.0000 0.0000 0.0000 -3.1764 0.0000 3.1608
# 5 -30.9025 0.3446 -14.0969 0.0000 27.4094 0.0000
# 6 0.0000 0.0000 0.0000 3.1608 0.0000 -13.9155
#
#
#
# Elastic Compliance Matrix: (Units=1/GPa)
#
#
# Indices 1 2 3 4 5 6 
#
# 1 0.010357 -0.004090 -0.001016 0.000000 0.011206 0.000000
# 2 -0.004090 0.038434 0.002711 0.000000 -0.003700 0.000000
# 3 -0.001016 0.002711 0.011881 0.000000 0.004931 0.000000
# 4 0.000000 0.000000 0.000000 -0.406765 0.000000 -0.092394
# 5 0.011206 -0.003700 0.004931 0.000000 0.051701 0.000000
# 6 0.000000 0.000000 0.000000 -0.092394 0.000000 -0.092849
#
#
# Mechanical properties :
#
#
# Convention : Reuss Voigt Hill
#
# Bulk Modulus (GPa) = 17.89486 34.43508 26.16497
# Shear Modulus (GPa) = -13.74295 17.41061 1.83383
#
# Velocity S-wave (km/s) = -2.51513 2.83092 0.91876
# Velocity P-wave (km/s) = 0.44441 5.15131 3.62894
#
# Compressibility (1/GPa) = 0.05588197
#
# Stress axis : x y z
#
# Youngs Moduli (GPa) = 96.54859 26.01880 84.16558
#
# Poissons Ratio (x) = 0.10643 0.08554
# Poissons Ratio (y) = 0.39493 -0.22821
# Poissons Ratio (z) = 0.09812 -0.07055
#
# Static dielectric constant tensor:
#      x y z
#    x 1.833570 0.000000 0.041700 
#    y 0.000000 1.734440 0.000000 
#    z 0.041700 0.000000 1.828160 
# 
# From -- ./inp_files/105738.got.cif
#   From: 2010.05.17/outbox.cif.g08.bks.cpg/sg12_53_cif.got.tgz:105738.got - 2010.06.03 13:09:07.
