data_PCOD9215746
_publ_section_title
;
Structure prediction by ZEFSAII (Michael W. Deem and Ramdas Pophale) SiO2 
 PCOD9215746
Probable space group: C 2/M
;
_chemical_formula_sum "Si O2"
_cell_formula_units_Z 64
_cell_length_a 16.520840
_cell_length_b 8.677460
_cell_length_c 22.214515
_cell_angle_alpha 90.000000
_cell_angle_beta 89.920075
_cell_angle_gamma 90.000000
_cell_volume 3184.645964
_symmetry_space_group_name_H-M "C 2/M"
_symmetry_group_IT_number 12
_symmetry_cell_setting 'monoclinic'
loop_
_space_group_symop_operation_xyz
x,y,z
-x,y,-z
-x,-y,-z
x,-y,z
1/2+x,1/2+y,z
1/2-x,1/2+y,-z
1/2-x,1/2-y,-z
1/2+x,1/2-y,z
loop_
_atom_site_type_symbol
_atom_site_label
_atom_site_fract_x
_atom_site_fract_y
_atom_site_fract_z
Si Si1 0.339762 0.183784 0.499427
Si Si2 0.581173 0.183530 0.626857
Si Si3 0.329557 0.684567 0.747399
Si Si4 0.907228 0.817510 0.621924
Si Si5 0.253191 0.686176 0.067181
Si Si6 0.080339 0.185543 0.866565
Si Si7 0.909251 0.315194 0.859840
Si Si8 0.658081 0.317337 0.742196
O O1 0.250000 0.250000 0.500000
O O2 0.384082 0.232807 0.437976
O O3 0.384022 0.237076 0.559747
O O4 0.336214 0.000000 0.498543
O O5 0.498040 0.271567 0.638085
O O6 0.640163 0.226107 0.681260
O O7 0.567602 0.000000 0.625384
O O8 0.319793 0.500000 0.750797
O O9 0.352274 0.726665 0.678900
O O10 0.397030 0.738729 0.794381
O O11 0.247324 0.771874 0.763881
O O12 0.899705 0.000000 0.613595
O O13 0.253768 0.500000 0.066760
O O14 0.338039 0.734922 0.098304
O O15 0.170594 0.732527 0.102039
O O16 0.250000 0.750000 0.000000
O O17 0.097148 0.222312 0.796270
O O18 0.995443 0.260184 0.885799
O O19 0.074015 0.000000 0.871904
O O20 0.909123 0.500000 0.854684
O O21 0.653456 0.500000 0.731153
#
# Coordination Sequence:
#
# PCOD9215746 Si02
#       8
#     8   8   8   8   8   8   8   8
#     4  11  24  41  60  83 114 153 198 251 308 371
#     4  11  24  40  58  86 120 154 200 254 308 371
#     4  11  23  39  61  91 125 161 205 256 312 371
#     4  11  24  40  59  86 118 155 201 253 308 371
#     4  10  23  44  66  93 132 170 211 260 310 368
#     4  10  22  42  64  92 131 169 209 261 315 372
#     4  11  23  41  65  96 130 167 214 264 311 372
#     4  11  22  39  63  90 124 163 206 256 311 369
#
# _framework density 20.096425
#
# number of rings (size 3 to 8) (size 9 to 14) (size 15 to 20)
#    0.000    1.250    1.250    4.125    0.000   14.500 
#    0.000    2.500    0.000    0.000    0.000    0.000 
#    0.000    0.000    0.000    0.000    0.000    0.000 
#
# Total GULP energy -178902.550622 kJ/mol
# GULP energy per Si atom -5590.704707 kJ/mol
# Density = 2.005068 g / cm^3
# Si number density = 20.096425 Si / 1000 Ang^3
#
#
#
# Elastic Constant Matrix: (Units=GPa)
#
#
# Indices 1 2 3 4 5 6 
#
# 1 115.1699 8.8800 28.7640 0.0000 0.3631 0.0000
# 2 8.8800 18.0495 19.7328 0.0000 -6.6131 0.0000
# 3 28.7640 19.7328 102.4171 0.0000 2.3337 0.0000
# 4 0.0000 0.0000 0.0000 30.4687 0.0000 6.2216
# 5 0.3631 -6.6131 2.3337 0.0000 22.4925 0.0000
# 6 0.0000 0.0000 0.0000 6.2216 0.0000 36.5527
#
#
#
# Elastic Compliance Matrix: (Units=1/GPa)
#
#
# Indices 1 2 3 4 5 6 
#
# 1 0.009415 -0.002542 -0.002139 0.000000 -0.000677 0.000000
# 2 -0.002542 0.083849 -0.016042 0.000000 0.026358 0.000000
# 3 -0.002139 -0.016042 0.013594 0.000000 -0.006093 0.000000
# 4 0.000000 0.000000 0.000000 0.034002 0.000000 -0.005788
# 5 -0.000677 0.026358 -0.006093 0.000000 0.052852 0.000000
# 6 0.000000 0.000000 0.000000 -0.005788 0.000000 0.028343
#
#
# Mechanical properties :
#
#
# Convention : Reuss Voigt Hill
#
# Bulk Modulus (GPa) = 15.28747 38.93223 27.10985
# Shear Modulus (GPa) = 17.52503 29.78677 23.65590
#
# Velocity S-wave (km/s) = 2.95625 3.85410 3.43464
# Velocity P-wave (km/s) = 4.39046 6.26261 5.40816
#
# Compressibility (1/GPa) = 0.06541307
#
# Stress axis : x y z
#
# Youngs Moduli (GPa) = 106.21142 11.92617 73.55937
#
# Poissons Ratio (x) = 0.03031 0.15735
# Poissons Ratio (y) = 0.26995 1.18005
# Poissons Ratio (z) = 0.22720 0.19132
#
# Static dielectric constant tensor:
#      x y z
#    x 1.384350 0.000000 -0.444170 
#    y 0.000000 1.670910 0.000000 
#    z -0.444170 0.000000 1.125040 
# 
# From -- ./inp_files/338838.got.cif
#   From: 2010.05.17/outbox.cif.g08.bks.cpg/sg12_170_cif.got.tgz:338838.got - 2010.06.03 13:09:07.
