data_PCOD9215488
_publ_section_title
;
Structure prediction by ZEFSAII (Michael W. Deem and Ramdas Pophale) SiO2 
 PCOD9215488
Probable space group: C 2/M
;
_chemical_formula_sum "Si O2"
_cell_formula_units_Z 48
_cell_length_a 11.632784
_cell_length_b 27.899845
_cell_length_c 14.575784
_cell_angle_alpha 90.000000
_cell_angle_beta 150.077031
_cell_angle_gamma 90.000000
_cell_volume 2359.796171
_symmetry_space_group_name_H-M "C 2/M"
_symmetry_group_IT_number 12
_symmetry_cell_setting 'monoclinic'
loop_
_space_group_symop_operation_xyz
x,y,z
-x,y,-z
-x,-y,-z
x,-y,z
1/2+x,1/2+y,z
1/2-x,1/2+y,-z
1/2-x,1/2-y,-z
1/2+x,1/2-y,z
loop_
_atom_site_type_symbol
_atom_site_label
_atom_site_fract_x
_atom_site_fract_y
_atom_site_fract_z
Si Si1 0.034802 0.207561 0.133593
Si Si2 0.035106 0.057088 0.726490
Si Si3 0.140263 0.057419 0.006689
Si Si4 0.500000 0.110262 0.000000
Si Si5 0.000000 0.651065 0.500000
Si Si6 0.466001 0.816618 0.142470
Si Si7 0.093065 0.388279 0.369101
O O1 0.269665 0.182602 0.327488
O O2 0.038610 0.263574 0.163002
O O3 0.000000 0.202799 0.000000
O O4 0.807520 0.185401 0.024329
O O5 0.277120 0.077374 0.859023
O O6 0.831691 0.083851 0.532914
O O7 0.019726 0.000000 0.704420
O O8 0.021096 0.067555 0.826658
O O9 0.389197 0.081808 0.180852
O O10 0.166670 0.000000 0.031588
O O11 0.000000 0.073735 0.000000
O O12 0.481796 0.145580 0.900854
O O13 0.973797 0.619322 0.571996
O O14 0.595046 0.836690 0.321379
#
# Coordination Sequence:
#
# PCOD9215488 Si02
#       7
#     8   8   8   4   4   8   8
#     4  11  24  48  67 100 136 174 221 283 339 383
#     4  11  25  44  67  98 137 176 222 278 333 392
#     4  10  22  41  66  96 133 173 216 275 335 387
#     4  12  23  46  68  98 128 184 228 272 323 404
#     4  12  26  38  73 100 136 174 221 280 336 404
#     4  11  25  44  72  96 137 178 221 278 331 395
#     4  12  24  41  67 103 128 175 223 272 329 403
#
# _framework density 20.34074
#
# number of rings (size 3 to 8) (size 9 to 14) (size 15 to 20)
#    0.000    0.833    4.167    2.750    2.333    2.667 
#    0.000    4.167    0.000    0.000    0.000    0.000 
#    0.000    0.000    0.000    0.000    0.000    0.000 
#
# Total GULP energy -134302.795648 kJ/mol
# GULP energy per Si atom -5595.949819 kJ/mol
# Density = 2.029444 g / cm^3
# Si number density = 20.340740 Si / 1000 Ang^3
#
#
#
# Elastic Constant Matrix: (Units=GPa)
#
#
# Indices 1 2 3 4 5 6 
#
# 1 70.7248 13.8851 6.1659 0.0002 1.4661 0.0000
# 2 13.8851 79.1126 42.5868 0.0002 8.7398 0.0001
# 3 6.1659 42.5868 98.5956 0.0004 10.9984 0.0001
# 4 0.0002 0.0002 0.0004 29.1521 0.0001 -5.2240
# 5 1.4661 8.7398 10.9984 0.0001 35.5542 0.0000
# 6 0.0000 0.0001 0.0001 -5.2240 0.0000 38.9867
#
#
#
# Elastic Compliance Matrix: (Units=1/GPa)
#
#
# Indices 1 2 3 4 5 6 
#
# 1 0.014649 -0.002706 0.000255 0.000000 -0.000018 0.000000
# 2 -0.002706 0.017096 -0.007000 0.000000 -0.001925 0.000000
# 3 0.000255 -0.007000 0.013423 0.000000 -0.002442 0.000000
# 4 0.000000 0.000000 0.000000 0.035147 0.000000 0.004709
# 5 -0.000018 -0.001925 -0.002442 0.000000 0.029355 0.000000
# 6 0.000000 0.000000 0.000000 0.004709 0.000000 0.026281
#
#
# Mechanical properties :
#
#
# Convention : Reuss Voigt Hill
#
# Bulk Modulus (GPa) = 38.07507 41.52318 39.79912
# Shear Modulus (GPa) = 30.56065 33.12495 31.84280
#
# Velocity S-wave (km/s) = 3.88033 4.03985 3.96089
# Velocity P-wave (km/s) = 6.23179 6.49759 6.36608
#
# Compressibility (1/GPa) = 0.02626391
#
# Stress axis : x y z
#
# Youngs Moduli (GPa) = 68.26511 58.49230 74.50109
#
# Poissons Ratio (x) = 0.15829 -0.01898
# Poissons Ratio (y) = 0.18474 0.52154
# Poissons Ratio (z) = -0.01739 0.40947
#
# Static dielectric constant tensor:
#      x y z
#    x 1.740300 0.000000 -0.016370 
#    y 0.000000 1.705930 0.000000 
#    z -0.016370 0.000000 1.687760 
# 
# From -- ./inp_files/209495.got.cif
#   From: 2010.05.17/outbox.cif.g08.bks.cpg/sg12_105_cif.got.tgz:209495.got - 2010.06.03 13:09:07.
