data_PCOD9215340
_publ_section_title
;
Structure prediction by ZEFSAII (Michael W. Deem and Ramdas Pophale) SiO2 
 PCOD9215340
Probable space group: C 2/M
;
_chemical_formula_sum "Si O2"
_cell_formula_units_Z 44
_cell_length_a 25.539892
_cell_length_b 15.166354
_cell_length_c 18.280761
_cell_angle_alpha 90.000000
_cell_angle_beta 15.836678
_cell_angle_gamma 90.000000
_cell_volume 1932.377338
_symmetry_space_group_name_H-M "C 2/M"
_symmetry_group_IT_number 12
_symmetry_cell_setting 'monoclinic'
loop_
_space_group_symop_operation_xyz
x,y,z
-x,y,-z
-x,-y,-z
x,-y,z
1/2+x,1/2+y,z
1/2-x,1/2+y,-z
1/2-x,1/2-y,-z
1/2+x,1/2-y,z
loop_
_atom_site_type_symbol
_atom_site_label
_atom_site_fract_x
_atom_site_fract_y
_atom_site_fract_z
Si Si1 0.386783 0.636067 0.081461
Si Si2 0.058460 0.500000 0.503789
Si Si3 0.753256 0.000000 0.958817
Si Si4 0.355838 0.500000 0.621494
Si Si5 0.581375 0.695632 0.686834
Si Si6 0.196659 0.820396 0.361583
Si Si7 0.268520 0.302804 0.899190
O O1 0.187563 0.584805 0.345857
O O2 0.336533 0.738552 0.163484
O O3 0.500000 0.604178 0.000000
O O4 0.510865 0.623656 0.840881
O O5 0.000000 0.500000 0.500000
O O6 0.865705 0.500000 0.808377
O O7 0.709813 0.094101 0.980321
O O8 0.981756 0.000000 0.660481
O O9 0.500000 0.500000 0.500000
O O10 0.238271 0.411615 0.763907
O O11 0.750000 0.750000 0.500000
O O12 0.647060 0.671451 0.515524
O O13 0.386331 0.753225 0.941207
O O14 0.998650 0.801564 0.582844
O O15 0.250000 0.250000 0.000000
#
# Coordination Sequence:
#
# PCOD9215340 Si02
#       7
#     8   4   4   4   8   8   8
#     4  12  27  46  68  97 146 184 229 285 349 426
#     4  12  29  41  71 105 131 179 237 282 345 412
#     4  10  22  41  64  96 142 160 222 282 354 390
#     4  10  24  42  70 107 136 175 233 301 353 403
#     4  11  23  42  69  95 134 188 229 277 357 410
#     4  10  23  44  69  98 136 177 234 288 350 414
#     4   9  20  38  68  93 126 173 224 280 336 405
#
# _framework density 22.769880000000001
#
# number of rings (size 3 to 8) (size 9 to 14) (size 15 to 20)
#    0.000    1.455    1.818    2.455   15.273    0.000 
#    0.000    1.364    0.000    0.000    0.000    0.000 
#    0.000    0.000    0.000    0.000    0.000    0.000 
#
# Total GULP energy -122757.673140 kJ/mol
# GULP energy per Si atom -5579.894234 kJ/mol
# Density = 2.271805 g / cm^3
# Si number density = 22.769880 Si / 1000 Ang^3
#
#
#
# Elastic Constant Matrix: (Units=GPa)
#
#
# Indices 1 2 3 4 5 6 
#
# 1 169.8872 32.4750 36.5463 -0.0114 1.1512 0.0029
# 2 32.4750 109.2644 -8.4790 -0.0084 -4.6527 0.0043
# 3 36.5463 -8.4790 53.2375 -0.0078 -0.1610 0.0086
# 4 -0.0114 -0.0084 -0.0078 -57.1863 0.0064 8.5799
# 5 1.1512 -4.6527 -0.1610 0.0064 51.8086 -0.0043
# 6 0.0029 0.0043 0.0086 8.5799 -0.0043 6.3625
#
#
#
# Elastic Compliance Matrix: (Units=1/GPa)
#
#
# Indices 1 2 3 4 5 6 
#
# 1 0.007631 -0.002727 -0.005674 0.000000 -0.000432 0.000005
# 2 -0.002727 0.010277 0.003512 -0.000002 0.000994 -0.000007
# 3 -0.005674 0.003512 0.023240 -0.000006 0.000514 -0.000023
# 4 0.000000 -0.000002 -0.000006 -0.014544 0.000003 0.019613
# 5 -0.000432 0.000994 0.000514 0.000003 0.019402 0.000008
# 6 0.000005 -0.000007 -0.000023 0.019613 0.000008 0.130723
#
#
# Mechanical properties :
#
#
# Convention : Reuss Voigt Hill
#
# Bulk Modulus (GPa) = 31.87769 50.38597 41.13183
# Shear Modulus (GPa) = 25.38529 18.32008 21.85268
#
# Velocity S-wave (km/s) = 3.34258 2.83958 3.10129
# Velocity P-wave (km/s) = 5.37842 5.73823 5.56124
#
# Compressibility (1/GPa) = 0.03136990
#
# Stress axis : x y z
#
# Youngs Moduli (GPa) = 131.04354 97.30078 43.02965
#
# Poissons Ratio (x) = 0.26532 0.24416
# Poissons Ratio (y) = 0.35733 -0.15111
# Poissons Ratio (z) = 0.74356 -0.34170
#
# Static dielectric constant tensor:
#      x y z
#    x 1.898960 0.000000 0.051170 
#    y 0.000000 1.897040 0.000000 
#    z 0.051170 0.000000 1.836400 
# 
# From -- ./inp_files/290030.got.cif
#   From: 2010.05.17/outbox.cif.g08.bks.cpg/sg12_146_cif.got.tgz:290030.got - 2010.06.03 13:09:07.
