data_PCOD9215336
_publ_section_title
;
Structure prediction by ZEFSAII (Michael W. Deem and Ramdas Pophale) SiO2 
 PCOD9215336
Probable space group: C 2/M
;
_chemical_formula_sum "Si O2"
_cell_formula_units_Z 28
_cell_length_a 13.002892
_cell_length_b 15.647991
_cell_length_c 5.317702
_cell_angle_alpha 90.000000
_cell_angle_beta 91.730858
_cell_angle_gamma 90.000000
_cell_volume 1081.494566
_symmetry_space_group_name_H-M "C 2/M"
_symmetry_group_IT_number 12
_symmetry_cell_setting 'monoclinic'
loop_
_space_group_symop_operation_xyz
x,y,z
-x,y,-z
-x,-y,-z
x,-y,z
1/2+x,1/2+y,z
1/2-x,1/2+y,-z
1/2-x,1/2-y,-z
1/2+x,1/2-y,z
loop_
_atom_site_type_symbol
_atom_site_label
_atom_site_fract_x
_atom_site_fract_y
_atom_site_fract_z
Si Si1 0.810688 0.404808 0.711451
Si Si2 0.500000 0.154431 0.000000
Si Si3 0.364085 0.403014 0.636247
Si Si4 0.868546 0.194603 0.141963
O O1 0.775505 0.500000 0.802390
O O2 0.761187 0.402359 0.428363
O O3 0.753769 0.321895 0.826478
O O4 0.928119 0.396318 0.799960
O O5 0.574337 0.216081 0.842766
O O6 0.395131 0.500000 0.679774
O O7 0.403705 0.365596 0.375499
O O8 0.390467 0.345936 0.873798
#
# Coordination Sequence:
#
# PCOD9215336 Si02
#       4
#     8   4   8   8
#     4   9  21  43  67  91 127 170 211 256 311 379
#     4  12  23  40  63 104 126 164 208 268 317 368
#     4   9  19  42  68  89 124 172 210 252 312 376
#     4  10  22  41  64  95 129 163 207 264 314 367
#
# _framework density 25.890094000000001
#
# number of rings (size 3 to 8) (size 9 to 14) (size 15 to 20)
#    1.714    0.571    0.000    3.000    0.000    2.286 
#    5.143    7.857    0.000    5.143    0.000    0.000 
#    0.000    0.000    0.000    0.000    0.000    0.000 
#
# Total GULP energy -78081.498516 kJ/mol
# GULP energy per Si atom -5577.249894 kJ/mol
# Density = 2.583117 g / cm^3
# Si number density = 25.890094 Si / 1000 Ang^3
#
#
#
# Elastic Constant Matrix: (Units=GPa)
#
#
# Indices 1 2 3 4 5 6 
#
# 1 89.1659 26.0942 24.6029 0.0000 36.2856 0.0000
# 2 26.0942 104.8254 21.8472 0.0000 1.4323 0.0000
# 3 24.6029 21.8472 129.3391 0.0000 14.2631 0.0000
# 4 0.0000 0.0000 0.0000 32.2262 0.0000 13.5959
# 5 36.2856 1.4323 14.2631 0.0000 49.4328 0.0000
# 6 0.0000 0.0000 0.0000 13.5959 0.0000 50.1471
#
#
#
# Elastic Compliance Matrix: (Units=1/GPa)
#
#
# Indices 1 2 3 4 5 6 
#
# 1 0.017897 -0.004004 -0.001335 0.000000 -0.012636 0.000000
# 2 -0.004004 0.010786 -0.001394 0.000000 0.003029 0.000000
# 3 -0.001335 -0.001394 0.008375 0.000000 -0.001396 0.000000
# 4 0.000000 0.000000 0.000000 0.035038 0.000000 -0.009500
# 5 -0.012636 0.003029 -0.001396 0.000000 0.029820 0.000000
# 6 0.000000 0.000000 0.000000 -0.009500 0.000000 0.022517
#
#
# Mechanical properties :
#
#
# Convention : Reuss Voigt Hill
#
# Bulk Modulus (GPa) = 42.38764 52.04657 47.21711
# Shear Modulus (GPa) = 34.30204 43.08028 38.69116
#
# Velocity S-wave (km/s) = 3.64388 4.08360 3.86999
# Velocity P-wave (km/s) = 5.84051 6.51006 6.18435
#
# Compressibility (1/GPa) = 0.02359178
#
# Stress axis : x y z
#
# Youngs Moduli (GPa) = 55.87385 92.71559 119.40350
#
# Poissons Ratio (x) = 0.37127 0.15935
# Poissons Ratio (y) = 0.22374 0.16647
# Poissons Ratio (z) = 0.07457 0.12926
#
# Static dielectric constant tensor:
#      x y z
#    x 2.291410 0.000000 0.021950 
#    y 0.000000 1.963080 0.000000 
#    z 0.021950 0.000000 1.975610 
# 
# From -- ./inp_files/10006.got.cif
#   From: 2010.05.17/outbox.cif.g08.bks.cpg/sg12_6_cif.got.tgz:10006.got - 2010.06.03 13:09:07.
