data_PCOD9215503
_publ_section_title
;
Structure prediction by ZEFSAII (Michael W. Deem and Ramdas Pophale) SiO2 
 PCOD9215503
Probable space group: C 2/M
;
_chemical_formula_sum "Si O2"
_cell_formula_units_Z 64
_cell_length_a 8.900755
_cell_length_b 24.449950
_cell_length_c 18.257728
_cell_angle_alpha 90.000000
_cell_angle_beta 134.765501
_cell_angle_gamma 90.000000
_cell_volume 2821.023953
_symmetry_space_group_name_H-M "C 2/M"
_symmetry_group_IT_number 12
_symmetry_cell_setting 'monoclinic'
loop_
_space_group_symop_operation_xyz
x,y,z
-x,y,-z
-x,-y,-z
x,-y,z
1/2+x,1/2+y,z
1/2-x,1/2+y,-z
1/2-x,1/2-y,-z
1/2+x,1/2-y,z
loop_
_atom_site_type_symbol
_atom_site_label
_atom_site_fract_x
_atom_site_fract_y
_atom_site_fract_z
Si Si1 0.170560 0.731111 0.745722
Si Si2 0.051813 0.935226 0.603428
Si Si3 0.778310 0.236254 0.388808
Si Si4 0.243414 0.369191 0.601623
Si Si5 0.031438 0.438046 0.794610
Si Si6 0.624390 0.617399 0.191658
Si Si7 0.856212 0.608848 0.022682
Si Si8 0.758527 0.787366 0.932887
O O1 0.213926 0.772882 0.695811
O O2 0.335383 0.682255 0.797277
O O3 0.181541 0.745581 0.834824
O O4 0.931283 0.709770 0.649450
O O5 0.293916 0.917224 0.700021
O O6 0.000000 0.932044 0.500000
O O7 0.895216 0.895926 0.593853
O O8 0.031549 0.000000 0.618406
O O9 0.745881 0.302278 0.389840
O O10 0.000000 0.220195 0.500000
O O11 0.313937 0.395122 0.703589
O O12 0.000000 0.381847 0.500000
O O13 0.033754 0.500000 0.767712
O O14 0.210976 0.407180 0.809998
O O15 0.079431 0.437512 0.897859
O O16 0.385426 0.603879 0.087498
O O17 0.871522 0.660639 0.083656
O O18 0.000000 0.614042 0.000000
O O19 0.750000 0.750000 0.000000
O O20 0.000000 0.804429 0.000000
#
# Coordination Sequence:
#
# PCOD9215503 Si02
#       8
#     8   8   8   8   8   8   8   8
#     4  11  22  41  64  91 129 169 219 274 323 388
#     4  10  22  42  68 101 135 170 221 277 333 400
#     4  10  23  41  63  93 133 174 220 270 324 393
#     4  10  22  41  66  98 136 175 221 274 332 393
#     4  11  24  44  69  97 131 172 217 272 340 404
#     4  11  23  43  66  93 130 171 221 276 331 402
#     4  12  25  44  65  93 132 171 219 277 332 400
#     4  12  23  41  63  94 129 170 224 277 331 390
#
# _framework density 22.686798
#
# number of rings (size 3 to 8) (size 9 to 14) (size 15 to 20)
#    0.000    1.125    2.500    3.375    1.750    3.000 
#    2.250    1.250    0.000    0.000    0.000    0.000 
#    0.000    0.000    0.000    0.000    0.000    0.000 
#
# Total GULP energy -178917.767836 kJ/mol
# GULP energy per Si atom -5591.180245 kJ/mol
# Density = 2.263516 g / cm^3
# Si number density = 22.686798 Si / 1000 Ang^3
#
#
#
# Elastic Constant Matrix: (Units=GPa)
#
#
# Indices 1 2 3 4 5 6 
#
# 1 155.5937 28.1834 68.7650 0.0000 4.0902 0.0000
# 2 28.1834 46.4181 14.6285 0.0000 -1.8846 0.0000
# 3 68.7650 14.6285 172.7394 0.0000 13.5395 0.0000
# 4 0.0000 0.0000 0.0000 19.2710 0.0000 -2.6600
# 5 4.0902 -1.8846 13.5395 0.0000 53.1940 0.0000
# 6 0.0000 0.0000 0.0000 -2.6600 0.0000 20.3475
#
#
#
# Elastic Compliance Matrix: (Units=1/GPa)
#
#
# Indices 1 2 3 4 5 6 
#
# 1 0.008536 -0.004227 -0.003037 0.000000 -0.000033 0.000000
# 2 -0.004227 0.024314 -0.000479 0.000000 0.001308 0.000000
# 3 -0.003037 -0.000479 0.007165 0.000000 -0.001607 0.000000
# 4 0.000000 0.000000 0.000000 0.052845 0.000000 0.006908
# 5 -0.000033 0.001308 -0.001607 0.000000 0.019257 0.000000
# 6 0.000000 0.000000 0.000000 0.006908 0.000000 0.050049
#
#
# Mechanical properties :
#
#
# Convention : Reuss Voigt Hill
#
# Bulk Modulus (GPa) = 40.76975 66.43389 53.60182
# Shear Modulus (GPa) = 26.90660 36.10746 31.50703
#
# Velocity S-wave (km/s) = 3.44757 3.99377 3.73068
# Velocity P-wave (km/s) = 5.81871 7.11432 6.49888
#
# Compressibility (1/GPa) = 0.02452799
#
# Stress axis : x y z
#
# Youngs Moduli (GPa) = 117.15224 41.12898 139.57189
#
# Poissons Ratio (x) = 0.17384 0.42395
# Poissons Ratio (y) = 0.49518 0.06685
# Poissons Ratio (z) = 0.35585 0.01970
#
# Static dielectric constant tensor:
#      x y z
#    x 1.840670 0.000000 -0.003880 
#    y 0.000000 1.946860 0.000000 
#    z -0.003880 0.000000 1.907820 
# 
# From -- ./inp_files/260407.got.cif
#   From: 2010.05.17/outbox.cif.g08.bks.cpg/sg12_131_cif.got.tgz:260407.got - 2010.06.03 13:09:07.
