data_PCOD9215200
_publ_section_title
;
Structure prediction by ZEFSAII (Michael W. Deem and Ramdas Pophale) SiO2 
 PCOD9215200
Probable space group: C 2/M
;
_chemical_formula_sum "Si O2"
_cell_formula_units_Z 42
_cell_length_a 30.121797
_cell_length_b 7.144903
_cell_length_c 9.727468
_cell_angle_alpha 90.000000
_cell_angle_beta 131.659010
_cell_angle_gamma 90.000000
_cell_volume 1564.097580
_symmetry_space_group_name_H-M "C 2/M"
_symmetry_group_IT_number 12
_symmetry_cell_setting 'monoclinic'
loop_
_space_group_symop_operation_xyz
x,y,z
-x,y,-z
-x,-y,-z
x,-y,z
1/2+x,1/2+y,z
1/2-x,1/2+y,-z
1/2-x,1/2-y,-z
1/2+x,1/2-y,z
loop_
_atom_site_type_symbol
_atom_site_label
_atom_site_fract_x
_atom_site_fract_y
_atom_site_fract_z
Si Si1 0.038761 0.775764 0.320595
Si Si2 0.347016 0.274521 0.258118
Si Si3 0.500000 0.000000 0.000000
Si Si4 0.911107 0.226601 0.123877
Si Si5 0.730591 0.272683 0.666948
Si Si6 0.348157 0.709798 0.741823
O O1 0.097152 0.731551 0.528243
O O2 0.979779 0.731689 0.289227
O O3 0.038459 0.000000 0.296196
O O4 0.030941 0.662509 0.164687
O O5 0.343358 0.500000 0.242611
O O6 0.365494 0.206747 0.145749
O O7 0.288506 0.213198 0.220343
O O8 0.905792 0.000000 0.108305
O O9 0.896208 0.299793 0.940540
O O10 0.733070 0.500000 0.666121
O O11 0.679293 0.211605 0.453638
O O12 0.791534 0.202163 0.728892
O O13 0.367943 0.500000 0.748180
#
# Coordination Sequence:
#
# PCOD9215200 Si02
#       6
#     8   8   2   8   8   8
#     4  10  22  41  63  89 124 159 196 246 304 352
#     4   9  18  35  61  86 113 154 200 243 296 361
#     4  12  26  40  58  98 124 160 200 248 288 368
#     4   9  18  35  61  86 113 154 200 243 296 361
#     4   9  18  33  52  79 112 150 195 245 294 349
#     4   9  18  33  52  79 112 150 195 245 294 349
#
# _framework density 26.852544999999999
#
# number of rings (size 3 to 8) (size 9 to 14) (size 15 to 20)
#    0.000    2.667    0.000    0.857    2.667    3.048 
#    3.429    1.905    0.000    0.000    0.000    0.000 
#    0.000    0.000    0.000    0.000    0.000    0.000 
#
# Total GULP energy -117275.833125 kJ/mol
# GULP energy per Si atom -5584.563482 kJ/mol
# Density = 2.679143 g / cm^3
# Si number density = 26.852545 Si / 1000 Ang^3
#
#
#
# Elastic Constant Matrix: (Units=GPa)
#
#
# Indices 1 2 3 4 5 6 
#
# 1 147.7707 -24.4327 4.5414 0.0000 -36.7416 0.0000
# 2 -24.4327 165.8918 0.5255 0.0000 -5.7895 0.0000
# 3 4.5414 0.5255 87.5957 0.0000 -21.4732 0.0000
# 4 0.0000 0.0000 0.0000 -19.9899 0.0000 -6.5773
# 5 -36.7416 -5.7895 -21.4732 0.0000 43.4450 0.0000
# 6 0.0000 0.0000 0.0000 -6.5773 0.0000 -22.3145
#
#
#
# Elastic Compliance Matrix: (Units=1/GPa)
#
#
# Indices 1 2 3 4 5 6 
#
# 1 0.009180 0.001654 0.001674 0.000000 0.008812 0.000000
# 2 0.001654 0.006357 0.000486 0.000000 0.002486 0.000000
# 3 0.001674 0.000486 0.013301 0.000000 0.008055 0.000000
# 4 0.000000 0.000000 0.000000 -0.055398 0.000000 0.016329
# 5 0.008812 0.002486 0.008055 0.000000 0.034782 0.000000
# 6 0.000000 0.000000 0.000000 0.016329 0.000000 -0.049627
#
#
# Mechanical properties :
#
#
# Convention : Reuss Voigt Hill
#
# Bulk Modulus (GPa) = 27.42264 40.28073 33.85169
# Shear Modulus (GPa) = -135.58428 28.26972 -53.65728
#
# Velocity S-wave (km/s) = -7.11349 3.24817 -4.47499
# Velocity P-wave (km/s) = 7.56535 5.39451 3.75059
#
# Compressibility (1/GPa) = 0.03646621
#
# Stress axis : x y z
#
# Youngs Moduli (GPa) = 108.92947 157.30942 75.18284
#
# Poissons Ratio (x) = -0.26024 -0.12587
# Poissons Ratio (y) = -0.18020 -0.03651
# Poissons Ratio (z) = -0.18237 -0.07638
#
# Static dielectric constant tensor:
#      x y z
#    x 2.134620 0.000000 0.012110 
#    y 0.000000 2.046610 0.000000 
#    z 0.012110 0.000000 2.037830 
# 
# From -- ./inp_files/108476.got.cif
#   From: 2010.05.17/outbox.cif.g08.bks.cpg/sg12_55_cif.got.tgz:108476.got - 2010.06.03 13:09:07.
