data_PCOD9215522
_publ_section_title
;
Structure prediction by ZEFSAII (Michael W. Deem and Ramdas Pophale) SiO2 
 PCOD9215522
Probable space group: C 2/M
;
_chemical_formula_sum "Si O2"
_cell_formula_units_Z 28
_cell_length_a 23.585004
_cell_length_b 12.582452
_cell_length_c 5.839164
_cell_angle_alpha 90.000000
_cell_angle_beta 51.838212
_cell_angle_gamma 90.000000
_cell_volume 1362.458071
_symmetry_space_group_name_H-M "C 2/M"
_symmetry_group_IT_number 12
_symmetry_cell_setting 'monoclinic'
loop_
_space_group_symop_operation_xyz
x,y,z
-x,y,-z
-x,-y,-z
x,-y,z
1/2+x,1/2+y,z
1/2-x,1/2+y,-z
1/2-x,1/2-y,-z
1/2+x,1/2-y,z
loop_
_atom_site_type_symbol
_atom_site_label
_atom_site_fract_x
_atom_site_fract_y
_atom_site_fract_z
Si Si1 0.083019 0.294462 0.741838
Si Si2 0.692876 0.211449 0.830985
Si Si3 0.041364 0.500000 0.640869
Si Si4 0.175441 0.877222 0.253958
O O1 0.124883 0.333844 0.864429
O O2 0.085046 0.389996 0.552876
O O3 0.123858 0.190594 0.549311
O O4 0.000000 0.270184 0.000000
O O5 0.750000 0.250000 0.500000
O O6 0.741420 0.136904 0.871068
O O7 0.669675 0.314954 0.030129
O O8 0.000000 0.500000 0.500000
O O9 0.000000 0.500000 0.000000
O O10 0.156662 0.000000 0.289713
#
# Coordination Sequence:
#
# PCOD9215522 Si02
#       4
#     8   8   4   8
#     4  10  23  41  66  97 134 170 219 280 339 409
#     4   9  21  42  59  92 127 172 219 271 331 401
#     4  10  24  42  68 100 138 180 219 278 339 407
#     4  10  22  41  67  93 131 173 221 278 337 408
#
# _framework density 20.551093000000002
#
# number of rings (size 3 to 8) (size 9 to 14) (size 15 to 20)
#    0.000    2.286    0.000    0.000   10.000    5.143 
#   20.571    1.429    0.000    0.000    0.000    0.000 
#    0.000    0.000    0.000    0.000    0.000    0.000 
#
# Total GULP energy -78069.173620 kJ/mol
# GULP energy per Si atom -5576.369544 kJ/mol
# Density = 2.050432 g / cm^3
# Si number density = 20.551093 Si / 1000 Ang^3
#
#
#
# Elastic Constant Matrix: (Units=GPa)
#
#
# Indices 1 2 3 4 5 6 
#
# 1 175.5740 43.8521 32.8481 0.0000 6.6632 0.0000
# 2 43.8521 154.4195 23.3283 0.0000 0.7823 0.0000
# 3 32.8481 23.3283 69.3526 0.0000 -6.2734 0.0000
# 4 0.0000 0.0000 0.0000 31.2024 0.0000 0.5166
# 5 6.6632 0.7823 -6.2734 0.0000 40.8179 0.0000
# 6 0.0000 0.0000 0.0000 0.5166 0.0000 10.4864
#
#
#
# Elastic Compliance Matrix: (Units=1/GPa)
#
#
# Indices 1 2 3 4 5 6 
#
# 1 0.006637 -0.001456 -0.002788 0.000000 -0.001484 0.000000
# 2 -0.001456 0.007152 -0.001731 0.000000 -0.000165 0.000000
# 3 -0.002788 -0.001731 0.016597 0.000000 0.003039 0.000000
# 4 0.000000 0.000000 0.000000 0.032075 0.000000 -0.001580
# 5 -0.001484 -0.000165 0.003039 0.000000 0.025212 0.000000
# 6 0.000000 0.000000 0.000000 -0.001580 0.000000 0.095439
#
#
# Mechanical properties :
#
#
# Convention : Reuss Voigt Hill
#
# Bulk Modulus (GPa) = 54.24341 66.60035 60.42188
# Shear Modulus (GPa) = 24.85002 36.45585 30.65294
#
# Velocity S-wave (km/s) = 3.48110 4.21635 3.86625
# Velocity P-wave (km/s) = 6.52757 7.49540 7.02817
#
# Compressibility (1/GPa) = 0.01843542
#
# Stress axis : x y z
#
# Youngs Moduli (GPa) = 150.66510 139.82669 60.25271
#
# Poissons Ratio (x) = 0.20361 0.16799
# Poissons Ratio (y) = 0.21939 0.10429
# Poissons Ratio (z) = 0.42007 0.24203
#
# Static dielectric constant tensor:
#      x y z
#    x 1.803620 0.000000 0.032700 
#    y 0.000000 1.730250 0.000000 
#    z 0.032700 0.000000 1.800480 
# 
# From -- ./inp_files/18951.got.cif
#   From: 2010.05.17/outbox.cif.g08.bks.cpg/sg12_10_cif.got.tgz:18951.got - 2010.06.03 13:09:07.
