data_PCOD9215562
_publ_section_title
;
Structure prediction by ZEFSAII (Michael W. Deem and Ramdas Pophale) SiO2 
 PCOD9215562
Probable space group: C 2/M
;
_chemical_formula_sum "Si O2"
_cell_formula_units_Z 42
_cell_length_a 15.216709
_cell_length_b 12.618934
_cell_length_c 10.386679
_cell_angle_alpha 90.000000
_cell_angle_beta 70.873142
_cell_angle_gamma 90.000000
_cell_volume 1884.334043
_symmetry_space_group_name_H-M "C 2/M"
_symmetry_group_IT_number 12
_symmetry_cell_setting 'monoclinic'
loop_
_space_group_symop_operation_xyz
x,y,z
-x,y,-z
-x,-y,-z
x,-y,z
1/2+x,1/2+y,z
1/2-x,1/2+y,-z
1/2-x,1/2-y,-z
1/2+x,1/2-y,z
loop_
_atom_site_type_symbol
_atom_site_label
_atom_site_fract_x
_atom_site_fract_y
_atom_site_fract_z
Si Si1 0.697651 0.376048 0.384905
Si Si2 0.357834 0.295079 0.312861
Si Si3 0.046318 0.718257 0.344564
Si Si4 0.000000 0.000000 0.000000
Si Si5 0.150977 0.383013 0.068258
Si Si6 0.138893 0.838986 0.968385
O O1 0.706393 0.500000 0.348435
O O2 0.676886 0.360207 0.546775
O O3 0.789391 0.304773 0.319845
O O4 0.613439 0.316490 0.351246
O O5 0.459413 0.253310 0.300164
O O6 0.354716 0.364064 0.186060
O O7 0.109302 0.638908 0.230697
O O8 0.000000 0.677046 0.500000
O O9 0.944687 0.908901 0.943938
O O10 0.125622 0.500000 0.035958
O O11 0.262732 0.370356 0.018461
O O12 0.118832 0.284168 0.998907
#
# Coordination Sequence:
#
# PCOD9215562 Si02
#       6
#     8   8   8   2   8   8
#     4  10  22  41  67  99 138 182 225 284 348 404
#     4  10  22  42  64  99 138 175 231 284 334 424
#     4  10  22  43  67 101 139 177 231 282 344 417
#     4  12  24  44  70 104 128 178 228 286 340 418
#     4  11  24  46  69  97 140 185 227 286 344 412
#     4  11  24  44  67 103 136 180 231 283 353 406
#
# _framework density 22.289041999999998
#
# number of rings (size 3 to 8) (size 9 to 14) (size 15 to 20)
#    0.000    1.524    2.857    1.143    1.333    5.333 
#    5.143    3.333    0.000    0.000    0.000    0.000 
#    0.000    0.000    0.000    0.000    0.000    0.000 
#
# Total GULP energy -117107.339833 kJ/mol
# GULP energy per Si atom -5576.539992 kJ/mol
# Density = 2.223831 g / cm^3
# Si number density = 22.289042 Si / 1000 Ang^3
#
#
#
# Elastic Constant Matrix: (Units=GPa)
#
#
# Indices 1 2 3 4 5 6 
#
# 1 116.4893 37.4664 0.9087 0.0000 -3.2849 0.0000
# 2 37.4664 144.3419 10.5072 0.0000 -6.3329 0.0000
# 3 0.9087 10.5072 50.2612 0.0000 -10.1552 0.0000
# 4 0.0000 0.0000 0.0000 -20.8807 0.0000 34.0097
# 5 -3.2849 -6.3329 -10.1552 0.0000 25.7278 0.0000
# 6 0.0000 0.0000 0.0000 34.0097 0.0000 6.3125
#
#
#
# Elastic Compliance Matrix: (Units=1/GPa)
#
#
# Indices 1 2 3 4 5 6 
#
# 1 0.009387 -0.002438 0.000501 0.000000 0.000796 0.000000
# 2 -0.002438 0.007706 -0.001354 0.000000 0.001051 0.000000
# 3 0.000501 -0.001354 0.021859 0.000000 0.008359 0.000000
# 4 0.000000 0.000000 0.000000 -0.004899 0.000000 0.026395
# 5 0.000796 0.001051 0.008359 0.000000 0.042528 0.000000
# 6 0.000000 0.000000 0.000000 0.026395 0.000000 0.016206
#
#
# Mechanical properties :
#
#
# Convention : Reuss Voigt Hill
#
# Bulk Modulus (GPa) = 30.89449 45.42855 38.16152
# Shear Modulus (GPa) = 45.38875 19.71260 32.55067
#
# Velocity S-wave (km/s) = 4.51751 2.97713 3.82565
# Velocity P-wave (km/s) = 6.41104 5.67834 6.05578
#
# Compressibility (1/GPa) = 0.03236823
#
# Stress axis : x y z
#
# Youngs Moduli (GPa) = 106.52809 129.77650 45.74770
#
# Poissons Ratio (x) = 0.31641 -0.02291
# Poissons Ratio (y) = 0.25973 0.06196
# Poissons Ratio (z) = -0.05335 0.17578
#
# Static dielectric constant tensor:
#      x y z
#    x 1.844620 0.000000 -0.058340 
#    y 0.000000 1.812990 0.000000 
#    z -0.058340 0.000000 1.879080 
# 
# From -- ./inp_files/140941.got.cif
#   From: 2010.05.17/outbox.cif.g08.bks.cpg/sg12_71_cif.got.tgz:140941.got - 2010.06.03 13:09:07.
