data_PCOD9215551
_publ_section_title
;
Structure prediction by ZEFSAII (Michael W. Deem and Ramdas Pophale) SiO2 
 PCOD9215551
Probable space group: C 2/M
;
_chemical_formula_sum "Si O2"
_cell_formula_units_Z 40
_cell_length_a 14.032152
_cell_length_b 13.784535
_cell_length_c 18.750633
_cell_angle_alpha 90.000000
_cell_angle_beta 29.450302
_cell_angle_gamma 90.000000
_cell_volume 1783.218911
_symmetry_space_group_name_H-M "C 2/M"
_symmetry_group_IT_number 12
_symmetry_cell_setting 'monoclinic'
loop_
_space_group_symop_operation_xyz
x,y,z
-x,y,-z
-x,-y,-z
x,-y,z
1/2+x,1/2+y,z
1/2-x,1/2+y,-z
1/2-x,1/2-y,-z
1/2+x,1/2-y,z
loop_
_atom_site_type_symbol
_atom_site_label
_atom_site_fract_x
_atom_site_fract_y
_atom_site_fract_z
Si Si1 0.704516 0.885965 0.956512
Si Si2 0.488640 0.886927 0.237881
Si Si3 0.873165 0.758045 0.520834
Si Si4 0.766149 0.714433 0.812477
Si Si5 0.891096 0.114989 0.222028
O O1 0.702973 0.813893 0.891217
O O2 0.906934 0.870299 0.867653
O O3 0.694011 0.000000 0.944035
O O4 0.538210 0.864228 0.123078
O O5 0.303230 0.827101 0.383539
O O6 0.675662 0.859402 0.162742
O O7 0.452237 0.000000 0.267958
O O8 0.774892 0.662816 0.619982
O O9 0.000000 0.807880 0.500000
O O10 0.028874 0.734593 0.359915
O O11 0.629338 0.668086 0.841234
O O12 0.862913 0.000000 0.230918
#
# Coordination Sequence:
#
# PCOD9215551 Si02
#       5
#     8   8   8   8   8
#     4  10  23  43  67  94 129 169 211 261 323 379
#     4  11  23  40  63  93 128 169 214 262 316 379
#     4  10  23  41  62  94 127 168 215 263 315 378
#     4  11  22  40  67  96 128 165 215 260 322 375
#     4  10  22  41  67  98 130 163 210 268 319 377
#
# _framework density 22.431345
#
# number of rings (size 3 to 8) (size 9 to 14) (size 15 to 20)
#    0.000    1.600    2.000    1.800    0.000    6.400 
#    3.600    6.000    0.000    9.600    0.000    0.000 
#    0.000    0.000    0.000    0.000    0.000    0.000 
#
# Total GULP energy -111932.680712 kJ/mol
# GULP energy per Si atom -5596.634036 kJ/mol
# Density = 2.238029 g / cm^3
# Si number density = 22.431345 Si / 1000 Ang^3
#
#
#
# Elastic Constant Matrix: (Units=GPa)
#
#
# Indices 1 2 3 4 5 6 
#
# 1 118.5285 65.1295 41.6420 -0.0002 -0.5768 0.0010
# 2 65.1295 138.4685 26.6798 -0.0001 7.8316 0.0003
# 3 41.6420 26.6798 77.7493 -0.0031 -2.2673 -0.0026
# 4 -0.0002 -0.0001 -0.0031 -3.3871 0.0001 -10.9991
# 5 -0.5768 7.8316 -2.2673 0.0001 40.5975 -0.0001
# 6 0.0010 0.0003 -0.0026 -10.9991 -0.0001 6.1881
#
#
#
# Elastic Compliance Matrix: (Units=1/GPa)
#
#
# Indices 1 2 3 4 5 6 
#
# 1 0.013150 -0.005230 -0.005222 0.000003 0.000904 0.000001
# 2 -0.005230 0.009924 -0.000663 0.000000 -0.002026 0.000000
# 3 -0.005222 -0.000663 0.015914 -0.000006 0.000943 -0.000003
# 4 0.000003 0.000000 -0.000006 -0.043596 0.000000 -0.077491
# 5 0.000904 -0.002026 0.000943 0.000000 0.025088 0.000000
# 6 0.000001 0.000000 -0.000003 -0.077491 0.000000 0.023863
#
#
# Mechanical properties :
#
#
# Convention : Reuss Voigt Hill
#
# Bulk Modulus (GPa) = 59.67613 66.84989 63.26301
# Shear Modulus (GPa) = 69.29172 22.09934 45.69553
#
# Velocity S-wave (km/s) = 5.56396 3.14219 4.51835
# Velocity P-wave (km/s) = 8.24248 6.55982 7.44882
#
# Compressibility (1/GPa) = 0.01675712
#
# Stress axis : x y z
#
# Youngs Moduli (GPa) = 76.04844 100.76356 62.83876
#
# Poissons Ratio (x) = 0.52699 0.32813
# Poissons Ratio (y) = 0.39773 0.04169
# Poissons Ratio (z) = 0.39711 0.06685
#
# Static dielectric constant tensor:
#      x y z
#    x 1.860200 0.000000 0.002980 
#    y 0.000000 1.783780 0.000000 
#    z 0.002980 0.000000 1.826780 
# 
# From -- ./inp_files/59093.got.cif
#   From: 2010.05.17/outbox.cif.g08.bks.cpg/sg12_30_cif.got.tgz:59093.got - 2010.06.03 13:09:07.
