data_PCOD9215230
_publ_section_title
;
Structure prediction by ZEFSAII (Michael W. Deem and Ramdas Pophale) SiO2 
 PCOD9215230
Probable space group: C 2/M
;
_chemical_formula_sum "Si O2"
_cell_formula_units_Z 50
_cell_length_a 29.445285
_cell_length_b 16.476839
_cell_length_c 7.079759
_cell_angle_alpha 90.000000
_cell_angle_beta 52.632751
_cell_angle_gamma 90.000000
_cell_volume 2729.889391
_symmetry_space_group_name_H-M "C 2/M"
_symmetry_group_IT_number 12
_symmetry_cell_setting 'monoclinic'
loop_
_space_group_symop_operation_xyz
x,y,z
-x,y,-z
-x,-y,-z
x,-y,z
1/2+x,1/2+y,z
1/2-x,1/2+y,-z
1/2-x,1/2-y,-z
1/2+x,1/2-y,z
loop_
_atom_site_type_symbol
_atom_site_label
_atom_site_fract_x
_atom_site_fract_y
_atom_site_fract_z
Si Si1 0.949985 0.838469 0.510475
Si Si2 0.434614 0.775702 0.195219
Si Si3 0.216386 0.679322 0.974400
Si Si4 0.364655 0.300104 0.036046
Si Si5 0.232124 0.096137 0.511716
Si Si6 0.000000 0.000000 0.500000
Si Si7 0.837663 0.594921 0.532065
O O1 0.933932 0.789680 0.366112
O O2 0.000000 0.791505 0.500000
O O3 0.976761 0.927258 0.416916
O O4 0.896651 0.846479 0.786568
O O5 0.410303 0.732023 0.070911
O O6 0.391795 0.848545 0.353575
O O7 0.500000 0.801877 0.000000
O O8 0.167803 0.724464 0.976206
O O9 0.256141 0.632628 0.724818
O O10 0.250000 0.750000 0.000000
O O11 0.189359 0.620727 0.199182
O O12 0.318921 0.356073 0.258011
O O13 0.288801 0.108957 0.496807
O O14 0.220966 0.000000 0.531192
O O15 0.852182 0.500000 0.494521
#
# Coordination Sequence:
#
# PCOD9215230 Si02
#       7
#     8   8   8   8   8   2   8
#     4  10  22  41  63  92 128 169 210 266 317 386
#     4  12  23  42  67  92 127 172 219 265 323 390
#     4  12  22  41  66  92 129 172 216 262 328 395
#     4  12  23  39  65  95 125 168 217 259 324 397
#     4  11  25  41  61  97 132 165 214 273 328 388
#     4   8  20  44  62  88 130 166 212 260 320 372
#     4  11  24  42  65  93 131 171 216 275 331 381
#
# _framework density 18.315761999999999
#
# number of rings (size 3 to 8) (size 9 to 14) (size 15 to 20)
#    0.480    0.320    6.400    1.920    1.120    0.320 
#    1.440    1.200    0.000    1.440    0.000    0.000 
#    0.000    0.000    0.000    0.000    0.000    0.000 
#
# Total GULP energy -139349.174052 kJ/mol
# GULP energy per Si atom -5573.966962 kJ/mol
# Density = 1.827407 g / cm^3
# Si number density = 18.315762 Si / 1000 Ang^3
#
#
#
# Elastic Constant Matrix: (Units=GPa)
#
#
# Indices 1 2 3 4 5 6 
#
# 1 81.8271 34.9898 26.2164 0.0000 5.6529 0.0000
# 2 34.9898 87.1357 38.7926 0.0000 0.4353 0.0000
# 3 26.2164 38.7926 121.5301 0.0000 -2.1844 0.0000
# 4 0.0000 0.0000 0.0000 14.1249 0.0000 2.2443
# 5 5.6529 0.4353 -2.1844 0.0000 34.3252 0.0000
# 6 0.0000 0.0000 0.0000 2.2443 0.0000 28.0115
#
#
#
# Elastic Compliance Matrix: (Units=1/GPa)
#
#
# Indices 1 2 3 4 5 6 
#
# 1 0.015212 -0.005379 -0.001610 0.000000 -0.002540 0.000000
# 2 -0.005379 0.015286 -0.003711 0.000000 0.000456 0.000000
# 3 -0.001610 -0.003711 0.009777 0.000000 0.000934 0.000000
# 4 0.000000 0.000000 0.000000 0.071710 0.000000 -0.005746
# 5 -0.002540 0.000456 0.000934 0.000000 0.029605 0.000000
# 6 0.000000 0.000000 0.000000 -0.005746 0.000000 0.036160
#
#
# Mechanical properties :
#
#
# Convention : Reuss Voigt Hill
#
# Bulk Modulus (GPa) = 52.97915 54.49896 53.73906
# Shear Modulus (GPa) = 24.33772 27.99192 26.16482
#
# Velocity S-wave (km/s) = 3.64921 3.91358 3.78371
# Velocity P-wave (km/s) = 6.83695 7.08811 6.96366
#
# Compressibility (1/GPa) = 0.01887535
#
# Stress axis : x y z
#
# Youngs Moduli (GPa) = 65.73608 65.41896 102.28022
#
# Poissons Ratio (x) = 0.35189 0.16470
# Poissons Ratio (y) = 0.35360 0.37954
# Poissons Ratio (z) = 0.10585 0.24276
#
# Static dielectric constant tensor:
#      x y z
#    x 1.651730 0.000000 -0.006250 
#    y 0.000000 1.594630 0.000000 
#    z -0.006250 0.000000 1.640860 
# 
# From -- ./inp_files/28727.got.cif
#   From: 2010.05.17/outbox.cif.g08.bks.cpg/sg12_15_cif.got.tgz:28727.got - 2010.06.03 13:09:07.
