data_PCOD9215329
_publ_section_title
;
Structure prediction by ZEFSAII (Michael W. Deem and Ramdas Pophale) SiO2 
 PCOD9215329
Probable space group: C 2/M
;
_chemical_formula_sum "Si O2"
_cell_formula_units_Z 48
_cell_length_a 28.044049
_cell_length_b 8.579185
_cell_length_c 17.368011
_cell_angle_alpha 90.000000
_cell_angle_beta 143.777016
_cell_angle_gamma 90.000000
_cell_volume 2469.291614
_symmetry_space_group_name_H-M "C 2/M"
_symmetry_group_IT_number 12
_symmetry_cell_setting 'monoclinic'
loop_
_space_group_symop_operation_xyz
x,y,z
-x,y,-z
-x,-y,-z
x,-y,z
1/2+x,1/2+y,z
1/2-x,1/2+y,-z
1/2-x,1/2-y,-z
1/2+x,1/2-y,z
loop_
_atom_site_type_symbol
_atom_site_label
_atom_site_fract_x
_atom_site_fract_y
_atom_site_fract_z
Si Si1 0.160979 0.687590 0.398609
Si Si2 0.009863 0.688768 0.101828
Si Si3 0.629513 0.315926 0.969270
Si Si4 0.588054 0.185732 0.748881
Si Si5 0.799921 0.816378 0.238775
Si Si6 0.899622 0.688167 0.510859
O O1 0.163902 0.500000 0.401773
O O2 0.250000 0.750000 0.500000
O O3 0.127377 0.735273 0.438562
O O4 0.096220 0.735987 0.249653
O O5 0.003940 0.500000 0.099324
O O6 0.940130 0.760539 0.063542
O O7 0.000000 0.733162 0.000000
O O8 0.623875 0.500000 0.948720
O O9 0.617996 0.228835 0.873050
O O10 0.716145 0.272713 0.116974
O O11 0.640765 0.272577 0.754019
O O12 0.493489 0.227876 0.620136
O O13 0.595530 0.000000 0.746523
O O14 0.843565 0.764717 0.373872
O O15 0.783961 0.000000 0.218611
O O16 0.893059 0.500000 0.496633
#
# Coordination Sequence:
#
# PCOD9215329 Si02
#       6
#     8   8   8   8   8   8
#     4  10  22  41  64  94 128 165 206 255 313 372
#     4  10  22  43  68  94 126 166 210 257 316 375
#     4  12  25  42  65  94 129 167 213 261 314 374
#     4  11  22  43  69  92 126 168 211 259 319 376
#     4  12  26  41  62  94 130 167 213 262 313 373
#     4  10  22  42  65  91 128 169 209 257 316 376
#
# _framework density 19.438773000000001
#
# number of rings (size 3 to 8) (size 9 to 14) (size 15 to 20)
#    0.000    1.167    1.667    4.500    2.333    5.000 
#    0.000    0.000    0.000    0.000    0.000    0.000 
#    0.000    0.000    0.000    0.000    0.000    0.000 
#
# Total GULP energy -134279.004186 kJ/mol
# GULP energy per Si atom -5594.958508 kJ/mol
# Density = 1.939453 g / cm^3
# Si number density = 19.438773 Si / 1000 Ang^3
#
#
#
# Elastic Constant Matrix: (Units=GPa)
#
#
# Indices 1 2 3 4 5 6 
#
# 1 97.5046 7.0840 54.3307 0.0000 1.7202 0.0000
# 2 7.0840 22.9683 11.3748 0.0000 0.7069 0.0000
# 3 54.3307 11.3748 146.1714 0.0000 -1.5265 0.0000
# 4 0.0000 0.0000 0.0000 24.2004 0.0000 12.4635
# 5 1.7202 0.7069 -1.5265 0.0000 40.8518 0.0000
# 6 0.0000 0.0000 0.0000 12.4635 0.0000 26.6599
#
#
#
# Elastic Compliance Matrix: (Units=1/GPa)
#
#
# Indices 1 2 3 4 5 6 
#
# 1 0.013017 -0.001657 -0.004716 0.000000 -0.000696 0.000000
# 2 -0.001657 0.045529 -0.002936 0.000000 -0.000828 0.000000
# 3 -0.004716 -0.002936 0.008829 0.000000 0.000579 0.000000
# 4 0.000000 0.000000 0.000000 0.054426 0.000000 -0.025444
# 5 -0.000696 -0.000828 0.000579 0.000000 0.024544 0.000000
# 6 0.000000 0.000000 0.000000 -0.025444 0.000000 0.049405
#
#
# Mechanical properties :
#
#
# Convention : Reuss Voigt Hill
#
# Bulk Modulus (GPa) = 20.51062 45.80257 33.15660
# Shear Modulus (GPa) = 21.68078 31.26606 26.47342
#
# Velocity S-wave (km/s) = 3.34329 4.01488 3.69438
# Velocity P-wave (km/s) = 5.04755 6.71610 5.94070
#
# Compressibility (1/GPa) = 0.04875523
#
# Stress axis : x y z
#
# Youngs Moduli (GPa) = 76.82440 21.96418 113.26506
#
# Poissons Ratio (x) = 0.03641 0.53421
# Poissons Ratio (y) = 0.12734 0.33249
# Poissons Ratio (z) = 0.36234 0.06448
#
# Static dielectric constant tensor:
#      x y z
#    x 1.640230 0.000000 -0.004750 
#    y 0.000000 1.678190 0.000000 
#    z -0.004750 0.000000 1.652540 
# 
# From -- ./inp_files/295882.got.cif
#   From: 2010.05.17/outbox.cif.g08.bks.cpg/sg12_148_cif.got.tgz:295882.got - 2010.06.03 13:09:07.
