data_PCOD9215415
_publ_section_title
;
Structure prediction by ZEFSAII (Michael W. Deem and Ramdas Pophale) SiO2 
 PCOD9215415
Probable space group: C 2/M
;
_chemical_formula_sum "Si O2"
_cell_formula_units_Z 40
_cell_length_a 10.303625
_cell_length_b 15.030793
_cell_length_c 11.357701
_cell_angle_alpha 90.000000
_cell_angle_beta 77.318353
_cell_angle_gamma 90.000000
_cell_volume 1716.075334
_symmetry_space_group_name_H-M "C 2/M"
_symmetry_group_IT_number 12
_symmetry_cell_setting 'monoclinic'
loop_
_space_group_symop_operation_xyz
x,y,z
-x,y,-z
-x,-y,-z
x,-y,z
1/2+x,1/2+y,z
1/2-x,1/2+y,-z
1/2-x,1/2-y,-z
1/2+x,1/2-y,z
loop_
_atom_site_type_symbol
_atom_site_label
_atom_site_fract_x
_atom_site_fract_y
_atom_site_fract_z
Si Si1 0.453673 0.325775 0.730333
Si Si2 0.375344 0.500000 0.115839
Si Si3 0.735992 0.500000 0.612504
Si Si4 0.127410 0.500000 0.885884
Si Si5 0.292461 0.649770 0.976063
Si Si6 0.237629 0.301295 0.377435
Si Si7 0.176502 0.000000 0.354108
O O1 0.426435 0.343776 0.873261
O O2 0.607546 0.303680 0.689096
O O3 0.359483 0.249635 0.693082
O O4 0.402518 0.413087 0.672635
O O5 0.368694 0.500000 0.257331
O O6 0.500000 0.500000 0.000000
O O7 0.299161 0.589186 0.089834
O O8 0.808457 0.404449 0.605441
O O9 0.678061 0.500000 0.493514
O O10 0.197150 0.591506 0.912191
O O11 0.174550 0.500000 0.737347
O O12 0.000000 0.500000 0.000000
O O13 0.250000 0.750000 0.000000
O O14 0.250000 0.250000 0.500000
#
# Coordination Sequence:
#
# PCOD9215415 Si02
#       7
#     8   4   4   4   8   8   4
#     4  11  24  45  70 103 142 183 242 294 356 435
#     4  11  23  42  66 100 129 176 237 294 343 413
#     4  12  24  43  69  98 147 184 238 297 357 432
#     4   9  21  40  66  94 130 172 231 289 338 425
#     4  10  22  41  65  95 132 180 225 281 356 419
#     4  12  25  43  69 103 141 187 237 295 358 430
#     4  10  22  43  70 101 135 195 237 285 370 433
#
# _framework density 23.309000999999999
#
# number of rings (size 3 to 8) (size 9 to 14) (size 15 to 20)
#    0.000    1.200    2.000    4.200    0.000    4.800 
#    0.000    3.000    0.000    0.000    0.000    0.000 
#    0.000    0.000    0.000    0.000    0.000    0.000 
#
# Total GULP energy -111636.075106 kJ/mol
# GULP energy per Si atom -5581.803755 kJ/mol
# Density = 2.325595 g / cm^3
# Si number density = 23.309001 Si / 1000 Ang^3
#
#
#
# Elastic Constant Matrix: (Units=GPa)
#
#
# Indices 1 2 3 4 5 6 
#
# 1 68.3006 41.7658 28.0593 0.0000 -7.5669 0.0000
# 2 41.7658 225.9413 39.1528 0.0000 14.7641 0.0000
# 3 28.0593 39.1528 173.3745 0.0000 0.5636 0.0000
# 4 0.0000 0.0000 0.0000 27.5990 0.0000 1.7964
# 5 -7.5669 14.7641 0.5636 0.0000 45.7174 0.0000
# 6 0.0000 0.0000 0.0000 1.7964 0.0000 32.7464
#
#
#
# Elastic Compliance Matrix: (Units=1/GPa)
#
#
# Indices 1 2 3 4 5 6 
#
# 1 0.017947 -0.003201 -0.002195 0.000000 0.004031 0.000000
# 2 -0.003201 0.005279 -0.000667 0.000000 -0.002226 0.000000
# 3 -0.002195 -0.000667 0.006274 0.000000 -0.000225 0.000000
# 4 0.000000 0.000000 0.000000 0.036363 0.000000 -0.001995
# 5 0.004031 -0.002226 -0.000225 0.000000 0.023262 0.000000
# 6 0.000000 0.000000 0.000000 -0.001995 0.000000 0.030647
#
#
# Mechanical properties :
#
#
# Convention : Reuss Voigt Hill
#
# Bulk Modulus (GPa) = 57.55357 76.17471 66.86414
# Shear Modulus (GPa) = 36.31392 45.12180 40.71786
#
# Velocity S-wave (km/s) = 3.95135 4.40456 4.18409
# Velocity P-wave (km/s) = 6.75002 7.65625 7.21737
#
# Compressibility (1/GPa) = 0.01737512
#
# Stress axis : x y z
#
# Youngs Moduli (GPa) = 55.72098 189.44499 159.37777
#
# Poissons Ratio (x) = 0.60632 0.34981
# Poissons Ratio (y) = 0.17834 0.10628
# Poissons Ratio (z) = 0.12230 0.12633
#
# Static dielectric constant tensor:
#      x y z
#    x 1.945840 0.000000 -0.055670 
#    y 0.000000 1.927270 0.000000 
#    z -0.055670 0.000000 1.944680 
# 
# From -- ./inp_files/129658.got.cif
#   From: 2010.05.17/outbox.cif.g08.bks.cpg/sg12_65_cif.got.tgz:129658.got - 2010.06.03 13:09:07.
