data_PCOD9215204
_publ_section_title
;
Structure prediction by ZEFSAII (Michael W. Deem and Ramdas Pophale) SiO2 
 PCOD9215204
Probable space group: C 2/M
;
_chemical_formula_sum "Si O2"
_cell_formula_units_Z 48
_cell_length_a 10.436767
_cell_length_b 26.932682
_cell_length_c 8.512170
_cell_angle_alpha 90.000000
_cell_angle_beta 106.200632
_cell_angle_gamma 90.000000
_cell_volume 2297.674801
_symmetry_space_group_name_H-M "C 2/M"
_symmetry_group_IT_number 12
_symmetry_cell_setting 'monoclinic'
loop_
_space_group_symop_operation_xyz
x,y,z
-x,y,-z
-x,-y,-z
x,-y,z
1/2+x,1/2+y,z
1/2-x,1/2+y,-z
1/2-x,1/2-y,-z
1/2+x,1/2-y,z
loop_
_atom_site_type_symbol
_atom_site_label
_atom_site_fract_x
_atom_site_fract_y
_atom_site_fract_z
Si Si1 0.856328 0.252377 0.895405
Si Si2 0.084646 0.055916 0.893355
Si Si3 0.285754 0.173384 0.352013
Si Si4 0.314653 0.057774 0.753311
Si Si5 0.946071 0.657131 0.730308
Si Si6 0.108817 0.910303 0.422644
O O1 0.796436 0.221375 0.729187
O O2 0.888453 0.307722 0.845814
O O3 0.750000 0.250000 0.000000
O O4 0.000000 0.231484 0.000000
O O5 0.222914 0.074941 0.869398
O O6 0.982382 0.054484 0.713156
O O7 0.116222 0.000000 0.958874
O O8 0.000000 0.082176 0.000000
O O9 0.361208 0.172364 0.545663
O O10 0.400890 0.166249 0.261823
O O11 0.184309 0.127858 0.336596
O O12 0.425310 0.099260 0.762671
O O13 0.216793 0.062568 0.568496
O O14 0.354321 0.000000 0.785099
O O15 0.000000 0.883989 0.500000
#
# Coordination Sequence:
#
# PCOD9215204 Si02
#       6
#     8   8   8   8   8   8
#     4  12  25  43  65  93 124 165 208 263 317 372
#     4   9  17  30  49  80 117 155 200 250 302 357
#     4  10  22  41  63  89 125 163 204 254 314 374
#     4   9  18  35  61  86 118 161 205 252 304 363
#     4  10  22  43  62  91 127 165 210 257 310 376
#     4   9  18  33  55  86 117 153 203 249 305 362
#
# _framework density 20.890684
#
# number of rings (size 3 to 8) (size 9 to 14) (size 15 to 20)
#    0.000    2.167    1.667    1.000    0.000    8.000 
#    3.000    7.500    0.000    0.500    0.000    0.000 
#    0.000    0.000    0.000    0.000    0.000    0.000 
#
# Total GULP energy -133764.142601 kJ/mol
# GULP energy per Si atom -5573.505942 kJ/mol
# Density = 2.084314 g / cm^3
# Si number density = 20.890684 Si / 1000 Ang^3
#
#
#
# Elastic Constant Matrix: (Units=GPa)
#
#
# Indices 1 2 3 4 5 6 
#
# 1 114.5611 53.5333 26.7793 0.0000 -8.9278 0.0000
# 2 53.5333 110.3060 19.3865 0.0000 -4.0595 0.0000
# 3 26.7793 19.3865 39.9506 0.0000 -13.1045 0.0000
# 4 0.0000 0.0000 0.0000 14.1794 0.0000 -4.5090
# 5 -8.9278 -4.0595 -13.1045 0.0000 32.6271 0.0000
# 6 0.0000 0.0000 0.0000 -4.5090 0.0000 21.4527
#
#
#
# Elastic Compliance Matrix: (Units=1/GPa)
#
#
# Indices 1 2 3 4 5 6 
#
# 1 0.012456 -0.005015 -0.005761 0.000000 0.000470 0.000000
# 2 -0.005015 0.011949 -0.002763 0.000000 -0.000995 0.000000
# 3 -0.005761 -0.002763 0.034096 0.000000 0.011774 0.000000
# 4 0.000000 0.000000 0.000000 0.075576 0.000000 0.015885
# 5 0.000470 -0.000995 0.011774 0.000000 0.035383 0.000000
# 6 0.000000 0.000000 0.000000 0.015885 0.000000 0.049953
#
#
# Mechanical properties :
#
#
# Convention : Reuss Voigt Hill
#
# Bulk Modulus (GPa) = 31.82571 51.57955 41.70263
# Shear Modulus (GPa) = 19.45785 24.65974 22.05880
#
# Velocity S-wave (km/s) = 3.05522 3.43945 3.25301
# Velocity P-wave (km/s) = 5.26434 6.36529 5.84081
#
# Compressibility (1/GPa) = 0.03142114
#
# Stress axis : x y z
#
# Youngs Moduli (GPa) = 80.28309 83.69186 29.32920
#
# Poissons Ratio (x) = 0.41973 0.16898
# Poissons Ratio (y) = 0.40263 0.08104
# Poissons Ratio (z) = 0.46254 0.23124
#
# Static dielectric constant tensor:
#      x y z
#    x 1.750560 0.000000 -0.023850 
#    y 0.000000 1.723370 0.000000 
#    z -0.023850 0.000000 1.792180 
# 
# From -- ./inp_files/52792.got.cif
#   From: 2010.05.17/outbox.cif.g08.bks.cpg/sg12_27_cif.got.tgz:52792.got - 2010.06.03 13:09:07.
