data_PCOD9215272
_publ_section_title
;
Structure prediction by ZEFSAII (Michael W. Deem and Ramdas Pophale) SiO2 
 PCOD9215272
Probable space group: C 2/M
;
_chemical_formula_sum "Si O2"
_cell_formula_units_Z 48
_cell_length_a 19.538372
_cell_length_b 13.809303
_cell_length_c 18.636973
_cell_angle_alpha 90.000000
_cell_angle_beta 25.885850
_cell_angle_gamma 90.000000
_cell_volume 2195.325713
_symmetry_space_group_name_H-M "C 2/M"
_symmetry_group_IT_number 12
_symmetry_cell_setting 'monoclinic'
loop_
_space_group_symop_operation_xyz
x,y,z
-x,y,-z
-x,-y,-z
x,-y,z
1/2+x,1/2+y,z
1/2-x,1/2+y,-z
1/2-x,1/2-y,-z
1/2+x,1/2-y,z
loop_
_atom_site_type_symbol
_atom_site_label
_atom_site_fract_x
_atom_site_fract_y
_atom_site_fract_z
Si Si1 0.135504 0.614368 0.214093
Si Si2 0.332579 0.892422 0.119175
Si Si3 0.767386 0.884068 0.939031
Si Si4 0.631253 0.613553 0.571504
Si Si5 0.788481 0.309540 0.565115
Si Si6 0.312068 0.308455 0.183106
O O1 0.110555 0.500000 0.230141
O O2 0.241866 0.633360 0.183010
O O3 0.967952 0.662037 0.383878
O O4 0.214248 0.654206 0.066582
O O5 0.343430 0.863587 0.024764
O O6 0.248340 0.801843 0.234746
O O7 0.259491 0.000000 0.192194
O O8 0.500000 0.898903 0.000000
O O9 0.945425 0.864657 0.747276
O O10 0.762703 0.000000 0.952426
O O11 0.657908 0.500000 0.528741
O O12 0.689689 0.637124 0.596751
O O13 0.719933 0.693036 0.439115
O O14 0.735770 0.341845 0.693205
O O15 0.500000 0.307518 0.000000
#
# Coordination Sequence:
#
# PCOD9215272 Si02
#       6
#     8   8   8   8   8   8
#     4  11  24  41  63  89 120 159 202 252 302 352
#     4   9  19  36  60  90 121 153 194 246 298 351
#     4   9  19  38  63  89 117 156 202 243 296 361
#     4  10  22  41  64  90 124 161 197 246 302 356
#     4  11  24  39  60  92 122 157 205 248 297 358
#     4  11  24  40  60  88 122 161 204 248 298 359
#
# _framework density 21.864636999999998
#
# number of rings (size 3 to 8) (size 9 to 14) (size 15 to 20)
#    0.000    1.833    0.000    3.000    0.000   11.000 
#    0.000    3.333    0.000    5.000    0.000    0.000 
#    0.000    0.000    0.000    0.000    0.000    0.000 
#
# Total GULP energy -134060.155481 kJ/mol
# GULP energy per Si atom -5585.839812 kJ/mol
# Density = 2.181487 g / cm^3
# Si number density = 21.864637 Si / 1000 Ang^3
#
#
#
# Elastic Constant Matrix: (Units=GPa)
#
#
# Indices 1 2 3 4 5 6 
#
# 1 145.0798 0.6882 41.7372 -0.0018 3.2889 0.0009
# 2 0.6882 88.4285 7.8258 -0.0039 -7.5536 0.0030
# 3 41.7372 7.8258 41.8355 -0.0039 -1.9989 0.0032
# 4 -0.0018 -0.0039 -0.0039 17.8017 0.0002 -4.2142
# 5 3.2889 -7.5536 -1.9989 0.0002 27.5360 -0.0003
# 6 0.0009 0.0030 0.0032 -4.2142 -0.0003 40.6467
#
#
#
# Elastic Compliance Matrix: (Units=1/GPa)
#
#
# Indices 1 2 3 4 5 6 
#
# 1 0.009800 0.000661 -0.009983 -0.000001 -0.001714 0.000000
# 2 0.000661 0.011797 -0.002725 0.000002 0.002960 0.000000
# 3 -0.009983 -0.002725 0.034513 0.000006 0.002950 -0.000002
# 4 -0.000001 0.000002 0.000006 0.057588 0.000001 0.005971
# 5 -0.001714 0.002960 0.002950 0.000001 0.037547 0.000000
# 6 0.000000 0.000000 -0.000002 0.005971 0.000000 0.025221
#
#
# Mechanical properties :
#
#
# Convention : Reuss Voigt Hill
#
# Bulk Modulus (GPa) = 31.23295 41.76068 36.49681
# Shear Modulus (GPa) = 23.67058 32.20308 27.93683
#
# Velocity S-wave (km/s) = 3.29385 3.84192 3.57840
# Velocity P-wave (km/s) = 5.36485 6.23070 5.81392
#
# Compressibility (1/GPa) = 0.03201747
#
# Stress axis : x y z
#
# Youngs Moduli (GPa) = 102.03686 84.76475 28.97449
#
# Poissons Ratio (x) = -0.05601 0.28925
# Poissons Ratio (y) = -0.06742 0.07895
# Poissons Ratio (z) = 1.01862 0.23095
#
# Static dielectric constant tensor:
#      x y z
#    x 1.809670 0.000000 -0.002010 
#    y 0.000000 1.869940 0.000000 
#    z -0.002010 0.000000 1.764690 
# 
# From -- ./inp_files/278026.got.cif
#   From: 2010.05.17/outbox.cif.g08.bks.cpg/sg12_140_cif.got.tgz:278026.got - 2010.06.03 13:09:07.
