data_PCOD9215477
_publ_section_title
;
Structure prediction by ZEFSAII (Michael W. Deem and Ramdas Pophale) SiO2 
 PCOD9215477
Probable space group: C 2/M
;
_chemical_formula_sum "Si O2"
_cell_formula_units_Z 64
_cell_length_a 10.033648
_cell_length_b 27.919663
_cell_length_c 15.044673
_cell_angle_alpha 90.000000
_cell_angle_beta 42.255619
_cell_angle_gamma 90.000000
_cell_volume 2834.033215
_symmetry_space_group_name_H-M "C 2/M"
_symmetry_group_IT_number 12
_symmetry_cell_setting 'monoclinic'
loop_
_space_group_symop_operation_xyz
x,y,z
-x,y,-z
-x,-y,-z
x,-y,z
1/2+x,1/2+y,z
1/2-x,1/2+y,-z
1/2-x,1/2-y,-z
1/2+x,1/2-y,z
loop_
_atom_site_type_symbol
_atom_site_label
_atom_site_fract_x
_atom_site_fract_y
_atom_site_fract_z
Si Si1 0.656562 0.588390 0.856237
Si Si2 0.880855 0.173049 0.648845
Si Si3 0.228646 0.648406 0.910709
Si Si4 0.557440 0.866899 0.689900
Si Si5 0.442990 0.553369 0.805522
Si Si6 0.502047 0.303822 0.098013
Si Si7 0.407437 0.782760 0.637555
Si Si8 0.642010 0.446662 0.516212
O O1 0.636440 0.562040 0.772305
O O2 0.575831 0.641849 0.876107
O O3 0.866802 0.599075 0.796663
O O4 0.500000 0.564869 0.000000
O O5 0.873867 0.155879 0.753993
O O6 0.663372 0.155365 0.723488
O O7 0.958807 0.227266 0.622733
O O8 0.000000 0.158115 0.500000
O O9 0.283736 0.593934 0.909563
O O10 0.292780 0.687693 0.952899
O O11 0.000000 0.653343 0.000000
O O12 0.487467 0.820178 0.669853
O O13 0.707150 0.902390 0.564031
O O14 0.366169 0.500000 0.858809
O O15 0.510740 0.556882 0.669764
O O16 0.331536 0.280676 0.241466
O O17 0.500000 0.282047 0.000000
O O18 0.500000 0.799753 0.500000
O O19 0.500000 0.445342 0.500000
O O20 0.737466 0.500000 0.469741
#
# Coordination Sequence:
#
# PCOD9215477 Si02
#       8
#     8   8   8   8   8   8   8   8
#     4   9  21  39  63  89 127 171 218 266 328 392
#     4  11  26  43  64 100 136 173 228 283 335 406
#     4  11  25  41  70  98 132 182 229 274 337 412
#     4  11  23  39  72  93 135 179 220 275 345 395
#     4  10  22  41  66  95 133 169 215 281 339 399
#     4   9  21  43  65  87 132 174 219 275 333 394
#     4  10  25  40  67  97 131 176 228 279 338 401
#     4  10  22  42  66  99 135 170 218 276 341 409
#
# _framework density 22.582656
#
# number of rings (size 3 to 8) (size 9 to 14) (size 15 to 20)
#    0.000    1.875    0.000    1.875   15.750    2.500 
#    0.000    2.500    0.000    0.000    0.000    0.000 
#    0.000    0.000    0.000    0.000    0.000    0.000 
#
# Total GULP energy -178346.607814 kJ/mol
# GULP energy per Si atom -5573.331494 kJ/mol
# Density = 2.253126 g / cm^3
# Si number density = 22.582656 Si / 1000 Ang^3
#
#
#
# Elastic Constant Matrix: (Units=GPa)
#
#
# Indices 1 2 3 4 5 6 
#
# 1 92.1974 9.3038 30.7127 0.0000 7.0034 0.0000
# 2 9.3038 75.7866 7.0357 0.0000 6.5147 0.0000
# 3 30.7127 7.0357 85.2490 0.0000 9.5850 0.0000
# 4 0.0000 0.0000 0.0000 48.6596 0.0000 9.1600
# 5 7.0034 6.5147 9.5850 0.0000 33.9505 0.0000
# 6 0.0000 0.0000 0.0000 9.1600 0.0000 12.5492
#
#
#
# Elastic Compliance Matrix: (Units=1/GPa)
#
#
# Indices 1 2 3 4 5 6 
#
# 1 0.012463 -0.001033 -0.004274 0.000000 -0.001166 0.000000
# 2 -0.001033 0.013561 -0.000494 0.000000 -0.002250 0.000000
# 3 -0.004274 -0.000494 0.013634 0.000000 -0.002873 0.000000
# 4 0.000000 0.000000 0.000000 0.023825 0.000000 -0.017390
# 5 -0.001166 -0.002250 -0.002873 0.000000 0.030938 0.000000
# 6 0.000000 0.000000 0.000000 -0.017390 0.000000 0.092380
#
#
# Mechanical properties :
#
#
# Convention : Reuss Voigt Hill
#
# Bulk Modulus (GPa) = 35.64281 38.59303 37.11792
# Shear Modulus (GPa) = 24.06695 32.77722 28.42208
#
# Velocity S-wave (km/s) = 3.26809 3.81390 3.55150
# Velocity P-wave (km/s) = 5.48252 6.04328 5.76972
#
# Compressibility (1/GPa) = 0.02805615
#
# Stress axis : x y z
#
# Youngs Moduli (GPa) = 80.23920 73.74078 73.34724
#
# Poissons Ratio (x) = 0.07617 0.31346
# Poissons Ratio (y) = 0.08289 0.03624
# Poissons Ratio (z) = 0.34291 0.03644
#
# Static dielectric constant tensor:
#      x y z
#    x 1.919730 0.000000 -0.068480 
#    y 0.000000 1.860060 0.000000 
#    z -0.068480 0.000000 2.073880 
# 
# From -- ./inp_files/201282.got.cif
#   From: 2010.05.17/outbox.cif.g08.bks.cpg/sg12_101_cif.got.tgz:201282.got - 2010.06.03 13:09:07.
