data_PCOD9215054
_publ_section_title
;
Structure prediction by ZEFSAII (Michael W. Deem and Ramdas Pophale) SiO2 
 PCOD9215054
Probable space group: C 2/M
;
_chemical_formula_sum "Si O2"
_cell_formula_units_Z 44
_cell_length_a 26.016591
_cell_length_b 13.452573
_cell_length_c 7.624000
_cell_angle_alpha 90.000000
_cell_angle_beta 51.391349
_cell_angle_gamma 90.000000
_cell_volume 2085.098803
_symmetry_space_group_name_H-M "C 2/M"
_symmetry_group_IT_number 12
_symmetry_cell_setting 'monoclinic'
loop_
_space_group_symop_operation_xyz
x,y,z
-x,y,-z
-x,-y,-z
x,-y,z
1/2+x,1/2+y,z
1/2-x,1/2+y,-z
1/2-x,1/2-y,-z
1/2+x,1/2-y,z
loop_
_atom_site_type_symbol
_atom_site_label
_atom_site_fract_x
_atom_site_fract_y
_atom_site_fract_z
Si Si1 0.317664 0.500000 0.084307
Si Si2 0.593249 0.714847 0.654521
Si Si3 0.997348 0.609518 0.293448
Si Si4 0.256253 0.000000 0.412683
Si Si5 0.861523 0.666728 0.111420
Si Si6 0.821159 0.204154 0.874855
Si Si7 0.395297 0.500000 0.260886
O O1 0.256354 0.500000 0.350684
O O2 0.380292 0.500000 0.083857
O O3 0.316597 0.595612 0.966354
O O4 0.539187 0.796671 0.715202
O O5 0.632273 0.759141 0.737576
O O6 0.640064 0.705984 0.387974
O O7 0.571684 0.602675 0.749409
O O8 0.966290 0.500000 0.325675
O O9 0.000000 0.621153 0.500000
O O10 0.070051 0.609002 0.056327
O O11 0.299046 0.904949 0.267070
O O12 0.181014 0.000000 0.503184
O O13 0.856182 0.728940 0.945766
O O14 0.750000 0.250000 0.000000
#
# Coordination Sequence:
#
# PCOD9215054 Si02
#       7
#     4   8   8   4   8   8   4
#     4  10  23  47  67 100 148 186 232 291 358 421
#     4  12  25  44  73 101 142 190 241 292 352 428
#     4  11  25  48  72 106 144 188 240 295 358 423
#     4  10  22  40  74 101 147 188 225 299 351 422
#     4  12  23  44  70 107 143 185 242 291 355 424
#     4  12  25  42  70 103 143 187 235 296 358 423
#     4  10  23  45  69 103 141 188 240 285 351 424
#
# _framework density 21.102117
#
# number of rings (size 3 to 8) (size 9 to 14) (size 15 to 20)
#    0.545    0.182    4.545    3.273    1.273    3.636 
#    1.636    3.182    0.000    0.000    0.000    0.000 
#    0.000    0.000    0.000    0.000    0.000    0.000 
#
# Total GULP energy -123003.013970 kJ/mol
# GULP energy per Si atom -5591.046090 kJ/mol
# Density = 2.105409 g / cm^3
# Si number density = 21.102117 Si / 1000 Ang^3
#
#
#
# Elastic Constant Matrix: (Units=GPa)
#
#
# Indices 1 2 3 4 5 6 
#
# 1 75.5157 59.8838 23.2660 0.0000 14.1246 0.0000
# 2 59.8838 185.9386 32.9457 0.0000 4.5529 0.0000
# 3 23.2660 32.9457 119.9258 0.0000 16.6614 0.0000
# 4 0.0000 0.0000 0.0000 34.0386 0.0000 -0.2041
# 5 14.1246 4.5529 16.6614 0.0000 42.1782 0.0000
# 6 0.0000 0.0000 0.0000 -0.2041 0.0000 52.1753
#
#
#
# Elastic Compliance Matrix: (Units=1/GPa)
#
#
# Indices 1 2 3 4 5 6 
#
# 1 0.019288 -0.005834 -0.001407 0.000000 -0.005274 0.000000
# 2 -0.005834 0.007418 -0.001128 0.000000 0.001598 0.000000
# 3 -0.001407 -0.001128 0.009352 0.000000 -0.003102 0.000000
# 4 0.000000 0.000000 0.000000 0.029379 0.000000 0.000115
# 5 -0.005274 0.001598 -0.003102 0.000000 0.026528 0.000000
# 6 0.000000 0.000000 0.000000 0.000115 0.000000 0.019167
#
#
# Mechanical properties :
#
#
# Convention : Reuss Voigt Hill
#
# Bulk Modulus (GPa) = 51.75656 68.17456 59.96556
# Shear Modulus (GPa) = 37.22774 43.36406 40.29590
#
# Velocity S-wave (km/s) = 4.20476 4.53809 4.37460
# Velocity P-wave (km/s) = 6.93926 7.73538 7.34811
#
# Compressibility (1/GPa) = 0.01932122
#
# Stress axis : x y z
#
# Youngs Moduli (GPa) = 51.84537 134.81364 106.92676
#
# Poissons Ratio (x) = 0.78645 0.15041
# Poissons Ratio (y) = 0.30245 0.12062
# Poissons Ratio (z) = 0.07293 0.15208
#
# Static dielectric constant tensor:
#      x y z
#    x 1.763970 0.000000 -0.007260 
#    y 0.000000 1.775810 0.000000 
#    z -0.007260 0.000000 1.731190 
# 
# From -- ./inp_files/103040.got.cif
#   From: 2010.05.17/outbox.cif.g08.bks.cpg/sg12_52_cif.got.tgz:103040.got - 2010.06.03 13:09:07.
