data_PCOD9215115
_publ_section_title
;
Structure prediction by ZEFSAII (Michael W. Deem and Ramdas Pophale) SiO2 
 PCOD9215115
Probable space group: C 2/M
;
_chemical_formula_sum "Si O2"
_cell_formula_units_Z 24
_cell_length_a 7.857350
_cell_length_b 13.821352
_cell_length_c 15.038621
_cell_angle_alpha 90.000000
_cell_angle_beta 36.489808
_cell_angle_gamma 90.000000
_cell_volume 971.220445
_symmetry_space_group_name_H-M "C 2/M"
_symmetry_group_IT_number 12
_symmetry_cell_setting 'monoclinic'
loop_
_space_group_symop_operation_xyz
x,y,z
-x,y,-z
-x,-y,-z
x,-y,z
1/2+x,1/2+y,z
1/2-x,1/2+y,-z
1/2-x,1/2-y,-z
1/2+x,1/2-y,z
loop_
_atom_site_type_symbol
_atom_site_label
_atom_site_fract_x
_atom_site_fract_y
_atom_site_fract_z
Si Si1 0.562000 0.115657 0.193536
Si Si2 0.669468 0.610447 0.102516
Si Si3 0.459458 0.274171 0.672499
O O1 0.651225 0.169871 0.245905
O O2 0.251709 0.158816 0.296291
O O3 0.553114 0.000000 0.204252
O O4 0.770030 0.142417 0.024326
O O5 0.566212 0.500000 0.143602
O O6 0.509595 0.669254 0.246669
O O7 0.000000 0.608914 0.000000
O O8 0.750000 0.250000 0.500000
#
# Coordination Sequence:
#
# PCOD9215115 Si02
#       3
#     8   8   8
#     4  10  22  41  62  84 115 155 196 237 283 341
#     4   8  16  34  59  82 109 151 195 234 281 338
#     4  11  21  34  58  89 119 151 188 237 293 343
#
# _framework density 24.711178
#
# number of rings (size 3 to 8) (size 9 to 14) (size 15 to 20)
#    0.000    2.333    0.000    5.000    0.000    4.000 
#    0.000    3.333    0.000   23.000    0.000    0.000 
#    0.000    0.000    0.000    0.000    0.000    0.000 
#
# Total GULP energy -67127.678768 kJ/mol
# GULP energy per Si atom -5593.973231 kJ/mol
# Density = 2.465493 g / cm^3
# Si number density = 24.711178 Si / 1000 Ang^3
#
#
#
# Elastic Constant Matrix: (Units=GPa)
#
#
# Indices 1 2 3 4 5 6 
#
# 1 113.6810 21.2565 28.0114 -0.0124 8.0877 -0.0012
# 2 21.2565 161.6028 74.0405 -0.0067 -0.4546 0.0011
# 3 28.0114 74.0405 221.1689 -0.0047 -12.1006 -0.0013
# 4 -0.0124 -0.0067 -0.0047 -3.3393 0.0069 -19.1625
# 5 8.0877 -0.4546 -12.1006 0.0069 32.9812 0.0014
# 6 -0.0012 0.0011 -0.0013 -19.1625 0.0014 31.1057
#
#
#
# Elastic Compliance Matrix: (Units=1/GPa)
#
#
# Indices 1 2 3 4 5 6 
#
# 1 0.009397 -0.000745 -0.001089 -0.000009 -0.002714 -0.000005
# 2 -0.000745 0.007390 -0.002412 -0.000002 -0.000601 -0.000001
# 3 -0.001089 -0.002412 0.005592 0.000001 0.002286 0.000001
# 4 -0.000009 -0.000002 0.000001 -0.066032 0.000018 -0.040678
# 5 -0.002714 -0.000601 0.002286 0.000018 0.031816 0.000010
# 6 -0.000005 -0.000001 0.000001 -0.040678 0.000010 0.007089
#
#
# Mechanical properties :
#
#
# Convention : Reuss Voigt Hill
#
# Bulk Modulus (GPa) = 72.01413 82.56328 77.28871
# Shear Modulus (GPa) = 597.10616 37.02579 317.06598
#
# Velocity S-wave (km/s) = 15.56145 3.87504 11.33963
# Velocity P-wave (km/s) = 18.76389 7.31472 14.24059
#
# Compressibility (1/GPa) = 0.01388616
#
# Stress axis : x y z
#
# Youngs Moduli (GPa) = 106.41332 135.32700 178.82580
#
# Poissons Ratio (x) = 0.10076 0.19482
# Poissons Ratio (y) = 0.07923 0.43139
# Poissons Ratio (z) = 0.11593 0.32645
#
# Static dielectric constant tensor:
#      x y z
#    x 2.251070 0.000000 -0.086570 
#    y 0.000000 1.970880 0.000000 
#    z -0.086570 0.000000 1.896490 
# 
# From -- ./inp_files/44377.got.cif
#   From: 2010.05.17/outbox.cif.g08.bks.cpg/sg12_23_cif.got.tgz:44377.got - 2010.06.03 13:09:07.
