data_PCOD9215324
_publ_section_title
;
Structure prediction by ZEFSAII (Michael W. Deem and Ramdas Pophale) SiO2 
 PCOD9215324
Probable space group: C 2/M
;
_chemical_formula_sum "Si O2"
_cell_formula_units_Z 48
_cell_length_a 14.406495
_cell_length_b 21.630837
_cell_length_c 8.723518
_cell_angle_alpha 90.000000
_cell_angle_beta 129.335840
_cell_angle_gamma 90.000000
_cell_volume 2102.578002
_symmetry_space_group_name_H-M "C 2/M"
_symmetry_group_IT_number 12
_symmetry_cell_setting 'monoclinic'
loop_
_space_group_symop_operation_xyz
x,y,z
-x,y,-z
-x,-y,-z
x,-y,z
1/2+x,1/2+y,z
1/2-x,1/2+y,-z
1/2-x,1/2-y,-z
1/2+x,1/2-y,z
loop_
_atom_site_type_symbol
_atom_site_label
_atom_site_fract_x
_atom_site_fract_y
_atom_site_fract_z
Si Si1 0.380348 0.431022 0.167850
Si Si2 0.992761 0.672045 0.171763
Si Si3 0.842866 0.904028 0.474598
Si Si4 0.623976 0.261660 0.530739
Si Si5 0.781035 0.338816 0.169019
Si Si6 0.369595 0.930061 0.520894
O O1 0.353450 0.500000 0.078444
O O2 0.322816 0.425025 0.277832
O O3 0.522388 0.423787 0.340967
O O4 0.333785 0.375149 0.013528
O O5 0.862111 0.679939 0.109100
O O6 0.082078 0.721375 0.342750
O O7 0.034770 0.604818 0.273249
O O8 0.000000 0.676692 0.000000
O O9 0.835610 0.829872 0.466615
O O10 0.751057 0.928746 0.503215
O O11 0.500000 0.266942 0.500000
O O12 0.721107 0.222004 0.727597
O O13 0.849695 0.388436 0.349320
O O14 0.400403 0.000000 0.516855
#
# Coordination Sequence:
#
# PCOD9215324 Si02
#       6
#     8   8   8   8   8   8
#     4  11  22  39  63  94 128 169 214 258 311 372
#     4  10  22  41  64  94 121 161 211 267 317 374
#     4  11  22  40  61  92 126 172 209 260 310 370
#     4   9  19  42  62  90 129 162 214 254 320 370
#     4  10  23  40  64  91 126 167 206 266 314 376
#     4  11  23  40  62  90 127 168 209 257 315 377
#
# _framework density 22.829117
#
# number of rings (size 3 to 8) (size 9 to 14) (size 15 to 20)
#    0.000    1.667    1.667    5.000    0.000    6.333 
#    6.000    1.667    0.000    0.000    0.000    0.000 
#    0.000    0.000    0.000    0.000    0.000    0.000 
#
# Total GULP energy -134363.397825 kJ/mol
# GULP energy per Si atom -5598.474909 kJ/mol
# Density = 2.277716 g / cm^3
# Si number density = 22.829117 Si / 1000 Ang^3
#
#
#
# Elastic Constant Matrix: (Units=GPa)
#
#
# Indices 1 2 3 4 5 6 
#
# 1 86.7469 13.8947 18.0502 0.0000 -23.1455 0.0000
# 2 13.8947 164.9880 23.2581 0.0000 -2.6297 0.0000
# 3 18.0502 23.2581 86.2625 0.0000 -12.3316 0.0000
# 4 0.0000 0.0000 0.0000 13.6442 0.0000 -16.3969
# 5 -23.1455 -2.6297 -12.3316 0.0000 28.6693 0.0000
# 6 0.0000 0.0000 0.0000 -16.3969 0.0000 -5.9981
#
#
#
# Elastic Compliance Matrix: (Units=1/GPa)
#
#
# Indices 1 2 3 4 5 6 
#
# 1 0.014998 -0.000903 -0.001253 0.000000 0.011487 0.000000
# 2 -0.000903 0.006356 -0.001647 0.000000 -0.000855 0.000000
# 3 -0.001253 -0.001647 0.012927 0.000000 0.004398 0.000000
# 4 0.000000 0.000000 0.000000 0.017103 0.000000 -0.046755
# 5 0.011487 -0.000855 0.004398 0.000000 0.045967 0.000000
# 6 0.000000 0.000000 0.000000 -0.046755 0.000000 -0.038906
#
#
# Mechanical properties :
#
#
# Convention : Reuss Voigt Hill
#
# Bulk Modulus (GPa) = 37.48782 49.82262 43.65522
# Shear Modulus (GPa) = 66.71709 26.11602 46.41655
#
# Velocity S-wave (km/s) = 5.41184 3.38594 4.51401
# Velocity P-wave (km/s) = 7.45033 6.09571 6.80680
#
# Compressibility (1/GPa) = 0.02667533
#
# Stress axis : x y z
#
# Youngs Moduli (GPa) = 66.67581 157.34038 77.35521
#
# Poissons Ratio (x) = 0.14214 0.09690
# Poissons Ratio (y) = 0.06024 0.12739
# Poissons Ratio (z) = 0.08352 0.25910
#
# Static dielectric constant tensor:
#      x y z
#    x 1.852110 0.000000 0.016280 
#    y 0.000000 1.833040 0.000000 
#    z 0.016280 0.000000 1.828290 
# 
# From -- ./inp_files/77669.got.cif
#   From: 2010.05.17/outbox.cif.g08.bks.cpg/sg12_39_cif.got.tgz:77669.got - 2010.06.03 13:09:07.
