data_PCOD9215309
_publ_section_title
;
Structure prediction by ZEFSAII (Michael W. Deem and Ramdas Pophale) SiO2 
 PCOD9215309
Probable space group: C 2/M
;
_chemical_formula_sum "Si O2"
_cell_formula_units_Z 42
_cell_length_a 18.432757
_cell_length_b 7.946062
_cell_length_c 14.626154
_cell_angle_alpha 90.000000
_cell_angle_beta 133.474589
_cell_angle_gamma 90.000000
_cell_volume 1554.595108
_symmetry_space_group_name_H-M "C 2/M"
_symmetry_group_IT_number 12
_symmetry_cell_setting 'monoclinic'
loop_
_space_group_symop_operation_xyz
x,y,z
-x,y,-z
-x,-y,-z
x,-y,z
1/2+x,1/2+y,z
1/2-x,1/2+y,-z
1/2-x,1/2-y,-z
1/2+x,1/2-y,z
loop_
_atom_site_type_symbol
_atom_site_label
_atom_site_fract_x
_atom_site_fract_y
_atom_site_fract_z
Si Si1 0.644252 0.691592 0.809855
Si Si2 0.796531 0.192270 0.798314
Si Si3 0.061583 0.205006 0.924229
Si Si4 0.000000 0.500000 0.500000
Si Si5 0.847724 0.690900 0.660118
Si Si6 0.917011 0.185944 0.535821
O O1 0.682149 0.500000 0.840393
O O2 0.708122 0.798869 0.795100
O O3 0.636300 0.754762 0.906719
O O4 0.529654 0.687718 0.677186
O O5 0.775559 0.282845 0.684707
O O6 0.818315 0.000000 0.792370
O O7 0.890374 0.259527 0.938727
O O8 0.953946 0.271054 0.802334
O O9 0.057959 0.000000 0.921656
O O10 0.927020 0.350427 0.481466
O O11 0.848092 0.500000 0.629641
O O12 0.848827 0.799391 0.568672
O O13 0.904769 0.000000 0.482026
#
# Coordination Sequence:
#
# PCOD9215309 Si02
#       6
#     8   8   8   2   8   8
#     4   9  19  35  54  80 116 155 192 239 286 335
#     4  11  21  31  51  80 115 165 198 237 287 336
#     4   9  19  34  50  75 116 157 205 245 281 323
#     4  12  22  40  72  98 106 144 192 230 300 370
#     4  11  21  35  54  81 115 155 200 241 284 343
#     4  10  22  41  64  93 119 143 184 244 291 347
#
# _framework density 27.016680000000001
#
# number of rings (size 3 to 8) (size 9 to 14) (size 15 to 20)
#    0.000    1.905    0.952    4.857    1.333    4.571 
#    0.000    0.000    0.000    1.143    0.000    0.000 
#    0.000    0.000    0.000    0.000    0.000    0.000 
#
# Total GULP energy -117415.260773 kJ/mol
# GULP energy per Si atom -5591.202894 kJ/mol
# Density = 2.695519 g / cm^3
# Si number density = 27.016680 Si / 1000 Ang^3
#
#
#
# Elastic Constant Matrix: (Units=GPa)
#
#
# Indices 1 2 3 4 5 6 
#
# 1 146.2512 31.0789 11.9577 0.0000 -33.1425 0.0000
# 2 31.0789 144.0871 40.0755 0.0000 -20.0331 0.0000
# 3 11.9577 40.0755 145.5646 0.0000 -35.5422 0.0000
# 4 0.0000 0.0000 0.0000 18.7935 0.0000 -4.7482
# 5 -33.1425 -20.0331 -35.5422 0.0000 47.6538 0.0000
# 6 0.0000 0.0000 0.0000 -4.7482 0.0000 42.8589
#
#
#
# Elastic Compliance Matrix: (Units=1/GPa)
#
#
# Indices 1 2 3 4 5 6 
#
# 1 0.008417 -0.001281 0.001173 0.000000 0.006190 0.000000
# 2 -0.001281 0.007866 -0.001798 0.000000 0.001075 0.000000
# 3 0.001173 -0.001798 0.008905 0.000000 0.006701 0.000000
# 4 0.000000 0.000000 0.000000 0.054742 0.000000 0.006065
# 5 0.006190 0.001075 0.006701 0.000000 0.030739 0.000000
# 6 0.000000 0.000000 0.000000 0.006065 0.000000 0.024004
#
#
# Mechanical properties :
#
#
# Convention : Reuss Voigt Hill
#
# Bulk Modulus (GPa) = 46.78434 66.90302 56.84368
# Shear Modulus (GPa) = 34.33817 45.38062 39.85940
#
# Velocity S-wave (km/s) = 3.56897 4.10289 3.84521
# Velocity P-wave (km/s) = 5.85985 6.87476 6.38750
#
# Compressibility (1/GPa) = 0.02137468
#
# Stress axis : x y z
#
# Youngs Moduli (GPa) = 118.81352 127.12847 112.30052
#
# Poissons Ratio (x) = 0.16285 -0.13168
# Poissons Ratio (y) = 0.15220 0.20191
# Poissons Ratio (z) = -0.13932 0.22857
#
# Static dielectric constant tensor:
#      x y z
#    x 2.278490 0.000000 0.100740 
#    y 0.000000 1.991330 0.000000 
#    z 0.100740 0.000000 2.118270 
# 
# From -- ./inp_files/221124.got.cif
#   From: 2010.05.17/outbox.cif.g08.bks.cpg/sg12_111_cif.got.tgz:221124.got - 2010.06.03 13:09:07.
