data_PCOD9215084
_publ_section_title
;
Structure prediction by ZEFSAII (Michael W. Deem and Ramdas Pophale) SiO2 
 PCOD9215084
Probable space group: C 2/M
;
_chemical_formula_sum "Si O2"
_cell_formula_units_Z 48
_cell_length_a 13.193593
_cell_length_b 13.124419
_cell_length_c 28.978252
_cell_angle_alpha 90.000000
_cell_angle_beta 26.698353
_cell_angle_gamma 90.000000
_cell_volume 2254.474431
_symmetry_space_group_name_H-M "C 2/M"
_symmetry_group_IT_number 12
_symmetry_cell_setting 'monoclinic'
loop_
_space_group_symop_operation_xyz
x,y,z
-x,y,-z
-x,-y,-z
x,-y,z
1/2+x,1/2+y,z
1/2-x,1/2+y,-z
1/2-x,1/2-y,-z
1/2+x,1/2-y,z
loop_
_atom_site_type_symbol
_atom_site_label
_atom_site_fract_x
_atom_site_fract_y
_atom_site_fract_z
Si Si1 0.543069 0.256308 0.858321
Si Si2 0.817734 0.877477 0.032615
Si Si3 0.050082 0.613544 0.346467
Si Si4 0.681071 0.806512 0.387085
Si Si5 0.400619 0.383127 0.733257
Si Si6 0.529720 0.616721 0.572161
O O1 0.393603 0.202300 0.878961
O O2 0.768182 0.314507 0.750987
O O3 0.648609 0.158905 0.841379
O O4 0.418389 0.335015 0.943016
O O5 0.762447 0.000000 0.053371
O O6 0.000000 0.864950 0.000000
O O7 0.059640 0.500000 0.323016
O O8 0.129211 0.616229 0.367113
O O9 0.788060 0.646199 0.454714
O O10 0.500000 0.828223 0.500000
O O11 0.632002 0.694349 0.387704
O O12 0.927551 0.818487 0.306653
O O13 0.416387 0.500000 0.740967
O O14 0.480421 0.378800 0.646992
O O15 0.496570 0.500000 0.571245
#
# Coordination Sequence:
#
# PCOD9215084 Si02
#       6
#     8   8   8   8   8   8
#     4  11  23  42  70  93 124 160 206 265 317 375
#     4  10  24  47  71  94 121 157 202 258 329 394
#     4  11  22  38  61  93 129 170 214 260 307 361
#     4  12  22  36  60  89 130 175 216 255 302 355
#     4  11  23  39  63  93 128 172 214 254 306 369
#     4  10  22  41  60  88 134 177 214 257 303 356
#
# _framework density 21.290993
#
# number of rings (size 3 to 8) (size 9 to 14) (size 15 to 20)
#    0.000    1.167    3.333    3.000    2.333    1.000 
#    0.000    1.667    0.000    3.000    0.000    0.000 
#    0.000    0.000    0.000    0.000    0.000    0.000 
#
# Total GULP energy -133970.881797 kJ/mol
# GULP energy per Si atom -5582.120075 kJ/mol
# Density = 2.124253 g / cm^3
# Si number density = 21.290993 Si / 1000 Ang^3
#
#
#
# Elastic Constant Matrix: (Units=GPa)
#
#
# Indices 1 2 3 4 5 6 
#
# 1 67.4882 30.2735 -4.8187 0.0000 -23.1667 -0.0004
# 2 30.2735 129.0527 38.1565 0.0006 -16.0135 0.0010
# 3 -4.8187 38.1565 40.3091 0.0011 -8.0618 -0.0004
# 4 0.0000 0.0006 0.0011 15.5640 0.0005 25.5655
# 5 -23.1667 -16.0135 -8.0618 0.0005 31.9453 0.0000
# 6 -0.0004 0.0010 -0.0004 25.5655 0.0000 -1.3276
#
#
#
# Elastic Compliance Matrix: (Units=1/GPa)
#
#
# Indices 1 2 3 4 5 6 
#
# 1 0.025667 -0.007978 0.014263 0.000001 0.018214 -0.000001
# 2 -0.007978 0.013515 -0.014270 -0.000001 -0.002612 0.000001
# 3 0.014263 -0.014270 0.042820 0.000001 0.013997 -0.000003
# 4 0.000001 -0.000001 0.000001 0.001969 0.000000 0.037917
# 5 0.018214 -0.002612 0.013997 0.000000 0.046735 -0.000002
# 6 -0.000001 0.000001 -0.000003 0.037917 -0.000002 -0.023083
#
#
# Mechanical properties :
#
#
# Convention : Reuss Voigt Hill
#
# Bulk Modulus (GPa) = 15.14396 40.45251 27.79824
# Shear Modulus (GPa) = 34.33993 20.78558 27.56275
#
# Velocity S-wave (km/s) = 4.02043 3.12791 3.60192
# Velocity P-wave (km/s) = 5.35538 5.66446 5.51209
#
# Compressibility (1/GPa) = 0.06603294
#
# Stress axis : x y z
#
# Youngs Moduli (GPa) = 38.96097 73.99066 23.35345
#
# Poissons Ratio (x) = 0.59030 -0.33309
# Poissons Ratio (y) = 0.31083 0.33324
# Poissons Ratio (z) = -0.55570 1.05582
#
# Static dielectric constant tensor:
#      x y z
#    x 1.774150 0.000000 -0.007530 
#    y 0.000000 1.818900 0.000000 
#    z -0.007530 0.000000 1.809160 
# 
# From -- ./inp_files/358346.got.cif
#   From: 2010.05.17/outbox.cif.g08.bks.cpg/sg12_180_cif.got.tgz:358346.got - 2010.06.03 13:09:07.
