data_PCOD9215928
_publ_section_title
;
Structure prediction by ZEFSAII (Michael W. Deem and Ramdas Pophale) SiO2 
 PCOD9215928
Probable space group: C 2/M
;
_chemical_formula_sum "Si O2"
_cell_formula_units_Z 52
_cell_length_a 14.332848
_cell_length_b 15.272640
_cell_length_c 19.145875
_cell_angle_alpha 90.000000
_cell_angle_beta 147.991432
_cell_angle_gamma 90.000000
_cell_volume 2221.444423
_symmetry_space_group_name_H-M "C 2/M"
_symmetry_group_IT_number 12
_symmetry_cell_setting 'monoclinic'
loop_
_space_group_symop_operation_xyz
x,y,z
-x,y,-z
-x,-y,-z
x,-y,z
1/2+x,1/2+y,z
1/2-x,1/2+y,-z
1/2-x,1/2-y,-z
1/2+x,1/2-y,z
loop_
_atom_site_type_symbol
_atom_site_label
_atom_site_fract_x
_atom_site_fract_y
_atom_site_fract_z
Si Si1 0.494576 0.337114 0.274273
Si Si2 0.247170 0.854958 0.998028
Si Si3 0.200599 0.101655 0.127487
Si Si4 0.055810 0.000000 0.691306
Si Si5 0.751757 0.193718 0.385711
Si Si6 0.362444 0.749833 0.310198
Si Si7 0.885200 0.500000 0.995598
Si Si8 0.790048 0.000000 0.361452
O O1 0.435583 0.368757 0.160587
O O2 0.563890 0.415495 0.367492
O O3 0.611560 0.250610 0.339463
O O4 0.331165 0.306509 0.219717
O O5 0.250000 0.750000 0.000000
O O6 0.257768 0.887346 0.083588
O O7 0.390757 0.912573 0.046644
O O8 0.324296 0.153202 0.259571
O O9 0.195040 0.000000 0.142686
O O10 0.000000 0.137125 0.000000
O O11 0.193486 0.000000 0.713096
O O12 0.190317 0.000000 0.840362
O O13 0.743613 0.227169 0.300513
O O14 0.730084 0.089141 0.361367
O O15 0.942442 0.223313 0.537919
O O16 0.000000 0.500000 0.000000
O O17 0.000000 0.000000 0.500000
#
# Coordination Sequence:
#
# PCOD9215928 Si02
#       8
#     8   8   8   4   8   8   4   4
#     4  11  22  42  66  99 139 182 230 280 355 423
#     4  11  22  41  68  97 137 181 226 292 344 413
#     4  11  24  45  70  95 134 185 238 285 352 416
#     4  10  22  42  68  93 139 188 222 282 352 408
#     4  11  24  41  71 102 137 182 235 284 355 423
#     4  11  22  44  65  98 138 171 232 296 336 412
#     4  10  24  42  65 101 142 176 234 286 344 418
#     4  12  20  42  70  99 133 178 224 292 342 404
#
# _framework density 23.408193000000001
#
# number of rings (size 3 to 8) (size 9 to 14) (size 15 to 20)
#    0.000    1.077    5.385    1.385    0.000    1.846 
#    4.154    0.769    0.000    0.000    0.000    0.538 
#    0.000    0.000    0.000    0.000    0.000    0.000 
#
# Total GULP energy -144866.153287 kJ/mol
# GULP energy per Si atom -5571.775126 kJ/mol
# Density = 2.335491 g / cm^3
# Si number density = 23.408193 Si / 1000 Ang^3
#
#
#
# Elastic Constant Matrix: (Units=GPa)
#
#
# Indices 1 2 3 4 5 6 
#
# 1 126.2858 72.2873 17.9037 0.0015 -20.7898 0.0008
# 2 72.2873 196.9783 38.3580 0.0021 -8.9636 0.0012
# 3 17.9037 38.3580 94.7699 0.0028 -20.1530 0.0019
# 4 0.0015 0.0021 0.0028 26.0327 0.0014 -2.6558
# 5 -20.7898 -8.9636 -20.1530 0.0014 29.4819 0.0007
# 6 0.0008 0.0012 0.0019 -2.6558 0.0007 38.2531
#
#
#
# Elastic Compliance Matrix: (Units=1/GPa)
#
#
# Indices 1 2 3 4 5 6 
#
# 1 0.011296 -0.004016 0.001083 -0.000001 0.007485 0.000000
# 2 -0.004016 0.006939 -0.002578 0.000000 -0.002484 0.000000
# 3 0.001083 -0.002578 0.013323 -0.000002 0.009087 -0.000001
# 4 -0.000001 0.000000 -0.000002 0.038687 -0.000004 0.002686
# 5 0.007485 -0.002484 0.009087 -0.000004 0.044654 -0.000002
# 6 0.000000 0.000000 -0.000001 0.002686 -0.000002 0.026328
#
#
# Mechanical properties :
#
#
# Convention : Reuss Voigt Hill
#
# Bulk Modulus (GPa) = 48.69389 75.01466 61.85427
# Shear Modulus (GPa) = 31.42778 38.05256 34.74017
#
# Velocity S-wave (km/s) = 3.66812 4.03626 3.85659
# Velocity P-wave (km/s) = 6.22795 7.33742 6.80533
#
# Compressibility (1/GPa) = 0.02053646
#
# Stress axis : x y z
#
# Youngs Moduli (GPa) = 88.52849 144.10449 75.05656
#
# Poissons Ratio (x) = 0.57867 -0.08129
# Poissons Ratio (y) = 0.35550 0.19353
# Poissons Ratio (z) = -0.09588 0.37156
#
# Static dielectric constant tensor:
#      x y z
#    x 1.863870 0.000000 0.019430 
#    y 0.000000 2.033490 0.000000 
#    z 0.019430 0.000000 1.957530 
# 
# From -- ./inp_files/270790.got.cif
#   From: 2010.05.17/outbox.cif.g08.bks.cpg/sg12_136_cif.got.tgz:270790.got - 2010.06.03 13:09:07.
