data_PCOD9215588
_publ_section_title
;
Structure prediction by ZEFSAII (Michael W. Deem and Ramdas Pophale) SiO2 
 PCOD9215588
Probable space group: C 2/M
;
_chemical_formula_sum "Si O2"
_cell_formula_units_Z 42
_cell_length_a 11.909959
_cell_length_b 20.764591
_cell_length_c 9.218430
_cell_angle_alpha 90.000000
_cell_angle_beta 113.138282
_cell_angle_gamma 90.000000
_cell_volume 2096.381322
_symmetry_space_group_name_H-M "C 2/M"
_symmetry_group_IT_number 12
_symmetry_cell_setting 'monoclinic'
loop_
_space_group_symop_operation_xyz
x,y,z
-x,y,-z
-x,-y,-z
x,-y,z
1/2+x,1/2+y,z
1/2-x,1/2+y,-z
1/2-x,1/2-y,-z
1/2+x,1/2-y,z
loop_
_atom_site_type_symbol
_atom_site_label
_atom_site_fract_x
_atom_site_fract_y
_atom_site_fract_z
Si Si1 0.500000 0.500000 0.500000
Si Si2 0.187432 0.326728 0.316931
Si Si3 0.392717 0.611858 0.237355
Si Si4 0.863142 0.180886 0.684699
Si Si5 0.794332 0.927373 0.881760
Si Si6 0.988277 0.427408 0.168244
O O1 0.434331 0.556097 0.366808
O O2 0.267574 0.357015 0.229424
O O3 0.149209 0.253614 0.265393
O O4 0.273930 0.326169 0.501851
O O5 0.071617 0.372774 0.281039
O O6 0.498628 0.665241 0.289474
O O7 0.372186 0.584164 0.066407
O O8 0.826204 0.127020 0.782331
O O9 0.651954 0.922777 0.854275
O O10 0.816820 0.000000 0.836472
O O11 0.032270 0.500000 0.227450
O O12 0.000000 0.420852 0.000000
#
# Coordination Sequence:
#
# PCOD9215588 Si02
#       6
#     2   8   8   8   8   8
#     4  12  24  40  78 102 126 182 226 268 326 422
#     4  11  25  45  68  90 137 178 222 267 323 411
#     4  12  24  44  71  98 130 176 223 272 333 396
#     4  11  27  43  64 100 133 175 217 277 336 387
#     4  11  25  43  67 100 135 167 218 284 336 388
#     4  10  22  41  68  96 126 173 219 266 323 393
#
# _framework density 20.034523
#
# number of rings (size 3 to 8) (size 9 to 14) (size 15 to 20)
#    0.000    0.952    4.762    0.571    5.333    4.571 
#    0.000    1.905    0.000    0.000    0.000    0.000 
#    0.000    0.000    0.000    0.000    0.000    0.000 
#
# Total GULP energy -117194.489911 kJ/mol
# GULP energy per Si atom -5580.689996 kJ/mol
# Density = 1.998892 g / cm^3
# Si number density = 20.034523 Si / 1000 Ang^3
#
#
#
# Elastic Constant Matrix: (Units=GPa)
#
#
# Indices 1 2 3 4 5 6 
#
# 1 56.2683 43.2288 11.1387 0.0000 16.0225 0.0000
# 2 43.2288 157.5197 43.4945 0.0000 8.2304 0.0000
# 3 11.1387 43.4945 31.6154 0.0000 9.0147 0.0000
# 4 0.0000 0.0000 0.0000 -3.9099 0.0000 -33.7693
# 5 16.0225 8.2304 9.0147 0.0000 26.0910 0.0000
# 6 0.0000 0.0000 0.0000 -33.7693 0.0000 -46.0479
#
#
#
# Elastic Compliance Matrix: (Units=1/GPa)
#
#
# Indices 1 2 3 4 5 6 
#
# 1 0.027832 -0.008666 0.006888 0.000000 -0.016738 0.000000
# 2 -0.008666 0.013013 -0.016858 0.000000 0.007041 0.000000
# 3 0.006888 -0.016858 0.057777 0.000000 -0.018875 0.000000
# 4 0.000000 0.000000 0.000000 0.047951 0.000000 -0.035165
# 5 -0.016738 0.007041 -0.018875 0.000000 0.052907 0.000000
# 6 0.000000 0.000000 0.000000 -0.035165 0.000000 0.004072
#
#
# Mechanical properties :
#
#
# Convention : Reuss Voigt Hill
#
# Bulk Modulus (GPa) = 16.29915 49.01416 32.65666
# Shear Modulus (GPa) = 19.13717 5.06272 12.09995
#
# Velocity S-wave (km/s) = 3.09400 1.59138 2.46022
# Velocity P-wave (km/s) = 4.57351 5.28153 4.94022
#
# Compressibility (1/GPa) = 0.06135290
#
# Stress axis : x y z
#
# Youngs Moduli (GPa) = 35.92988 76.84383 17.30793
#
# Poissons Ratio (x) = 0.66589 -0.11923
# Poissons Ratio (y) = 0.31135 0.29177
# Poissons Ratio (z) = -0.24750 1.29541
#
# Static dielectric constant tensor:
#      x y z
#    x 1.703180 0.000000 -0.006390 
#    y 0.000000 1.683440 0.000000 
#    z -0.006390 0.000000 1.686000 
# 
# From -- ./inp_files/49470.got.cif
#   From: 2010.05.17/outbox.cif.g08.bks.cpg/sg12_25_cif.got.tgz:49470.got - 2010.06.03 13:09:07.
