data_PCOD9215395
_publ_section_title
;
Structure prediction by ZEFSAII (Michael W. Deem and Ramdas Pophale) SiO2 
 PCOD9215395
Probable space group: C 2/M
;
_chemical_formula_sum "Si O2"
_cell_formula_units_Z 60
_cell_length_a 32.018885
_cell_length_b 20.116604
_cell_length_c 15.203764
_cell_angle_alpha 90.000000
_cell_angle_beta 18.261956
_cell_angle_gamma 90.000000
_cell_volume 3068.727225
_symmetry_space_group_name_H-M "C 2/M"
_symmetry_group_IT_number 12
_symmetry_cell_setting 'monoclinic'
loop_
_space_group_symop_operation_xyz
x,y,z
-x,y,-z
-x,-y,-z
x,-y,z
1/2+x,1/2+y,z
1/2-x,1/2+y,-z
1/2-x,1/2-y,-z
1/2+x,1/2-y,z
loop_
_atom_site_type_symbol
_atom_site_label
_atom_site_fract_x
_atom_site_fract_y
_atom_site_fract_z
Si Si1 0.957955 0.345266 0.715433
Si Si2 0.323962 0.389579 0.778903
Si Si3 0.018156 0.116015 0.239501
Si Si4 0.000000 0.228425 0.500000
Si Si5 0.902404 0.924922 0.111390
Si Si6 0.267235 0.924125 0.850373
Si Si7 0.240549 0.210619 0.609297
Si Si8 0.495926 0.759642 0.214160
O O1 0.093038 0.384859 0.420837
O O2 0.946106 0.278405 0.681175
O O3 0.970611 0.320094 0.789038
O O4 0.822976 0.384625 0.967793
O O5 0.422937 0.415108 0.504743
O O6 0.387762 0.319088 0.682824
O O7 0.305067 0.425383 0.910108
O O8 0.971456 0.191988 0.318476
O O9 0.023618 0.084570 0.131097
O O10 0.166906 0.111837 0.983031
O O11 0.793413 0.866944 0.334988
O O12 0.849423 0.000000 0.220251
O O13 0.000000 0.916120 0.000000
O O14 0.289966 0.000000 0.775842
O O15 0.250000 0.250000 0.500000
O O16 0.371210 0.222083 0.404617
O O17 0.118493 0.241058 0.907585
#
# Coordination Sequence:
#
# PCOD9215395 Si02
#       8
#     8   8   8   4   8   8   8   8
#     4  12  24  38  62  88 128 167 206 266 315 385
#     4  12  23  39  62  92 124 163 212 268 317 373
#     4  11  22  39  64  92 122 159 210 268 313 380
#     4  12  22  38  64  90 122 156 212 260 326 368
#     4  10  22  41  65  93 128 171 213 257 320 392
#     4  12  26  43  59  86 126 176 216 255 319 385
#     4  11  22  40  66  98 131 162 205 272 325 384
#     4  11  22  37  63  96 127 156 208 256 328 377
#
# _framework density 19.55208
#
# number of rings (size 3 to 8) (size 9 to 14) (size 15 to 20)
#    0.000    0.667    4.000    5.200    1.867    2.667 
#    0.000    0.000    0.000    2.400    0.000    0.000 
#    0.000    0.000    0.000    0.000    0.000    0.000 
#
# Total GULP energy -167623.146204 kJ/mol
# GULP energy per Si atom -5587.438207 kJ/mol
# Density = 1.950758 g / cm^3
# Si number density = 19.552080 Si / 1000 Ang^3
#
#
#
# Elastic Constant Matrix: (Units=GPa)
#
#
# Indices 1 2 3 4 5 6 
#
# 1 145.9508 34.9267 47.0426 0.0001 -13.5801 -0.0001
# 2 34.9267 119.5093 40.8570 -0.0005 -10.4434 0.0001
# 3 47.0426 40.8570 106.5116 0.0002 -15.9043 -0.0001
# 4 0.0001 -0.0005 0.0002 12.7956 0.0001 2.0337
# 5 -13.5801 -10.4434 -15.9043 0.0001 38.0251 -0.0003
# 6 -0.0001 0.0001 -0.0001 2.0337 -0.0003 12.8947
#
#
#
# Elastic Compliance Matrix: (Units=1/GPa)
#
#
# Indices 1 2 3 4 5 6 
#
# 1 0.008233 -0.001282 -0.002942 0.000000 0.001358 0.000000
# 2 -0.001282 0.009879 -0.003079 0.000000 0.000968 0.000000
# 3 -0.002942 -0.003079 0.012358 0.000000 0.003272 0.000000
# 4 0.000000 0.000000 0.000000 0.080161 0.000000 -0.012643
# 5 0.001358 0.000968 0.003272 0.000000 0.028418 0.000001
# 6 0.000000 0.000000 0.000000 -0.012643 0.000001 0.079545
#
#
# Mechanical properties :
#
#
# Convention : Reuss Voigt Hill
#
# Bulk Modulus (GPa) = 63.03257 68.62493 65.82875
# Shear Modulus (GPa) = 20.96545 29.35277 25.15911
#
# Velocity S-wave (km/s) = 3.27813 3.87881 3.59105
# Velocity P-wave (km/s) = 6.82909 7.43202 7.13693
#
# Compressibility (1/GPa) = 0.01586481
#
# Stress axis : x y z
#
# Youngs Moduli (GPa) = 121.46435 101.22139 80.92138
#
# Poissons Ratio (x) = 0.12973 0.23805
# Poissons Ratio (y) = 0.15568 0.24916
# Poissons Ratio (z) = 0.35732 0.31167
#
# Static dielectric constant tensor:
#      x y z
#    x 1.690990 0.000000 0.023440 
#    y 0.000000 2.148650 0.000000 
#    z 0.023440 0.000000 1.669600 
# 
# From -- ./inp_files/251838.got.cif
#   From: 2010.05.17/outbox.cif.g08.bks.cpg/sg12_126_cif.got.tgz:251838.got - 2010.06.03 13:09:07.
