data_PCOD9215067
_publ_section_title
;
Structure prediction by ZEFSAII (Michael W. Deem and Ramdas Pophale) SiO2 
 PCOD9215067
Probable space group: C 2/M
;
_chemical_formula_sum "Si O2"
_cell_formula_units_Z 48
_cell_length_a 14.693463
_cell_length_b 10.632778
_cell_length_c 15.241280
_cell_angle_alpha 90.000000
_cell_angle_beta 103.431994
_cell_angle_gamma 90.000000
_cell_volume 2316.046630
_symmetry_space_group_name_H-M "C 2/M"
_symmetry_group_IT_number 12
_symmetry_cell_setting 'monoclinic'
loop_
_space_group_symop_operation_xyz
x,y,z
-x,y,-z
-x,-y,-z
x,-y,z
1/2+x,1/2+y,z
1/2-x,1/2+y,-z
1/2-x,1/2-y,-z
1/2+x,1/2-y,z
loop_
_atom_site_type_symbol
_atom_site_label
_atom_site_fract_x
_atom_site_fract_y
_atom_site_fract_z
Si Si1 0.542531 0.357061 0.382602
Si Si2 0.592219 0.146882 0.908227
Si Si3 0.205015 0.135000 0.539822
Si Si4 0.711827 0.272391 0.293049
Si Si5 0.595107 0.143338 0.711247
Si Si6 0.630323 0.148139 0.104813
O O1 0.506092 0.500000 0.360665
O O2 0.596699 0.356586 0.488356
O O3 0.625583 0.329505 0.329154
O O4 0.470785 0.243088 0.352537
O O5 0.607762 0.194656 0.813700
O O6 0.480767 0.151961 0.899544
O O7 0.619290 0.000000 0.911352
O O8 0.640530 0.197894 0.007236
O O9 0.250000 0.250000 0.500000
O O10 0.242904 0.153063 0.645840
O O11 0.237474 0.000000 0.513496
O O12 0.802075 0.360659 0.306999
O O13 0.678892 0.229304 0.190266
O O14 0.555862 0.000000 0.705148
O O15 0.657515 0.000000 0.115094
#
# Coordination Sequence:
#
# PCOD9215067 Si02
#       6
#     8   8   8   8   8   8
#     4  10  22  41  59  81 119 157 190 241 295 342
#     4   8  16  32  54  84 116 151 193 237 284 342
#     4   9  20  37  59  87 119 155 196 240 291 345
#     4  11  21  35  60  89 117 151 192 242 295 346
#     4  11  23  39  61  88 117 155 199 240 286 349
#     4   9  16  30  57  86 115 152 193 236 287 348
#
# _framework density 20.724971
#
# number of rings (size 3 to 8) (size 9 to 14) (size 15 to 20)
#    0.000    2.333    1.667    2.000    0.000    6.000 
#    0.000    2.500    0.000    3.000    0.000    0.000 
#    0.000    0.000    0.000    0.000    0.000    0.000 
#
# Total GULP energy -133709.741612 kJ/mol
# GULP energy per Si atom -5571.239234 kJ/mol
# Density = 2.067780 g / cm^3
# Si number density = 20.724971 Si / 1000 Ang^3
#
#
#
# Elastic Constant Matrix: (Units=GPa)
#
#
# Indices 1 2 3 4 5 6 
#
# 1 63.6081 28.1675 3.4133 0.0000 2.6204 0.0000
# 2 28.1675 116.9006 49.8446 0.0000 13.4355 0.0000
# 3 3.4133 49.8446 118.1914 0.0000 19.6370 0.0000
# 4 0.0000 0.0000 0.0000 20.3620 0.0000 -2.8550
# 5 2.6204 13.4355 19.6370 0.0000 25.0383 0.0000
# 6 0.0000 0.0000 0.0000 -2.8550 0.0000 15.2307
#
#
#
# Elastic Compliance Matrix: (Units=1/GPa)
#
#
# Indices 1 2 3 4 5 6 
#
# 1 0.017844 -0.004947 0.001656 0.000000 -0.000512 0.000000
# 2 -0.004947 0.011936 -0.004499 0.000000 -0.002359 0.000000
# 3 0.001656 -0.004499 0.011427 0.000000 -0.006721 0.000000
# 4 0.000000 0.000000 0.000000 0.050437 0.000000 0.009454
# 5 -0.000512 -0.002359 -0.006721 0.000000 0.046529 0.000000
# 6 0.000000 0.000000 0.000000 0.009454 0.000000 0.067429
#
#
# Mechanical properties :
#
#
# Convention : Reuss Voigt Hill
#
# Bulk Modulus (GPa) = 39.02116 51.28343 45.15230
# Shear Modulus (GPa) = 21.76530 26.61118 24.18824
#
# Velocity S-wave (km/s) = 3.24419 3.58720 3.42000
# Velocity P-wave (km/s) = 5.73603 6.47733 6.11792
#
# Compressibility (1/GPa) = 0.02562712
#
# Stress axis : x y z
#
# Youngs Moduli (GPa) = 56.04098 83.78356 87.51210
#
# Poissons Ratio (x) = 0.41446 -0.14491
# Poissons Ratio (y) = 0.27722 0.39370
# Poissons Ratio (z) = -0.09280 0.37693
#
# Static dielectric constant tensor:
#      x y z
#    x 1.782840 0.000000 -0.035890 
#    y 0.000000 1.724980 0.000000 
#    z -0.035890 0.000000 1.806890 
# 
# From -- ./inp_files/212900.got.cif
#   From: 2010.05.17/outbox.cif.g08.bks.cpg/sg12_107_cif.got.tgz:212900.got - 2010.06.03 13:09:07.
