data_PCOD9215676
_publ_section_title
;
Structure prediction by ZEFSAII (Michael W. Deem and Ramdas Pophale) SiO2 
 PCOD9215676
Probable space group: C 2/M
;
_chemical_formula_sum "Si O2"
_cell_formula_units_Z 60
_cell_length_a 26.470357
_cell_length_b 15.096776
_cell_length_c 16.102088
_cell_angle_alpha 90.000000
_cell_angle_beta 27.187404
_cell_angle_gamma 90.000000
_cell_volume 2940.015573
_symmetry_space_group_name_H-M "C 2/M"
_symmetry_group_IT_number 12
_symmetry_cell_setting 'monoclinic'
loop_
_space_group_symop_operation_xyz
x,y,z
-x,y,-z
-x,-y,-z
x,-y,z
1/2+x,1/2+y,z
1/2-x,1/2+y,-z
1/2-x,1/2-y,-z
1/2+x,1/2-y,z
loop_
_atom_site_type_symbol
_atom_site_label
_atom_site_fract_x
_atom_site_fract_y
_atom_site_fract_z
Si Si1 0.520679 0.103628 0.837230
Si Si2 0.210523 0.000000 0.183445
Si Si3 0.796219 0.650168 0.926728
Si Si4 0.803170 0.722678 0.335813
Si Si5 0.875134 0.905679 0.151569
Si Si6 0.755116 0.351161 0.799148
Si Si7 0.261043 0.849621 0.228885
Si Si8 0.037427 0.395588 0.621047
O O1 0.588458 0.166112 0.799356
O O2 0.556445 0.125252 0.690258
O O3 0.543785 0.000000 0.819809
O O4 0.388977 0.118033 0.035306
O O5 0.190811 0.077545 0.284051
O O6 0.245070 0.079298 0.065781
O O7 0.774686 0.619828 0.863928
O O8 0.927627 0.653469 0.751463
O O9 0.750000 0.750000 0.000000
O O10 0.750000 0.750000 0.500000
O O11 0.828248 0.816405 0.257492
O O12 0.737635 0.667894 0.360831
O O13 0.852794 0.893598 0.086407
O O14 0.822144 0.000000 0.254525
O O15 0.000000 0.908576 0.000000
O O16 0.745673 0.244999 0.806630
O O17 0.858307 0.377300 0.589545
O O18 0.011392 0.500000 0.656357
#
# Coordination Sequence:
#
# PCOD9215676 Si02
#       8
#     8   4   8   8   8   8   8   8
#     4  11  20  37  62  92 121 163 215 259 322 399
#     4  12  22  42  64  95 131 170 224 278 325 393
#     4  12  23  41  65  97 131 172 224 277 326 394
#     4  11  24  37  58  92 124 162 208 266 326 399
#     4  10  22  42  62  85 125 167 211 263 318 390
#     4  11  23  37  63  96 126 172 214 272 341 386
#     4  11  21  41  60  90 128 166 209 270 330 383
#     4  11  22  39  63  98 135 163 215 285 336 385
#
# _framework density 20.408055999999998
#
# number of rings (size 3 to 8) (size 9 to 14) (size 15 to 20)
#    0.000    0.933    4.000    4.400    2.800    2.667 
#    0.000    0.000    0.000    1.600    0.000    0.000 
#    0.000    0.000    0.000    0.000    0.000    0.000 
#
# Total GULP energy -167004.316482 kJ/mol
# GULP energy per Si atom -5566.810549 kJ/mol
# Density = 2.036161 g / cm^3
# Si number density = 20.408056 Si / 1000 Ang^3
#
#
#
# Elastic Constant Matrix: (Units=GPa)
#
#
# Indices 1 2 3 4 5 6 
#
# 1 110.6236 44.7342 29.5945 0.0000 20.7272 0.0000
# 2 44.7342 129.2980 13.5979 0.0000 7.8628 0.0000
# 3 29.5945 13.5979 47.9079 0.0000 23.3082 0.0000
# 4 0.0000 0.0000 0.0000 22.1200 0.0000 8.3279
# 5 20.7272 7.8628 23.3082 0.0000 38.6467 0.0000
# 6 0.0000 0.0000 0.0000 8.3279 0.0000 -12.0716
#
#
#
# Elastic Compliance Matrix: (Units=1/GPa)
#
#
# Indices 1 2 3 4 5 6 
#
# 1 0.012420 -0.003571 -0.005338 0.000000 -0.002716 0.000000
# 2 -0.003571 0.009002 -0.000552 0.000000 0.000416 0.000000
# 3 -0.005338 -0.000552 0.032382 0.000000 -0.016555 0.000000
# 4 0.000000 0.000000 0.000000 0.035887 0.000000 0.024758
# 5 -0.002716 0.000416 -0.016555 0.000000 0.037231 0.000000
# 6 0.000000 0.000000 0.000000 0.024758 0.000000 -0.065760
#
#
# Mechanical properties :
#
#
# Convention : Reuss Voigt Hill
#
# Bulk Modulus (GPa) = 28.66717 51.52030 40.09373
# Shear Modulus (GPa) = 54.51858 23.06588 38.79223
#
# Velocity S-wave (km/s) = 5.17419 3.36554 4.36458
# Velocity P-wave (km/s) = 7.05505 6.35629 6.71477
#
# Compressibility (1/GPa) = 0.03488311
#
# Stress axis : x y z
#
# Youngs Moduli (GPa) = 80.51270 111.08436 30.88172
#
# Poissons Ratio (x) = 0.39665 0.16484
# Poissons Ratio (y) = 0.28748 0.01705
# Poissons Ratio (z) = 0.42977 0.06132
#
# Static dielectric constant tensor:
#      x y z
#    x 1.814080 0.000000 0.036410 
#    y 0.000000 1.722270 0.000000 
#    z 0.036410 0.000000 1.749550 
# 
# From -- ./inp_files/246689.got.cif
#   From: 2010.05.17/outbox.cif.g08.bks.cpg/sg12_124_cif.got.tgz:246689.got - 2010.06.03 13:09:07.
