data_PCOD9215016
_publ_section_title
;
Structure prediction by ZEFSAII (Michael W. Deem and Ramdas Pophale) SiO2 
 PCOD9215016
Probable space group: C 2/M
;
_chemical_formula_sum "Si O2"
_cell_formula_units_Z 44
_cell_length_a 25.160046
_cell_length_b 12.423305
_cell_length_c 14.269455
_cell_angle_alpha 90.000000
_cell_angle_beta 149.837035
_cell_angle_gamma 90.000000
_cell_volume 2241.085814
_symmetry_space_group_name_H-M "C 2/M"
_symmetry_group_IT_number 12
_symmetry_cell_setting 'monoclinic'
loop_
_space_group_symop_operation_xyz
x,y,z
-x,y,-z
-x,-y,-z
x,-y,z
1/2+x,1/2+y,z
1/2-x,1/2+y,-z
1/2-x,1/2-y,-z
1/2+x,1/2-y,z
loop_
_atom_site_type_symbol
_atom_site_label
_atom_site_fract_x
_atom_site_fract_y
_atom_site_fract_z
Si Si1 0.412373 0.270322 0.984563
Si Si2 0.688780 0.128615 0.009212
Si Si3 0.352485 0.000000 0.567009
Si Si4 0.618147 0.500000 0.131212
Si Si5 0.401417 0.000000 0.426448
Si Si6 0.364437 0.210200 0.703924
Si Si7 0.878208 0.711483 0.294983
O O1 0.375434 0.196155 0.012195
O O2 0.371155 0.391366 0.912353
O O3 0.376911 0.209152 0.835059
O O4 0.538778 0.284965 0.179345
O O5 0.804627 0.183977 0.188945
O O6 0.689788 0.000000 0.024260
O O7 0.638547 0.158728 0.832450
O O8 0.409933 0.000000 0.552616
O O9 0.383048 0.898798 0.676370
O O10 0.224115 0.000000 0.357192
O O11 0.500000 0.500000 0.000000
O O12 0.500000 0.000000 0.500000
O O13 0.348001 0.885885 0.319562
O O14 0.250000 0.250000 0.500000
O O15 0.000000 0.739050 0.500000
#
# Coordination Sequence:
#
# PCOD9215016 Si02
#       7
#     8   8   4   4   4   8   8
#     4  11  25  40  67  94 132 170 219 268 330 389
#     4  11  25  43  65  98 135 168 217 282 335 390
#     4  12  24  37  71  91 135 175 215 275 333 390
#     4  12  20  46  65  92 127 179 223 268 307 405
#     4  10  22  40  68 101 121 171 237 269 315 401
#     4  11  24  41  61  98 129 170 218 264 328 394
#     4  10  23  43  69  95 128 174 225 273 330 400
#
# _framework density 19.633338999999999
#
# number of rings (size 3 to 8) (size 9 to 14) (size 15 to 20)
#    0.000    1.091    4.545    1.091    7.636    1.091 
#    1.636    0.000    4.000    0.000    0.000    0.000 
#    0.000    0.000    0.000    0.000    0.000    0.000 
#
# Total GULP energy -122716.776977 kJ/mol
# GULP energy per Si atom -5578.035317 kJ/mol
# Density = 1.958865 g / cm^3
# Si number density = 19.633339 Si / 1000 Ang^3
#
#
#
# Elastic Constant Matrix: (Units=GPa)
#
#
# Indices 1 2 3 4 5 6 
#
# 1 99.3145 50.8372 20.4368 0.0000 -1.5580 0.0000
# 2 50.8372 136.2821 27.7876 0.0000 -19.5984 0.0000
# 3 20.4368 27.7876 109.5169 0.0000 18.5201 0.0000
# 4 0.0000 0.0000 0.0000 29.8392 0.0000 1.3983
# 5 -1.5580 -19.5984 18.5201 0.0000 30.0516 0.0000
# 6 0.0000 0.0000 0.0000 1.3983 0.0000 17.2497
#
#
#
# Elastic Compliance Matrix: (Units=1/GPa)
#
#
# Indices 1 2 3 4 5 6 
#
# 1 0.012690 -0.004864 -0.000791 0.000000 -0.002026 0.000000
# 2 -0.004864 0.011184 -0.003484 0.000000 0.009188 0.000000
# 3 -0.000791 -0.003484 0.011782 0.000000 -0.009574 0.000000
# 4 0.000000 0.000000 0.000000 0.033641 0.000000 -0.002727
# 5 -0.002026 0.009188 -0.009574 0.000000 0.045063 0.000000
# 6 0.000000 0.000000 0.000000 -0.002727 0.000000 0.058193
#
#
# Mechanical properties :
#
#
# Convention : Reuss Voigt Hill
#
# Bulk Modulus (GPa) = 57.54603 60.35963 58.95283
# Shear Modulus (GPa) = 25.42945 31.83157 28.63051
#
# Velocity S-wave (km/s) = 3.60282 4.03091 3.82286
# Velocity P-wave (km/s) = 6.83235 7.24393 7.04115
#
# Compressibility (1/GPa) = 0.01737739
#
# Stress axis : x y z
#
# Youngs Moduli (GPa) = 78.80410 89.41547 84.87795
#
# Poissons Ratio (x) = 0.43489 0.06716
# Poissons Ratio (y) = 0.38328 0.29570
# Poissons Ratio (z) = 0.06236 0.31151
#
# Static dielectric constant tensor:
#      x y z
#    x 1.799650 0.000000 0.029690 
#    y 0.000000 1.703580 0.000000 
#    z 0.029690 0.000000 1.697150 
# 
# From -- ./inp_files/245772.got.cif
#   From: 2010.05.17/outbox.cif.g08.bks.cpg/sg12_123_cif.got.tgz:245772.got - 2010.06.03 13:09:07.
