data_PCOD9215876
_publ_section_title
;
Structure prediction by ZEFSAII (Michael W. Deem and Ramdas Pophale) SiO2 
 PCOD9215876
Probable space group: C 2/M
;
_chemical_formula_sum "Si O2"
_cell_formula_units_Z 32
_cell_length_a 9.418156
_cell_length_b 17.759928
_cell_length_c 10.943548
_cell_angle_alpha 90.000000
_cell_angle_beta 59.342078
_cell_angle_gamma 90.000000
_cell_volume 1574.629155
_symmetry_space_group_name_H-M "C 2/M"
_symmetry_group_IT_number 12
_symmetry_cell_setting 'monoclinic'
loop_
_space_group_symop_operation_xyz
x,y,z
-x,y,-z
-x,-y,-z
x,-y,z
1/2+x,1/2+y,z
1/2-x,1/2+y,-z
1/2-x,1/2-y,-z
1/2+x,1/2-y,z
loop_
_atom_site_type_symbol
_atom_site_label
_atom_site_fract_x
_atom_site_fract_y
_atom_site_fract_z
Si Si1 0.669543 0.585373 0.980848
Si Si2 0.149317 0.085613 0.282003
Si Si3 0.563591 0.727684 0.598472
Si Si4 0.992945 0.326948 0.149049
O O1 0.684890 0.500000 0.924666
O O2 0.841023 0.628396 0.887598
O O3 0.500000 0.618245 0.000000
O O4 0.651885 0.581077 0.134117
O O5 0.323775 0.125079 0.241577
O O6 0.998280 0.141540 0.376630
O O7 0.138845 0.000000 0.333649
O O8 0.500000 0.763702 0.500000
O O9 0.750000 0.750000 0.500000
O O10 0.509089 0.758937 0.754138
O O11 0.000000 0.308911 0.000000
#
# Coordination Sequence:
#
# PCOD9215876 Si02
#       4
#     8   8   8   8
#     4   9  19  35  62  99 132 163 213 274 322 374
#     4  10  22  42  67  93 127 173 218 262 319 388
#     4  12  26  45  63  97 134 172 211 271 323 382
#     4  10  22  42  69  96 126 172 218 265 318 386
#
# _framework density 20.322247000000001
#
# number of rings (size 3 to 8) (size 9 to 14) (size 15 to 20)
#    0.000    1.750    2.500    0.750    3.500    8.500 
#    0.000    0.000    0.000    3.750    0.000    0.000 
#    0.000    0.000    0.000    0.000    0.000    0.000 
#
# Total GULP energy -89145.892268 kJ/mol
# GULP energy per Si atom -5571.618267 kJ/mol
# Density = 2.027599 g / cm^3
# Si number density = 20.322247 Si / 1000 Ang^3
#
#
#
# Elastic Constant Matrix: (Units=GPa)
#
#
# Indices 1 2 3 4 5 6 
#
# 1 155.8116 54.4571 11.5178 0.0000 -11.2551 0.0000
# 2 54.4571 141.7916 58.6786 0.0000 -9.8969 0.0000
# 3 11.5178 58.6786 63.2025 0.0000 -3.9821 0.0000
# 4 0.0000 0.0000 0.0000 65.8556 0.0000 -7.5918
# 5 -11.2551 -9.8969 -3.9821 0.0000 36.7121 0.0000
# 6 0.0000 0.0000 0.0000 -7.5918 0.0000 19.9160
#
#
#
# Elastic Compliance Matrix: (Units=1/GPa)
#
#
# Indices 1 2 3 4 5 6 
#
# 1 0.007678 -0.003736 0.002169 0.000000 0.001582 0.000000
# 2 -0.003736 0.013411 -0.011694 0.000000 0.001201 0.000000
# 3 0.002169 -0.011694 0.026307 0.000000 0.000366 0.000000
# 4 0.000000 0.000000 0.000000 0.015883 0.000000 0.006054
# 5 0.001582 0.001201 0.000366 0.000000 0.028088 0.000000
# 6 0.000000 0.000000 0.000000 0.006054 0.000000 0.052519
#
#
# Mechanical properties :
#
#
# Convention : Reuss Voigt Hill
#
# Bulk Modulus (GPa) = 47.90832 67.79031 57.84932
# Shear Modulus (GPa) = 28.19040 40.24021 34.21530
#
# Velocity S-wave (km/s) = 3.72851 4.45467 4.10767
# Velocity P-wave (km/s) = 6.49317 7.73879 7.14318
#
# Compressibility (1/GPa) = 0.02087320
#
# Stress axis : x y z
#
# Youngs Moduli (GPa) = 130.24787 74.56619 38.01220
#
# Poissons Ratio (x) = 0.27857 -0.08245
# Poissons Ratio (y) = 0.48660 0.44453
# Poissons Ratio (z) = -0.28251 0.87201
#
# Static dielectric constant tensor:
#      x y z
#    x 1.667680 0.000000 -0.007050 
#    y 0.000000 1.762910 0.000000 
#    z -0.007050 0.000000 1.764310 
# 
# From -- ./inp_files/117843.got.cif
#   From: 2010.05.17/outbox.cif.g08.bks.cpg/sg12_59_cif.got.tgz:117843.got - 2010.06.03 13:09:07.
