data_PCOD9215850
_publ_section_title
;
Structure prediction by ZEFSAII (Michael W. Deem and Ramdas Pophale) SiO2 
 PCOD9215850
Probable space group: C 2/M
;
_chemical_formula_sum "Si O2"
_cell_formula_units_Z 28
_cell_length_a 10.903933
_cell_length_b 9.850345
_cell_length_c 14.542784
_cell_angle_alpha 90.000000
_cell_angle_beta 61.088311
_cell_angle_gamma 90.000000
_cell_volume 1367.325146
_symmetry_space_group_name_H-M "C 2/M"
_symmetry_group_IT_number 12
_symmetry_cell_setting 'monoclinic'
loop_
_space_group_symop_operation_xyz
x,y,z
-x,y,-z
-x,-y,-z
x,-y,z
1/2+x,1/2+y,z
1/2-x,1/2+y,-z
1/2-x,1/2-y,-z
1/2+x,1/2-y,z
loop_
_atom_site_type_symbol
_atom_site_label
_atom_site_fract_x
_atom_site_fract_y
_atom_site_fract_z
Si Si1 0.198634 0.000000 0.110236
Si Si2 0.913100 0.000000 0.125976
Si Si3 0.047729 0.500000 0.090100
Si Si4 0.321450 0.208316 0.206876
Si Si5 0.664980 0.338670 0.455557
O O1 0.243907 0.128343 0.153814
O O2 0.285889 0.000000 0.982628
O O3 0.035363 0.000000 0.157234
O O4 0.830680 0.862654 0.173131
O O5 0.000000 0.000000 0.000000
O O6 0.973878 0.633341 0.158228
O O7 0.000000 0.500000 0.000000
O O8 0.241850 0.185096 0.330544
O O9 0.500000 0.303409 0.500000
O O10 0.671139 0.500000 0.476594
O O11 0.750000 0.250000 0.500000
#
# Coordination Sequence:
#
# PCOD9215850 Si02
#       5
#     4   4   4   8   8
#     4  10  22  44  67  87 136 183 212 273 344 406
#     4  12  26  40  65 106 133 167 229 276 327 407
#     4   8  16  38  65  88 121 170 219 254 324 404
#     4  10  22  42  66  96 131 177 220 271 342 402
#     4  11  26  47  73 101 137 178 232 290 346 404
#
# _framework density 20.477938000000002
#
# number of rings (size 3 to 8) (size 9 to 14) (size 15 to 20)
#    0.000    2.000    2.857    2.571    6.000    5.143 
#    0.000    1.429    0.000    0.000    0.000    0.000 
#    0.000    0.000    0.000    0.000    0.000    0.000 
#
# Total GULP energy -78167.260869 kJ/mol
# GULP energy per Si atom -5583.375776 kJ/mol
# Density = 2.043133 g / cm^3
# Si number density = 20.477938 Si / 1000 Ang^3
#
#
#
# Elastic Constant Matrix: (Units=GPa)
#
#
# Indices 1 2 3 4 5 6 
#
# 1 108.2737 68.1346 41.5527 0.0000 -3.3994 0.0000
# 2 68.1346 188.8704 48.5978 0.0000 -2.1719 0.0000
# 3 41.5527 48.5978 140.9453 0.0000 -18.9293 0.0000
# 4 0.0000 0.0000 0.0000 31.1795 0.0000 2.2016
# 5 -3.3994 -2.1719 -18.9293 0.0000 14.1876 0.0000
# 6 0.0000 0.0000 0.0000 2.2016 0.0000 14.3836
#
#
#
# Elastic Compliance Matrix: (Units=1/GPa)
#
#
# Indices 1 2 3 4 5 6 
#
# 1 0.012635 -0.003927 -0.002492 0.000000 -0.000898 0.000000
# 2 -0.003927 0.007086 -0.001543 0.000000 -0.001914 0.000000
# 3 -0.002492 -0.001543 0.010050 0.000000 0.012576 0.000000
# 4 0.000000 0.000000 0.000000 0.032423 0.000000 -0.004963
# 5 -0.000898 -0.001914 0.012576 0.000000 0.086755 0.000000
# 6 0.000000 0.000000 0.000000 -0.004963 0.000000 0.070283
#
#
# Mechanical properties :
#
#
# Convention : Reuss Voigt Hill
#
# Bulk Modulus (GPa) = 72.20745 83.85108 78.02926
# Shear Modulus (GPa) = 20.85308 30.60375 25.72842
#
# Velocity S-wave (km/s) = 3.19457 3.87004 3.54841
# Velocity P-wave (km/s) = 6.99605 7.81060 7.41452
#
# Compressibility (1/GPa) = 0.01384899
#
# Stress axis : x y z
#
# Youngs Moduli (GPa) = 79.14357 141.11643 99.49854
#
# Poissons Ratio (x) = 0.55422 0.24790
# Poissons Ratio (y) = 0.31083 0.15349
# Poissons Ratio (z) = 0.19719 0.21769
#
# Static dielectric constant tensor:
#      x y z
#    x 1.815140 0.000000 -0.027940 
#    y 0.000000 1.702240 0.000000 
#    z -0.027940 0.000000 1.711730 
# 
# From -- ./inp_files/201806.got.cif
#   From: 2010.05.17/outbox.cif.g08.bks.cpg/sg12_101_cif.got.tgz:201806.got - 2010.06.03 13:09:07.
