data_PCOD9215238
_publ_section_title
;
Structure prediction by ZEFSAII (Michael W. Deem and Ramdas Pophale) SiO2 
 PCOD9215238
Probable space group: C 2/M
;
_chemical_formula_sum "Si O2"
_cell_formula_units_Z 42
_cell_length_a 18.070585
_cell_length_b 16.695616
_cell_length_c 6.741015
_cell_angle_alpha 90.000000
_cell_angle_beta 106.528332
_cell_angle_gamma 90.000000
_cell_volume 1949.724491
_symmetry_space_group_name_H-M "C 2/M"
_symmetry_group_IT_number 12
_symmetry_cell_setting 'monoclinic'
loop_
_space_group_symop_operation_xyz
x,y,z
-x,y,-z
-x,-y,-z
x,-y,z
1/2+x,1/2+y,z
1/2-x,1/2+y,-z
1/2-x,1/2-y,-z
1/2+x,1/2-y,z
loop_
_atom_site_type_symbol
_atom_site_label
_atom_site_fract_x
_atom_site_fract_y
_atom_site_fract_z
Si Si1 0.304938 0.820474 0.969216
Si Si2 0.944656 0.309200 0.793557
Si Si3 0.000000 0.000000 0.000000
Si Si4 0.713072 0.407822 0.575059
Si Si5 0.360357 0.093846 0.401298
Si Si6 0.451587 0.362259 0.655937
O O1 0.349116 0.860369 0.186758
O O2 0.250000 0.750000 0.000000
O O3 0.366232 0.790484 0.854180
O O4 0.252011 0.884219 0.812332
O O5 0.922690 0.364971 0.592713
O O6 0.979318 0.225159 0.747615
O O7 0.000000 0.348291 0.000000
O O8 0.962143 0.929322 0.829564
O O9 0.687841 0.500000 0.562863
O O10 0.778698 0.399639 0.457361
O O11 0.638233 0.355465 0.472481
O O12 0.376814 0.000000 0.384452
O O13 0.500000 0.386455 0.500000
#
# Coordination Sequence:
#
# PCOD9215238 Si02
#       6
#     8   8   2   8   8   8
#     4  11  23  41  68  98 127 177 225 273 336 399
#     4  11  26  43  66  98 137 173 222 285 334 401
#     4  12  26  44  60 102 138 176 224 268 328 400
#     4  10  22  41  63  96 131 168 218 278 319 396
#     4  10  23  44  69  97 132 175 227 279 339 397
#     4  12  26  44  67  98 139 180 223 268 338 407
#
# _framework density 21.541505999999998
#
# number of rings (size 3 to 8) (size 9 to 14) (size 15 to 20)
#    0.000    1.143    1.905    3.143    5.333    5.714 
#    0.000    0.952    0.000    0.000    0.000    0.000 
#    0.000    0.000    0.000    0.000    0.000    0.000 
#
# Total GULP energy -117241.342992 kJ/mol
# GULP energy per Si atom -5582.921095 kJ/mol
# Density = 2.149248 g / cm^3
# Si number density = 21.541506 Si / 1000 Ang^3
#
#
#
# Elastic Constant Matrix: (Units=GPa)
#
#
# Indices 1 2 3 4 5 6 
#
# 1 40.0999 4.9100 14.8295 0.0000 6.4666 0.0000
# 2 4.9100 80.5624 35.1498 0.0000 0.0614 0.0000
# 3 14.8295 35.1498 143.2784 0.0000 26.3224 0.0000
# 4 0.0000 0.0000 0.0000 37.8658 0.0000 7.5414
# 5 6.4666 0.0614 26.3224 0.0000 31.0410 0.0000
# 6 0.0000 0.0000 0.0000 7.5414 0.0000 17.7544
#
#
#
# Elastic Compliance Matrix: (Units=1/GPa)
#
#
# Indices 1 2 3 4 5 6 
#
# 1 0.026342 -0.000818 -0.001798 0.000000 -0.003961 0.000000
# 2 -0.000818 0.014234 -0.004067 0.000000 0.003591 0.000000
# 3 -0.001798 -0.004067 0.009586 0.000000 -0.007747 0.000000
# 4 0.000000 0.000000 0.000000 0.028850 0.000000 -0.012254
# 5 -0.003961 0.003591 -0.007747 0.000000 0.039603 0.000000
# 6 0.000000 0.000000 0.000000 -0.012254 0.000000 0.061529
#
#
# Mechanical properties :
#
#
# Convention : Reuss Voigt Hill
#
# Bulk Modulus (GPa) = 27.17664 41.52436 34.35050
# Shear Modulus (GPa) = 24.29834 31.26900 27.78367
#
# Velocity S-wave (km/s) = 3.36218 3.81408 3.59524
# Velocity P-wave (km/s) = 5.26457 6.22210 5.76326
#
# Compressibility (1/GPa) = 0.03679630
#
# Stress axis : x y z
#
# Youngs Moduli (GPa) = 37.96274 70.25249 104.31384
#
# Poissons Ratio (x) = 0.05746 0.18755
# Poissons Ratio (y) = 0.03105 0.42426
# Poissons Ratio (z) = 0.06826 0.28573
#
# Static dielectric constant tensor:
#      x y z
#    x 1.801980 0.000000 -0.001990 
#    y 0.000000 1.754960 0.000000 
#    z -0.001990 0.000000 1.763300 
# 
# From -- ./inp_files/20334.got.cif
#   From: 2010.05.17/outbox.cif.g08.bks.cpg/sg12_11_cif.got.tgz:20334.got - 2010.06.03 13:09:07.
