data_PCOD9215531
_publ_section_title
;
Structure prediction by ZEFSAII (Michael W. Deem and Ramdas Pophale) SiO2 
 PCOD9215531
Probable space group: C 2/M
;
_chemical_formula_sum "Si O2"
_cell_formula_units_Z 48
_cell_length_a 27.500584
_cell_length_b 17.568406
_cell_length_c 14.606293
_cell_angle_alpha 90.000000
_cell_angle_beta 19.811445
_cell_angle_gamma 90.000000
_cell_volume 2391.767648
_symmetry_space_group_name_H-M "C 2/M"
_symmetry_group_IT_number 12
_symmetry_cell_setting 'monoclinic'
loop_
_space_group_symop_operation_xyz
x,y,z
-x,y,-z
-x,-y,-z
x,-y,z
1/2+x,1/2+y,z
1/2-x,1/2+y,-z
1/2-x,1/2-y,-z
1/2+x,1/2-y,z
loop_
_atom_site_type_symbol
_atom_site_label
_atom_site_fract_x
_atom_site_fract_y
_atom_site_fract_z
Si Si1 0.214913 0.324223 0.182033
Si Si2 0.431873 0.086737 0.939174
Si Si3 0.102467 0.675138 0.182019
Si Si4 0.709464 0.323091 0.451272
Si Si5 0.572663 0.411070 0.069242
Si Si6 0.744470 0.854175 0.417612
O O1 0.179482 0.347635 0.140479
O O2 0.300493 0.387671 0.086369
O O3 0.062501 0.307104 0.499721
O O4 0.313357 0.249023 0.003665
O O5 0.398771 0.111891 0.894180
O O6 0.600361 0.097809 0.658903
O O7 0.389261 0.000000 0.031774
O O8 0.346031 0.142933 0.157686
O O9 0.712096 0.232019 0.441784
O O10 0.716589 0.347289 0.545043
O O11 0.566365 0.360155 0.664071
O O12 0.539084 0.500000 0.133763
O O13 0.631384 0.388897 0.864829
#
# Coordination Sequence:
#
# PCOD9215531 Si02
#       6
#     8   8   8   8   8   8
#     4  10  22  41  67  95 124 164 212 258 307 370
#     4  12  25  40  62  96 131 164 203 257 320 372
#     4  10  22  41  67  95 124 164 212 258 307 370
#     4  11  25  43  64  91 124 169 213 260 308 367
#     4  12  25  40  62  96 131 164 203 257 320 372
#     4  11  23  43  68  89 120 167 221 260 302 367
#
# _framework density 20.068838
#
# number of rings (size 3 to 8) (size 9 to 14) (size 15 to 20)
#    0.000    1.000    1.667    5.000    2.333    7.333 
#    0.000    1.667    0.000    2.000    0.000    0.000 
#    0.000    0.000    0.000    0.000    0.000    0.000 
#
# Total GULP energy -134305.664887 kJ/mol
# GULP energy per Si atom -5596.069370 kJ/mol
# Density = 2.002316 g / cm^3
# Si number density = 20.068838 Si / 1000 Ang^3
#
#
#
# Elastic Constant Matrix: (Units=GPa)
#
#
# Indices 1 2 3 4 5 6 
#
# 1 61.5236 29.4811 -16.0521 -0.0003 -4.0238 -0.0001
# 2 29.4811 75.2171 11.3098 -0.0008 -1.0973 0.0001
# 3 -16.0521 11.3098 52.1808 -0.0012 -4.5445 0.0008
# 4 -0.0003 -0.0008 -0.0012 18.4106 0.0006 1.6394
# 5 -4.0238 -1.0973 -4.5445 0.0006 31.8522 0.0000
# 6 -0.0001 0.0001 0.0008 1.6394 0.0000 2.5945
#
#
#
# Elastic Compliance Matrix: (Units=1/GPa)
#
#
# Indices 1 2 3 4 5 6 
#
# 1 0.024547 -0.011112 0.010325 0.000001 0.004191 -0.000002
# 2 -0.011112 0.018773 -0.007648 0.000000 -0.001848 0.000001
# 3 0.010325 -0.007648 0.024392 0.000002 0.004521 -0.000008
# 4 0.000001 0.000000 0.000002 0.057555 -0.000001 -0.036367
# 5 0.004191 -0.001848 0.004521 -0.000001 0.032506 0.000000
# 6 -0.000002 0.000001 -0.000008 -0.036367 0.000000 0.408417
#
#
# Mechanical properties :
#
#
# Convention : Reuss Voigt Hill
#
# Bulk Modulus (GPa) = 19.66966 26.48880 23.07923
# Shear Modulus (GPa) = 8.33323 21.51697 14.92510
#
# Velocity S-wave (km/s) = 2.03994 3.27793 2.73004
# Velocity P-wave (km/s) = 3.92056 5.24920 4.63276
#
# Compressibility (1/GPa) = 0.05083972
#
# Stress axis : x y z
#
# Youngs Moduli (GPa) = 40.73872 53.26704 40.99760
#
# Poissons Ratio (x) = 0.59192 -0.42329
# Poissons Ratio (y) = 0.45270 0.31356
# Poissons Ratio (z) = -0.42061 0.40740
#
# Static dielectric constant tensor:
#      x y z
#    x 1.719020 0.000000 0.000700 
#    y 0.000000 1.657310 0.000000 
#    z 0.000700 0.000000 1.688080 
# 
# From -- ./inp_files/251402.got.cif
#   From: 2010.05.17/outbox.cif.g08.bks.cpg/sg12_126_cif.got.tgz:251402.got - 2010.06.03 13:09:07.
