data_PCOD9215418
_publ_section_title
;
Structure prediction by ZEFSAII (Michael W. Deem and Ramdas Pophale) SiO2 
 PCOD9215418
Probable space group: C 2/M
;
_chemical_formula_sum "Si O2"
_cell_formula_units_Z 56
_cell_length_a 18.364322
_cell_length_b 18.533858
_cell_length_c 19.503022
_cell_angle_alpha 90.000000
_cell_angle_beta 157.613602
_cell_angle_gamma 90.000000
_cell_volume 2528.119526
_symmetry_space_group_name_H-M "C 2/M"
_symmetry_group_IT_number 12
_symmetry_cell_setting 'monoclinic'
loop_
_space_group_symop_operation_xyz
x,y,z
-x,y,-z
-x,-y,-z
x,-y,z
1/2+x,1/2+y,z
1/2-x,1/2+y,-z
1/2-x,1/2-y,-z
1/2+x,1/2-y,z
loop_
_atom_site_type_symbol
_atom_site_label
_atom_site_fract_x
_atom_site_fract_y
_atom_site_fract_z
Si Si1 0.557613 0.805144 0.476196
Si Si2 0.007587 0.234256 0.161902
Si Si3 0.319142 0.579154 0.293294
Si Si4 0.822684 0.283297 0.874919
Si Si5 0.429440 0.579536 0.620662
Si Si6 0.336492 0.581563 0.035191
Si Si7 0.451184 0.156818 0.688062
O O1 0.500000 0.840455 0.500000
O O2 0.769411 0.771434 0.664578
O O3 0.386405 0.748818 0.316074
O O4 0.557283 0.845739 0.402373
O O5 0.000315 0.266582 0.233029
O O6 0.917922 0.154720 0.071238
O O7 0.880594 0.287695 0.004726
O O8 0.500000 0.585844 0.500000
O O9 0.233314 0.500000 0.229161
O O10 0.181610 0.646236 0.176895
O O11 0.411180 0.585712 0.298408
O O12 0.000000 0.236478 0.000000
O O13 0.340016 0.500000 0.534571
O O14 0.539440 0.581568 0.787797
O O15 0.258637 0.635852 0.468172
O O16 0.355365 0.500000 0.021605
O O17 0.114015 0.600356 0.851894
#
# Coordination Sequence:
#
# PCOD9215418 Si02
#       7
#     8   8   8   8   8   8   8
#     4  12  25  43  67  98 134 170 217 278 340 394
#     4  12  25  43  69 102 130 175 225 278 328 395
#     4  10  23  43  64  94 142 189 225 266 326 396
#     4  12  25  41  67  99 134 175 224 279 330 391
#     4  10  22  41  65  95 136 176 218 272 327 391
#     4  11  24  43  68  99 133 170 220 277 333 396
#     4  12  24  40  72 100 131 169 228 273 331 393
#
# _framework density 22.150849999999998
#
# number of rings (size 3 to 8) (size 9 to 14) (size 15 to 20)
#    0.000    0.714    4.286    3.429    4.000    0.286 
#    0.000    0.714    0.000    6.857    0.000    0.000 
#    0.000    0.000    0.000    0.000    0.000    0.000 
#
# Total GULP energy -156188.598634 kJ/mol
# GULP energy per Si atom -5578.164237 kJ/mol
# Density = 2.210043 g / cm^3
# Si number density = 22.150850 Si / 1000 Ang^3
#
#
#
# Elastic Constant Matrix: (Units=GPa)
#
#
# Indices 1 2 3 4 5 6 
#
# 1 49.2273 5.5507 -12.5574 -0.0052 -5.5377 -0.0027
# 2 5.5507 100.3623 28.3738 -0.0059 -4.3866 -0.0050
# 3 -12.5574 28.3738 103.5957 -0.0034 12.8644 -0.0058
# 4 -0.0052 -0.0059 -0.0034 31.3040 -0.0092 -2.7963
# 5 -5.5377 -4.3866 12.8644 -0.0092 28.7846 -0.0066
# 6 -0.0027 -0.0050 -0.0058 -2.7963 -0.0066 23.5662
#
#
#
# Elastic Compliance Matrix: (Units=1/GPa)
#
#
# Indices 1 2 3 4 5 6 
#
# 1 0.021532 -0.001868 0.002798 0.000005 0.002607 0.000004
# 2 -0.001868 0.011238 -0.003676 0.000003 0.002996 0.000002
# 3 0.002798 -0.003676 0.011648 0.000000 -0.005228 0.000001
# 4 0.000005 0.000003 0.000000 0.032287 0.000013 0.003831
# 5 0.002607 0.002996 -0.005228 0.000013 0.038035 0.000012
# 6 0.000004 0.000002 0.000001 0.003831 0.000012 0.042888
#
#
# Mechanical properties :
#
#
# Convention : Reuss Voigt Hill
#
# Bulk Modulus (GPa) = 25.69082 32.87993 29.28538
# Shear Modulus (GPa) = 28.39370 32.18551 30.28961
#
# Velocity S-wave (km/s) = 3.58415 3.81598 3.70188
# Velocity P-wave (km/s) = 5.36204 5.85589 5.61440
#
# Compressibility (1/GPa) = 0.03892441
#
# Stress axis : x y z
#
# Youngs Moduli (GPa) = 46.44349 88.98776 85.85065
#
# Poissons Ratio (x) = 0.16622 -0.24019
# Poissons Ratio (y) = 0.08675 0.31561
# Poissons Ratio (z) = -0.12994 0.32715
#
# Static dielectric constant tensor:
#      x y z
#    x 1.908320 -0.000010 -0.012950 
#    y -0.000010 1.928550 -0.000010 
#    z -0.012950 -0.000010 1.806500 
# 
# From -- ./inp_files/322721.got.cif
#   From: 2010.05.17/outbox.cif.g08.bks.cpg/sg12_162_cif.got.tgz:322721.got - 2010.06.03 13:09:07.
