data_PCOD9215029
_publ_section_title
;
Structure prediction by ZEFSAII (Michael W. Deem and Ramdas Pophale) SiO2 
 PCOD9215029
Probable space group: C 2/M
;
_chemical_formula_sum "Si O2"
_cell_formula_units_Z 22
_cell_length_a 9.522993
_cell_length_b 14.924047
_cell_length_c 8.216757
_cell_angle_alpha 90.000000
_cell_angle_beta 42.906471
_cell_angle_gamma 90.000000
_cell_volume 795.027881
_symmetry_space_group_name_H-M "C 2/M"
_symmetry_group_IT_number 12
_symmetry_cell_setting 'monoclinic'
loop_
_space_group_symop_operation_xyz
x,y,z
-x,y,-z
-x,-y,-z
x,-y,z
1/2+x,1/2+y,z
1/2-x,1/2+y,-z
1/2-x,1/2-y,-z
1/2+x,1/2-y,z
loop_
_atom_site_type_symbol
_atom_site_label
_atom_site_fract_x
_atom_site_fract_y
_atom_site_fract_z
Si Si1 0.500000 0.833694 0.500000
Si Si2 0.167731 0.097974 0.999758
Si Si3 0.759723 0.671536 0.243780
Si Si4 0.500000 0.500000 0.500000
O O1 0.607760 0.893514 0.271984
O O2 0.683395 0.764005 0.386426
O O3 0.139086 0.000000 0.109514
O O4 0.155623 0.169445 0.151281
O O5 0.000000 0.102629 0.000000
O O6 0.672710 0.581398 0.396863
O O7 0.000000 0.668771 0.000000
#
# Coordination Sequence:
#
# PCOD9215029 Si02
#       4
#     4   8   8   2
#     4  11  25  43  69 102 130 182 211 277 331 389
#     4  11  25  45  65  97 140 173 218 271 327 393
#     4  11  24  44  71  98 132 170 228 272 320 395
#     4  10  22  40  68  98 124 172 216 266 332 372
#
# _framework density 27.671987999999999
#
# number of rings (size 3 to 8) (size 9 to 14) (size 15 to 20)
#    0.000    1.091    1.818    3.273    0.000    8.727 
#    0.000    0.000    0.000    0.000    0.000    0.000 
#    0.000    0.000    0.000    0.000    0.000    0.000 
#
# Total GULP energy -61354.641920 kJ/mol
# GULP energy per Si atom -5577.694720 kJ/mol
# Density = 2.760901 g / cm^3
# Si number density = 27.671988 Si / 1000 Ang^3
#
#
#
# Elastic Constant Matrix: (Units=GPa)
#
#
# Indices 1 2 3 4 5 6 
#
# 1 114.4871 -13.1149 -12.6474 -0.0008 -8.1662 0.0001
# 2 -13.1149 162.1158 26.2956 -0.0006 -25.2650 -0.0003
# 3 -12.6474 26.2956 169.2504 -0.0017 -54.4762 -0.0004
# 4 -0.0008 -0.0006 -0.0017 -64.0723 0.0011 -75.1041
# 5 -8.1662 -25.2650 -54.4762 0.0011 42.1844 0.0000
# 6 0.0001 -0.0003 -0.0004 -75.1041 0.0000 -51.9215
#
#
#
# Elastic Compliance Matrix: (Units=1/GPa)
#
#
# Indices 1 2 3 4 5 6 
#
# 1 0.009535 0.001268 0.002317 0.000000 0.005598 0.000000
# 2 0.001268 0.006991 0.000745 0.000000 0.005394 0.000000
# 3 0.002317 0.000745 0.010702 0.000000 0.014715 0.000000
# 4 0.000000 0.000000 0.000000 0.022439 -0.000001 -0.032458
# 5 0.005598 0.005394 0.014715 -0.000001 0.047023 0.000001
# 6 0.000000 0.000000 0.000000 -0.032458 0.000001 0.027690
#
#
# Mechanical properties :
#
#
# Convention : Reuss Voigt Hill
#
# Bulk Modulus (GPa) = 27.86435 49.65777 38.76106
# Shear Modulus (GPa) = 39.15943 14.92611 27.04277
#
# Velocity S-wave (km/s) = 3.76590 2.32501 3.12951
# Velocity P-wave (km/s) = 5.38523 5.01913 5.20540
#
# Compressibility (1/GPa) = 0.03588814
#
# Stress axis : x y z
#
# Youngs Moduli (GPa) = 104.87559 143.04399 93.43838
#
# Poissons Ratio (x) = -0.18136 -0.21652
# Poissons Ratio (y) = -0.13297 -0.06960
# Poissons Ratio (z) = -0.24302 -0.10655
#
# Static dielectric constant tensor:
#      x y z
#    x 2.135610 0.000000 -0.087960 
#    y 0.000000 2.098090 0.000000 
#    z -0.087960 0.000000 1.781200 
# 
# From -- ./inp_files/5040.got.cif
#   From: 2010.05.17/outbox.cif.g08.bks.cpg/sg12_3_cif.got.tgz:5040.got - 2010.06.03 13:09:07.
