data_PCOD9215640
_publ_section_title
;
Structure prediction by ZEFSAII (Michael W. Deem and Ramdas Pophale) SiO2 
 PCOD9215640
Probable space group: C 2/M
;
_chemical_formula_sum "Si O2"
_cell_formula_units_Z 40
_cell_length_a 18.878260
_cell_length_b 15.025968
_cell_length_c 16.516693
_cell_angle_alpha 90.000000
_cell_angle_beta 158.250282
_cell_angle_gamma 90.000000
_cell_volume 1736.111828
_symmetry_space_group_name_H-M "C 2/M"
_symmetry_group_IT_number 12
_symmetry_cell_setting 'monoclinic'
loop_
_space_group_symop_operation_xyz
x,y,z
-x,y,-z
-x,-y,-z
x,-y,z
1/2+x,1/2+y,z
1/2-x,1/2+y,-z
1/2-x,1/2-y,-z
1/2+x,1/2-y,z
loop_
_atom_site_type_symbol
_atom_site_label
_atom_site_fract_x
_atom_site_fract_y
_atom_site_fract_z
Si Si1 0.512463 0.598781 0.200770
Si Si2 0.655303 0.313240 0.831961
Si Si3 0.760245 0.735186 0.378811
Si Si4 0.230621 0.398571 0.751474
Si Si5 0.492707 0.101185 0.089418
O O1 0.586455 0.500000 0.265618
O O2 0.433852 0.609327 0.207419
O O3 0.678523 0.669785 0.360696
O O4 0.336953 0.613936 0.950565
O O5 0.483710 0.256072 0.612677
O O6 0.750000 0.250000 0.000000
O O7 0.801411 0.353971 0.922672
O O8 0.705878 0.680257 0.240513
O O9 0.657813 0.828781 0.283401
O O10 0.283174 0.500000 0.781389
O O11 0.000000 0.397373 0.500000
O O12 0.514531 0.000000 0.143915
O O13 0.500000 0.096244 0.000000
#
# Coordination Sequence:
#
# PCOD9215640 Si02
#       5
#     8   8   8   8   8
#     4  11  23  43  71 107 149 186 230 296 366 433
#     4  12  26  47  69 105 143 189 240 296 366 419
#     4  12  25  43  74 105 140 193 237 292 356 433
#     4  10  22  41  70 109 145 185 232 287 361 434
#     4  11  27  49  73 102 140 189 246 299 350 422
#
# _framework density 23.039991000000001
#
# number of rings (size 3 to 8) (size 9 to 14) (size 15 to 20)
#    0.000    0.800    2.000    4.800    2.800    3.200 
#    0.000    4.000    0.000    0.000    0.000    0.000 
#    0.000    0.000    0.000    0.000    0.000    0.000 
#
# Total GULP energy -111862.876170 kJ/mol
# GULP energy per Si atom -5593.143808 kJ/mol
# Density = 2.298755 g / cm^3
# Si number density = 23.039991 Si / 1000 Ang^3
#
#
#
# Elastic Constant Matrix: (Units=GPa)
#
#
# Indices 1 2 3 4 5 6 
#
# 1 123.3714 52.7321 36.4123 -0.0005 10.4805 -0.0028
# 2 52.7321 189.1349 78.1549 -0.0018 12.0656 -0.0048
# 3 36.4123 78.1549 108.9954 -0.0023 11.3626 -0.0042
# 4 -0.0005 -0.0018 -0.0023 -2.1033 -0.0001 -12.0501
# 5 10.4805 12.0656 11.3626 -0.0001 38.8052 -0.0021
# 6 -0.0028 -0.0048 -0.0042 -12.0501 -0.0021 29.4566
#
#
#
# Elastic Compliance Matrix: (Units=1/GPa)
#
#
# Indices 1 2 3 4 5 6 
#
# 1 0.009528 -0.001862 -0.001692 0.000000 -0.001499 0.000000
# 2 -0.001862 0.007900 -0.004992 -0.000001 -0.000492 0.000000
# 3 -0.001692 -0.004992 0.013523 -0.000004 -0.001951 -0.000001
# 4 0.000000 -0.000001 -0.000004 -0.142191 -0.000002 -0.058167
# 5 -0.001499 -0.000492 -0.001951 -0.000002 0.026899 0.000001
# 6 0.000000 0.000000 -0.000001 -0.058167 0.000001 0.010153
#
#
# Mechanical properties :
#
#
# Convention : Reuss Voigt Hill
#
# Bulk Modulus (GPa) = 72.14793 84.01113 78.07953
# Shear Modulus (GPa) = -95.27831 30.17852 -32.54990
#
# Velocity S-wave (km/s) = -6.43764 3.62309 -3.76274
# Velocity P-wave (km/s) = 4.88625 7.35151 3.88389
#
# Compressibility (1/GPa) = 0.01386041
#
# Stress axis : x y z
#
# Youngs Moduli (GPa) = 104.95334 126.57640 73.95075
#
# Poissons Ratio (x) = 0.23565 0.12511
# Poissons Ratio (y) = 0.19540 0.36914
# Poissons Ratio (z) = 0.17756 0.63183
#
# Static dielectric constant tensor:
#      x y z
#    x 1.951120 0.000000 -0.020760 
#    y 0.000000 1.864130 0.000000 
#    z -0.020760 0.000000 1.862800 
# 
# From -- ./inp_files/284648.got.cif
#   From: 2010.05.17/outbox.cif.g08.bks.cpg/sg12_143_cif.got.tgz:284648.got - 2010.06.03 13:09:07.
