data_PCOD9215801
_publ_section_title
;
Structure prediction by ZEFSAII (Michael W. Deem and Ramdas Pophale) SiO2 
 PCOD9215801
Probable space group: C 2/M
;
_chemical_formula_sum "Si O2"
_cell_formula_units_Z 40
_cell_length_a 8.597680
_cell_length_b 29.575222
_cell_length_c 14.970070
_cell_angle_alpha 90.000000
_cell_angle_beta 151.959612
_cell_angle_gamma 90.000000
_cell_volume 1789.442224
_symmetry_space_group_name_H-M "C 2/M"
_symmetry_group_IT_number 12
_symmetry_cell_setting 'monoclinic'
loop_
_space_group_symop_operation_xyz
x,y,z
-x,y,-z
-x,-y,-z
x,-y,z
1/2+x,1/2+y,z
1/2-x,1/2+y,-z
1/2-x,1/2-y,-z
1/2+x,1/2-y,z
loop_
_atom_site_type_symbol
_atom_site_label
_atom_site_fract_x
_atom_site_fract_y
_atom_site_fract_z
Si Si1 0.771151 0.320224 0.460521
Si Si2 0.317710 0.928805 0.003501
Si Si3 0.383136 0.000000 0.712075
Si Si4 0.246767 0.500000 0.707452
Si Si5 0.072429 0.335715 0.139784
Si Si6 0.396051 0.771146 0.207491
O O1 0.460521 0.349171 0.338088
O O2 0.594304 0.275466 0.327264
O O3 0.000000 0.341240 0.500000
O O4 0.992355 0.303530 0.654787
O O5 0.500000 0.930245 0.000000
O O6 0.515052 0.957196 0.176891
O O7 0.327994 0.876767 0.038908
O O8 0.976024 0.955324 0.819531
O O9 0.000000 0.000000 0.500000
O O10 0.573035 0.000000 0.715048
O O11 0.000000 0.500000 0.500000
O O12 0.023422 0.293808 0.180550
O O13 0.000000 0.325560 0.000000
O O14 0.000000 0.768813 0.000000
#
# Coordination Sequence:
#
# PCOD9215801 Si02
#       6
#     8   8   4   4   8   8
#     4  11  23  41  64  91 123 171 228 276 333 395
#     4  10  22  42  65  97 136 171 215 269 328 392
#     4  11  22  39  68 100 130 171 214 257 318 396
#     4  11  22  43  74 104 136 175 216 259 322 398
#     4  11  24  42  64  95 132 172 219 280 337 390
#     4  11  23  40  65  92 125 170 223 282 337 392
#
# _framework density 22.353332999999999
#
# number of rings (size 3 to 8) (size 9 to 14) (size 15 to 20)
#    0.000    1.200    0.000    8.400    0.000    5.600 
#    0.000   12.000    0.000    0.000    0.000    0.000 
#    0.000    0.000    0.000    0.000    0.000    0.000 
#
# Total GULP energy -111932.255706 kJ/mol
# GULP energy per Si atom -5596.612785 kJ/mol
# Density = 2.230246 g / cm^3
# Si number density = 22.353333 Si / 1000 Ang^3
#
#
#
# Elastic Constant Matrix: (Units=GPa)
#
#
# Indices 1 2 3 4 5 6 
#
# 1 107.7649 17.4536 33.1851 0.0000 -2.6648 0.0000
# 2 17.4536 77.8182 36.2712 0.0000 -10.5365 0.0000
# 3 33.1851 36.2712 175.2675 0.0000 -3.6293 0.0000
# 4 0.0000 0.0000 0.0000 23.7574 0.0000 17.5718
# 5 -2.6648 -10.5365 -3.6293 0.0000 49.5725 0.0000
# 6 0.0000 0.0000 0.0000 17.5718 0.0000 28.1297
#
#
#
# Elastic Compliance Matrix: (Units=1/GPa)
#
#
# Indices 1 2 3 4 5 6 
#
# 1 0.010012 -0.001493 -0.001585 0.000000 0.000105 0.000000
# 2 -0.001493 0.014847 -0.002730 0.000000 0.002876 0.000000
# 3 -0.001585 -0.002730 0.006567 0.000000 -0.000185 0.000000
# 4 0.000000 0.000000 0.000000 0.078243 0.000000 -0.048876
# 5 0.000105 0.002876 -0.000185 0.000000 0.020776 0.000000
# 6 0.000000 0.000000 0.000000 -0.048876 0.000000 0.066081
#
#
# Mechanical properties :
#
#
# Convention : Reuss Voigt Hill
#
# Bulk Modulus (GPa) = 50.47847 59.40784 54.94316
# Shear Modulus (GPa) = 23.28351 38.55462 30.91906
#
# Velocity S-wave (km/s) = 3.23090 4.15755 3.72317
# Velocity P-wave (km/s) = 6.04561 7.04851 6.56623
#
# Compressibility (1/GPa) = 0.01981042
#
# Stress axis : x y z
#
# Youngs Moduli (GPa) = 99.88255 67.35241 152.28097
#
# Poissons Ratio (x) = 0.10054 0.24129
# Poissons Ratio (y) = 0.14910 0.41579
# Poissons Ratio (z) = 0.15827 0.18390
#
# Static dielectric constant tensor:
#      x y z
#    x 1.836400 0.000000 0.043460 
#    y 0.000000 1.884420 0.000000 
#    z 0.043460 0.000000 1.834380 
# 
# From -- ./inp_files/201435.got.cif
#   From: 2010.05.17/outbox.cif.g08.bks.cpg/sg12_101_cif.got.tgz:201435.got - 2010.06.03 13:09:07.
