data_PCOD9215698
_publ_section_title
;
Structure prediction by ZEFSAII (Michael W. Deem and Ramdas Pophale) SiO2 
 PCOD9215698
Probable space group: C 2/M
;
_chemical_formula_sum "Si O2"
_cell_formula_units_Z 48
_cell_length_a 20.880267
_cell_length_b 8.470324
_cell_length_c 15.457566
_cell_angle_alpha 90.000000
_cell_angle_beta 111.442459
_cell_angle_gamma 90.000000
_cell_volume 2544.641670
_symmetry_space_group_name_H-M "C 2/M"
_symmetry_group_IT_number 12
_symmetry_cell_setting 'monoclinic'
loop_
_space_group_symop_operation_xyz
x,y,z
-x,y,-z
-x,-y,-z
x,-y,z
1/2+x,1/2+y,z
1/2-x,1/2+y,-z
1/2-x,1/2-y,-z
1/2+x,1/2-y,z
loop_
_atom_site_type_symbol
_atom_site_label
_atom_site_fract_x
_atom_site_fract_y
_atom_site_fract_z
Si Si1 0.919493 0.811616 0.187486
Si Si2 0.076048 0.807675 0.007270
Si Si3 0.575642 0.312028 0.502601
Si Si4 0.069205 0.313880 0.310430
Si Si5 0.670967 0.811726 0.701419
Si Si6 0.330122 0.308777 0.787005
O O1 0.868511 0.731811 0.230112
O O2 0.997780 0.773315 0.252861
O O3 0.909698 0.000000 0.186864
O O4 0.909420 0.757070 0.083559
O O5 0.131946 0.758640 0.105731
O O6 0.074915 0.000000 0.005607
O O7 0.000000 0.756126 0.000000
O O8 0.500000 0.264402 0.500000
O O9 0.574691 0.500000 0.488369
O O10 0.589118 0.228900 0.418175
O O11 0.630857 0.268262 0.602478
O O12 0.057873 0.500000 0.296872
O O13 0.126991 0.258562 0.271856
O O14 0.750506 0.761750 0.745109
O O15 0.668458 0.000000 0.687982
O O16 0.333458 0.500000 0.784774
#
# Coordination Sequence:
#
# PCOD9215698 Si02
#       6
#     8   8   8   8   8   8
#     4  11  21  37  63  90 120 162 207 246 294 358
#     4   9  17  34  63  90 116 158 209 247 286 352
#     4  11  23  40  65  90 116 159 206 245 294 364
#     4  12  24  38  62  93 123 155 199 254 305 353
#     4  11  24  40  61  91 127 159 195 252 307 353
#     4  10  22  42  63  88 124 164 202 244 300 359
#
# _framework density 18.863168000000002
#
# number of rings (size 3 to 8) (size 9 to 14) (size 15 to 20)
#    0.000    1.333    3.333    3.000    0.000    3.333 
#    0.000    2.500    0.000    0.000    0.000    0.000 
#    0.000    0.000    0.000    0.000    0.000    0.000 
#
# Total GULP energy -134166.534073 kJ/mol
# GULP energy per Si atom -5590.272253 kJ/mol
# Density = 1.882023 g / cm^3
# Si number density = 18.863168 Si / 1000 Ang^3
#
#
#
# Elastic Constant Matrix: (Units=GPa)
#
#
# Indices 1 2 3 4 5 6 
#
# 1 112.7837 -1.4067 49.1897 0.0000 3.9475 0.0000
# 2 -1.4067 14.3754 -3.3567 0.0000 2.7576 0.0000
# 3 49.1897 -3.3567 138.1161 0.0000 -4.1271 0.0000
# 4 0.0000 0.0000 0.0000 -15.9086 0.0000 -1.3045
# 5 3.9475 2.7576 -4.1271 0.0000 37.0582 0.0000
# 6 0.0000 0.0000 0.0000 -1.3045 0.0000 18.9418
#
#
#
# Elastic Compliance Matrix: (Units=1/GPa)
#
#
# Indices 1 2 3 4 5 6 
#
# 1 0.010588 0.000451 -0.003807 0.000000 -0.001585 0.000000
# 2 0.000451 0.070928 0.001409 0.000000 -0.005169 0.000000
# 3 -0.003807 0.001409 0.008668 0.000000 0.001266 0.000000
# 4 0.000000 0.000000 0.000000 -0.062506 0.000000 -0.004305
# 5 -0.001585 -0.005169 0.001266 0.000000 0.027679 0.000000
# 6 0.000000 0.000000 0.000000 -0.004305 0.000000 0.052497
#
#
# Mechanical properties :
#
#
# Convention : Reuss Voigt Hill
#
# Bulk Modulus (GPa) = 11.58887 39.34752 25.46820
# Shear Modulus (GPa) = 35.58389 22.74152 29.16271
#
# Velocity S-wave (km/s) = 4.34801 3.47595 3.93620
# Velocity P-wave (km/s) = 5.60035 6.08394 5.84715
#
# Compressibility (1/GPa) = 0.08628966
#
# Stress axis : x y z
#
# Youngs Moduli (GPa) = 94.44476 14.09877 115.36233
#
# Poissons Ratio (x) = -0.00636 0.43923
# Poissons Ratio (y) = -0.04261 -0.16251
# Poissons Ratio (z) = 0.35959 -0.01986
#
# Static dielectric constant tensor:
#      x y z
#    x 1.617450 0.000000 0.001800 
#    y 0.000000 1.637400 0.000000 
#    z 0.001800 0.000000 1.636070 
# 
# From -- ./inp_files/230424.got.cif
#   From: 2010.05.17/outbox.cif.g08.bks.cpg/sg12_116_cif.got.tgz:230424.got - 2010.06.03 13:09:07.
