data_PCOD9215792
_publ_section_title
;
Structure prediction by ZEFSAII (Michael W. Deem and Ramdas Pophale) SiO2 
 PCOD9215792
Probable space group: C 2/M
;
_chemical_formula_sum "Si O2"
_cell_formula_units_Z 40
_cell_length_a 10.923173
_cell_length_b 15.378225
_cell_length_c 16.376767
_cell_angle_alpha 90.000000
_cell_angle_beta 39.862754
_cell_angle_gamma 90.000000
_cell_volume 1763.225586
_symmetry_space_group_name_H-M "C 2/M"
_symmetry_group_IT_number 12
_symmetry_cell_setting 'monoclinic'
loop_
_space_group_symop_operation_xyz
x,y,z
-x,y,-z
-x,-y,-z
x,-y,z
1/2+x,1/2+y,z
1/2-x,1/2+y,-z
1/2-x,1/2-y,-z
1/2+x,1/2-y,z
loop_
_atom_site_type_symbol
_atom_site_label
_atom_site_fract_x
_atom_site_fract_y
_atom_site_fract_z
Si Si1 0.873366 0.093250 0.286704
Si Si2 0.924725 0.728771 0.852559
Si Si3 0.683565 0.650978 0.519215
Si Si4 0.248950 0.397456 0.701407
Si Si5 0.283871 0.404979 0.146412
O O1 0.752769 0.101040 0.431362
O O2 0.776507 0.094433 0.247789
O O3 0.994315 0.180902 0.221175
O O4 0.978782 0.000000 0.236214
O O5 0.842213 0.671424 0.822306
O O6 0.084660 0.668888 0.814325
O O7 0.750000 0.750000 0.000000
O O8 0.750000 0.750000 0.500000
O O9 0.752303 0.615068 0.396783
O O10 0.454382 0.635529 0.628481
O O11 0.225400 0.500000 0.732242
O O12 0.218269 0.500000 0.149768
O O13 0.500000 0.394679 0.000000
#
# Coordination Sequence:
#
# PCOD9215792 Si02
#       5
#     8   8   8   8   8
#     4  11  24  42  68 100 137 182 238 296 352 422
#     4  12  25  41  70 104 141 191 246 287 354 428
#     4  11  23  45  74 105 140 184 238 299 368 430
#     4  11  25  46  73 106 146 191 237 296 366 432
#     4  10  22  42  65  93 137 188 235 287 351 419
#
# _framework density 22.685697000000001
#
# number of rings (size 3 to 8) (size 9 to 14) (size 15 to 20)
#    0.000    1.000    4.000    3.000    2.800    0.800 
#    0.000    0.000    0.000   10.200    0.000    0.000 
#    0.000    0.000    0.000    0.000    0.000    0.000 
#
# Total GULP energy -111746.877005 kJ/mol
# GULP energy per Si atom -5587.343850 kJ/mol
# Density = 2.263406 g / cm^3
# Si number density = 22.685697 Si / 1000 Ang^3
#
#
#
# Elastic Constant Matrix: (Units=GPa)
#
#
# Indices 1 2 3 4 5 6 
#
# 1 77.4501 51.3867 28.8453 -0.0001 12.6762 -0.0001
# 2 51.3867 235.3492 27.2395 -0.0006 -24.3826 0.0002
# 3 28.8453 27.2395 70.3939 -0.0015 -10.3315 0.0004
# 4 -0.0001 -0.0006 -0.0015 -17.9479 0.0006 -7.0742
# 5 12.6762 -24.3826 -10.3315 0.0006 36.2845 -0.0001
# 6 -0.0001 0.0002 0.0004 -7.0742 -0.0001 43.5303
#
#
#
# Elastic Compliance Matrix: (Units=1/GPa)
#
#
# Indices 1 2 3 4 5 6 
#
# 1 0.021932 -0.005166 -0.008998 0.000000 -0.013696 0.000000
# 2 -0.005166 0.005915 0.000706 0.000000 0.005980 0.000000
# 3 -0.008998 0.000706 0.018942 -0.000001 0.009011 0.000000
# 4 0.000000 0.000000 -0.000001 -0.052363 0.000000 -0.008510
# 5 -0.013696 0.005980 0.009011 0.000000 0.038929 0.000000
# 6 0.000000 0.000000 0.000000 -0.008510 0.000000 0.021590
#
#
# Mechanical properties :
#
#
# Convention : Reuss Voigt Hill
#
# Bulk Modulus (GPa) = 50.32075 66.45961 58.39018
# Shear Modulus (GPa) = 56.50591 30.75482 43.63037
#
# Velocity S-wave (km/s) = 4.99622 3.68597 4.39025
# Velocity P-wave (km/s) = 7.45069 6.89018 7.17591
#
# Compressibility (1/GPa) = 0.01987252
#
# Stress axis : x y z
#
# Youngs Moduli (GPa) = 45.59555 169.06504 52.79176
#
# Poissons Ratio (x) = 0.87341 0.47502
# Poissons Ratio (y) = 0.23555 -0.03726
# Poissons Ratio (z) = 0.41027 -0.11933
#
# Static dielectric constant tensor:
#      x y z
#    x 1.882280 0.000000 0.000250 
#    y 0.000000 1.939080 0.000000 
#    z 0.000250 0.000000 1.910440 
# 
# From -- ./inp_files/262682.got.cif
#   From: 2010.05.17/outbox.cif.g08.bks.cpg/sg12_132_cif.got.tgz:262682.got - 2010.06.03 13:09:07.
