data_PCOD9215409
_publ_section_title
;
Structure prediction by ZEFSAII (Michael W. Deem and Ramdas Pophale) SiO2 
 PCOD9215409
Probable space group: C 2/M
;
_chemical_formula_sum "Si O2"
_cell_formula_units_Z 40
_cell_length_a 10.288645
_cell_length_b 27.585893
_cell_length_c 5.029311
_cell_angle_alpha 90.000000
_cell_angle_beta 98.578867
_cell_angle_gamma 90.000000
_cell_volume 1411.455586
_symmetry_space_group_name_H-M "C 2/M"
_symmetry_group_IT_number 12
_symmetry_cell_setting 'monoclinic'
loop_
_space_group_symop_operation_xyz
x,y,z
-x,y,-z
-x,-y,-z
x,-y,z
1/2+x,1/2+y,z
1/2-x,1/2+y,-z
1/2-x,1/2-y,-z
1/2+x,1/2-y,z
loop_
_atom_site_type_symbol
_atom_site_label
_atom_site_fract_x
_atom_site_fract_y
_atom_site_fract_z
Si Si1 0.332395 0.213367 0.337995
Si Si2 0.742156 0.877541 0.466243
Si Si3 0.592311 0.443557 0.786652
Si Si4 0.390065 0.307833 0.159317
Si Si5 0.905720 0.556971 0.211261
O O1 0.250000 0.250000 0.500000
O O2 0.363713 0.165568 0.518008
O O3 0.430207 0.252537 0.241994
O O4 0.241325 0.195135 0.064282
O O5 0.771435 0.917329 0.249000
O O6 0.859789 0.840838 0.406348
O O7 0.716678 0.911237 0.714730
O O8 0.500000 0.438310 0.500000
O O9 0.619145 0.500000 0.831936
O O10 0.500000 0.428025 0.000000
O O11 0.500000 0.327896 0.000000
O O12 0.874760 0.500000 0.157384
O O13 0.000000 0.558533 0.500000
O O14 0.000000 0.575077 0.000000
#
# Coordination Sequence:
#
# PCOD9215409 Si02
#       5
#     8   8   8   8   8
#     4   9  22  41  58  93 131 173 221 265 333 391
#     4  11  23  37  66  96 127 172 221 272 323 400
#     4  10  23  40  61  97 138 175 213 263 329 395
#     4  10  22  41  65  94 136 175 212 274 337 405
#     4  10  24  45  67  94 131 176 223 278 335 387
#
# _framework density 28.339538999999998
#
# number of rings (size 3 to 8) (size 9 to 14) (size 15 to 20)
#    0.000    2.000    0.000    1.200    8.400    3.200 
#    7.200    6.000    0.000    0.000    0.000    0.000 
#    0.000    0.000    0.000    0.000    0.000    0.000 
#
# Total GULP energy -111617.498438 kJ/mol
# GULP energy per Si atom -5580.874922 kJ/mol
# Density = 2.827504 g / cm^3
# Si number density = 28.339539 Si / 1000 Ang^3
#
#
#
# Elastic Constant Matrix: (Units=GPa)
#
#
# Indices 1 2 3 4 5 6 
#
# 1 146.0608 40.7682 80.2190 0.0000 -32.4734 0.0000
# 2 40.7682 260.5779 50.6416 0.0000 -70.7925 0.0000
# 3 80.2190 50.6416 238.0370 0.0000 -60.9673 0.0000
# 4 0.0000 0.0000 0.0000 -259.0607 0.0000 14.5570
# 5 -32.4734 -70.7925 -60.9673 0.0000 69.4062 0.0000
# 6 0.0000 0.0000 0.0000 14.5570 0.0000 9.7176
#
#
#
# Elastic Compliance Matrix: (Units=1/GPa)
#
#
# Indices 1 2 3 4 5 6 
#
# 1 0.008639 -0.000501 -0.002452 0.000000 0.001377 0.000000
# 2 -0.000501 0.005358 0.000476 0.000000 0.005649 0.000000
# 3 -0.002452 0.000476 0.006137 0.000000 0.004729 0.000000
# 4 0.000000 0.000000 0.000000 -0.003560 0.000000 0.005333
# 5 0.001377 0.005649 0.004729 0.000000 0.024968 0.000000
# 6 0.000000 0.000000 0.000000 0.005333 0.000000 0.094917
#
#
# Mechanical properties :
#
#
# Convention : Reuss Voigt Hill
#
# Bulk Modulus (GPa) = 65.87653 109.77036 87.82345
# Shear Modulus (GPa) = 34.13583 -4.45091 14.84246
#
# Velocity S-wave (km/s) = 3.47440 -1.25458 2.29101
# Velocity P-wave (km/s) = 6.27624 6.05966 6.16890
#
# Compressibility (1/GPa) = 0.01517991
#
# Stress axis : x y z
#
# Youngs Moduli (GPa) = 115.75118 186.63192 162.93419
#
# Poissons Ratio (x) = 0.09349 0.39954
# Poissons Ratio (y) = 0.05798 -0.07750
# Poissons Ratio (z) = 0.28384 -0.08877
#
# Static dielectric constant tensor:
#      x y z
#    x 2.476550 0.000000 0.464450 
#    y 0.000000 2.219200 0.000000 
#    z 0.464450 0.000000 1.678320 
# 
# From -- ./inp_files/7572.got.cif
#   From: 2010.05.17/outbox.cif.g08.bks.cpg/sg12_4_cif.got.tgz:7572.got - 2010.06.03 13:09:07.
