data_PCOD9215308
_publ_section_title
;
Structure prediction by ZEFSAII (Michael W. Deem and Ramdas Pophale) SiO2 
 PCOD9215308
Probable space group: C 2/M
;
_chemical_formula_sum "Si O2"
_cell_formula_units_Z 40
_cell_length_a 31.113992
_cell_length_b 12.412953
_cell_length_c 9.458849
_cell_angle_alpha 90.000000
_cell_angle_beta 34.064453
_cell_angle_gamma 90.000000
_cell_volume 2046.228884
_symmetry_space_group_name_H-M "C 2/M"
_symmetry_group_IT_number 12
_symmetry_cell_setting 'monoclinic'
loop_
_space_group_symop_operation_xyz
x,y,z
-x,y,-z
-x,-y,-z
x,-y,z
1/2+x,1/2+y,z
1/2-x,1/2+y,-z
1/2-x,1/2-y,-z
1/2+x,1/2-y,z
loop_
_atom_site_type_symbol
_atom_site_label
_atom_site_fract_x
_atom_site_fract_y
_atom_site_fract_z
Si Si1 0.546147 0.000000 0.515523
Si Si2 0.157771 0.319411 0.118269
Si Si3 0.663059 0.794597 0.767087
Si Si4 0.910251 0.877298 0.215093
Si Si5 0.831420 0.875051 0.719241
Si Si6 0.573210 0.000000 0.909846
O O1 0.500000 0.000000 0.500000
O O2 0.598892 0.105183 0.362929
O O3 0.479600 0.000000 0.809221
O O4 0.148015 0.199095 0.204349
O O5 0.153809 0.322891 0.958449
O O6 0.241315 0.361673 0.935727
O O7 0.750000 0.750000 0.500000
O O8 0.610222 0.696042 0.861165
O O9 0.630248 0.896097 0.764561
O O10 0.870790 0.836122 0.466581
O O11 0.882855 0.000000 0.267138
O O12 0.000000 0.878297 0.000000
O O13 0.851503 0.000000 0.685547
O O14 0.500000 0.000000 0.000000
#
# Coordination Sequence:
#
# PCOD9215308 Si02
#       6
#     4   8   8   8   8   4
#     4  12  24  44  70  94 136 177 225 278 347 399
#     4  11  23  40  65  98 128 180 223 277 342 409
#     4  12  25  43  70  98 137 177 230 282 341 415
#     4  10  23  42  65  92 131 177 219 277 342 405
#     4  10  22  41  64  92 136 170 223 279 342 414
#     4  12  30  46  72 110 144 182 230 299 352 411
#
# _framework density 19.548154
#
# number of rings (size 3 to 8) (size 9 to 14) (size 15 to 20)
#    0.000    1.000    5.000    0.600    7.000    0.800 
#    0.000    0.000    0.000    4.200    0.000    0.000 
#    0.000    0.000    0.000    0.000    0.000    0.000 
#
# Total GULP energy -111522.955513 kJ/mol
# GULP energy per Si atom -5576.147776 kJ/mol
# Density = 1.950366 g / cm^3
# Si number density = 19.548154 Si / 1000 Ang^3
#
#
#
# Elastic Constant Matrix: (Units=GPa)
#
#
# Indices 1 2 3 4 5 6 
#
# 1 80.0390 42.6215 -3.7672 0.0000 -5.4334 0.0000
# 2 42.6215 97.4401 11.3889 0.0000 -2.4715 0.0000
# 3 -3.7672 11.3889 70.3508 0.0000 -18.2364 0.0000
# 4 0.0000 0.0000 0.0000 48.1211 0.0000 -10.8978
# 5 -5.4334 -2.4715 -18.2364 0.0000 26.7127 0.0000
# 6 0.0000 0.0000 0.0000 -10.8978 0.0000 23.4181
#
#
#
# Elastic Compliance Matrix: (Units=1/GPa)
#
#
# Indices 1 2 3 4 5 6 
#
# 1 0.017156 -0.007784 0.003520 0.000000 0.005172 0.000000
# 2 -0.007784 0.013994 -0.003350 0.000000 -0.002576 0.000000
# 3 0.003520 -0.003350 0.018287 0.000000 0.012890 0.000000
# 4 0.000000 0.000000 0.000000 0.023229 0.000000 0.010810
# 5 0.005172 -0.002576 0.012890 0.000000 0.047049 0.000000
# 6 0.000000 0.000000 0.000000 0.010810 0.000000 0.047732
#
#
# Mechanical properties :
#
#
# Convention : Reuss Voigt Hill
#
# Bulk Modulus (GPa) = 29.23376 38.70181 33.96778
# Shear Modulus (GPa) = 25.76276 32.82283 29.29280
#
# Velocity S-wave (km/s) = 3.63425 4.10210 3.87524
# Velocity P-wave (km/s) = 5.70942 6.50211 6.11862
#
# Compressibility (1/GPa) = 0.03420703
#
# Stress axis : x y z
#
# Youngs Moduli (GPa) = 58.28884 71.45959 54.68476
#
# Poissons Ratio (x) = 0.55627 -0.19247
# Poissons Ratio (y) = 0.45374 0.18319
# Poissons Ratio (z) = -0.20515 0.23939
#
# Static dielectric constant tensor:
#      x y z
#    x 1.688620 0.000000 -0.030360 
#    y 0.000000 1.761840 0.000000 
#    z -0.030360 0.000000 1.689940 
# 
# From -- ./inp_files/109719.got.cif
#   From: 2010.05.17/outbox.cif.g08.bks.cpg/sg12_55_cif.got.tgz:109719.got - 2010.06.03 13:09:07.
