data_PCOD9215565
_publ_section_title
;
Structure prediction by ZEFSAII (Michael W. Deem and Ramdas Pophale) SiO2 
 PCOD9215565
Probable space group: C 2/M
;
_chemical_formula_sum "Si O2"
_cell_formula_units_Z 58
_cell_length_a 20.820118
_cell_length_b 17.437114
_cell_length_c 11.846464
_cell_angle_alpha 90.000000
_cell_angle_beta 140.613500
_cell_angle_gamma 90.000000
_cell_volume 2729.048806
_symmetry_space_group_name_H-M "C 2/M"
_symmetry_group_IT_number 12
_symmetry_cell_setting 'monoclinic'
loop_
_space_group_symop_operation_xyz
x,y,z
-x,y,-z
-x,-y,-z
x,-y,z
1/2+x,1/2+y,z
1/2-x,1/2+y,-z
1/2-x,1/2-y,-z
1/2+x,1/2-y,z
loop_
_atom_site_type_symbol
_atom_site_label
_atom_site_fract_x
_atom_site_fract_y
_atom_site_fract_z
Si Si1 0.679157 0.916052 0.961646
Si Si2 0.773177 0.590158 0.225085
Si Si3 0.926289 0.720023 0.505505
Si Si4 0.258748 0.415430 0.501569
Si Si5 0.733697 0.827447 0.252856
Si Si6 0.468373 0.110878 0.739665
Si Si7 0.119036 0.179552 0.168452
Si Si8 0.000000 0.500000 0.000000
O O1 0.733912 0.900905 0.918926
O O2 0.557898 0.917970 0.778855
O O3 0.710683 0.000000 0.046537
O O4 0.702551 0.853180 0.086647
O O5 0.785415 0.500000 0.266112
O O6 0.867788 0.642232 0.389715
O O7 0.676085 0.625836 0.154752
O O8 0.841652 0.785481 0.398033
O O9 0.965989 0.698967 0.686620
O O10 0.000000 0.737333 0.500000
O O11 0.301387 0.500000 0.576672
O O12 0.236557 0.399085 0.341018
O O13 0.150420 0.410486 0.416820
O O14 0.332266 0.350897 0.649427
O O15 0.654440 0.766179 0.194538
O O16 0.502583 0.068788 0.903495
O O17 0.000000 0.172073 0.000000
#
# Coordination Sequence:
#
# PCOD9215565 Si02
#       8
#     8   8   8   8   8   8   8   2
#     4  11  23  41  67 102 135 175 223 288 341 404
#     4  10  22  41  68 100 131 175 229 283 338 400
#     4  11  24  44  68  97 135 182 224 283 347 409
#     4  12  24  43  68  95 135 175 227 285 341 402
#     4  11  26  44  66  97 137 182 227 277 344 411
#     4  12  23  39  67 103 140 167 217 276 355 406
#     4  11  26  44  67  98 133 182 226 279 333 406
#     4  12  24  36  62 116 138 174 200 266 354 424
#
# _framework density 21.252827
#
# number of rings (size 3 to 8) (size 9 to 14) (size 15 to 20)
#    0.000    0.828    5.517    2.069    2.897    3.586 
#    2.483    0.000    0.000    0.828    0.000    0.000 
#    0.000    0.000    0.000    0.000    0.000    0.000 
#
# Total GULP energy -161494.437035 kJ/mol
# GULP energy per Si atom -5568.773691 kJ/mol
# Density = 2.120445 g / cm^3
# Si number density = 21.252827 Si / 1000 Ang^3
#
#
#
# Elastic Constant Matrix: (Units=GPa)
#
#
# Indices 1 2 3 4 5 6 
#
# 1 95.6467 11.2865 40.1420 0.0000 6.9938 0.0000
# 2 11.2865 62.6568 13.2777 0.0000 -13.0646 0.0000
# 3 40.1420 13.2777 67.1375 0.0000 -2.6103 0.0000
# 4 0.0000 0.0000 0.0000 22.2130 0.0000 -21.0533
# 5 6.9938 -13.0646 -2.6103 0.0000 33.2629 0.0000
# 6 0.0000 0.0000 0.0000 -21.0533 0.0000 20.2839
#
#
#
# Elastic Compliance Matrix: (Units=1/GPa)
#
#
# Indices 1 2 3 4 5 6 
#
# 1 0.014566 -0.001735 -0.008537 0.000000 -0.004414 0.000000
# 2 -0.001735 0.018296 -0.002294 0.000000 0.007371 0.000000
# 3 -0.008537 -0.002294 0.020551 0.000000 0.002507 0.000000
# 4 0.000000 0.000000 0.000000 2.768678 0.000000 2.873691
# 5 -0.004414 0.007371 0.002507 0.000000 0.034083 0.000000
# 6 0.000000 0.000000 0.000000 2.873691 0.000000 3.031986
#
#
# Mechanical properties :
#
#
# Convention : Reuss Voigt Hill
#
# Bulk Modulus (GPa) = 35.36275 39.42815 37.39545
# Shear Modulus (GPa) = 0.84421 25.86763 13.35592
#
# Velocity S-wave (km/s) = 0.63094 3.49254 2.50957
# Velocity P-wave (km/s) = 4.14801 5.90389 5.10206
#
# Compressibility (1/GPa) = 0.02827834
#
# Stress axis : x y z
#
# Youngs Moduli (GPa) = 68.65444 54.65808 48.66040
#
# Poissons Ratio (x) = 0.09483 0.41543
# Poissons Ratio (y) = 0.11911 0.11165
# Poissons Ratio (z) = 0.58613 0.12541
#
# Static dielectric constant tensor:
#      x y z
#    x 1.769790 0.000000 -0.035620 
#    y 0.000000 1.786580 0.000000 
#    z -0.035620 0.000000 1.838100 
# 
# From -- ./inp_files/168978.got.cif
#   From: 2010.05.17/outbox.cif.g08.bks.cpg/sg12_85_cif.got.tgz:168978.got - 2010.06.03 13:09:07.
