data_PCOD9215034
_publ_section_title
;
Structure prediction by ZEFSAII (Michael W. Deem and Ramdas Pophale) SiO2 
 PCOD9215034
Probable space group: C 2/M
;
_chemical_formula_sum "Si O2"
_cell_formula_units_Z 48
_cell_length_a 9.230849
_cell_length_b 20.471702
_cell_length_c 13.204451
_cell_angle_alpha 90.000000
_cell_angle_beta 94.572824
_cell_angle_gamma 90.000000
_cell_volume 2487.317917
_symmetry_space_group_name_H-M "C 2/M"
_symmetry_group_IT_number 12
_symmetry_cell_setting 'monoclinic'
loop_
_space_group_symop_operation_xyz
x,y,z
-x,y,-z
-x,-y,-z
x,-y,z
1/2+x,1/2+y,z
1/2-x,1/2+y,-z
1/2-x,1/2-y,-z
1/2+x,1/2-y,z
loop_
_atom_site_type_symbol
_atom_site_label
_atom_site_fract_x
_atom_site_fract_y
_atom_site_fract_z
Si Si1 0.452474 0.741298 0.754049
Si Si2 0.054407 0.426346 0.889701
Si Si3 0.704775 0.210402 0.895599
Si Si4 0.577662 0.500000 0.392232
Si Si5 0.604137 0.884536 0.306561
Si Si6 0.435203 0.372193 0.382414
Si Si7 0.421445 0.000000 0.390285
O O1 0.554969 0.756822 0.854167
O O2 0.306090 0.720206 0.802453
O O3 0.432848 0.808278 0.690834
O O4 0.525323 0.688953 0.684624
O O5 0.103378 0.500000 0.860416
O O6 0.171784 0.367497 0.898383
O O7 0.916730 0.404067 0.812669
O O8 0.000000 0.431019 0.000000
O O9 0.750000 0.250000 0.000000
O O10 0.500000 0.500000 0.500000
O O11 0.519363 0.434062 0.341108
O O12 0.750170 0.500000 0.398493
O O13 0.763768 0.890360 0.365167
O O14 0.483515 0.933419 0.344596
O O15 0.500000 0.361897 0.500000
O O16 0.500000 0.000000 0.500000
#
# Coordination Sequence:
#
# PCOD9215034 Si02
#       7
#     8   8   8   4   8   8   4
#     4  11  24  40  67  96 130 175 226 270 343 395
#     4  10  22  40  69 100 133 172 222 278 333 399
#     4  11  22  43  67  96 133 174 221 278 335 408
#     4  10  24  42  64  92 127 175 217 268 337 388
#     4  11  23  43  64  97 133 175 228 269 332 402
#     4  11  24  43  63  92 139 176 222 281 332 393
#     4  12  24  40  71  94 128 178 225 271 328 405
#
# _framework density 19.297895
#
# number of rings (size 3 to 8) (size 9 to 14) (size 15 to 20)
#    0.000    1.167    2.500    5.000    4.667    1.333 
#    0.000    0.000    0.000    1.000    0.000    0.000 
#    0.000    0.000    0.000    0.000    0.000    0.000 
#
# Total GULP energy -133665.555513 kJ/mol
# GULP energy per Si atom -5569.398146 kJ/mol
# Density = 1.925397 g / cm^3
# Si number density = 19.297895 Si / 1000 Ang^3
#
#
#
# Elastic Constant Matrix: (Units=GPa)
#
#
# Indices 1 2 3 4 5 6 
#
# 1 124.6624 59.2371 21.7209 0.0000 7.5106 0.0000
# 2 59.2371 183.0053 33.2848 0.0000 -3.0650 0.0000
# 3 21.7209 33.2848 64.3041 0.0000 12.2079 0.0000
# 4 0.0000 0.0000 0.0000 14.3961 0.0000 -1.4980
# 5 7.5106 -3.0650 12.2079 0.0000 37.6769 0.0000
# 6 0.0000 0.0000 0.0000 -1.4980 0.0000 28.9890
#
#
#
# Elastic Compliance Matrix: (Units=1/GPa)
#
#
# Indices 1 2 3 4 5 6 
#
# 1 0.009769 -0.002925 -0.001461 0.000000 -0.001712 0.000000
# 2 -0.002925 0.007000 -0.003041 0.000000 0.002138 0.000000
# 3 -0.001461 -0.003041 0.018765 0.000000 -0.006036 0.000000
# 4 0.000000 0.000000 0.000000 0.069839 0.000000 0.003609
# 5 -0.001712 0.002138 -0.006036 0.000000 0.029013 0.000000
# 6 0.000000 0.000000 0.000000 0.003609 0.000000 0.034682
#
#
# Mechanical properties :
#
#
# Convention : Reuss Voigt Hill
#
# Bulk Modulus (GPa) = 48.35631 66.71748 57.53690
# Shear Modulus (GPa) = 26.20335 33.39434 29.79884
#
# Velocity S-wave (km/s) = 3.68888 4.16440 3.93383
# Velocity P-wave (km/s) = 6.57693 7.60069 7.10726
#
# Compressibility (1/GPa) = 0.02067982
#
# Stress axis : x y z
#
# Youngs Moduli (GPa) = 102.36095 142.85461 53.29177
#
# Poissons Ratio (x) = 0.41788 0.07785
# Poissons Ratio (y) = 0.29943 0.16207
# Poissons Ratio (z) = 0.14952 0.43444
#
# Static dielectric constant tensor:
#      x y z
#    x 1.718460 0.000000 0.011170 
#    y 0.000000 1.756600 0.000000 
#    z 0.011170 0.000000 1.684300 
# 
# From -- ./inp_files/196035.got.cif
#   From: 2010.05.17/outbox.cif.g08.bks.cpg/sg12_99_cif.got.tgz:196035.got - 2010.06.03 13:09:07.
