data_PCOD9215262
_publ_section_title
;
Structure prediction by ZEFSAII (Michael W. Deem and Ramdas Pophale) SiO2 
 PCOD9215262
Probable space group: C 2/M
;
_chemical_formula_sum "Si O2"
_cell_formula_units_Z 56
_cell_length_a 9.613590
_cell_length_b 14.482215
_cell_length_c 23.984835
_cell_angle_alpha 90.000000
_cell_angle_beta 119.611054
_cell_angle_gamma 90.000000
_cell_volume 2903.198743
_symmetry_space_group_name_H-M "C 2/M"
_symmetry_group_IT_number 12
_symmetry_cell_setting 'monoclinic'
loop_
_space_group_symop_operation_xyz
x,y,z
-x,y,-z
-x,-y,-z
x,-y,z
1/2+x,1/2+y,z
1/2-x,1/2+y,-z
1/2-x,1/2-y,-z
1/2+x,1/2-y,z
loop_
_atom_site_type_symbol
_atom_site_label
_atom_site_fract_x
_atom_site_fract_y
_atom_site_fract_z
Si Si1 0.841248 0.899190 0.937354
Si Si2 0.781011 0.606484 0.366102
Si Si3 0.102567 0.323886 0.964718
Si Si4 0.524573 0.286609 0.251145
Si Si5 0.322710 0.722514 0.455111
Si Si6 0.068375 0.607960 0.334206
Si Si7 0.324667 0.741355 0.836466
O O1 0.703166 0.904023 0.955782
O O2 0.788826 0.836758 0.875467
O O3 0.885189 0.000000 0.924730
O O4 0.000000 0.861729 0.000000
O O5 0.775859 0.500000 0.384408
O O6 0.609567 0.642475 0.309940
O O7 0.832884 0.682600 0.421517
O O8 0.909353 0.611608 0.341158
O O9 0.972597 0.293426 0.893679
O O10 0.250000 0.250000 0.000000
O O11 0.000000 0.342661 0.000000
O O12 0.547693 0.182369 0.280265
O O13 0.614629 0.295842 0.210388
O O14 0.335897 0.299319 0.205148
O O15 0.500000 0.684908 0.500000
O O16 0.250000 0.750000 0.500000
O O17 0.212033 0.650001 0.400096
O O18 0.093638 0.500000 0.323589
#
# Coordination Sequence:
#
# PCOD9215262 Si02
#       7
#     8   8   8   8   8   8   8
#     4  11  24  40  60  90 122 155 201 257 314 372
#     4  10  22  41  64  89 124 168 206 249 304 364
#     4  12  20  38  65  89 118 159 200 249 315 384
#     4  11  23  39  62  92 120 161 210 259 302 363
#     4  11  22  39  64  98 128 158 205 256 300 359
#     4  10  22  41  64  90 127 168 202 250 310 361
#     4  12  21  38  63  88 116 160 205 249 306 370
#
# _framework density 19.289069999999999
#
# number of rings (size 3 to 8) (size 9 to 14) (size 15 to 20)
#    0.000    1.000    7.143    0.000    0.000    2.571 
#    0.000    2.857    0.000    0.000    0.000    0.000 
#    0.000    0.000    0.000    0.000    0.000    0.000 
#
# Total GULP energy -156134.803799 kJ/mol
# GULP energy per Si atom -5576.242993 kJ/mol
# Density = 1.924517 g / cm^3
# Si number density = 19.289070 Si / 1000 Ang^3
#
#
#
# Elastic Constant Matrix: (Units=GPa)
#
#
# Indices 1 2 3 4 5 6 
#
# 1 102.0732 10.2427 25.8696 0.0000 11.8240 0.0000
# 2 10.2427 98.6834 18.8103 0.0000 6.5993 0.0000
# 3 25.8696 18.8103 88.2162 0.0000 21.6831 0.0000
# 4 0.0000 0.0000 0.0000 1.5862 0.0000 3.4871
# 5 11.8240 6.5993 21.6831 0.0000 50.4873 0.0000
# 6 0.0000 0.0000 0.0000 3.4871 0.0000 11.2249
#
#
#
# Elastic Compliance Matrix: (Units=1/GPa)
#
#
# Indices 1 2 3 4 5 6 
#
# 1 0.010682 -0.000507 -0.002712 0.000000 -0.001271 0.000000
# 2 -0.000507 0.010596 -0.002012 0.000000 -0.000402 0.000000
# 3 -0.002712 -0.002012 0.013796 0.000000 -0.005027 0.000000
# 4 0.000000 0.000000 0.000000 1.988272 0.000000 -0.617674
# 5 -0.001271 -0.000402 -0.005027 0.000000 0.022316 0.000000
# 6 0.000000 0.000000 0.000000 -0.617674 0.000000 0.280974
#
#
# Mechanical properties :
#
#
# Convention : Reuss Voigt Hill
#
# Bulk Modulus (GPa) = 40.62978 44.31311 42.47144
# Shear Modulus (GPa) = 2.13192 28.26304 15.19748
#
# Velocity S-wave (km/s) = 1.05245 3.83199 2.80997
# Velocity P-wave (km/s) = 4.75250 6.52702 5.70912
#
# Compressibility (1/GPa) = 0.02461249
#
# Stress axis : x y z
#
# Youngs Moduli (GPa) = 93.61254 94.37144 72.48629
#
# Poissons Ratio (x) = 0.04783 0.19660
# Poissons Ratio (y) = 0.04744 0.14584
# Poissons Ratio (z) = 0.25390 0.18987
#
# Static dielectric constant tensor:
#      x y z
#    x 1.622340 0.000000 -0.008610 
#    y 0.000000 1.685770 0.000000 
#    z -0.008610 0.000000 1.673970 
# 
# From -- ./inp_files/332689.got.cif
#   From: 2010.05.17/outbox.cif.g08.bks.cpg/sg12_167_cif.got.tgz:332689.got - 2010.06.03 13:09:07.
