data_PCOD9215009
_publ_section_title
;
Structure prediction by ZEFSAII (Michael W. Deem and Ramdas Pophale) SiO2 
 PCOD9215009
Probable space group: C 2/M
;
_chemical_formula_sum "Si O2"
_cell_formula_units_Z 56
_cell_length_a 15.509579
_cell_length_b 25.586091
_cell_length_c 7.943052
_cell_angle_alpha 90.000000
_cell_angle_beta 48.682892
_cell_angle_gamma 90.000000
_cell_volume 2367.391330
_symmetry_space_group_name_H-M "C 2/M"
_symmetry_group_IT_number 12
_symmetry_cell_setting 'monoclinic'
loop_
_space_group_symop_operation_xyz
x,y,z
-x,y,-z
-x,-y,-z
x,-y,z
1/2+x,1/2+y,z
1/2-x,1/2+y,-z
1/2-x,1/2-y,-z
1/2+x,1/2-y,z
loop_
_atom_site_type_symbol
_atom_site_label
_atom_site_fract_x
_atom_site_fract_y
_atom_site_fract_z
Si Si1 0.366950 0.905395 0.852892
Si Si2 0.370047 0.939415 0.476036
Si Si3 0.505452 0.443564 0.198679
Si Si4 0.567169 0.336855 0.078797
Si Si5 0.307875 0.204605 0.815936
Si Si6 0.272942 0.604431 0.633731
Si Si7 0.853132 0.777019 0.477233
O O1 0.328366 0.927170 0.719941
O O2 0.493795 0.929021 0.709567
O O3 0.371098 0.842292 0.827061
O O4 0.289277 0.914645 0.116543
O O5 0.312154 0.902198 0.414383
O O6 0.345418 0.000000 0.469868
O O7 0.548166 0.500000 0.203639
O O8 0.573478 0.391478 0.170172
O O9 0.381210 0.430407 0.437254
O O10 0.500000 0.448191 0.000000
O O11 0.481468 0.291672 0.249602
O O12 0.500000 0.352422 0.000000
O O13 0.694363 0.320033 0.877473
O O14 0.376935 0.234563 0.587813
O O15 0.250000 0.250000 0.000000
O O16 0.308460 0.665945 0.599103
O O17 0.750000 0.750000 0.500000
#
# Coordination Sequence:
#
# PCOD9215009 Si02
#       7
#     8   8   8   8   8   8   8
#     4  11  25  45  67 104 146 180 240 287 348 432
#     4  11  26  46  72 105 146 189 231 297 362 418
#     4   9  20  39  67  99 129 172 228 285 345 403
#     4  10  22  40  67  98 133 173 230 286 337 421
#     4  12  25  44  65 100 137 183 225 287 353 407
#     4  11  23  44  72 102 137 189 239 291 350 429
#     4  11  22  42  67  97 134 179 233 287 346 410
#
# _framework density 23.654729
#
# number of rings (size 3 to 8) (size 9 to 14) (size 15 to 20)
#    0.000    1.286    2.857    2.571    4.000    6.857 
#    2.571    0.714    0.000    0.857    0.000    0.000 
#    0.000    0.000    0.000    0.000    0.000    0.000 
#
# Total GULP energy -156340.111647 kJ/mol
# GULP energy per Si atom -5583.575416 kJ/mol
# Density = 2.360089 g / cm^3
# Si number density = 23.654729 Si / 1000 Ang^3
#
#
#
# Elastic Constant Matrix: (Units=GPa)
#
#
# Indices 1 2 3 4 5 6 
#
# 1 64.8033 1.1629 20.8062 0.0000 -2.2165 0.0000
# 2 1.1629 128.1989 34.7542 0.0000 -6.0428 0.0000
# 3 20.8062 34.7542 154.9967 0.0000 10.2800 0.0000
# 4 0.0000 0.0000 0.0000 22.3473 0.0000 -1.3699
# 5 -2.2165 -6.0428 10.2800 0.0000 25.6449 0.0000
# 6 0.0000 0.0000 0.0000 -1.3699 0.0000 28.8784
#
#
#
# Elastic Compliance Matrix: (Units=1/GPa)
#
#
# Indices 1 2 3 4 5 6 
#
# 1 0.016312 0.000653 -0.002506 0.000000 0.002568 0.000000
# 2 0.000653 0.008528 -0.002195 0.000000 0.002946 0.000000
# 3 -0.002506 -0.002195 0.007529 0.000000 -0.003752 0.000000
# 4 0.000000 0.000000 0.000000 0.044879 0.000000 0.002129
# 5 0.002568 0.002946 -0.003752 0.000000 0.041414 0.000000
# 6 0.000000 0.000000 0.000000 0.002129 0.000000 0.034729
#
#
# Mechanical properties :
#
#
# Convention : Reuss Voigt Hill
#
# Bulk Modulus (GPa) = 41.20017 51.27173 46.23595
# Shear Modulus (GPa) = 29.48451 34.79248 32.13849
#
# Velocity S-wave (km/s) = 3.53434 3.83932 3.68999
# Velocity P-wave (km/s) = 5.84043 6.43241 6.14355
#
# Compressibility (1/GPa) = 0.02427174
#
# Stress axis : x y z
#
# Youngs Moduli (GPa) = 61.30395 117.25450 132.81472
#
# Poissons Ratio (x) = -0.07651 0.33288
# Poissons Ratio (y) = -0.04000 0.29157
# Poissons Ratio (z) = 0.15365 0.25741
#
# Static dielectric constant tensor:
#      x y z
#    x 1.950080 0.000000 0.067650 
#    y 0.000000 1.858820 0.000000 
#    z 0.067650 0.000000 1.997900 
# 
# From -- ./inp_files/80023.got.cif
#   From: 2010.05.17/outbox.cif.g08.bks.cpg/sg12_41_cif.got.tgz:80023.got - 2010.06.03 13:09:07.
