data_PCOD9215002
_publ_section_title
;
Structure prediction by ZEFSAII (Michael W. Deem and Ramdas Pophale) SiO2 
 PCOD9215002
Probable space group: C 2/M
;
_chemical_formula_sum "Si O2"
_cell_formula_units_Z 58
_cell_length_a 19.241338
_cell_length_b 15.258719
_cell_length_c 24.061863
_cell_angle_alpha 90.000000
_cell_angle_beta 21.846706
_cell_angle_gamma 90.000000
_cell_volume 2628.881207
_symmetry_space_group_name_H-M "C 2/M"
_symmetry_group_IT_number 12
_symmetry_cell_setting 'monoclinic'
loop_
_space_group_symop_operation_xyz
x,y,z
-x,y,-z
-x,-y,-z
x,-y,z
1/2+x,1/2+y,z
1/2-x,1/2+y,-z
1/2-x,1/2-y,-z
1/2+x,1/2-y,z
loop_
_atom_site_type_symbol
_atom_site_label
_atom_site_fract_x
_atom_site_fract_y
_atom_site_fract_z
Si Si1 0.920404 0.751628 0.739606
Si Si2 0.537813 0.846321 0.551365
Si Si3 0.203789 0.180233 0.364241
Si Si4 0.591066 0.599729 0.089202
Si Si5 0.992362 0.242477 0.939732
Si Si6 0.527277 0.900617 0.744348
Si Si7 0.000000 0.500000 0.500000
Si Si8 0.101542 0.099508 0.655126
O O1 0.906897 0.707834 0.689435
O O2 0.009142 0.677032 0.713041
O O3 0.056504 0.834565 0.639273
O O4 0.717268 0.781404 0.911207
O O5 0.648014 0.774212 0.433031
O O6 0.443334 0.921836 0.586120
O O7 0.690093 0.894021 0.476890
O O8 0.343173 0.199173 0.209086
O O9 0.322287 0.125499 0.320958
O O10 0.000000 0.141592 0.500000
O O11 0.518716 0.500000 0.137281
O O12 0.521235 0.656419 0.089227
O O13 0.515313 0.632405 0.204355
O O14 0.814866 0.598197 0.925271
O O15 0.000000 0.225817 0.000000
O O16 0.564642 0.000000 0.695334
O O17 0.050650 0.000000 0.680236
#
# Coordination Sequence:
#
# PCOD9215002 Si02
#       8
#     8   8   8   8   8   8   2   8
#     4  11  24  42  67 100 137 174 227 291 331 400
#     4  12  24  42  63  98 136 179 220 267 338 408
#     4  12  24  42  65  93 132 179 227 273 344 415
#     4   9  19  38  63  97 132 172 223 277 341 410
#     4  11  23  41  63  91 129 178 225 277 347 400
#     4  10  22  40  67  97 134 175 222 286 346 399
#     4  12  28  44  68  94 146 192 218 264 344 432
#     4  11  21  38  68  99 132 174 229 280 337 398
#
# _framework density 22.062616999999999
#
# number of rings (size 3 to 8) (size 9 to 14) (size 15 to 20)
#    0.000    1.103    4.138    2.069    0.966    2.759 
#    0.000    0.000    0.000    3.310    0.000    0.000 
#    0.000    0.000    0.000    0.000    0.000    0.000 
#
# Total GULP energy -161744.064523 kJ/mol
# GULP energy per Si atom -5577.381535 kJ/mol
# Density = 2.201240 g / cm^3
# Si number density = 22.062617 Si / 1000 Ang^3
#
#
#
# Elastic Constant Matrix: (Units=GPa)
#
#
# Indices 1 2 3 4 5 6 
#
# 1 92.6145 25.5273 42.9780 -0.0175 -4.7571 0.0085
# 2 25.5273 74.3049 12.7426 0.0034 -3.0782 -0.0214
# 3 42.9780 12.7426 115.2606 0.0072 4.0909 0.0135
# 4 -0.0175 0.0034 0.0072 15.5647 0.0025 0.1850
# 5 -4.7571 -3.0782 4.0909 0.0025 37.7930 -0.0226
# 6 0.0085 -0.0214 0.0135 0.1850 -0.0226 26.6574
#
#
#
# Elastic Compliance Matrix: (Units=1/GPa)
#
#
# Indices 1 2 3 4 5 6 
#
# 1 0.014301 -0.003978 -0.004964 0.000019 0.002013 -0.000004
# 2 -0.003978 0.014887 -0.000188 -0.000008 0.000732 0.000014
# 3 -0.004964 -0.000188 0.010611 -0.000010 -0.001789 -0.000005
# 4 0.000019 -0.000008 -0.000010 0.064253 -0.000002 -0.000446
# 5 0.002013 0.000732 -0.001789 -0.000002 0.026967 0.000024
# 6 -0.000004 0.000014 -0.000005 -0.000446 0.000024 0.037516
#
#
# Mechanical properties :
#
#
# Convention : Reuss Voigt Hill
#
# Bulk Modulus (GPa) = 46.42973 49.40842 47.91907
# Shear Modulus (GPa) = 25.77625 29.39852 27.58738
#
# Velocity S-wave (km/s) = 3.42178 3.65431 3.53995
# Velocity P-wave (km/s) = 6.05819 6.34417 6.20283
#
# Compressibility (1/GPa) = 0.02153793
#
# Stress axis : x y z
#
# Youngs Moduli (GPa) = 69.92497 67.17058 94.23893
#
# Poissons Ratio (x) = 0.26723 0.46782
# Poissons Ratio (y) = 0.27819 0.01776
# Poissons Ratio (z) = 0.34712 0.01266
#
# Static dielectric constant tensor:
#      x y z
#    x 1.835650 0.000000 -0.008690 
#    y 0.000000 1.769940 0.000030 
#    z -0.008690 0.000030 1.874360 
# 
# From -- ./inp_files/366528.got.cif
#   From: 2010.05.17/outbox.cif.g08.bks.cpg/sg12_184_cif.got.tgz:366528.got - 2010.06.03 13:09:07.
