data_PCOD9215367
_publ_section_title
;
Structure prediction by ZEFSAII (Michael W. Deem and Ramdas Pophale) SiO2 
 PCOD9215367
Probable space group: C 2/M
;
_chemical_formula_sum "Si O2"
_cell_formula_units_Z 50
_cell_length_a 18.809707
_cell_length_b 15.548081
_cell_length_c 8.942429
_cell_angle_alpha 90.000000
_cell_angle_beta 117.529177
_cell_angle_gamma 90.000000
_cell_volume 2319.145789
_symmetry_space_group_name_H-M "C 2/M"
_symmetry_group_IT_number 12
_symmetry_cell_setting 'monoclinic'
loop_
_space_group_symop_operation_xyz
x,y,z
-x,y,-z
-x,-y,-z
x,-y,z
1/2+x,1/2+y,z
1/2-x,1/2+y,-z
1/2-x,1/2-y,-z
1/2+x,1/2-y,z
loop_
_atom_site_type_symbol
_atom_site_label
_atom_site_fract_x
_atom_site_fract_y
_atom_site_fract_z
Si Si1 0.915343 0.148329 0.489000
Si Si2 0.417538 0.848521 0.843397
Si Si3 0.419717 0.143972 0.501917
Si Si4 0.606726 0.352444 0.194556
Si Si5 0.757793 0.600980 0.186818
Si Si6 0.000000 0.000000 0.000000
Si Si7 0.250176 0.102849 0.839927
O O1 0.919128 0.251867 0.499709
O O2 0.909302 0.114774 0.653001
O O3 0.833128 0.126601 0.322964
O O4 0.000000 0.118217 0.500000
O O5 0.413573 0.881452 0.669194
O O6 0.423822 0.744477 0.846286
O O7 0.333426 0.868472 0.843406
O O8 0.500000 0.880729 0.000000
O O9 0.500000 0.113954 0.500000
O O10 0.346623 0.112668 0.332259
O O11 0.699904 0.350764 0.245292
O O12 0.567237 0.422537 0.047728
O O13 0.738967 0.500000 0.171110
O O14 0.747934 0.634892 0.008953
O O15 0.253528 0.000000 0.847644
#
# Coordination Sequence:
#
# PCOD9215367 Si02
#       7
#     8   8   8   8   8   2   8
#     4  10  24  42  64  93 129 165 208 260 316 374
#     4  11  23  42  67  94 127 165 212 260 315 373
#     4  10  22  41  65  92 123 164 212 257 312 378
#     4  11  24  40  66  94 129 167 209 251 317 378
#     4  11  24  41  63  90 127 167 212 262 315 374
#     4  12  24  40  66 100 128 164 206 260 304 392
#     4  11  26  42  62  94 128 167 214 263 315 369
#
# _framework density 21.559663
#
# number of rings (size 3 to 8) (size 9 to 14) (size 15 to 20)
#    0.000    1.280    1.600    2.880    3.360    9.280 
#    0.000    0.000    0.000    0.000    0.000    0.000 
#    0.000    0.000    0.000    0.000    0.000    0.000 
#
# Total GULP energy -139460.407502 kJ/mol
# GULP energy per Si atom -5578.416300 kJ/mol
# Density = 2.151059 g / cm^3
# Si number density = 21.559663 Si / 1000 Ang^3
#
#
#
# Elastic Constant Matrix: (Units=GPa)
#
#
# Indices 1 2 3 4 5 6 
#
# 1 185.4929 2.8047 67.7219 0.0000 6.2590 0.0000
# 2 2.8047 36.1774 5.7746 0.0000 -2.9450 0.0000
# 3 67.7219 5.7746 82.9668 0.0000 11.5317 0.0000
# 4 0.0000 0.0000 0.0000 195.0169 0.0000 168.8941
# 5 6.2590 -2.9450 11.5317 0.0000 47.1198 0.0000
# 6 0.0000 0.0000 0.0000 168.8941 0.0000 179.8203
#
#
#
# Elastic Compliance Matrix: (Units=1/GPa)
#
#
# Indices 1 2 3 4 5 6 
#
# 1 0.007700 0.000471 -0.006398 0.000000 0.000572 0.000000
# 2 0.000471 0.028224 -0.002676 0.000000 0.002356 0.000000
# 3 -0.006398 -0.002676 0.017978 0.000000 -0.003717 0.000000
# 4 0.000000 0.000000 0.000000 0.027484 0.000000 -0.025814
# 5 0.000572 0.002356 -0.003717 0.000000 0.022203 0.000000
# 6 0.000000 0.000000 0.000000 -0.025814 0.000000 0.029806
#
#
# Mechanical properties :
#
#
# Convention : Reuss Voigt Hill
#
# Bulk Modulus (GPa) = 27.25081 50.80440 39.02760
# Shear Modulus (GPa) = 30.70598 99.61382 65.15990
#
# Velocity S-wave (km/s) = 3.77800 6.80471 5.50351
# Velocity P-wave (km/s) = 5.63011 9.23875 7.65025
#
# Compressibility (1/GPa) = 0.03669616
#
# Stress axis : x y z
#
# Youngs Moduli (GPa) = 129.86366 35.43076 55.62310
#
# Poissons Ratio (x) = -0.01668 0.35586
# Poissons Ratio (y) = -0.06114 0.14886
# Poissons Ratio (z) = 0.83084 0.09482
#
# Static dielectric constant tensor:
#      x y z
#    x 1.836230 0.000000 0.019510 
#    y 0.000000 1.761150 0.000000 
#    z 0.019510 0.000000 1.809180 
# 
# From -- ./inp_files/75779.got.cif
#   From: 2010.05.17/outbox.cif.g08.bks.cpg/sg12_38_cif.got.tgz:75779.got - 2010.06.03 13:09:07.
