data_PCOD9215855
_publ_section_title
;
Structure prediction by ZEFSAII (Michael W. Deem and Ramdas Pophale) SiO2 
 PCOD9215855
Probable space group: C 2/M
;
_chemical_formula_sum "Si O2"
_cell_formula_units_Z 56
_cell_length_a 23.181765
_cell_length_b 19.730723
_cell_length_c 8.496210
_cell_angle_alpha 90.000000
_cell_angle_beta 139.716336
_cell_angle_gamma 90.000000
_cell_volume 2512.649054
_symmetry_space_group_name_H-M "C 2/M"
_symmetry_group_IT_number 12
_symmetry_cell_setting 'monoclinic'
loop_
_space_group_symop_operation_xyz
x,y,z
-x,y,-z
-x,-y,-z
x,-y,z
1/2+x,1/2+y,z
1/2-x,1/2+y,-z
1/2-x,1/2-y,-z
1/2+x,1/2-y,z
loop_
_atom_site_type_symbol
_atom_site_label
_atom_site_fract_x
_atom_site_fract_y
_atom_site_fract_z
Si Si1 0.157180 0.296887 0.609231
Si Si2 0.645841 0.304871 0.099358
Si Si3 0.408906 0.179157 0.210840
Si Si4 0.408574 0.075939 0.712079
Si Si5 0.698955 0.922389 0.198622
Si Si6 0.881936 0.156879 0.597336
Si Si7 0.036457 0.922345 0.753676
O O1 0.249634 0.292206 0.707340
O O2 0.166770 0.306936 0.814943
O O3 0.104981 0.361877 0.432820
O O4 0.108273 0.225858 0.480087
O O5 0.620215 0.320576 0.225260
O O6 0.596077 0.239283 0.926439
O O7 0.618184 0.371075 0.943283
O O8 0.500000 0.178249 0.500000
O O9 0.381538 0.110463 0.067379
O O10 0.330578 0.079432 0.680444
O O11 0.407363 0.000000 0.637934
O O12 0.500000 0.082529 0.000000
O O13 0.787802 0.878595 0.363985
O O14 0.714327 0.000000 0.185169
O O15 0.960072 0.105843 0.711190
O O16 0.000000 0.919104 0.500000
O O17 0.059386 0.000000 0.838288
#
# Coordination Sequence:
#
# PCOD9215855 Si02
#       7
#     8   8   8   8   8   8   8
#     4  12  24  41  70 100 137 180 231 285 349 410
#     4  12  24  43  69 100 137 177 234 285 343 411
#     4  12  26  43  67 102 140 182 231 283 350 415
#     4  10  22  42  66  97 136 178 228 283 342 410
#     4  11  24  43  68  96 134 179 227 286 347 415
#     4  12  24  45  71 100 137 179 235 287 346 415
#     4  11  27  47  70 102 142 185 229 286 352 419
#
# _framework density 22.287236
#
# number of rings (size 3 to 8) (size 9 to 14) (size 15 to 20)
#    0.000    0.571    2.857    5.571    2.000    4.286 
#    0.000    0.000    0.000    0.000    0.000    0.000 
#    0.000    0.000    0.000    0.000    0.000    0.000 
#
# Total GULP energy -156802.011642 kJ/mol
# GULP energy per Si atom -5600.071844 kJ/mol
# Density = 2.223651 g / cm^3
# Si number density = 22.287236 Si / 1000 Ang^3
#
#
#
# Elastic Constant Matrix: (Units=GPa)
#
#
# Indices 1 2 3 4 5 6 
#
# 1 66.5405 4.3349 0.2690 0.0000 -6.5232 0.0000
# 2 4.3349 172.9771 53.7130 0.0000 -8.3583 0.0000
# 3 0.2690 53.7130 77.8702 0.0000 -1.7335 0.0000
# 4 0.0000 0.0000 0.0000 40.3607 0.0000 0.6909
# 5 -6.5232 -8.3583 -1.7335 0.0000 42.0850 0.0000
# 6 0.0000 0.0000 0.0000 0.6909 0.0000 17.5352
#
#
#
# Elastic Compliance Matrix: (Units=1/GPa)
#
#
# Indices 1 2 3 4 5 6 
#
# 1 0.015276 -0.000345 0.000236 0.000000 0.002309 0.000000
# 2 -0.000345 0.007431 -0.005098 0.000000 0.001212 0.000000
# 3 0.000236 -0.005098 0.016351 0.000000 -0.000302 0.000000
# 4 0.000000 0.000000 0.000000 0.024793 0.000000 -0.000977
# 5 0.002309 0.001212 -0.000302 0.000000 0.024348 0.000000
# 6 0.000000 0.000000 0.000000 -0.000977 0.000000 0.057067
#
#
# Mechanical properties :
#
#
# Convention : Reuss Voigt Hill
#
# Bulk Modulus (GPa) = 34.90866 48.22462 41.56664
# Shear Modulus (GPa) = 30.26149 37.26759 33.76454
#
# Velocity S-wave (km/s) = 3.68882 4.09363 3.89649
# Velocity P-wave (km/s) = 5.81724 6.63540 6.23974
#
# Compressibility (1/GPa) = 0.02864619
#
# Stress axis : x y z
#
# Youngs Moduli (GPa) = 65.46083 134.56605 61.15965
#
# Poissons Ratio (x) = 0.04638 -0.01446
# Poissons Ratio (y) = 0.02256 0.31178
# Poissons Ratio (z) = -0.01547 0.68598
#
# Static dielectric constant tensor:
#      x y z
#    x 1.849120 0.000000 0.022840 
#    y 0.000000 1.777460 0.000000 
#    z 0.022840 0.000000 1.826580 
# 
# From -- ./inp_files/106016.got.cif
#   From: 2010.05.17/outbox.cif.g08.bks.cpg/sg12_54_cif.got.tgz:106016.got - 2010.06.03 13:09:07.
