data_PCOD9215384
_publ_section_title
;
Structure prediction by ZEFSAII (Michael W. Deem and Ramdas Pophale) SiO2 
 PCOD9215384
Probable space group: C 2/M
;
_chemical_formula_sum "Si O2"
_cell_formula_units_Z 48
_cell_length_a 12.896716
_cell_length_b 13.886048
_cell_length_c 13.161790
_cell_angle_alpha 90.000000
_cell_angle_beta 59.912692
_cell_angle_gamma 90.000000
_cell_volume 2039.485556
_symmetry_space_group_name_H-M "C 2/M"
_symmetry_group_IT_number 12
_symmetry_cell_setting 'monoclinic'
loop_
_space_group_symop_operation_xyz
x,y,z
-x,y,-z
-x,-y,-z
x,-y,z
1/2+x,1/2+y,z
1/2-x,1/2+y,-z
1/2-x,1/2-y,-z
1/2+x,1/2-y,z
loop_
_atom_site_type_symbol
_atom_site_label
_atom_site_fract_x
_atom_site_fract_y
_atom_site_fract_z
Si Si1 0.011728 0.886632 0.646495
Si Si2 0.784865 0.109706 0.305020
Si Si3 0.410030 0.115886 0.189174
Si Si4 0.870284 0.113935 0.039641
Si Si5 0.834060 0.617698 0.998848
Si Si6 0.817718 0.197876 0.609994
O O1 0.079803 0.873870 0.719233
O O2 0.111058 0.853227 0.515332
O O3 0.893166 0.829442 0.673861
O O4 0.984549 0.000000 0.648115
O O5 0.792536 0.120429 0.180366
O O6 0.695271 0.187976 0.394214
O O7 0.753860 0.000000 0.346818
O O8 0.549066 0.144374 0.124893
O O9 0.317332 0.159954 0.313549
O O10 0.403832 0.000000 0.198847
O O11 0.361657 0.144704 0.101007
O O12 0.791042 0.151234 0.986194
O O13 0.889440 0.000000 0.009079
O O14 0.000000 0.156399 0.000000
O O15 0.831596 0.500000 0.999614
#
# Coordination Sequence:
#
# PCOD9215384 Si02
#       6
#     8   8   8   8   8   8
#     4  10  22  41  65  93 123 153 203 262 309 365
#     4  10  23  41  59  85 123 165 202 250 308 365
#     4   9  17  31  55  86 121 158 196 252 318 365
#     4   9  18  34  56  80 114 164 210 247 295 360
#     4   8  16  31  52  83 120 156 200 251 304 370
#     4  11  21  37  62  91 117 158 204 256 306 361
#
# _framework density 23.535347000000002
#
# number of rings (size 3 to 8) (size 9 to 14) (size 15 to 20)
#    0.000    2.500    0.000    3.500    2.333    1.333 
#    3.000    2.500    0.000    6.000    0.000    0.000 
#    0.000    0.000    0.000    0.000    0.000    0.000 
#
# Total GULP energy -134213.850146 kJ/mol
# GULP energy per Si atom -5592.243756 kJ/mol
# Density = 2.348178 g / cm^3
# Si number density = 23.535347 Si / 1000 Ang^3
#
#
#
# Elastic Constant Matrix: (Units=GPa)
#
#
# Indices 1 2 3 4 5 6 
#
# 1 116.8737 35.9811 8.6325 0.0000 -3.0179 0.0000
# 2 35.9811 106.1042 3.8728 0.0000 -0.1799 0.0000
# 3 8.6325 3.8728 34.4827 0.0000 -24.8970 0.0000
# 4 0.0000 0.0000 0.0000 0.3955 0.0000 -10.5043
# 5 -3.0179 -0.1799 -24.8970 0.0000 30.8002 0.0000
# 6 0.0000 0.0000 0.0000 -10.5043 0.0000 21.7584
#
#
#
# Elastic Compliance Matrix: (Units=1/GPa)
#
#
# Indices 1 2 3 4 5 6 
#
# 1 0.009739 -0.003182 -0.003375 0.000000 -0.001792 0.000000
# 2 -0.003182 0.010551 -0.001367 0.000000 -0.001355 0.000000
# 3 -0.003375 -0.001367 0.071460 0.000000 0.057425 0.000000
# 4 0.000000 0.000000 0.000000 -0.213873 0.000000 -0.103251
# 5 -0.001792 -0.001355 0.057425 0.000000 0.078703 0.000000
# 6 0.000000 0.000000 0.000000 -0.103251 0.000000 -0.003887
#
#
# Mechanical properties :
#
#
# Convention : Reuss Voigt Hill
#
# Bulk Modulus (GPa) = 13.17464 39.38151 26.27807
# Shear Modulus (GPa) = -811.88668 24.52244 -393.68212
#
# Velocity S-wave (km/s) = -18.59338 3.23141 -12.94743
# Velocity P-wave (km/s) = 21.33874 5.54003 14.57137
#
# Compressibility (1/GPa) = 0.07590338
#
# Stress axis : x y z
#
# Youngs Moduli (GPa) = 102.68009 94.77339 13.99380
#
# Poissons Ratio (x) = 0.30161 0.04722
# Poissons Ratio (y) = 0.32678 0.01912
# Poissons Ratio (z) = 0.34651 0.12952
#
# Static dielectric constant tensor:
#      x y z
#    x 1.899850 0.000000 0.031050 
#    y 0.000000 1.915030 0.000000 
#    z 0.031050 0.000000 1.869000 
# 
# From -- ./inp_files/204866.got.cif
#   From: 2010.05.17/outbox.cif.g08.bks.cpg/sg12_103_cif.got.tgz:204866.got - 2010.06.03 13:09:07.
