data_PCOD9215951
_publ_section_title
;
Structure prediction by ZEFSAII (Michael W. Deem and Ramdas Pophale) SiO2 
 PCOD9215951
Probable space group: C 2/M
;
_chemical_formula_sum "Si O2"
_cell_formula_units_Z 46
_cell_length_a 15.606337
_cell_length_b 17.769051
_cell_length_c 18.118029
_cell_angle_alpha 90.000000
_cell_angle_beta 23.740743
_cell_angle_gamma 90.000000
_cell_volume 2022.779965
_symmetry_space_group_name_H-M "C 2/M"
_symmetry_group_IT_number 12
_symmetry_cell_setting 'monoclinic'
loop_
_space_group_symop_operation_xyz
x,y,z
-x,y,-z
-x,-y,-z
x,-y,z
1/2+x,1/2+y,z
1/2-x,1/2+y,-z
1/2-x,1/2-y,-z
1/2+x,1/2-y,z
loop_
_atom_site_type_symbol
_atom_site_label
_atom_site_fract_x
_atom_site_fract_y
_atom_site_fract_z
Si Si1 0.757909 0.250280 0.167062
Si Si2 0.335381 0.410444 0.332187
Si Si3 0.796992 0.585634 0.393155
Si Si4 0.825367 0.913494 0.751263
Si Si5 0.000000 0.500000 0.000000
Si Si6 0.000000 0.316723 0.500000
Si Si7 0.219680 0.666441 0.053403
O O1 0.710553 0.335802 0.178510
O O2 0.611302 0.235951 0.352657
O O3 0.716080 0.182701 0.143881
O O4 0.000000 0.247042 0.000000
O O5 0.320343 0.500000 0.333540
O O6 0.268081 0.394465 0.470243
O O7 0.177072 0.367203 0.401731
O O8 0.577515 0.383958 0.126983
O O9 0.874819 0.500000 0.333207
O O10 0.566584 0.586774 0.535936
O O11 0.987893 0.636481 0.215539
O O12 0.632058 0.930928 0.849329
O O13 0.777914 0.000000 0.826676
O O14 0.250000 0.750000 0.000000
#
# Coordination Sequence:
#
# PCOD9215951 Si02
#       7
#     8   8   8   8   2   4   8
#     4  12  23  42  66  94 138 176 221 286 343 402
#     4  11  24  44  66  98 134 181 227 280 337 406
#     4  10  22  42  68  97 135 180 223 275 340 411
#     4   9  19  38  67  95 127 174 220 275 339 410
#     4   8  16  36  64  98 124 162 230 256 348 392
#     4  12  25  42  67  98 128 180 234 274 343 402
#     4  12  26  41  65 102 136 177 228 280 342 405
#
# _framework density 22.74098
#
# number of rings (size 3 to 8) (size 9 to 14) (size 15 to 20)
#    0.522    0.696    4.348    1.826    2.435    1.391 
#    0.000    2.174    0.000    0.000    0.000    0.000 
#    0.000    0.000    0.000    0.000    0.000    0.000 
#
# Total GULP energy -128162.965362 kJ/mol
# GULP energy per Si atom -5572.302842 kJ/mol
# Density = 2.268922 g / cm^3
# Si number density = 22.740980 Si / 1000 Ang^3
#
#
#
# Elastic Constant Matrix: (Units=GPa)
#
#
# Indices 1 2 3 4 5 6 
#
# 1 67.2337 25.3204 40.3888 -0.3419 -8.1862 0.2193
# 2 25.3204 99.9344 70.0414 -0.5526 -14.4912 0.3601
# 3 40.3888 70.0414 190.0789 -1.0459 -27.0193 0.7001
# 4 -0.3419 -0.5526 -1.0459 -331.6206 0.3755 251.3437
# 5 -8.1862 -14.4912 -27.0193 0.3755 40.7443 -0.2362
# 6 0.2193 0.3601 0.7001 251.3437 -0.2362 -152.6578
#
#
#
# Elastic Compliance Matrix: (Units=1/GPa)
#
#
# Indices 1 2 3 4 5 6 
#
# 1 0.017515 -0.002414 -0.002710 0.000001 0.000864 0.000007
# 2 -0.002414 0.013925 -0.004398 0.000000 0.001551 0.000006
# 3 -0.002710 -0.004398 0.007902 -0.000007 0.003132 0.000006
# 4 0.000001 0.000000 -0.000007 0.012165 -0.000001 0.020029
# 5 0.000864 0.001551 0.003132 -0.000001 0.027345 -0.000024
# 6 0.000007 0.000006 0.000006 0.020029 -0.000024 0.026426
#
#
# Mechanical properties :
#
#
# Convention : Reuss Voigt Hill
#
# Bulk Modulus (GPa) = 49.25870 69.86092 59.55981
# Shear Modulus (GPa) = 38.14220 -73.94040 -17.89910
#
# Velocity S-wave (km/s) = 4.09986 -5.70831 -2.80855
# Velocity P-wave (km/s) = 6.64226 3.55800 3.96612
#
# Compressibility (1/GPa) = 0.02030098
#
# Stress axis : x y z
#
# Youngs Moduli (GPa) = 57.09290 71.81088 126.54283
#
# Poissons Ratio (x) = 0.17332 0.34288
# Poissons Ratio (y) = 0.13780 0.55654
# Poissons Ratio (z) = 0.15470 0.31582
#
# Static dielectric constant tensor:
#      x y z
#    x 2.090410 -0.000050 0.010020 
#    y -0.000050 1.827970 0.000070 
#    z 0.010020 0.000070 1.926910 
# 
# From -- ./inp_files/317504.got.cif
#   From: 2010.05.17/outbox.cif.g08.bks.cpg/sg12_159_cif.got.tgz:317504.got - 2010.06.03 13:09:07.
