data_PCOD9215587
_publ_section_title
;
Structure prediction by ZEFSAII (Michael W. Deem and Ramdas Pophale) SiO2 
 PCOD9215587
Probable space group: C 2/M
;
_chemical_formula_sum "Si O2"
_cell_formula_units_Z 36
_cell_length_a 9.282718
_cell_length_b 27.128281
_cell_length_c 11.944626
_cell_angle_alpha 90.000000
_cell_angle_beta 38.040421
_cell_angle_gamma 90.000000
_cell_volume 1853.548005
_symmetry_space_group_name_H-M "C 2/M"
_symmetry_group_IT_number 12
_symmetry_cell_setting 'monoclinic'
loop_
_space_group_symop_operation_xyz
x,y,z
-x,y,-z
-x,-y,-z
x,-y,z
1/2+x,1/2+y,z
1/2-x,1/2+y,-z
1/2-x,1/2-y,-z
1/2+x,1/2-y,z
loop_
_atom_site_type_symbol
_atom_site_label
_atom_site_fract_x
_atom_site_fract_y
_atom_site_fract_z
Si Si1 0.778156 0.055890 0.981111
Si Si2 0.628955 0.802435 0.305342
Si Si3 0.000000 0.368775 0.000000
Si Si4 0.493936 0.775852 0.158731
Si Si5 0.694449 0.915703 0.280256
O O1 0.655963 0.061387 0.179394
O O2 0.740077 0.000000 0.965613
O O3 0.685507 0.095097 0.946666
O O4 0.055061 0.064728 0.830966
O O5 0.500000 0.803536 0.500000
O O6 0.458662 0.786204 0.310768
O O7 0.720316 0.857765 0.234595
O O8 0.828829 0.762660 0.199886
O O9 0.949827 0.328653 0.127952
O O10 0.750000 0.750000 0.000000
O O11 0.500000 0.922137 0.500000
#
# Coordination Sequence:
#
# PCOD9215587 Si02
#       5
#     8   8   4   8   8
#     4  11  24  42  66  91 122 165 211 262 317 370
#     4  11  23  38  60  93 127 159 200 246 302 369
#     4  12  23  40  62  90 130 162 209 254 312 368
#     4  12  22  38  62  90 122 168 201 242 299 374
#     4  10  22  41  68  96 123 159 209 262 310 370
#
# _framework density 19.422208999999999
#
# number of rings (size 3 to 8) (size 9 to 14) (size 15 to 20)
#    0.000    0.889    4.444    3.667    3.111    1.778 
#    0.000    1.111    0.000    2.667    0.000    0.000 
#    0.000    0.000    0.000    0.000    0.000    0.000 
#
# Total GULP energy -100270.786244 kJ/mol
# GULP energy per Si atom -5570.599236 kJ/mol
# Density = 1.937800 g / cm^3
# Si number density = 19.422209 Si / 1000 Ang^3
#
#
#
# Elastic Constant Matrix: (Units=GPa)
#
#
# Indices 1 2 3 4 5 6 
#
# 1 113.2411 32.8910 20.5902 0.0000 18.0735 0.0000
# 2 32.8910 151.2300 23.3057 0.0000 -5.2350 0.0000
# 3 20.5902 23.3057 58.0996 0.0000 13.0914 0.0000
# 4 0.0000 0.0000 0.0000 -5.5332 0.0000 15.8048
# 5 18.0735 -5.2350 13.0914 0.0000 28.1758 0.0000
# 6 0.0000 0.0000 0.0000 15.8048 0.0000 -12.5496
#
#
#
# Elastic Compliance Matrix: (Units=1/GPa)
#
#
# Indices 1 2 3 4 5 6 
#
# 1 0.010852 -0.002384 -0.001364 0.000000 -0.006770 0.000000
# 2 -0.002384 0.007795 -0.003298 0.000000 0.004510 0.000000
# 3 -0.001364 -0.003298 0.021176 0.000000 -0.009577 0.000000
# 4 0.000000 0.000000 0.000000 0.069584 0.000000 0.087633
# 5 -0.006770 0.004510 -0.009577 0.000000 0.045122 0.000000
# 6 0.000000 0.000000 0.000000 0.087633 0.000000 0.030680
#
#
# Mechanical properties :
#
#
# Convention : Reuss Voigt Hill
#
# Bulk Modulus (GPa) = 38.86454 52.90495 45.88474
# Shear Modulus (GPa) = 24.05247 18.40418 21.22833
#
# Velocity S-wave (km/s) = 3.52291 3.08163 3.30963
# Velocity P-wave (km/s) = 6.04993 6.32143 6.18717
#
# Compressibility (1/GPa) = 0.02573040
#
# Stress axis : x y z
#
# Youngs Moduli (GPa) = 92.15078 128.28021 47.22280
#
# Poissons Ratio (x) = 0.30586 0.06441
# Poissons Ratio (y) = 0.21972 0.15576
# Poissons Ratio (z) = 0.12568 0.42311
#
# Static dielectric constant tensor:
#      x y z
#    x 4.271770 0.000000 -3.086520 
#    y 0.000000 1.732150 0.000000 
#    z -3.086520 0.000000 5.462990 
# 
# From -- ./inp_files/123317.got.cif
#   From: 2010.05.17/outbox.cif.g08.bks.cpg/sg12_62_cif.got.tgz:123317.got - 2010.06.03 13:09:07.
