data_PCOD9215823
_publ_section_title
;
Structure prediction by ZEFSAII (Michael W. Deem and Ramdas Pophale) SiO2 
 PCOD9215823
Probable space group: C 2/M
;
_chemical_formula_sum "Si O2"
_cell_formula_units_Z 60
_cell_length_a 18.013286
_cell_length_b 23.781998
_cell_length_c 12.358263
_cell_angle_alpha 90.000000
_cell_angle_beta 143.017614
_cell_angle_gamma 90.000000
_cell_volume 3184.817185
_symmetry_space_group_name_H-M "C 2/M"
_symmetry_group_IT_number 12
_symmetry_cell_setting 'monoclinic'
loop_
_space_group_symop_operation_xyz
x,y,z
-x,y,-z
-x,-y,-z
x,-y,z
1/2+x,1/2+y,z
1/2-x,1/2+y,-z
1/2-x,1/2-y,-z
1/2+x,1/2-y,z
loop_
_atom_site_type_symbol
_atom_site_label
_atom_site_fract_x
_atom_site_fract_y
_atom_site_fract_z
Si Si1 0.938567 0.258868 0.809471
Si Si2 0.500000 0.221441 0.500000
Si Si3 0.393647 0.566539 0.967134
Si Si4 0.031615 0.348392 0.739607
Si Si5 0.301054 0.698385 0.370117
Si Si6 0.880078 0.565324 0.440910
Si Si7 0.489214 0.350462 0.728097
Si Si8 0.737107 0.310772 0.920220
O O1 0.796993 0.273518 0.665833
O O2 0.960065 0.198099 0.782027
O O3 0.988846 0.304438 0.781707
O O4 0.000000 0.261089 0.000000
O O5 0.441287 0.182317 0.342251
O O6 0.594603 0.257252 0.541188
O O7 0.384095 0.500000 0.976909
O O8 0.253827 0.584025 0.764713
O O9 0.500000 0.575247 0.000000
O O10 0.450456 0.598347 0.136608
O O11 0.928708 0.394790 0.594430
O O12 0.171906 0.360705 0.935634
O O13 0.368438 0.647067 0.510598
O O14 0.241105 0.690593 0.182770
O O15 0.863572 0.500000 0.454308
O O16 0.000000 0.566160 0.500000
O O17 0.597768 0.327847 0.778317
O O18 0.750000 0.250000 0.000000
#
# Coordination Sequence:
#
# PCOD9215823 Si02
#       8
#     8   4   8   8   8   8   8   8
#     4  12  24  36  55  90 129 161 202 243 302 372
#     4  12  22  36  57  84 119 164 196 242 300 362
#     4  10  24  44  64  91 122 156 207 264 317 369
#     4  12  23  37  61  90 120 162 197 253 308 365
#     4  12  22  38  53  86 129 159 206 242 293 371
#     4  10  22  42  66  92 118 152 207 266 312 359
#     4  12  23  37  61  87 118 167 201 254 303 363
#     4  12  20  38  57  85 125 165 202 238 302 366
#
# _framework density 18.839386000000001
#
# number of rings (size 3 to 8) (size 9 to 14) (size 15 to 20)
#    0.000    0.533    7.333    1.600    1.867    0.000 
#    0.000    0.000    0.000    2.800    0.000    0.000 
#    0.000    0.000    0.000    0.000    0.000    0.000 
#
# Total GULP energy -167050.363538 kJ/mol
# GULP energy per Si atom -5568.345451 kJ/mol
# Density = 1.879651 g / cm^3
# Si number density = 18.839386 Si / 1000 Ang^3
#
#
#
# Elastic Constant Matrix: (Units=GPa)
#
#
# Indices 1 2 3 4 5 6 
#
# 1 88.8604 8.7907 38.4856 0.0000 5.7607 0.0000
# 2 8.7907 50.0959 42.7433 0.0000 -5.1482 0.0000
# 3 38.4856 42.7433 136.0895 0.0000 -2.3634 0.0000
# 4 0.0000 0.0000 0.0000 23.1385 0.0000 4.0647
# 5 5.7607 -5.1482 -2.3634 0.0000 43.2641 0.0000
# 6 0.0000 0.0000 0.0000 4.0647 0.0000 13.4549
#
#
#
# Elastic Compliance Matrix: (Units=1/GPa)
#
#
# Indices 1 2 3 4 5 6 
#
# 1 0.013016 0.000949 -0.004011 0.000000 -0.001839 0.000000
# 2 0.000949 0.027677 -0.008915 0.000000 0.002680 0.000000
# 3 -0.004011 -0.008915 0.011284 0.000000 0.000090 0.000000
# 4 0.000000 0.000000 0.000000 0.045640 0.000000 -0.013788
# 5 -0.001839 0.002680 0.000090 0.000000 0.023683 0.000000
# 6 0.000000 0.000000 0.000000 -0.013788 0.000000 0.078488
#
#
# Mechanical properties :
#
#
# Convention : Reuss Voigt Hill
#
# Bulk Modulus (GPa) = 35.68378 50.56502 43.12440
# Shear Modulus (GPa) = 21.45172 28.30657 24.87915
#
# Velocity S-wave (km/s) = 3.37807 3.88044 3.63794
# Velocity P-wave (km/s) = 5.84785 6.85386 6.37074
#
# Compressibility (1/GPa) = 0.02802393
#
# Stress axis : x y z
#
# Youngs Moduli (GPa) = 76.82795 36.13130 88.62187
#
# Poissons Ratio (x) = -0.03430 0.35546
# Poissons Ratio (y) = -0.07293 0.79004
# Poissons Ratio (z) = 0.30816 0.32210
#
# Static dielectric constant tensor:
#      x y z
#    x 1.674190 0.000000 -0.013240 
#    y 0.000000 1.672830 0.000000 
#    z -0.013240 0.000000 1.847650 
# 
# From -- ./inp_files/160492.got.cif
#   From: 2010.05.17/outbox.cif.g08.bks.cpg/sg12_81_cif.got.tgz:160492.got - 2010.06.03 13:09:07.
