data_PCOD9215957
_publ_section_title
;
Structure prediction by ZEFSAII (Michael W. Deem and Ramdas Pophale) SiO2 
 PCOD9215957
Probable space group: C 2/M
;
_chemical_formula_sum "Si O2"
_cell_formula_units_Z 48
_cell_length_a 9.052333
_cell_length_b 24.665248
_cell_length_c 16.144085
_cell_angle_alpha 90.000000
_cell_angle_beta 33.561929
_cell_angle_gamma 90.000000
_cell_volume 1992.770638
_symmetry_space_group_name_H-M "C 2/M"
_symmetry_group_IT_number 12
_symmetry_cell_setting 'monoclinic'
loop_
_space_group_symop_operation_xyz
x,y,z
-x,y,-z
-x,-y,-z
x,-y,z
1/2+x,1/2+y,z
1/2-x,1/2+y,-z
1/2-x,1/2-y,-z
1/2+x,1/2-y,z
loop_
_atom_site_type_symbol
_atom_site_label
_atom_site_fract_x
_atom_site_fract_y
_atom_site_fract_z
Si Si1 0.131253 0.890340 0.851575
Si Si2 0.228947 0.756716 0.606722
Si Si3 0.837201 0.435287 0.161993
Si Si4 0.714176 0.561590 0.647880
Si Si5 0.694499 0.134087 0.664624
Si Si6 0.727963 0.699409 0.074917
O O1 0.143480 0.936867 0.777403
O O2 0.441079 0.872709 0.720998
O O3 0.936598 0.845176 0.901425
O O4 0.000000 0.905639 0.000000
O O5 0.500000 0.787601 0.500000
O O6 0.250000 0.750000 0.500000
O O7 0.226954 0.698894 0.655676
O O8 0.969758 0.785777 0.758495
O O9 0.845309 0.500000 0.179182
O O10 0.537226 0.415592 0.282354
O O11 0.908112 0.397864 0.206351
O O12 0.000000 0.430276 0.000000
O O13 0.733274 0.500000 0.608565
O O14 0.000000 0.587650 0.500000
O O15 0.000000 0.114362 0.500000
O O16 0.750000 0.750000 0.000000
O O17 0.000000 0.687756 0.000000
#
# Coordination Sequence:
#
# PCOD9215957 Si02
#       6
#     8   8   8   8   8   8
#     4  12  26  42  65 100 137 177 228 277 336 408
#     4  11  24  43  65  94 131 173 223 276 335 399
#     4  10  22  42  68  98 134 178 228 282 343 408
#     4  10  23  44  68  97 135 179 226 280 342 406
#     4  11  24  42  66  99 135 178 229 284 341 405
#     4  12  26  47  72  99 136 179 225 282 344 408
#
# _framework density 24.087067999999999
#
# number of rings (size 3 to 8) (size 9 to 14) (size 15 to 20)
#    0.000    1.000    0.000    6.500    0.000   10.667 
#    0.000    0.833    0.000    0.000    0.000    0.000 
#    0.000    0.000    0.000    0.000    0.000    0.000 
#
# Total GULP energy -134084.760000 kJ/mol
# GULP energy per Si atom -5586.865000 kJ/mol
# Density = 2.403224 g / cm^3
# Si number density = 24.087068 Si / 1000 Ang^3
#
#
#
# Elastic Constant Matrix: (Units=GPa)
#
#
# Indices 1 2 3 4 5 6 
#
# 1 174.8257 35.4206 69.2630 -0.0006 -25.3638 -0.0005
# 2 35.4206 103.7943 30.4871 -0.0003 3.5165 -0.0001
# 3 69.2630 30.4871 155.5478 -0.0014 -6.1851 -0.0007
# 4 -0.0006 -0.0003 -0.0014 -335.1886 0.0008 -119.3818
# 5 -25.3638 3.5165 -6.1851 0.0008 64.5533 0.0005
# 6 -0.0005 -0.0001 -0.0007 -119.3818 0.0005 -34.5427
#
#
#
# Elastic Compliance Matrix: (Units=1/GPa)
#
#
# Indices 1 2 3 4 5 6 
#
# 1 0.007671 -0.001850 -0.002940 0.000000 0.002833 0.000000
# 2 -0.001850 0.010706 -0.001332 0.000000 -0.001438 0.000000
# 3 -0.002940 -0.001332 0.007987 0.000000 -0.000318 0.000000
# 4 0.000000 0.000000 0.000000 0.012920 0.000000 -0.044651
# 5 0.002833 -0.001438 -0.000318 0.000000 0.016652 0.000000
# 6 0.000000 0.000000 0.000000 -0.044651 0.000000 0.125366
#
#
# Mechanical properties :
#
#
# Convention : Reuss Voigt Hill
#
# Bulk Modulus (GPa) = 70.82767 78.27881 74.55324
# Shear Modulus (GPa) = 25.22058 -41.10246 -7.94094
#
# Velocity S-wave (km/s) = 3.23934 -4.13536 -1.81767
# Velocity P-wave (km/s) = 6.59240 3.12526 5.15883
#
# Compressibility (1/GPa) = 0.01411878
#
# Stress axis : x y z
#
# Youngs Moduli (GPa) = 130.36513 93.40883 125.20979
#
# Poissons Ratio (x) = 0.17281 0.36817
# Poissons Ratio (y) = 0.24118 0.16674
# Poissons Ratio (z) = 0.38333 0.12439
#
# Static dielectric constant tensor:
#      x y z
#    x 1.939700 0.000000 -0.053260 
#    y 0.000000 1.931380 0.000000 
#    z -0.053260 0.000000 1.930470 
# 
# From -- ./inp_files/200133.got.cif
#   From: 2010.05.17/outbox.cif.g08.bks.cpg/sg12_101_cif.got.tgz:200133.got - 2010.06.03 13:09:07.
