data_PCOD9215673
_publ_section_title
;
Structure prediction by ZEFSAII (Michael W. Deem and Ramdas Pophale) SiO2 
 PCOD9215673
Probable space group: C 2/M
;
_chemical_formula_sum "Si O2"
_cell_formula_units_Z 34
_cell_length_a 24.553366
_cell_length_b 7.232323
_cell_length_c 7.221295
_cell_angle_alpha 90.000000
_cell_angle_beta 105.433644
_cell_angle_gamma 90.000000
_cell_volume 1236.100058
_symmetry_space_group_name_H-M "C 2/M"
_symmetry_group_IT_number 12
_symmetry_cell_setting 'monoclinic'
loop_
_space_group_symop_operation_xyz
x,y,z
-x,y,-z
-x,-y,-z
x,-y,z
1/2+x,1/2+y,z
1/2-x,1/2+y,-z
1/2-x,1/2-y,-z
1/2+x,1/2-y,z
loop_
_atom_site_type_symbol
_atom_site_label
_atom_site_fract_x
_atom_site_fract_y
_atom_site_fract_z
Si Si1 0.149186 0.275474 0.622971
Si Si2 0.044401 0.276483 0.268546
Si Si3 0.500000 0.500000 0.500000
Si Si4 0.731252 0.717518 0.197347
Si Si5 0.389836 0.209638 0.015078
O O1 0.152176 0.500000 0.631719
O O2 0.100496 0.223931 0.438444
O O3 0.213410 0.213378 0.642936
O O4 0.129086 0.207067 0.807100
O O5 0.037256 0.500000 0.269062
O O6 0.061944 0.220238 0.077375
O O7 0.997954 0.162761 0.336078
O O8 0.724994 0.500000 0.221252
O O9 0.668893 0.798806 0.156086
O O10 0.750000 0.750000 0.000000
O O11 0.406952 0.000000 0.073511
#
# Coordination Sequence:
#
# PCOD9215673 Si02
#       5
#     8   8   2   8   8
#     4   8  16  34  56  82 116 154 189 223 281 351
#     4  10  22  42  62  80 114 151 186 248 303 336
#     4  12  26  44  62  90 108 142 214 252 294 352
#     4   9  16  28  50  82 120 154 186 224 271 338
#     4   9  18  34  57  84 115 154 189 225 285 347
#
# _framework density 27.505863000000002
#
# number of rings (size 3 to 8) (size 9 to 14) (size 15 to 20)
#    0.000    2.824    0.000    2.471    1.647    0.941 
#   10.588    2.353    0.000    5.647    0.000    0.000 
#    0.000    0.000    0.000    0.000    0.000    0.000 
#
# Total GULP energy -94878.775699 kJ/mol
# GULP energy per Si atom -5581.104453 kJ/mol
# Density = 2.744326 g / cm^3
# Si number density = 27.505863 Si / 1000 Ang^3
#
#
#
# Elastic Constant Matrix: (Units=GPa)
#
#
# Indices 1 2 3 4 5 6 
#
# 1 164.3855 -11.0742 35.2283 0.0000 0.1273 0.0000
# 2 -11.0742 162.2779 25.5042 0.0000 -15.3723 0.0000
# 3 35.2283 25.5042 129.4344 0.0000 -25.3470 0.0000
# 4 0.0000 0.0000 0.0000 -13.8838 0.0000 -8.1351
# 5 0.1273 -15.3723 -25.3470 0.0000 58.1944 0.0000
# 6 0.0000 0.0000 0.0000 -8.1351 0.0000 3.1920
#
#
#
# Elastic Compliance Matrix: (Units=1/GPa)
#
#
# Indices 1 2 3 4 5 6 
#
# 1 0.006575 0.000705 -0.002072 0.000000 -0.000730 0.000000
# 2 0.000705 0.006518 -0.001246 0.000000 0.001178 0.000000
# 3 -0.002072 -0.001246 0.009262 0.000000 0.003709 0.000000
# 4 0.000000 0.000000 0.000000 -0.028888 0.000000 -0.073623
# 5 -0.000730 0.001178 0.003709 0.000000 0.019112 0.000000
# 6 0.000000 0.000000 0.000000 -0.073623 0.000000 0.125650
#
#
# Mechanical properties :
#
#
# Convention : Reuss Voigt Hill
#
# Bulk Modulus (GPa) = 58.37549 61.71274 60.04411
# Shear Modulus (GPa) = 33.52041 36.59646 35.05843
#
# Velocity S-wave (km/s) = 3.49472 3.65155 3.57400
# Velocity P-wave (km/s) = 6.12806 6.34534 6.23765
#
# Compressibility (1/GPa) = 0.01713048
#
# Stress axis : x y z
#
# Youngs Moduli (GPa) = 152.08497 153.42845 107.97274
#
# Poissons Ratio (x) = -0.10818 0.22367
# Poissons Ratio (y) = -0.10723 0.13449
# Poissons Ratio (z) = 0.31506 0.19111
#
# Static dielectric constant tensor:
#      x y z
#    x 2.261320 0.000000 0.056930 
#    y 0.000000 2.099610 0.000000 
#    z 0.056930 0.000000 2.167390 
# 
# From -- ./inp_files/92415.got.cif
#   From: 2010.05.17/outbox.cif.g08.bks.cpg/sg12_47_cif.got.tgz:92415.got - 2010.06.03 13:09:07.
