data_PCOD9215766
_publ_section_title
;
Structure prediction by ZEFSAII (Michael W. Deem and Ramdas Pophale) SiO2 
 PCOD9215766
Probable space group: C 2/M
;
_chemical_formula_sum "Si O2"
_cell_formula_units_Z 64
_cell_length_a 24.826463
_cell_length_b 19.270403
_cell_length_c 18.363464
_cell_angle_alpha 90.000000
_cell_angle_beta 159.741847
_cell_angle_gamma 90.000000
_cell_volume 3041.940632
_symmetry_space_group_name_H-M "C 2/M"
_symmetry_group_IT_number 12
_symmetry_cell_setting 'monoclinic'
loop_
_space_group_symop_operation_xyz
x,y,z
-x,y,-z
-x,-y,-z
x,-y,z
1/2+x,1/2+y,z
1/2-x,1/2+y,-z
1/2-x,1/2-y,-z
1/2+x,1/2-y,z
loop_
_atom_site_type_symbol
_atom_site_label
_atom_site_fract_x
_atom_site_fract_y
_atom_site_fract_z
Si Si1 0.441246 0.629061 0.848350
Si Si2 0.903260 0.335190 0.558946
Si Si3 0.518810 0.918850 0.842496
Si Si4 0.326994 0.422542 0.547191
Si Si5 0.088692 0.425432 0.686775
Si Si6 0.471310 0.689973 0.279504
Si Si7 0.196412 0.797581 0.081189
Si Si8 0.836366 0.151705 0.256929
O O1 0.280312 0.666439 0.663170
O O2 0.393473 0.585172 0.715076
O O3 0.500000 0.596362 0.000000
O O4 0.572014 0.681577 0.984546
O O5 0.956512 0.260616 0.597793
O O6 0.980656 0.362667 0.731548
O O7 0.960441 0.394435 0.577390
O O8 0.360567 0.915127 0.689441
O O9 0.527504 0.000000 0.829212
O O10 0.686511 0.895306 0.085533
O O11 0.366382 0.500000 0.572065
O O12 0.405500 0.364368 0.596846
O O13 0.152649 0.500000 0.793106
O O14 0.213859 0.367385 0.827120
O O15 0.000000 0.434822 0.500000
O O16 0.365810 0.654397 0.206926
O O17 0.383328 0.718561 0.097027
O O18 0.296748 0.730985 0.229583
O O19 0.000000 0.130042 0.500000
#
# Coordination Sequence:
#
# PCOD9215766 Si02
#       8
#     8   8   8   8   8   8   8   8
#     4  10  23  36  63  98 133 169 205 263 311 384
#     4  11  21  39  62  92 124 166 218 257 315 379
#     4  10  22  42  65  88 121 165 213 262 323 386
#     4   9  22  43  66  94 130 173 215 260 318 389
#     4  11  23  38  59  88 130 173 207 252 319 390
#     4  11  23  39  66  93 124 167 216 267 314 383
#     4  11  22  40  62  91 129 170 213 258 317 383
#     4  12  25  40  64  95 127 164 211 282 325 373
#
# _framework density 21.039200999999998
#
# number of rings (size 3 to 8) (size 9 to 14) (size 15 to 20)
#    0.000    1.375    2.500    2.625    3.500    5.000 
#    0.000    0.625    0.000    1.500    0.000    0.000 
#    0.000    0.000    0.000    0.000    0.000    0.000 
#
# Total GULP energy -178478.930328 kJ/mol
# GULP energy per Si atom -5577.466573 kJ/mol
# Density = 2.099131 g / cm^3
# Si number density = 21.039201 Si / 1000 Ang^3
#
#
#
# Elastic Constant Matrix: (Units=GPa)
#
#
# Indices 1 2 3 4 5 6 
#
# 1 67.8430 16.8094 11.1170 0.0000 15.5361 0.0000
# 2 16.8094 105.7866 32.9548 0.0000 11.1163 0.0000
# 3 11.1170 32.9548 117.1409 -0.0001 16.7484 0.0000
# 4 0.0000 0.0000 -0.0001 21.8304 -0.0001 7.8847
# 5 15.5361 11.1163 16.7484 -0.0001 25.3819 0.0000
# 6 0.0000 0.0000 0.0000 7.8847 0.0000 6.6989
#
#
#
# Elastic Compliance Matrix: (Units=1/GPa)
#
#
# Indices 1 2 3 4 5 6 
#
# 1 0.017448 -0.001804 0.000293 0.000000 -0.010083 0.000000
# 2 -0.001804 0.010743 -0.002580 0.000000 -0.001898 0.000000
# 3 0.000293 -0.002580 0.010047 0.000000 -0.005679 0.000000
# 4 0.000000 0.000000 0.000000 0.079682 0.000000 -0.093786
# 5 -0.010083 -0.001898 -0.005679 0.000000 0.050149 0.000000
# 6 0.000000 0.000000 0.000000 -0.093786 0.000000 0.259665
#
#
# Mechanical properties :
#
#
# Convention : Reuss Voigt Hill
#
# Bulk Modulus (GPa) = 33.27085 45.83699 39.55392
# Shear Modulus (GPa) = 11.21245 26.10821 18.66033
#
# Velocity S-wave (km/s) = 2.31104 3.52651 2.98137
# Velocity P-wave (km/s) = 4.79262 6.19802 5.54007
#
# Compressibility (1/GPa) = 0.03005634
#
# Stress axis : x y z
#
# Youngs Moduli (GPa) = 57.31334 93.08585 99.53653
#
# Poissons Ratio (x) = 0.16795 -0.02920
# Poissons Ratio (y) = 0.10341 0.25676
# Poissons Ratio (z) = -0.01682 0.24012
#
# Static dielectric constant tensor:
#      x y z
#    x 1.749040 0.000000 0.014960 
#    y 0.000000 1.807120 0.000000 
#    z 0.014960 0.000000 1.631660 
# 
# From -- ./inp_files/290973.got.cif
#   From: 2010.05.17/outbox.cif.g08.bks.cpg/sg12_146_cif.got.tgz:290973.got - 2010.06.03 13:09:07.
