data_PCOD9215449
_publ_section_title
;
Structure prediction by ZEFSAII (Michael W. Deem and Ramdas Pophale) SiO2 
 PCOD9215449
Probable space group: C 2/M
;
_chemical_formula_sum "Si O2"
_cell_formula_units_Z 48
_cell_length_a 9.715367
_cell_length_b 24.568146
_cell_length_c 10.625182
_cell_angle_alpha 90.000000
_cell_angle_beta 70.675014
_cell_angle_gamma 90.000000
_cell_volume 2393.216640
_symmetry_space_group_name_H-M "C 2/M"
_symmetry_group_IT_number 12
_symmetry_cell_setting 'monoclinic'
loop_
_space_group_symop_operation_xyz
x,y,z
-x,y,-z
-x,-y,-z
x,-y,z
1/2+x,1/2+y,z
1/2-x,1/2+y,-z
1/2-x,1/2-y,-z
1/2+x,1/2-y,z
loop_
_atom_site_type_symbol
_atom_site_label
_atom_site_fract_x
_atom_site_fract_y
_atom_site_fract_z
Si Si1 0.225093 0.000000 0.516703
Si Si2 0.413474 0.500000 0.718835
Si Si3 0.146194 0.602657 0.400008
Si Si4 0.304122 0.298083 0.677783
Si Si5 0.097030 0.561947 0.135739
Si Si6 0.863153 0.196318 0.359260
Si Si7 0.716897 0.904299 0.854976
O O1 0.157192 0.000000 0.399264
O O2 0.317498 0.946287 0.515827
O O3 0.086936 0.000000 0.652789
O O4 0.353349 0.444688 0.798189
O O5 0.114597 0.578156 0.273800
O O6 0.287333 0.640410 0.342178
O O7 0.000000 0.631626 0.500000
O O8 0.210366 0.243020 0.703879
O O9 0.463852 0.295031 0.692007
O O10 0.324203 0.304731 0.520862
O O11 0.232709 0.349623 0.768801
O O12 0.147878 0.500000 0.099364
O O13 0.926570 0.565312 0.153355
O O14 0.181756 0.601485 0.013580
#
# Coordination Sequence:
#
# PCOD9215449 Si02
#       7
#     4   4   8   8   8   8   8
#     4  11  23  35  55  94 122 156 206 261 314 373
#     4  11  20  36  61  83 124 162 202 255 317 373
#     4  12  24  38  63  92 129 158 203 265 319 369
#     4  10  22  41  66  92 126 165 211 260 314 373
#     4  11  22  40  63  95 124 166 213 250 314 384
#     4  10  23  40  64  97 124 163 212 261 318 369
#     4  11  21  39  64  88 122 170 209 255 310 381
#
# _framework density 20.056688000000001
#
# number of rings (size 3 to 8) (size 9 to 14) (size 15 to 20)
#    0.000    1.167    2.500    4.750    7.000    2.667 
#    0.000    5.000    0.000    0.000    0.000    0.000 
#    0.000    0.000    0.000    0.000    0.000    0.000 
#
# Total GULP energy -133960.714986 kJ/mol
# GULP energy per Si atom -5581.696458 kJ/mol
# Density = 2.001104 g / cm^3
# Si number density = 20.056688 Si / 1000 Ang^3
#
#
#
# Elastic Constant Matrix: (Units=GPa)
#
#
# Indices 1 2 3 4 5 6 
#
# 1 86.2606 26.5416 24.9155 0.0000 -2.4544 0.0000
# 2 26.5416 101.9654 25.8861 0.0000 -2.4291 0.0000
# 3 24.9155 25.8861 67.7680 0.0000 -6.0013 0.0000
# 4 0.0000 0.0000 0.0000 2.5244 0.0000 -11.7877
# 5 -2.4544 -2.4291 -6.0013 0.0000 25.9205 0.0000
# 6 0.0000 0.0000 0.0000 -11.7877 0.0000 24.3954
#
#
#
# Elastic Compliance Matrix: (Units=1/GPa)
#
#
# Indices 1 2 3 4 5 6 
#
# 1 0.013523 -0.002500 -0.004006 0.000000 0.000119 0.000000
# 2 -0.002500 0.011323 -0.003403 0.000000 0.000037 0.000000
# 3 -0.004006 -0.003403 0.017833 0.000000 0.003431 0.000000
# 4 0.000000 0.000000 0.000000 -0.315323 0.000000 -0.152362
# 5 0.000119 0.000037 0.003431 0.000000 0.039388 0.000000
# 6 0.000000 0.000000 0.000000 -0.152362 0.000000 -0.032629
#
#
# Mechanical properties :
#
#
# Convention : Reuss Voigt Hill
#
# Bulk Modulus (GPa) = 43.74431 45.63118 44.68774
# Shear Modulus (GPa) = -20.96896 22.47811 0.75458
#
# Velocity S-wave (km/s) = -3.23690 3.35136 0.61403
# Velocity P-wave (km/s) = 2.80849 6.14622 4.77826
#
# Compressibility (1/GPa) = 0.02286012
#
# Stress axis : x y z
#
# Youngs Moduli (GPa) = 73.95060 88.31797 56.07673
#
# Poissons Ratio (x) = 0.22080 0.22466
# Poissons Ratio (y) = 0.18488 0.19081
# Poissons Ratio (z) = 0.29626 0.30052
#
# Static dielectric constant tensor:
#      x y z
#    x 1.701980 0.000000 -0.025330 
#    y 0.000000 1.708400 0.000000 
#    z -0.025330 0.000000 1.711230 
# 
# From -- ./inp_files/122494.got.cif
#   From: 2010.05.17/outbox.cif.g08.bks.cpg/sg12_62_cif.got.tgz:122494.got - 2010.06.03 13:09:07.
