data_PCOD9215281
_publ_section_title
;
Structure prediction by ZEFSAII (Michael W. Deem and Ramdas Pophale) SiO2 
 PCOD9215281
Probable space group: C 2/M
;
_chemical_formula_sum "Si O2"
_cell_formula_units_Z 32
_cell_length_a 19.761243
_cell_length_b 9.121711
_cell_length_c 9.900961
_cell_angle_alpha 90.000000
_cell_angle_beta 103.253891
_cell_angle_gamma 90.000000
_cell_volume 1737.172953
_symmetry_space_group_name_H-M "C 2/M"
_symmetry_group_IT_number 12
_symmetry_cell_setting 'monoclinic'
loop_
_space_group_symop_operation_xyz
x,y,z
-x,y,-z
-x,-y,-z
x,-y,z
1/2+x,1/2+y,z
1/2-x,1/2+y,-z
1/2-x,1/2-y,-z
1/2+x,1/2-y,z
loop_
_atom_site_type_symbol
_atom_site_label
_atom_site_fract_x
_atom_site_fract_y
_atom_site_fract_z
Si Si1 0.308205 0.175480 0.934741
Si Si2 0.445512 0.332890 0.097449
Si Si3 0.468366 0.172413 0.634532
Si Si4 0.191129 0.323869 0.381860
O O1 0.301165 0.215472 0.772967
O O2 0.304361 0.000000 0.942983
O O3 0.250000 0.250000 0.000000
O O4 0.381540 0.233079 0.023351
O O5 0.422049 0.500000 0.112420
O O6 0.485438 0.266773 0.243166
O O7 0.500000 0.334821 0.000000
O O8 0.500000 0.186282 0.500000
O O9 0.387180 0.215807 0.606809
O O10 0.471885 0.000000 0.675650
O O11 0.197454 0.500000 0.396135
O O12 0.250000 0.250000 0.500000
#
# Coordination Sequence:
#
# PCOD9215281 Si02
#       4
#     8   8   8   8
#     4  11  24  42  64  91 124 163 206 253 305 364
#     4  11  23  40  64  93 123 160 205 255 306 360
#     4  10  22  41  64  91 121 161 206 249 304 365
#     4  10  23  41  61  88 124 162 201 248 305 362
#
# _framework density 18.420733999999999
#
# number of rings (size 3 to 8) (size 9 to 14) (size 15 to 20)
#    0.000    1.500    2.500    1.500    3.500    4.500 
#    0.000    0.000    0.000    0.000    0.000    0.000 
#    0.000    0.000    0.000    0.000    0.000    0.000 
#
# Total GULP energy -89409.006840 kJ/mol
# GULP energy per Si atom -5588.062927 kJ/mol
# Density = 1.837881 g / cm^3
# Si number density = 18.420734 Si / 1000 Ang^3
#
#
#
# Elastic Constant Matrix: (Units=GPa)
#
#
# Indices 1 2 3 4 5 6 
#
# 1 141.6238 51.0490 78.0157 0.0000 3.7247 0.0000
# 2 51.0490 74.1402 67.6580 0.0000 4.3492 0.0000
# 3 78.0157 67.6580 127.9197 0.0000 15.2565 0.0000
# 4 0.0000 0.0000 0.0000 31.3715 0.0000 6.2414
# 5 3.7247 4.3492 15.2565 0.0000 36.9200 0.0000
# 6 0.0000 0.0000 0.0000 6.2414 0.0000 38.0452
#
#
#
# Elastic Compliance Matrix: (Units=1/GPa)
#
#
# Indices 1 2 3 4 5 6 
#
# 1 0.010998 -0.002664 -0.005473 0.000000 0.001466 0.000000
# 2 -0.002664 0.026988 -0.012940 0.000000 0.002437 0.000000
# 3 -0.005473 -0.012940 0.018672 0.000000 -0.005639 0.000000
# 4 0.000000 0.000000 0.000000 0.032952 0.000000 -0.005406
# 5 0.001466 0.002437 -0.005639 0.000000 0.028981 0.000000
# 6 0.000000 0.000000 0.000000 -0.005406 0.000000 0.027171
#
#
# Mechanical properties :
#
#
# Convention : Reuss Voigt Hill
#
# Bulk Modulus (GPa) = 68.94926 81.90324 75.42625
# Shear Modulus (GPa) = 25.94027 31.06475 28.50251
#
# Velocity S-wave (km/s) = 3.75668 4.11104 3.93785
# Velocity P-wave (km/s) = 7.50522 8.19105 7.85562
#
# Compressibility (1/GPa) = 0.01450342
#
# Stress axis : x y z
#
# Youngs Moduli (GPa) = 90.92959 37.05349 53.55533
#
# Poissons Ratio (x) = 0.09870 0.29312
# Poissons Ratio (y) = 0.24220 0.69303
# Poissons Ratio (z) = 0.49767 0.47949
#
# Static dielectric constant tensor:
#      x y z
#    x 1.625870 0.000000 -0.025050 
#    y 0.000000 1.628200 0.000000 
#    z -0.025050 0.000000 1.600510 
# 
# From -- ./inp_files/81661.got.cif
#   From: 2010.05.17/outbox.cif.g08.bks.cpg/sg12_41_cif.got.tgz:81661.got - 2010.06.03 13:09:07.
