data_PCOD9215271
_publ_section_title
;
Structure prediction by ZEFSAII (Michael W. Deem and Ramdas Pophale) SiO2 
 PCOD9215271
Probable space group: C 2/M
;
_chemical_formula_sum "Si O2"
_cell_formula_units_Z 40
_cell_length_a 9.578171
_cell_length_b 18.138899
_cell_length_c 12.362508
_cell_angle_alpha 90.000000
_cell_angle_beta 110.450166
_cell_angle_gamma 90.000000
_cell_volume 2012.466976
_symmetry_space_group_name_H-M "C 2/M"
_symmetry_group_IT_number 12
_symmetry_cell_setting 'monoclinic'
loop_
_space_group_symop_operation_xyz
x,y,z
-x,y,-z
-x,-y,-z
x,-y,z
1/2+x,1/2+y,z
1/2-x,1/2+y,-z
1/2-x,1/2-y,-z
1/2+x,1/2-y,z
loop_
_atom_site_type_symbol
_atom_site_label
_atom_site_fract_x
_atom_site_fract_y
_atom_site_fract_z
Si Si1 0.028187 0.084371 0.346980
Si Si2 0.154490 0.645876 0.510891
Si Si3 0.325593 0.197737 0.932083
Si Si4 0.782307 0.206293 0.338055
Si Si5 0.083885 0.085452 0.919274
O O1 0.195758 0.100013 0.428929
O O2 0.916271 0.146839 0.361981
O O3 0.018190 0.091878 0.214490
O O4 0.983001 0.000000 0.361993
O O5 0.164810 0.718793 0.589813
O O6 0.162233 0.672219 0.388644
O O7 0.000000 0.607898 0.500000
O O8 0.286342 0.220474 0.798544
O O9 0.239668 0.121508 0.930117
O O10 0.500000 0.193258 0.000000
O O11 0.250000 0.250000 0.000000
O O12 0.109803 0.000000 0.949816
O O13 0.000000 0.119487 0.000000
#
# Coordination Sequence:
#
# PCOD9215271 Si02
#       5
#     8   8   8   8   8
#     4  10  22  41  64  90 123 165 208 249 305 372
#     4  11  23  37  62  89 123 160 203 258 306 361
#     4  11  25  37  61  93 122 158 203 260 300 362
#     4  10  23  41  60  87 123 165 203 247 310 373
#     4   9  20  40  63  88 123 165 202 246 311 373
#
# _framework density 19.876103000000001
#
# number of rings (size 3 to 8) (size 9 to 14) (size 15 to 20)
#    0.000    1.800    0.000    3.600   11.200    2.400 
#    0.000    0.000    0.000    0.000    0.000    0.000 
#    0.000    0.000    0.000    0.000    0.000    0.000 
#
# Total GULP energy -111720.859815 kJ/mol
# GULP energy per Si atom -5586.042991 kJ/mol
# Density = 1.983086 g / cm^3
# Si number density = 19.876103 Si / 1000 Ang^3
#
#
#
# Elastic Constant Matrix: (Units=GPa)
#
#
# Indices 1 2 3 4 5 6 
#
# 1 106.6585 -1.2309 59.4118 0.0000 1.3056 0.0000
# 2 -1.2309 52.9925 25.5154 0.0000 -4.8052 0.0000
# 3 59.4118 25.5154 150.5950 0.0000 -11.3571 0.0000
# 4 0.0000 0.0000 0.0000 31.4881 0.0000 -6.1777
# 5 1.3056 -4.8052 -11.3571 0.0000 29.7115 0.0000
# 6 0.0000 0.0000 0.0000 -6.1777 0.0000 22.5284
#
#
#
# Elastic Compliance Matrix: (Units=1/GPa)
#
#
# Indices 1 2 3 4 5 6 
#
# 1 0.012549 0.002780 -0.005591 0.000000 -0.002239 0.000000
# 2 0.002780 0.021285 -0.004585 0.000000 0.001568 0.000000
# 3 -0.005591 -0.004585 0.009870 0.000000 0.003277 0.000000
# 4 0.000000 0.000000 0.000000 0.033564 0.000000 0.009204
# 5 -0.002239 0.001568 0.003277 0.000000 0.035261 0.000000
# 6 0.000000 0.000000 0.000000 0.009204 0.000000 0.046912
#
#
# Mechanical properties :
#
#
# Convention : Reuss Voigt Hill
#
# Bulk Modulus (GPa) = 34.58590 53.07096 43.82843
# Shear Modulus (GPa) = 27.19304 31.84893 29.52099
#
# Velocity S-wave (km/s) = 3.70283 4.00731 3.85808
# Velocity P-wave (km/s) = 5.97661 6.94048 6.47650
#
# Compressibility (1/GPa) = 0.02891352
#
# Stress axis : x y z
#
# Youngs Moduli (GPa) = 79.68455 46.98144 101.31735
#
# Poissons Ratio (x) = -0.13063 0.56645
# Poissons Ratio (y) = -0.22156 0.46454
# Poissons Ratio (z) = 0.44551 0.21541
#
# Static dielectric constant tensor:
#      x y z
#    x 1.691840 0.000000 -0.011560 
#    y 0.000000 1.729490 0.000000 
#    z -0.011560 0.000000 1.713470 
# 
# From -- ./inp_files/119151.got.cif
#   From: 2010.05.17/outbox.cif.g08.bks.cpg/sg12_60_cif.got.tgz:119151.got - 2010.06.03 13:09:07.
