data_PCOD9215617
_publ_section_title
;
Structure prediction by ZEFSAII (Michael W. Deem and Ramdas Pophale) SiO2 
 PCOD9215617
Probable space group: C 2/M
;
_chemical_formula_sum "Si O2"
_cell_formula_units_Z 48
_cell_length_a 10.465604
_cell_length_b 16.207227
_cell_length_c 13.759282
_cell_angle_alpha 90.000000
_cell_angle_beta 76.190504
_cell_angle_gamma 90.000000
_cell_volume 2266.367757
_symmetry_space_group_name_H-M "C 2/M"
_symmetry_group_IT_number 12
_symmetry_cell_setting 'monoclinic'
loop_
_space_group_symop_operation_xyz
x,y,z
-x,y,-z
-x,-y,-z
x,-y,z
1/2+x,1/2+y,z
1/2-x,1/2+y,-z
1/2-x,1/2-y,-z
1/2+x,1/2-y,z
loop_
_atom_site_type_symbol
_atom_site_label
_atom_site_fract_x
_atom_site_fract_y
_atom_site_fract_z
Si Si1 0.000039 0.740938 0.890318
Si Si2 0.643272 0.753122 0.433825
Si Si3 0.154126 0.587808 0.123961
Si Si4 0.838073 0.091032 0.907443
Si Si5 0.681116 0.652919 0.743250
Si Si6 0.586897 0.405685 0.315263
O O1 0.930292 0.669254 0.843422
O O2 0.922279 0.827544 0.912074
O O3 0.132877 0.767395 0.813674
O O4 0.000000 0.709891 0.000000
O O5 0.500000 0.776269 0.500000
O O6 0.750000 0.750000 0.500000
O O7 0.701927 0.818525 0.347274
O O8 0.626400 0.663936 0.384851
O O9 0.082748 0.500000 0.143218
O O10 0.268360 0.591044 0.183849
O O11 0.220089 0.593553 0.005440
O O12 0.815223 0.095294 0.795940
O O13 0.902218 0.000000 0.910897
O O14 0.556217 0.619469 0.704561
O O15 0.581499 0.500000 0.353076
#
# Coordination Sequence:
#
# PCOD9215617 Si02
#       6
#     8   8   8   8   8   8
#     4  11  22  35  61  94 134 182 226 270 331 407
#     4  12  26  48  72  99 129 174 232 294 348 404
#     4  11  23  38  60  97 143 184 222 270 333 405
#     4   9  19  36  61  96 136 175 223 272 323 400
#     4  11  22  42  69  94 133 177 228 282 337 402
#     4  10  22  41  69 102 132 173 226 280 339 410
#
# _framework density 21.179264
#
# number of rings (size 3 to 8) (size 9 to 14) (size 15 to 20)
#    0.000    1.333    3.333    3.000    2.333    1.667 
#    0.000    0.833    0.000    2.500    0.000    0.000 
#    0.000    0.000    0.000    0.000    0.000    0.000 
#
# Total GULP energy -133962.864906 kJ/mol
# GULP energy per Si atom -5581.786038 kJ/mol
# Density = 2.113106 g / cm^3
# Si number density = 21.179264 Si / 1000 Ang^3
#
#
#
# Elastic Constant Matrix: (Units=GPa)
#
#
# Indices 1 2 3 4 5 6 
#
# 1 59.2895 45.9066 33.1099 0.0000 7.5935 0.0000
# 2 45.9066 136.1555 32.3164 0.0000 2.4560 0.0000
# 3 33.1099 32.3164 95.4446 0.0000 -9.6249 0.0000
# 4 0.0000 0.0000 0.0000 -1.1660 0.0000 19.1789
# 5 7.5935 2.4560 -9.6249 0.0000 35.2542 0.0000
# 6 0.0000 0.0000 0.0000 19.1789 0.0000 -21.1439
#
#
#
# Elastic Compliance Matrix: (Units=1/GPa)
#
#
# Indices 1 2 3 4 5 6 
#
# 1 0.028074 -0.007427 -0.008002 0.000000 -0.007714 0.000000
# 2 -0.007427 0.010012 -0.000743 0.000000 0.000699 0.000000
# 3 -0.008002 -0.000743 0.014071 0.000000 0.005617 0.000000
# 4 0.000000 0.000000 0.000000 0.061612 0.000000 0.055887
# 5 -0.007714 0.000699 0.005617 0.000000 0.031512 0.000000
# 6 0.000000 0.000000 0.000000 0.055887 0.000000 0.003398
#
#
# Mechanical properties :
#
#
# Convention : Reuss Voigt Hill
#
# Bulk Modulus (GPa) = 50.47183 57.06173 53.76678
# Shear Modulus (GPa) = 26.64850 14.55932 20.60391
#
# Velocity S-wave (km/s) = 3.55101 2.62474 3.12241
# Velocity P-wave (km/s) = 6.37929 6.01551 6.20007
#
# Compressibility (1/GPa) = 0.01981303
#
# Stress axis : x y z
#
# Youngs Moduli (GPa) = 35.62061 99.87602 71.06694
#
# Poissons Ratio (x) = 0.74178 0.56868
# Poissons Ratio (y) = 0.26455 0.05281
# Poissons Ratio (z) = 0.28504 0.07422
#
# Static dielectric constant tensor:
#      x y z
#    x 1.789050 0.000000 0.015920 
#    y 0.000000 1.783250 0.000000 
#    z 0.015920 0.000000 1.792750 
# 
# From -- ./inp_files/204291.got.cif
#   From: 2010.05.17/outbox.cif.g08.bks.cpg/sg12_103_cif.got.tgz:204291.got - 2010.06.03 13:09:07.
