data_PCOD9215889
_publ_section_title
;
Structure prediction by ZEFSAII (Michael W. Deem and Ramdas Pophale) SiO2 
 PCOD9215889
Probable space group: C 2/M
;
_chemical_formula_sum "Si O2"
_cell_formula_units_Z 56
_cell_length_a 32.108854
_cell_length_b 8.642706
_cell_length_c 12.124697
_cell_angle_alpha 90.000000
_cell_angle_beta 124.229937
_cell_angle_gamma 90.000000
_cell_volume 2781.883635
_symmetry_space_group_name_H-M "C 2/M"
_symmetry_group_IT_number 12
_symmetry_cell_setting 'monoclinic'
loop_
_space_group_symop_operation_xyz
x,y,z
-x,y,-z
-x,-y,-z
x,-y,z
1/2+x,1/2+y,z
1/2-x,1/2+y,-z
1/2-x,1/2-y,-z
1/2+x,1/2-y,z
loop_
_atom_site_type_symbol
_atom_site_label
_atom_site_fract_x
_atom_site_fract_y
_atom_site_fract_z
Si Si1 0.070470 0.185025 0.864623
Si Si2 0.244455 0.683896 0.869108
Si Si3 0.636497 0.314794 0.326446
Si Si4 0.524164 0.817477 0.157673
Si Si5 0.650881 0.312811 0.594980
Si Si6 0.442720 0.687907 0.404518
Si Si7 0.335924 0.183539 0.863150
O O1 0.078247 0.226152 0.748035
O O2 0.014834 0.237763 0.817260
O O3 0.074980 0.000000 0.883624
O O4 0.111268 0.266290 0.002875
O O5 0.243190 0.500000 0.872657
O O6 0.194106 0.746477 0.736584
O O7 0.291566 0.737813 0.865814
O O8 0.250000 0.750000 0.000000
O O9 0.639236 0.500000 0.319769
O O10 0.578206 0.263032 0.238821
O O11 0.657759 0.268675 0.477719
O O12 0.663274 0.237855 0.262159
O O13 0.529281 0.000000 0.189264
O O14 0.500000 0.802283 0.000000
O O15 0.652351 0.500000 0.602838
O O16 0.596320 0.261486 0.559994
O O17 0.500000 0.745355 0.500000
O O18 0.445033 0.500000 0.413760
O O19 0.330676 0.000000 0.860906
#
# Coordination Sequence:
#
# PCOD9215889 Si02
#       7
#     8   8   8   8   8   8   8
#     4  11  21  35  61  92 123 163 212 265 320 383
#     4  12  26  46  71  97 126 164 211 262 318 378
#     4  11  23  40  65  95 127 168 216 264 319 384
#     4  11  22  36  56  86 127 173 213 260 317 376
#     4  10  22  42  67  95 129 167 210 263 322 382
#     4   9  18  35  60  91 124 159 201 250 307 370
#     4  12  25  42  64  92 127 165 209 264 321 380
#
# _framework density 20.130246
#
# number of rings (size 3 to 8) (size 9 to 14) (size 15 to 20)
#    0.000    1.143    1.429    5.571    0.000    5.714 
#    0.000    0.714    0.000    3.000    0.000    0.000 
#    0.000    0.000    0.000    0.000    0.000    0.000 
#
# Total GULP energy -156658.675972 kJ/mol
# GULP energy per Si atom -5594.952713 kJ/mol
# Density = 2.008443 g / cm^3
# Si number density = 20.130246 Si / 1000 Ang^3
#
#
#
# Elastic Constant Matrix: (Units=GPa)
#
#
# Indices 1 2 3 4 5 6 
#
# 1 123.7708 5.3740 50.5955 0.0000 -14.4021 0.0000
# 2 5.3740 38.2210 29.8699 0.0000 -8.0208 0.0000
# 3 50.5955 29.8699 128.3972 0.0000 -14.8973 0.0000
# 4 0.0000 0.0000 0.0000 21.8635 0.0000 5.4081
# 5 -14.4021 -8.0208 -14.8973 0.0000 35.7759 0.0000
# 6 0.0000 0.0000 0.0000 5.4081 0.0000 30.3658
#
#
#
# Elastic Compliance Matrix: (Units=1/GPa)
#
#
# Indices 1 2 3 4 5 6 
#
# 1 0.010016 0.002462 -0.004190 0.000000 0.002839 0.000000
# 2 0.002462 0.033218 -0.008111 0.000000 0.005061 0.000000
# 3 -0.004190 -0.008111 0.011474 0.000000 0.001273 0.000000
# 4 0.000000 0.000000 0.000000 0.047846 0.000000 -0.008521
# 5 0.002839 0.005061 0.001273 0.000000 0.030759 0.000000
# 6 0.000000 0.000000 0.000000 -0.008521 0.000000 0.034449
#
#
# Mechanical properties :
#
#
# Convention : Reuss Voigt Hill
#
# Bulk Modulus (GPa) = 28.54658 51.34085 39.94372
# Shear Modulus (GPa) = 25.11084 31.23767 28.17426
#
# Velocity S-wave (km/s) = 3.53571 3.94353 3.74518
# Velocity P-wave (km/s) = 5.55698 6.80404 6.21189
#
# Compressibility (1/GPa) = 0.03503047
#
# Stress axis : x y z
#
# Youngs Moduli (GPa) = 99.84249 30.10404 87.15363
#
# Poissons Ratio (x) = -0.07412 0.36519
# Poissons Ratio (y) = -0.24583 0.70688
# Poissons Ratio (z) = 0.41835 0.24417
#
# Static dielectric constant tensor:
#      x y z
#    x 1.714650 0.000000 0.019360 
#    y 0.000000 1.674340 0.000000 
#    z 0.019360 0.000000 1.742790 
# 
# From -- ./inp_files/187770.got.cif
#   From: 2010.05.17/outbox.cif.g08.bks.cpg/sg12_94_cif.got.tgz:187770.got - 2010.06.03 13:09:07.
