data_PCOD9215607
_publ_section_title
;
Structure prediction by ZEFSAII (Michael W. Deem and Ramdas Pophale) SiO2 
 PCOD9215607
Probable space group: C 2/M
;
_chemical_formula_sum "Si O2"
_cell_formula_units_Z 58
_cell_length_a 24.310440
_cell_length_b 7.905899
_cell_length_c 19.920553
_cell_angle_alpha 90.000000
_cell_angle_beta 42.259706
_cell_angle_gamma 90.000000
_cell_volume 2574.736074
_symmetry_space_group_name_H-M "C 2/M"
_symmetry_group_IT_number 12
_symmetry_cell_setting 'monoclinic'
loop_
_space_group_symop_operation_xyz
x,y,z
-x,y,-z
-x,-y,-z
x,-y,z
1/2+x,1/2+y,z
1/2-x,1/2+y,-z
1/2-x,1/2-y,-z
1/2+x,1/2-y,z
loop_
_atom_site_type_symbol
_atom_site_label
_atom_site_fract_x
_atom_site_fract_y
_atom_site_fract_z
Si Si1 0.284688 0.306419 0.793571
Si Si2 0.029468 0.689423 0.123993
Si Si3 0.356555 0.702650 0.336356
Si Si4 0.908468 0.696453 0.573723
Si Si5 0.661532 0.297125 0.109913
Si Si6 0.107029 0.182776 0.923999
Si Si7 0.176147 0.798479 0.480669
Si Si8 0.500000 0.000000 0.000000
O O1 0.258882 0.500000 0.830541
O O2 0.345254 0.295936 0.676736
O O3 0.331907 0.248212 0.817888
O O4 0.202973 0.205381 0.850804
O O5 0.035082 0.500000 0.086720
O O6 0.090545 0.706409 0.131924
O O7 0.938054 0.722864 0.230554
O O8 0.064725 0.811372 0.035556
O O9 0.362969 0.500000 0.328811
O O10 0.270903 0.755477 0.380604
O O11 0.346488 0.757012 0.423375
O O12 0.905968 0.500000 0.596994
O O13 0.880673 0.712430 0.522432
O O14 0.000000 0.760917 0.500000
O O15 0.648318 0.500000 0.116757
O O16 0.750000 0.250000 0.000000
O O17 0.092819 0.000000 0.903817
O O18 0.068967 0.346151 0.922882
O O19 0.165807 0.000000 0.486563
#
# Coordination Sequence:
#
# PCOD9215607 Si02
#       8
#     8   8   8   8   8   8   8   2
#     4  11  24  45  69  99 137 181 230 280 348 425
#     4  12  24  41  65 101 139 176 227 281 337 412
#     4  10  22  41  68  99 132 171 223 278 346 410
#     4  11  26  45  67  98 135 177 232 284 345 419
#     4  11  23  39  66  99 134 174 218 273 338 401
#     4  12  25  46  72 100 142 183 231 290 348 412
#     4  10  22  43  68  96 130 173 221 280 347 408
#     4  12  26  48  68 102 138 184 242 282 336 416
#
# _framework density 22.526579999999999
#
# number of rings (size 3 to 8) (size 9 to 14) (size 15 to 20)
#    0.000    0.966    2.759    3.517    1.931    5.517 
#    2.483    2.759    0.000    0.000    0.000    0.000 
#    0.000    0.000    0.000    0.000    0.000    0.000 
#
# Total GULP energy -162163.850207 kJ/mol
# GULP energy per Si atom -5591.856904 kJ/mol
# Density = 2.247531 g / cm^3
# Si number density = 22.526580 Si / 1000 Ang^3
#
#
#
# Elastic Constant Matrix: (Units=GPa)
#
#
# Indices 1 2 3 4 5 6 
#
# 1 111.3107 16.5882 31.3046 -0.0069 -19.3016 0.0152
# 2 16.5882 115.3757 12.2859 -0.0048 -7.4667 0.0041
# 3 31.3046 12.2859 110.9592 -0.0071 -29.4256 0.0178
# 4 -0.0069 -0.0048 -0.0071 27.7945 -0.0029 -3.0068
# 5 -19.3016 -7.4667 -29.4256 -0.0029 32.6835 -0.0032
# 6 0.0152 0.0041 0.0178 -3.0068 -0.0032 44.6333
#
#
#
# Elastic Compliance Matrix: (Units=1/GPa)
#
#
# Indices 1 2 3 4 5 6 
#
# 1 0.010363 -0.001030 -0.001641 0.000002 0.004407 -0.000002
# 2 -0.001030 0.008928 -0.000418 0.000001 0.001055 0.000000
# 3 -0.001641 -0.000418 0.012137 0.000003 0.009863 -0.000003
# 4 0.000002 0.000001 0.000003 0.036242 0.000008 0.002442
# 5 0.004407 0.001055 0.009863 0.000008 0.042320 -0.000002
# 6 -0.000002 0.000000 -0.000003 0.002442 -0.000002 0.022569
#
#
# Mechanical properties :
#
#
# Convention : Reuss Voigt Hill
#
# Bulk Modulus (GPa) = 39.60355 50.88920 45.24638
# Shear Modulus (GPa) = 33.97781 39.52007 36.74894
#
# Velocity S-wave (km/s) = 3.88795 4.19307 4.04339
# Velocity P-wave (km/s) = 6.14605 6.78839 6.47519
#
# Compressibility (1/GPa) = 0.02525026
#
# Stress axis : x y z
#
# Youngs Moduli (GPa) = 96.49629 112.00430 82.39220
#
# Poissons Ratio (x) = 0.11536 0.13519
# Poissons Ratio (y) = 0.09939 0.03446
# Poissons Ratio (z) = 0.15833 0.04684
#
# Static dielectric constant tensor:
#      x y z
#    x 1.717750 -0.000010 -0.033210 
#    y -0.000010 1.839420 0.000000 
#    z -0.033210 0.000000 1.758850 
# 
# From -- ./inp_files/324566.got.cif
#   From: 2010.05.17/outbox.cif.g08.bks.cpg/sg12_163_cif.got.tgz:324566.got - 2010.06.03 13:09:07.
