data_PCOD9215671
_publ_section_title
;
Structure prediction by ZEFSAII (Michael W. Deem and Ramdas Pophale) SiO2 
 PCOD9215671
Probable space group: C 2/M
;
_chemical_formula_sum "Si O2"
_cell_formula_units_Z 48
_cell_length_a 11.798212
_cell_length_b 21.412676
_cell_length_c 14.155472
_cell_angle_alpha 90.000000
_cell_angle_beta 39.004291
_cell_angle_gamma 90.000000
_cell_volume 2250.730325
_symmetry_space_group_name_H-M "C 2/M"
_symmetry_group_IT_number 12
_symmetry_cell_setting 'monoclinic'
loop_
_space_group_symop_operation_xyz
x,y,z
-x,y,-z
-x,-y,-z
x,-y,z
1/2+x,1/2+y,z
1/2-x,1/2+y,-z
1/2-x,1/2-y,-z
1/2+x,1/2-y,z
loop_
_atom_site_type_symbol
_atom_site_label
_atom_site_fract_x
_atom_site_fract_y
_atom_site_fract_z
Si Si1 0.185942 0.630461 0.565263
Si Si2 0.397686 0.222914 0.659958
Si Si3 0.592644 0.656261 0.236896
Si Si4 0.341771 0.500000 0.177325
Si Si5 0.796859 0.071359 0.675452
Si Si6 0.936265 0.134869 0.149645
Si Si7 0.451575 0.000000 0.420428
O O1 0.381543 0.653470 0.404927
O O2 0.189335 0.617110 0.675045
O O3 0.034899 0.678032 0.627535
O O4 0.148497 0.562420 0.544851
O O5 0.500000 0.247345 0.500000
O O6 0.337470 0.279097 0.765812
O O7 0.230115 0.181864 0.734522
O O8 0.688224 0.599875 0.230079
O O9 0.588760 0.651024 0.126894
O O10 0.365957 0.564716 0.216630
O O11 0.151711 0.500000 0.246946
O O12 0.500000 0.500000 0.000000
O O13 0.000000 0.070413 0.500000
O O14 0.730669 0.000000 0.716618
O O15 0.000000 0.136807 0.000000
O O16 0.500000 0.000000 0.500000
#
# Coordination Sequence:
#
# PCOD9215671 Si02
#       7
#     8   8   8   4   8   8   4
#     4  11  20  35  58  94 126 155 203 258 312 365
#     4  12  23  40  64  93 125 162 208 256 314 368
#     4  11  24  37  63  87 128 166 203 254 314 377
#     4  10  22  42  61  89 123 161 208 256 308 358
#     4   9  19  34  53  87 124 159 196 250 314 369
#     4  11  25  43  64  92 123 164 212 260 311 371
#     4  12  20  32  60  99 125 157 204 263 313 359
#
# _framework density 21.326412000000001
#
# number of rings (size 3 to 8) (size 9 to 14) (size 15 to 20)
#    0.000    1.167    4.167    3.500    4.667    0.667 
#    0.000    0.000    0.000    0.000    0.000    3.500 
#    0.000    0.000    0.000    0.000    0.000    0.000 
#
# Total GULP energy -134170.746347 kJ/mol
# GULP energy per Si atom -5590.447764 kJ/mol
# Density = 2.127787 g / cm^3
# Si number density = 21.326412 Si / 1000 Ang^3
#
#
#
# Elastic Constant Matrix: (Units=GPa)
#
#
# Indices 1 2 3 4 5 6 
#
# 1 124.0190 20.9989 9.8876 -0.0006 37.7547 0.0011
# 2 20.9989 95.2603 -5.8931 -0.0001 13.2253 0.0006
# 3 9.8876 -5.8931 38.0918 -0.0005 16.9818 0.0026
# 4 -0.0006 -0.0001 -0.0005 5.0946 0.0007 -7.9241
# 5 37.7547 13.2253 16.9818 0.0007 34.7020 -0.0015
# 6 0.0011 0.0006 0.0026 -7.9241 -0.0015 3.2305
#
#
#
# Elastic Compliance Matrix: (Units=1/GPa)
#
#
# Indices 1 2 3 4 5 6 
#
# 1 0.012444 -0.000445 0.003404 0.000006 -0.015035 0.000001
# 2 -0.000445 0.011769 0.004758 0.000004 -0.006329 0.000002
# 3 0.003404 0.004758 0.036535 0.000021 -0.023395 0.000008
# 4 0.000006 0.000004 0.000021 -0.069722 -0.000024 -0.171022
# 5 -0.015035 -0.006329 -0.023395 -0.000024 0.059035 -0.000008
# 6 0.000001 0.000002 0.000008 -0.171022 -0.000008 -0.109953
#
#
# Mechanical properties :
#
#
# Convention : Reuss Voigt Hill
#
# Bulk Modulus (GPa) = 13.12676 34.15087 23.63882
# Shear Modulus (GPa) = -100.13722 24.09727 -38.01998
#
# Velocity S-wave (km/s) = -6.85977 3.36508 -4.22686
# Velocity P-wave (km/s) = 7.52153 5.58091 3.56559
#
# Compressibility (1/GPa) = 0.07618028
#
# Stress axis : x y z
#
# Youngs Moduli (GPa) = 80.35773 84.97096 27.37126
#
# Poissons Ratio (x) = 0.03783 -0.09316
# Poissons Ratio (y) = 0.03578 -0.13023
# Poissons Ratio (z) = -0.27351 -0.40428
#
# Static dielectric constant tensor:
#      x y z
#    x 1.811430 0.000000 0.030390 
#    y 0.000000 1.766520 0.000000 
#    z 0.030390 0.000000 1.803640 
# 
# From -- ./inp_files/207962.got.cif
#   From: 2010.05.17/outbox.cif.g08.bks.cpg/sg12_104_cif.got.tgz:207962.got - 2010.06.03 13:09:07.
