data_PCOD9215948
_publ_section_title
;
Structure prediction by ZEFSAII (Michael W. Deem and Ramdas Pophale) SiO2 
 PCOD9215948
Probable space group: C 2/M
;
_chemical_formula_sum "Si O2"
_cell_formula_units_Z 32
_cell_length_a 18.820730
_cell_length_b 10.665351
_cell_length_c 9.564041
_cell_angle_alpha 90.000000
_cell_angle_beta 132.854200
_cell_angle_gamma 90.000000
_cell_volume 1407.370520
_symmetry_space_group_name_H-M "C 2/M"
_symmetry_group_IT_number 12
_symmetry_cell_setting 'monoclinic'
loop_
_space_group_symop_operation_xyz
x,y,z
-x,y,-z
-x,-y,-z
x,-y,z
1/2+x,1/2+y,z
1/2-x,1/2+y,-z
1/2-x,1/2-y,-z
1/2+x,1/2-y,z
loop_
_atom_site_type_symbol
_atom_site_label
_atom_site_fract_x
_atom_site_fract_y
_atom_site_fract_z
Si Si1 0.589903 0.646138 0.726302
Si Si2 0.310857 0.865852 0.293005
Si Si3 0.828184 0.359971 0.621267
Si Si4 0.089671 0.804185 0.040562
O O1 0.500000 0.647579 0.500000
O O2 0.621521 0.500000 0.781183
O O3 0.562394 0.698721 0.841646
O O4 0.667384 0.742193 0.765541
O O5 0.369230 0.862170 0.518137
O O6 0.333780 0.000000 0.254241
O O7 0.196530 0.865510 0.177461
O O8 0.788444 0.500000 0.593433
O O9 0.750000 0.250000 0.500000
O O10 0.892498 0.318751 0.838884
O O11 0.000000 0.867623 0.000000
#
# Coordination Sequence:
#
# PCOD9215948 Si02
#       4
#     8   8   8   8
#     4  11  25  44  67  96 130 174 224 273 329 392
#     4  10  22  42  68  97 130 171 217 270 333 396
#     4   9  20  39  64  95 128 165 213 266 324 386
#     4  11  23  40  64  97 135 173 217 271 327 387
#
# _framework density 22.737438000000001
#
# number of rings (size 3 to 8) (size 9 to 14) (size 15 to 20)
#    0.000    1.750    0.000    3.000    0.000    9.000 
#    0.000   10.000    0.000    0.000    0.000    0.000 
#    0.000    0.000    0.000    0.000    0.000    0.000 
#
# Total GULP energy -89107.765507 kJ/mol
# GULP energy per Si atom -5569.235344 kJ/mol
# Density = 2.268569 g / cm^3
# Si number density = 22.737438 Si / 1000 Ang^3
#
#
#
# Elastic Constant Matrix: (Units=GPa)
#
#
# Indices 1 2 3 4 5 6 
#
# 1 121.2253 73.3358 41.6649 0.0000 -13.2890 0.0000
# 2 73.3358 178.0023 66.3587 0.0000 4.0359 0.0000
# 3 41.6649 66.3587 149.2879 0.0000 -31.7231 0.0000
# 4 0.0000 0.0000 0.0000 -27.1055 0.0000 -21.6961
# 5 -13.2890 4.0359 -31.7231 0.0000 41.3602 0.0000
# 6 0.0000 0.0000 0.0000 -21.6961 0.0000 5.5948
#
#
#
# Elastic Compliance Matrix: (Units=1/GPa)
#
#
# Indices 1 2 3 4 5 6 
#
# 1 0.011690 -0.004805 -0.000273 0.000000 0.004015 0.000000
# 2 -0.004805 0.009169 -0.003886 0.000000 -0.005419 0.000000
# 3 -0.000273 -0.003886 0.010232 0.000000 0.008139 0.000000
# 4 0.000000 0.000000 0.000000 -0.008990 0.000000 -0.034860
# 5 0.004015 -0.005419 0.008139 0.000000 0.032239 0.000000
# 6 0.000000 0.000000 0.000000 -0.034860 0.000000 0.043552
#
#
# Mechanical properties :
#
#
# Convention : Reuss Voigt Hill
#
# Bulk Modulus (GPa) = 75.98080 90.13714 83.05897
# Shear Modulus (GPa) = 41.59364 21.78029 31.68697
#
# Velocity S-wave (km/s) = 4.28167 3.09836 3.73715
# Velocity P-wave (km/s) = 7.61136 7.24765 7.43173
#
# Compressibility (1/GPa) = 0.01316122
#
# Stress axis : x y z
#
# Youngs Moduli (GPa) = 85.54088 109.05848 97.73503
#
# Poissons Ratio (x) = 0.52408 0.02672
# Poissons Ratio (y) = 0.41106 0.37982
# Poissons Ratio (z) = 0.02339 0.42383
#
# Static dielectric constant tensor:
#      x y z
#    x 1.847730 0.000000 0.008460 
#    y 0.000000 1.859510 0.000000 
#    z 0.008460 0.000000 1.937120 
# 
# From -- ./inp_files/181402.got.cif
#   From: 2010.05.17/outbox.cif.g08.bks.cpg/sg12_91_cif.got.tgz:181402.got - 2010.06.03 13:09:07.
