data_PCOD9215313
_publ_section_title
;
Structure prediction by ZEFSAII (Michael W. Deem and Ramdas Pophale) SiO2 
 PCOD9215313
Probable space group: C 2/M
;
_chemical_formula_sum "Si O2"
_cell_formula_units_Z 32
_cell_length_a 9.488781
_cell_length_b 24.639977
_cell_length_c 6.003456
_cell_angle_alpha 90.000000
_cell_angle_beta 72.265784
_cell_angle_gamma 90.000000
_cell_volume 1336.927338
_symmetry_space_group_name_H-M "C 2/M"
_symmetry_group_IT_number 12
_symmetry_cell_setting 'monoclinic'
loop_
_space_group_symop_operation_xyz
x,y,z
-x,y,-z
-x,-y,-z
x,-y,z
1/2+x,1/2+y,z
1/2-x,1/2+y,-z
1/2-x,1/2-y,-z
1/2+x,1/2-y,z
loop_
_atom_site_type_symbol
_atom_site_label
_atom_site_fract_x
_atom_site_fract_y
_atom_site_fract_z
Si Si1 0.500000 0.899629 0.500000
Si Si2 0.799103 0.165099 0.413068
Si Si3 0.500000 0.412101 0.500000
Si Si4 0.606211 0.000000 0.213404
Si Si5 0.252496 0.500000 0.652165
Si Si6 0.159590 0.276123 0.848033
O O1 0.354580 0.861791 0.598665
O O2 0.510828 0.944086 0.293493
O O3 0.936471 0.125286 0.333941
O O4 0.853474 0.223859 0.306121
O O5 0.752042 0.176656 0.690185
O O6 0.359791 0.448356 0.622071
O O7 0.706422 0.000000 0.399037
O O8 0.670803 0.000000 0.935280
O O9 0.250000 0.250000 0.000000
O O10 0.000000 0.295605 0.000000
#
# Coordination Sequence:
#
# PCOD9215313 Si02
#       6
#     4   8   4   4   4   8
#     4  11  22  41  64  92 128 171 210 259 318 378
#     4  11  24  41  65  95 129 167 213 261 318 377
#     4  11  22  41  66  94 130 165 204 271 316 366
#     4  10  22  41  64  93 126 167 212 262 311 385
#     4  10  22  41  64  93 128 163 215 261 316 377
#     4  11  24  43  64  93 130 167 212 263 314 378
#
# _framework density 23.935482
#
# number of rings (size 3 to 8) (size 9 to 14) (size 15 to 20)
#    0.000    1.250    2.500    3.000    0.000   10.000 
#    0.000    1.250    0.000    0.000    0.000    0.000 
#    0.000    0.000    0.000    0.000    0.000    0.000 
#
# Total GULP energy -89094.414975 kJ/mol
# GULP energy per Si atom -5568.400936 kJ/mol
# Density = 2.388100 g / cm^3
# Si number density = 23.935482 Si / 1000 Ang^3
#
#
#
# Elastic Constant Matrix: (Units=GPa)
#
#
# Indices 1 2 3 4 5 6 
#
# 1 95.5825 2.6408 34.5433 0.0000 4.0432 0.0000
# 2 2.6408 78.1756 4.5873 0.0000 -1.8701 0.0000
# 3 34.5433 4.5873 114.5352 0.0000 -2.3559 0.0000
# 4 0.0000 0.0000 0.0000 9.3574 0.0000 7.1447
# 5 4.0432 -1.8701 -2.3559 0.0000 22.3704 0.0000
# 6 0.0000 0.0000 0.0000 7.1447 0.0000 48.1523
#
#
#
# Elastic Compliance Matrix: (Units=1/GPa)
#
#
# Indices 1 2 3 4 5 6 
#
# 1 0.011888 -0.000250 -0.003628 0.000000 -0.002552 0.000000
# 2 -0.000250 0.012850 -0.000417 0.000000 0.001075 0.000000
# 3 -0.003628 -0.000417 0.009876 0.000000 0.001661 0.000000
# 4 0.000000 0.000000 0.000000 0.120521 0.000000 -0.017883
# 5 -0.002552 0.001075 0.001661 0.000000 0.045428 0.000000
# 6 0.000000 0.000000 0.000000 -0.017883 0.000000 0.023421
#
#
# Mechanical properties :
#
#
# Convention : Reuss Voigt Hill
#
# Bulk Modulus (GPa) = 38.42500 41.31513 39.87006
# Shear Modulus (GPa) = 20.72546 32.41083 26.56814
#
# Velocity S-wave (km/s) = 2.94579 3.68379 3.33527
# Velocity P-wave (km/s) = 5.25915 5.94914 5.61475
#
# Compressibility (1/GPa) = 0.02602472
#
# Stress axis : x y z
#
# Youngs Moduli (GPa) = 84.11767 77.81882 101.25594
#
# Poissons Ratio (x) = 0.01943 0.36734
# Poissons Ratio (y) = 0.02101 0.04225
# Poissons Ratio (z) = 0.30517 0.03247
#
# Static dielectric constant tensor:
#      x y z
#    x 1.952250 0.000000 0.224120 
#    y 0.000000 1.894500 0.000000 
#    z 0.224120 0.000000 1.542790 
# 
# From -- ./inp_files/6888.got.cif
#   From: 2010.05.17/outbox.cif.g08.bks.cpg/sg12_4_cif.got.tgz:6888.got - 2010.06.03 13:09:07.
