data_PCOD9215176
_publ_section_title
;
Structure prediction by ZEFSAII (Michael W. Deem and Ramdas Pophale) SiO2 
 PCOD9215176
Probable space group: C 2/M
;
_chemical_formula_sum "Si O2"
_cell_formula_units_Z 34
_cell_length_a 13.419419
_cell_length_b 23.858779
_cell_length_c 5.025703
_cell_angle_alpha 90.000000
_cell_angle_beta 70.427301
_cell_angle_gamma 90.000000
_cell_volume 1516.106707
_symmetry_space_group_name_H-M "C 2/M"
_symmetry_group_IT_number 12
_symmetry_cell_setting 'monoclinic'
loop_
_space_group_symop_operation_xyz
x,y,z
-x,y,-z
-x,-y,-z
x,-y,z
1/2+x,1/2+y,z
1/2-x,1/2+y,-z
1/2-x,1/2-y,-z
1/2+x,1/2-y,z
loop_
_atom_site_type_symbol
_atom_site_label
_atom_site_fract_x
_atom_site_fract_y
_atom_site_fract_z
Si Si1 0.500000 0.696003 0.500000
Si Si2 0.265271 0.896313 0.038861
Si Si3 0.500000 0.500000 0.500000
Si Si4 0.922661 0.500000 0.819446
Si Si5 0.429551 0.196357 0.799690
Si Si6 0.624598 0.399382 0.666324
O O1 0.580145 0.739117 0.283717
O O2 0.438389 0.657052 0.349198
O O3 0.323597 0.837815 0.935459
O O4 0.166130 0.902056 0.928910
O O5 0.346966 0.945898 0.900591
O O6 0.225173 0.900763 0.376319
O O7 0.553872 0.451243 0.640667
O O8 0.000000 0.500000 0.500000
O O9 0.000000 0.500000 0.000000
O O10 0.500000 0.169493 0.500000
O O11 0.500000 0.194475 0.000000
#
# Coordination Sequence:
#
# PCOD9215176 Si02
#       6
#     4   8   2   4   8   8
#     4   9  26  41  64  89 128 171 202 248 324 355
#     4  12  24  41  65  98 122 160 215 255 300 371
#     4  10  24  48  64  90 132 160 200 262 316 372
#     4  12  24  41  68  91 128 165 200 255 322 370
#     4  10  22  41  63  87 132 163 204 251 311 358
#     4  11  25  41  67  92 125 163 208 255 310 366
#
# _framework density 22.425861000000001
#
# number of rings (size 3 to 8) (size 9 to 14) (size 15 to 20)
#    0.706    0.471    0.000    5.647    3.294    5.647 
#    0.000    0.000    0.000    0.000    0.000    0.000 
#    0.000    0.000    0.000    0.000    0.000    0.000 
#
# Total GULP energy -94913.495911 kJ/mol
# GULP energy per Si atom -5583.146818 kJ/mol
# Density = 2.237482 g / cm^3
# Si number density = 22.425861 Si / 1000 Ang^3
#
#
#
# Elastic Constant Matrix: (Units=GPa)
#
#
# Indices 1 2 3 4 5 6 
#
# 1 84.8238 54.3896 8.0967 0.0000 10.3084 0.0000
# 2 54.3896 161.1897 4.1470 0.0000 -3.4100 0.0000
# 3 8.0967 4.1470 91.7386 0.0000 -10.7989 0.0000
# 4 0.0000 0.0000 0.0000 -21.2481 0.0000 87.7252
# 5 10.3084 -3.4100 -10.7989 0.0000 56.8033 0.0000
# 6 0.0000 0.0000 0.0000 87.7252 0.0000 -181.1456
#
#
#
# Elastic Compliance Matrix: (Units=1/GPa)
#
#
# Indices 1 2 3 4 5 6 
#
# 1 0.015803 -0.005366 -0.001563 0.000000 -0.003487 0.000000
# 2 -0.005366 0.008039 0.000288 0.000000 0.001511 0.000000
# 3 -0.001563 0.000288 0.011314 0.000000 0.002452 0.000000
# 4 0.000000 0.000000 0.000000 0.047091 0.000000 0.022805
# 5 -0.003487 0.001511 0.002452 0.000000 0.018794 0.000000
# 6 0.000000 0.000000 0.000000 0.022805 0.000000 0.005524
#
#
# Mechanical properties :
#
#
# Convention : Reuss Voigt Hill
#
# Bulk Modulus (GPa) = 45.71436 52.33541 49.02488
# Shear Modulus (GPa) = 39.32768 -11.04351 14.14209
#
# Velocity S-wave (km/s) = 4.19223 -2.22152 2.51393
# Velocity P-wave (km/s) = 6.62284 4.09970 5.50770
#
# Compressibility (1/GPa) = 0.02187496
#
# Stress axis : x y z
#
# Youngs Moduli (GPa) = 63.28053 124.39384 88.38580
#
# Poissons Ratio (x) = 0.66747 0.13811
# Poissons Ratio (y) = 0.33955 -0.02546
# Poissons Ratio (z) = 0.09888 -0.03583
#
# Static dielectric constant tensor:
#      x y z
#    x 1.789330 0.000000 -0.062530 
#    y 0.000000 1.802980 0.000000 
#    z -0.062530 0.000000 1.814900 
# 
# From -- ./inp_files/7033.got.cif
#   From: 2010.05.17/outbox.cif.g08.bks.cpg/sg12_4_cif.got.tgz:7033.got - 2010.06.03 13:09:07.
