data_PCOD9215148
_publ_section_title
;
Structure prediction by ZEFSAII (Michael W. Deem and Ramdas Pophale) SiO2 
 PCOD9215148
Probable space group: C 2/M
;
_chemical_formula_sum "Si O2"
_cell_formula_units_Z 50
_cell_length_a 30.309010
_cell_length_b 7.503286
_cell_length_c 12.463243
_cell_angle_alpha 90.000000
_cell_angle_beta 128.547299
_cell_angle_gamma 90.000000
_cell_volume 2216.732368
_symmetry_space_group_name_H-M "C 2/M"
_symmetry_group_IT_number 12
_symmetry_cell_setting 'monoclinic'
loop_
_space_group_symop_operation_xyz
x,y,z
-x,y,-z
-x,-y,-z
x,-y,z
1/2+x,1/2+y,z
1/2-x,1/2+y,-z
1/2-x,1/2-y,-z
1/2+x,1/2-y,z
loop_
_atom_site_type_symbol
_atom_site_label
_atom_site_fract_x
_atom_site_fract_y
_atom_site_fract_z
Si Si1 0.183265 0.787951 0.899638
Si Si2 0.990247 0.784497 0.645360
Si Si3 0.975107 0.797228 0.068370
Si Si4 0.257601 0.713590 0.385520
Si Si5 0.500000 0.000000 0.500000
Si Si6 0.850060 0.706957 0.910983
Si Si7 0.638954 0.716783 0.601707
O O1 0.157529 0.721404 0.748229
O O2 0.174374 0.000000 0.888027
O O3 0.250000 0.750000 0.000000
O O4 0.158906 0.718944 0.974856
O O5 0.023960 0.659816 0.615829
O O6 0.924847 0.735142 0.524329
O O7 0.005678 0.726476 0.788329
O O8 0.998947 0.000000 0.644476
O O9 0.997415 0.000000 0.104052
O O10 0.907822 0.798162 0.964685
O O11 0.000000 0.709797 0.000000
O O12 0.258413 0.500000 0.374680
O O13 0.250000 0.750000 0.500000
O O14 0.204507 0.778994 0.234754
O O15 0.315534 0.777876 0.418030
O O16 0.856180 0.500000 0.891327
O O17 0.640078 0.500000 0.604662
#
# Coordination Sequence:
#
# PCOD9215148 Si02
#       7
#     8   8   8   8   2   8   8
#     4  11  21  38  62  91 128 167 207 255 318 388
#     4  10  24  45  68  97 135 177 223 280 333 399
#     4  10  24  45  68  94 129 176 226 271 332 398
#     4  10  22  41  62  91 126 167 211 263 325 387
#     4  12  26  44  66 102 132 176 230 270 338 404
#     4  11  24  41  63  95 131 166 211 269 325 384
#     4   9  20  41  64  86 127 172 205 259 329 383
#
# _framework density 22.555720999999998
#
# number of rings (size 3 to 8) (size 9 to 14) (size 15 to 20)
#    0.000    1.760    1.600    1.200    5.600    1.600 
#    2.880    0.000    0.000    0.000    0.000    0.000 
#    0.000    0.000    0.000    0.000    0.000    0.000 
#
# Total GULP energy -139473.056113 kJ/mol
# GULP energy per Si atom -5578.922245 kJ/mol
# Density = 2.250438 g / cm^3
# Si number density = 22.555721 Si / 1000 Ang^3
#
#
#
# Elastic Constant Matrix: (Units=GPa)
#
#
# Indices 1 2 3 4 5 6 
#
# 1 128.5950 0.3210 42.1943 0.0000 -7.3698 0.0000
# 2 0.3210 83.8691 14.3066 0.0000 -5.9801 0.0000
# 3 42.1943 14.3066 88.3428 0.0000 -8.1246 0.0000
# 4 0.0000 0.0000 0.0000 -15.4097 0.0000 2.0788
# 5 -7.3698 -5.9801 -8.1246 0.0000 45.2679 0.0000
# 6 0.0000 0.0000 0.0000 2.0788 0.0000 14.9412
#
#
#
# Elastic Compliance Matrix: (Units=1/GPa)
#
#
# Indices 1 2 3 4 5 6 
#
# 1 0.009295 0.000789 -0.004493 0.000000 0.000811 0.000000
# 2 0.000789 0.012403 -0.002260 0.000000 0.001361 0.000000
# 3 -0.004493 -0.002260 0.013967 0.000000 0.001477 0.000000
# 4 0.000000 0.000000 0.000000 -0.063699 0.000000 0.008863
# 5 0.000811 0.001361 0.001477 0.000000 0.022668 0.000000
# 6 0.000000 0.000000 0.000000 0.008863 0.000000 0.065696
#
#
# Mechanical properties :
#
#
# Convention : Reuss Voigt Hill
#
# Bulk Modulus (GPa) = 42.12839 46.05008 44.08924
# Shear Modulus (GPa) = 62.36722 25.22555 43.79638
#
# Velocity S-wave (km/s) = 5.26406 3.34783 4.41125
# Velocity P-wave (km/s) = 7.46091 5.95016 6.74794
#
# Compressibility (1/GPa) = 0.02373696
#
# Stress axis : x y z
#
# Youngs Moduli (GPa) = 107.58519 80.62623 71.59683
#
# Poissons Ratio (x) = -0.06358 0.32165
# Poissons Ratio (y) = -0.08484 0.16181
# Poissons Ratio (z) = 0.48333 0.18222
#
# Static dielectric constant tensor:
#      x y z
#    x 1.871080 0.000000 -0.041640 
#    y 0.000000 1.885900 0.000000 
#    z -0.041640 0.000000 1.882640 
# 
# From -- ./inp_files/181232.got.cif
#   From: 2010.05.17/outbox.cif.g08.bks.cpg/sg12_91_cif.got.tgz:181232.got - 2010.06.03 13:09:07.
