data_PCOD9215912
_publ_section_title
;
Structure prediction by ZEFSAII (Michael W. Deem and Ramdas Pophale) SiO2 
 PCOD9215912
Probable space group: C 2/M
;
_chemical_formula_sum "Si O2"
_cell_formula_units_Z 48
_cell_length_a 30.652335
_cell_length_b 16.587506
_cell_length_c 9.549362
_cell_angle_alpha 90.000000
_cell_angle_beta 152.418588
_cell_angle_gamma 90.000000
_cell_volume 2248.060443
_symmetry_space_group_name_H-M "C 2/M"
_symmetry_group_IT_number 12
_symmetry_cell_setting 'monoclinic'
loop_
_space_group_symop_operation_xyz
x,y,z
-x,y,-z
-x,-y,-z
x,-y,z
1/2+x,1/2+y,z
1/2-x,1/2+y,-z
1/2-x,1/2-y,-z
1/2+x,1/2-y,z
loop_
_atom_site_type_symbol
_atom_site_label
_atom_site_fract_x
_atom_site_fract_y
_atom_site_fract_z
Si Si1 0.252806 0.662449 0.578858
Si Si2 0.217836 0.593873 0.186538
Si Si3 0.559931 0.140124 0.551709
Si Si4 0.923539 0.089929 0.660460
Si Si5 0.898284 0.594511 0.645209
Si Si6 0.030090 0.813368 0.737699
O O1 0.250000 0.750000 0.500000
O O2 0.214358 0.605987 0.343538
O O3 0.184390 0.646518 0.516450
O O4 0.363749 0.656597 0.931075
O O5 0.196618 0.500000 0.092451
O O6 0.324659 0.610583 0.447148
O O7 0.154933 0.652712 0.912056
O O8 0.500000 0.092501 0.500000
O O9 0.589943 0.104061 0.488718
O O10 0.494099 0.217611 0.331342
O O11 0.959498 0.151176 0.649578
O O12 0.916646 0.000000 0.579298
O O13 0.000000 0.088359 0.000000
O O14 0.880219 0.500000 0.624606
O O15 0.000000 0.616829 0.000000
O O16 0.000000 0.842743 0.500000
#
# Coordination Sequence:
#
# PCOD9215912 Si02
#       6
#     8   8   8   8   8   8
#     4  12  25  43  69 102 139 184 233 287 354 418
#     4  11  24  44  72 101 136 184 236 289 345 414
#     4  11  25  46  69 102 138 181 237 289 355 413
#     4  10  22  42  67  99 135 183 233 278 343 420
#     4  11  25  44  70 103 141 185 237 294 350 416
#     4  11  25  43  65  99 141 185 224 285 352 418
#
# _framework density 21.351738999999998
#
# number of rings (size 3 to 8) (size 9 to 14) (size 15 to 20)
#    0.000    1.000    1.667    5.000    4.667    5.000 
#    0.000    0.000    0.000    0.000    0.000    0.000 
#    0.000    0.000    0.000    0.000    0.000    0.000 
#
# Total GULP energy -133942.989769 kJ/mol
# GULP energy per Si atom -5580.957907 kJ/mol
# Density = 2.130314 g / cm^3
# Si number density = 21.351739 Si / 1000 Ang^3
#
#
#
# Elastic Constant Matrix: (Units=GPa)
#
#
# Indices 1 2 3 4 5 6 
#
# 1 164.7716 44.6587 35.2294 0.0000 0.7331 0.0000
# 2 44.6587 47.8727 4.8197 0.0000 2.6283 0.0000
# 3 35.2294 4.8197 109.8295 0.0000 0.5786 0.0000
# 4 0.0000 0.0000 0.0000 25.2939 0.0000 -3.6111
# 5 0.7331 2.6283 0.5786 0.0000 40.2548 0.0000
# 6 0.0000 0.0000 0.0000 -3.6111 0.0000 46.5013
#
#
#
# Elastic Compliance Matrix: (Units=1/GPa)
#
#
# Indices 1 2 3 4 5 6 
#
# 1 0.008742 -0.007929 -0.002458 0.000000 0.000394 0.000000
# 2 -0.007929 0.028248 0.001313 0.000000 -0.001719 0.000000
# 3 -0.002458 0.001313 0.009837 0.000000 -0.000182 0.000000
# 4 0.000000 0.000000 0.000000 0.039978 0.000000 0.003105
# 5 0.000394 -0.001719 -0.000182 0.000000 0.024949 0.000000
# 6 0.000000 0.000000 0.000000 0.003105 0.000000 0.021746
#
#
# Mechanical properties :
#
#
# Convention : Reuss Voigt Hill
#
# Bulk Modulus (GPa) = 34.87054 54.65437 44.76246
# Shear Modulus (GPa) = 31.01573 38.26106 34.63839
#
# Velocity S-wave (km/s) = 3.81545 4.23772 4.03212
# Velocity P-wave (km/s) = 5.98140 7.04252 6.53354
#
# Compressibility (1/GPa) = 0.02867750
#
# Stress axis : x y z
#
# Youngs Moduli (GPa) = 114.39146 35.40105 101.65821
#
# Poissons Ratio (x) = 0.28070 0.24990
# Poissons Ratio (y) = 0.90703 -0.13346
# Poissons Ratio (z) = 0.28120 -0.04648
#
# Static dielectric constant tensor:
#      x y z
#    x 1.744890 0.000000 -0.004950 
#    y 0.000000 1.858680 0.000000 
#    z -0.004950 0.000000 1.817130 
# 
# From -- ./inp_files/77685.got.cif
#   From: 2010.05.17/outbox.cif.g08.bks.cpg/sg12_39_cif.got.tgz:77685.got - 2010.06.03 13:09:07.
