data_PCOD9215323
_publ_section_title
;
Structure prediction by ZEFSAII (Michael W. Deem and Ramdas Pophale) SiO2 
 PCOD9215323
Probable space group: C 2/M
;
_chemical_formula_sum "Si O2"
_cell_formula_units_Z 48
_cell_length_a 13.995148
_cell_length_b 23.711424
_cell_length_c 7.627865
_cell_angle_alpha 90.000000
_cell_angle_beta 114.467606
_cell_angle_gamma 90.000000
_cell_volume 2303.948967
_symmetry_space_group_name_H-M "C 2/M"
_symmetry_group_IT_number 12
_symmetry_cell_setting 'monoclinic'
loop_
_space_group_symop_operation_xyz
x,y,z
-x,y,-z
-x,-y,-z
x,-y,z
1/2+x,1/2+y,z
1/2-x,1/2+y,-z
1/2-x,1/2-y,-z
1/2+x,1/2-y,z
loop_
_atom_site_type_symbol
_atom_site_label
_atom_site_fract_x
_atom_site_fract_y
_atom_site_fract_z
Si Si1 0.782951 0.355061 0.557195
Si Si2 0.949485 0.819863 0.642513
Si Si3 0.278003 0.935617 0.895075
Si Si4 0.005159 0.294583 0.200963
Si Si5 0.963323 0.062127 0.173662
Si Si6 0.605668 0.888931 0.685235
O O1 0.675303 0.321412 0.461805
O O2 0.783697 0.394308 0.731420
O O3 0.803476 0.388805 0.391904
O O4 0.881824 0.313600 0.642956
O O5 0.000000 0.801403 0.500000
O O6 0.996908 0.772786 0.805292
O O7 0.982865 0.883990 0.700715
O O8 0.161335 0.931136 0.890824
O O9 0.293261 0.000000 0.847560
O O10 0.359386 0.922132 0.114215
O O11 0.920802 0.326381 0.258178
O O12 0.000000 0.317085 0.000000
O O13 0.993003 0.000000 0.267898
O O14 0.000000 0.062768 0.000000
O O15 0.500000 0.907819 0.500000
#
# Coordination Sequence:
#
# PCOD9215323 Si02
#       6
#     8   8   8   8   8   8
#     4  11  23  43  65  95 136 172 218 277 324 386
#     4  12  23  39  64  98 130 169 223 260 333 394
#     4  11  23  42  68  99 133 177 220 268 331 388
#     4  11  23  43  66  91 130 174 220 275 327 388
#     4  10  22  41  64  93 132 171 218 272 320 388
#     4  10  23  43  67  93 135 171 221 275 326 384
#
# _framework density 20.833794000000001
#
# number of rings (size 3 to 8) (size 9 to 14) (size 15 to 20)
#    0.000    1.167    3.333    3.500    0.000    2.000 
#    0.000    8.333    0.000    0.000    0.000    0.000 
#    0.000    0.000    0.000    0.000    0.000    0.000 
#
# Total GULP energy -133936.289446 kJ/mol
# GULP energy per Si atom -5580.678727 kJ/mol
# Density = 2.078638 g / cm^3
# Si number density = 20.833794 Si / 1000 Ang^3
#
#
#
# Elastic Constant Matrix: (Units=GPa)
#
#
# Indices 1 2 3 4 5 6 
#
# 1 88.8839 9.9193 15.0841 0.0000 -23.9908 0.0000
# 2 9.9193 85.0202 11.5793 0.0000 -5.2188 0.0000
# 3 15.0841 11.5793 69.0067 0.0000 -29.3837 0.0000
# 4 0.0000 0.0000 0.0000 27.0100 0.0000 1.3357
# 5 -23.9908 -5.2188 -29.3837 0.0000 34.6810 0.0000
# 6 0.0000 0.0000 0.0000 1.3357 0.0000 16.7080
#
#
#
# Elastic Compliance Matrix: (Units=1/GPa)
#
#
# Indices 1 2 3 4 5 6 
#
# 1 0.014075 -0.001213 0.001870 0.000000 0.011138 0.000000
# 2 -0.001213 0.012142 -0.002114 0.000000 -0.000803 0.000000
# 3 0.001870 -0.002114 0.023235 0.000000 0.020661 0.000000
# 4 0.000000 0.000000 0.000000 0.037170 0.000000 -0.002972
# 5 0.011138 -0.000803 0.020661 0.000000 0.053923 0.000000
# 6 0.000000 0.000000 0.000000 -0.002972 0.000000 0.060089
#
#
# Mechanical properties :
#
#
# Convention : Reuss Voigt Hill
#
# Bulk Modulus (GPa) = 21.48852 35.11957 28.30404
# Shear Modulus (GPa) = 22.82447 29.43501 26.12974
#
# Velocity S-wave (km/s) = 3.31350 3.76287 3.54531
# Velocity P-wave (km/s) = 4.99757 5.98101 5.51127
#
# Compressibility (1/GPa) = 0.04653647
#
# Stress axis : x y z
#
# Youngs Moduli (GPa) = 71.04804 82.35819 43.03808
#
# Poissons Ratio (x) = 0.09991 -0.08046
# Poissons Ratio (y) = 0.08619 0.09100
# Poissons Ratio (z) = -0.13283 0.17414
#
# Static dielectric constant tensor:
#      x y z
#    x 1.716590 0.000000 0.047140 
#    y 0.000000 1.758400 0.000000 
#    z 0.047140 0.000000 1.588910 
# 
# From -- ./inp_files/51451.got.cif
#   From: 2010.05.17/outbox.cif.g08.bks.cpg/sg12_26_cif.got.tgz:51451.got - 2010.06.03 13:09:07.
