data_PCOD9215644
_publ_section_title
;
Structure prediction by ZEFSAII (Michael W. Deem and Ramdas Pophale) SiO2 
 PCOD9215644
Probable space group: C 2/M
;
_chemical_formula_sum "Si O2"
_cell_formula_units_Z 32
_cell_length_a 17.641653
_cell_length_b 15.528210
_cell_length_c 10.469547
_cell_angle_alpha 90.000000
_cell_angle_beta 30.406267
_cell_angle_gamma 90.000000
_cell_volume 1451.606868
_symmetry_space_group_name_H-M "C 2/M"
_symmetry_group_IT_number 12
_symmetry_cell_setting 'monoclinic'
loop_
_space_group_symop_operation_xyz
x,y,z
-x,y,-z
-x,-y,-z
x,-y,z
1/2+x,1/2+y,z
1/2-x,1/2+y,-z
1/2-x,1/2-y,-z
1/2+x,1/2-y,z
loop_
_atom_site_type_symbol
_atom_site_label
_atom_site_fract_x
_atom_site_fract_y
_atom_site_fract_z
Si Si1 0.845005 0.641367 0.493900
Si Si2 0.393412 0.500000 0.777283
Si Si3 0.628035 0.500000 0.916609
Si Si4 0.187982 0.660611 0.028542
Si Si5 0.831382 0.685509 0.240819
O O1 0.735672 0.581909 0.734568
O O2 0.834048 0.619926 0.357108
O O3 0.789496 0.739503 0.570808
O O4 0.012040 0.642956 0.307420
O O5 0.500000 0.500000 0.500000
O O6 0.290493 0.583955 0.926635
O O7 0.459831 0.500000 0.821970
O O8 0.500000 0.500000 0.000000
O O9 0.195790 0.654213 0.862801
O O10 0.250000 0.750000 0.000000
O O11 0.000000 0.724366 0.000000
#
# Coordination Sequence:
#
# PCOD9215644 Si02
#       5
#     8   4   4   8   8
#     4  10  22  41  70  97 138 178 239 286 343 429
#     4  12  31  47  68 106 146 177 242 293 353 433
#     4  12  27  45  70 100 136 187 232 295 362 412
#     4  11  25  43  71 102 142 191 229 292 364 409
#     4   9  20  39  66 102 135 180 229 281 347 422
#
# _framework density 22.044536000000001
#
# number of rings (size 3 to 8) (size 9 to 14) (size 15 to 20)
#    0.000    1.500    0.000    3.000    7.000    6.000 
#    0.000    3.750    0.000    0.000    0.000    0.000 
#    0.000    0.000    0.000    0.000    0.000    0.000 
#
# Total GULP energy -89289.047927 kJ/mol
# GULP energy per Si atom -5580.565495 kJ/mol
# Density = 2.199436 g / cm^3
# Si number density = 22.044536 Si / 1000 Ang^3
#
#
#
# Elastic Constant Matrix: (Units=GPa)
#
#
# Indices 1 2 3 4 5 6 
#
# 1 157.5679 25.2909 48.4101 0.0000 12.9462 0.0000
# 2 25.2909 83.7212 24.6651 -0.0001 -7.2133 0.0001
# 3 48.4101 24.6651 111.4045 -0.0002 1.4056 0.0002
# 4 0.0000 -0.0001 -0.0002 24.3310 0.0001 0.7395
# 5 12.9462 -7.2133 1.4056 0.0001 37.5477 -0.0001
# 6 0.0000 0.0001 0.0002 0.7395 -0.0001 14.6299
#
#
#
# Elastic Compliance Matrix: (Units=1/GPa)
#
#
# Indices 1 2 3 4 5 6 
#
# 1 0.007771 -0.001726 -0.002958 0.000000 -0.002900 0.000000
# 2 -0.001726 0.013412 -0.002261 0.000000 0.003256 0.000000
# 3 -0.002958 -0.002261 0.010760 0.000000 0.000183 0.000000
# 4 0.000000 0.000000 0.000000 0.041163 0.000000 -0.002081
# 5 -0.002900 0.003256 0.000183 0.000000 0.028251 0.000000
# 6 0.000000 0.000000 0.000000 -0.002081 0.000000 0.068458
#
#
# Mechanical properties :
#
#
# Convention : Reuss Voigt Hill
#
# Bulk Modulus (GPa) = 55.38963 61.04730 58.21847
# Shear Modulus (GPa) = 26.35434 32.25690 29.30562
#
# Velocity S-wave (km/s) = 3.46136 3.82941 3.65003
# Velocity P-wave (km/s) = 6.41525 6.87789 6.65059
#
# Compressibility (1/GPa) = 0.01805392
#
# Stress axis : x y z
#
# Youngs Moduli (GPa) = 128.69137 74.55833 92.93794
#
# Poissons Ratio (x) = 0.12867 0.27491
# Poissons Ratio (y) = 0.22209 0.21010
# Poissons Ratio (z) = 0.38066 0.16855
#
# Static dielectric constant tensor:
#      x y z
#    x 1.942620 0.000000 0.090410 
#    y 0.000000 1.782950 0.000000 
#    z 0.090410 0.000000 1.863730 
# 
# From -- ./inp_files/156454.got.cif
#   From: 2010.05.17/outbox.cif.g08.bks.cpg/sg12_79_cif.got.tgz:156454.got - 2010.06.03 13:09:07.
