data_PCOD9215480
_publ_section_title
;
Structure prediction by ZEFSAII (Michael W. Deem and Ramdas Pophale) SiO2 
 PCOD9215480
Probable space group: C 2/M
;
_chemical_formula_sum "Si O2"
_cell_formula_units_Z 50
_cell_length_a 18.936129
_cell_length_b 7.875160
_cell_length_c 15.731067
_cell_angle_alpha 90.000000
_cell_angle_beta 120.181848
_cell_angle_gamma 90.000000
_cell_volume 2027.872621
_symmetry_space_group_name_H-M "C 2/M"
_symmetry_group_IT_number 12
_symmetry_cell_setting 'monoclinic'
loop_
_space_group_symop_operation_xyz
x,y,z
-x,y,-z
-x,-y,-z
x,-y,z
1/2+x,1/2+y,z
1/2-x,1/2+y,-z
1/2-x,1/2-y,-z
1/2+x,1/2-y,z
loop_
_atom_site_type_symbol
_atom_site_label
_atom_site_fract_x
_atom_site_fract_y
_atom_site_fract_z
Si Si1 0.115287 0.185281 0.537070
Si Si2 0.889390 0.808219 0.261908
Si Si3 0.000000 0.500000 0.500000
Si Si4 0.539430 0.193422 0.261377
Si Si5 0.440755 0.804463 0.044561
Si Si6 0.788190 0.293118 0.851348
Si Si7 0.287988 0.694654 0.652934
O O1 0.120824 0.182280 0.643496
O O2 0.059046 0.349467 0.492577
O O3 0.210642 0.203726 0.570000
O O4 0.082411 0.000000 0.488849
O O5 0.802815 0.739556 0.176805
O O6 0.966934 0.699240 0.284864
O O7 0.901837 0.000000 0.237871
O O8 0.493742 0.274003 0.152063
O O9 0.624102 0.279656 0.337156
O O10 0.562608 0.000000 0.254320
O O11 0.423059 0.000000 0.061049
O O12 0.500000 0.811430 0.000000
O O13 0.356807 0.729566 0.957984
O O14 0.790233 0.500000 0.852269
O O15 0.802669 0.239927 0.762083
O O16 0.263220 0.500000 0.634720
#
# Coordination Sequence:
#
# PCOD9215480 Si02
#       7
#     8   8   2   8   8   8   8
#     4  10  22  41  66  96 127 154 189 238 292 349
#     4   9  20  36  54  82 117 157 195 241 297 353
#     4  12  22  40  72 106 120 150 192 234 288 362
#     4  11  21  32  54  80 111 159 208 249 303 355
#     4   9  16  29  49  75 107 151 206 258 306 351
#     4   9  17  33  54  72 109 154 201 254 306 349
#     4  11  20  34  55  85 115 151 203 249 288 351
#
# _framework density 24.656379999999999
#
# number of rings (size 3 to 8) (size 9 to 14) (size 15 to 20)
#    0.000    2.080    2.400    3.120    1.120    1.280 
#    0.000    2.400    0.000    0.960    0.000    0.000 
#    0.000    0.000    0.000    0.000    0.000    0.000 
#
# Total GULP energy -139480.460010 kJ/mol
# GULP energy per Si atom -5579.218400 kJ/mol
# Density = 2.460026 g / cm^3
# Si number density = 24.656380 Si / 1000 Ang^3
#
#
#
# Elastic Constant Matrix: (Units=GPa)
#
#
# Indices 1 2 3 4 5 6 
#
# 1 126.8701 24.3000 33.9579 0.0000 39.6737 0.0000
# 2 24.3000 112.4968 21.8004 0.0000 20.4419 0.0000
# 3 33.9579 21.8004 107.0961 0.0000 32.7169 0.0000
# 4 0.0000 0.0000 0.0000 -2.5804 0.0000 1.7663
# 5 39.6737 20.4419 32.7169 0.0000 39.6317 0.0000
# 6 0.0000 0.0000 0.0000 1.7663 0.0000 23.9386
#
#
#
# Elastic Compliance Matrix: (Units=1/GPa)
#
#
# Indices 1 2 3 4 5 6 
#
# 1 0.011495 -0.000425 -0.000147 0.000000 -0.011166 0.000000
# 2 -0.000425 0.009853 -0.000600 0.000000 -0.004162 0.000000
# 3 -0.000147 -0.000600 0.012525 0.000000 -0.009884 0.000000
# 4 0.000000 0.000000 0.000000 -0.368905 0.000000 0.027220
# 5 -0.011166 -0.004162 -0.009884 0.000000 0.046716 0.000000
# 6 0.000000 0.000000 0.000000 0.027220 0.000000 0.039765
#
#
# Mechanical properties :
#
#
# Convention : Reuss Voigt Hill
#
# Bulk Modulus (GPa) = 31.71631 56.28662 44.00147
# Shear Modulus (GPa) = -21.21371 29.95830 4.37229
#
# Velocity S-wave (km/s) = -2.93640 3.48951 1.33309
# Velocity P-wave (km/s) = 1.18097 6.25408 4.50046
#
# Compressibility (1/GPa) = 0.03152952
#
# Stress axis : x y z
#
# Youngs Moduli (GPa) = 86.99702 101.48757 79.83768
#
# Poissons Ratio (x) = 0.04318 0.01174
# Poissons Ratio (y) = 0.03701 0.04787
# Poissons Ratio (z) = 0.01279 0.06085
#
# Static dielectric constant tensor:
#      x y z
#    x 1.965940 0.000000 -0.023480 
#    y 0.000000 2.522340 0.000000 
#    z -0.023480 0.000000 2.030960 
# 
# From -- ./inp_files/275778.got.cif
#   From: 2010.05.17/outbox.cif.g08.bks.cpg/sg12_138_cif.got.tgz:275778.got - 2010.06.03 13:09:07.
