data_PCOD9215229
_publ_section_title
;
Structure prediction by ZEFSAII (Michael W. Deem and Ramdas Pophale) SiO2 
 PCOD9215229
Probable space group: C 2/M
;
_chemical_formula_sum "Si O2"
_cell_formula_units_Z 40
_cell_length_a 14.854093
_cell_length_b 8.566074
_cell_length_c 25.089688
_cell_angle_alpha 90.000000
_cell_angle_beta 42.203730
_cell_angle_gamma 90.000000
_cell_volume 2144.583993
_symmetry_space_group_name_H-M "C 2/M"
_symmetry_group_IT_number 12
_symmetry_cell_setting 'monoclinic'
loop_
_space_group_symop_operation_xyz
x,y,z
-x,y,-z
-x,-y,-z
x,-y,z
1/2+x,1/2+y,z
1/2-x,1/2+y,-z
1/2-x,1/2-y,-z
1/2+x,1/2-y,z
loop_
_atom_site_type_symbol
_atom_site_label
_atom_site_fract_x
_atom_site_fract_y
_atom_site_fract_z
Si Si1 0.179350 0.684131 0.084070
Si Si2 0.110779 0.815855 0.803839
Si Si3 0.147677 0.186705 0.500195
Si Si4 0.863915 0.684729 0.091771
Si Si5 0.852360 0.312684 0.618437
O O1 0.205199 0.500000 0.076326
O O2 0.243335 0.772389 0.105830
O O3 0.022331 0.719008 0.150221
O O4 0.250000 0.750000 0.000000
O O5 0.145764 0.778805 0.849498
O O6 0.233359 0.774987 0.711356
O O7 0.081902 0.000000 0.810374
O O8 0.250000 0.250000 0.500000
O O9 0.179846 0.248257 0.426449
O O10 0.994336 0.243563 0.575669
O O11 0.151581 0.000000 0.498752
O O12 0.867888 0.500000 0.101532
O O13 0.000000 0.724703 0.000000
O O14 0.866060 0.500000 0.609054
#
# Coordination Sequence:
#
# PCOD9215229 Si02
#       5
#     8   8   8   8   8
#     4  12  24  39  61  86 117 157 203 253 304 359
#     4  11  24  41  63  90 123 161 202 253 306 359
#     4  11  22  39  66  94 124 163 201 243 299 361
#     4  11  23  39  61  87 116 157 204 252 304 357
#     4  10  22  41  63  92 126 159 200 250 303 359
#
# _framework density 18.651636
#
# number of rings (size 3 to 8) (size 9 to 14) (size 15 to 20)
#    0.000    1.000    2.000    6.600    0.000    5.600 
#    0.000    0.000    0.000    0.000    0.000    0.000 
#    0.000    0.000    0.000    0.000    0.000    0.000 
#
# Total GULP energy -111843.566619 kJ/mol
# GULP energy per Si atom -5592.178331 kJ/mol
# Density = 1.860918 g / cm^3
# Si number density = 18.651636 Si / 1000 Ang^3
#
#
#
# Elastic Constant Matrix: (Units=GPa)
#
#
# Indices 1 2 3 4 5 6 
#
# 1 131.8525 16.7781 44.6196 0.0000 -1.6112 0.0001
# 2 16.7781 80.8980 46.9839 0.0000 -2.5780 0.0002
# 3 44.6196 46.9839 129.3407 0.0000 -3.1408 0.0000
# 4 0.0000 0.0000 0.0000 30.9011 0.0000 -0.5614
# 5 -1.6112 -2.5780 -3.1408 0.0000 13.8688 0.0000
# 6 0.0001 0.0002 0.0000 -0.5614 0.0000 37.7296
#
#
#
# Elastic Compliance Matrix: (Units=1/GPa)
#
#
# Indices 1 2 3 4 5 6 
#
# 1 0.008588 -0.000069 -0.002930 0.000000 0.000321 0.000000
# 2 -0.000069 0.015704 -0.005641 0.000000 0.001634 0.000000
# 3 -0.002930 -0.005641 0.010817 0.000000 0.001061 0.000000
# 4 0.000000 0.000000 0.000000 0.032370 0.000000 0.000482
# 5 0.000321 0.001634 0.001061 0.000000 0.072685 0.000000
# 6 0.000000 0.000000 0.000000 0.000482 0.000000 0.026512
#
#
# Mechanical properties :
#
#
# Convention : Reuss Voigt Hill
#
# Bulk Modulus (GPa) = 56.08804 62.09493 59.09149
# Shear Modulus (GPa) = 26.32972 32.08056 29.20514
#
# Velocity S-wave (km/s) = 3.76128 4.15177 3.96134
# Velocity P-wave (km/s) = 6.99997 7.50647 7.25764
#
# Compressibility (1/GPa) = 0.01782911
#
# Stress axis : x y z
#
# Youngs Moduli (GPa) = 116.43541 63.67878 92.44638
#
# Poissons Ratio (x) = 0.00442 0.27085
# Poissons Ratio (y) = 0.00808 0.52148
# Poissons Ratio (z) = 0.34113 0.35921
#
# Static dielectric constant tensor:
#      x y z
#    x 1.621930 0.000000 -0.009800 
#    y 0.000000 1.622810 0.000000 
#    z -0.009800 0.000000 1.622160 
# 
# From -- ./inp_files/337684.got.cif
#   From: 2010.05.17/outbox.cif.g08.bks.cpg/sg12_169_cif.got.tgz:337684.got - 2010.06.03 13:09:07.
