data_PCOD9215863
_publ_section_title
;
Structure prediction by ZEFSAII (Michael W. Deem and Ramdas Pophale) SiO2 
 PCOD9215863
Probable space group: C 2/M
;
_chemical_formula_sum "Si O2"
_cell_formula_units_Z 56
_cell_length_a 10.836552
_cell_length_b 15.136384
_cell_length_c 16.498966
_cell_angle_alpha 90.000000
_cell_angle_beta 84.838738
_cell_angle_gamma 90.000000
_cell_volume 2695.290217
_symmetry_space_group_name_H-M "C 2/M"
_symmetry_group_IT_number 12
_symmetry_cell_setting 'monoclinic'
loop_
_space_group_symop_operation_xyz
x,y,z
-x,y,-z
-x,-y,-z
x,-y,z
1/2+x,1/2+y,z
1/2-x,1/2+y,-z
1/2-x,1/2-y,-z
1/2+x,1/2-y,z
loop_
_atom_site_type_symbol
_atom_site_label
_atom_site_fract_x
_atom_site_fract_y
_atom_site_fract_z
Si Si1 0.347731 0.897276 0.288697
Si Si2 0.117562 0.249614 0.052709
Si Si3 0.192896 0.223864 0.417906
Si Si4 0.881153 0.102633 0.813305
Si Si5 0.714879 0.901137 0.344090
Si Si6 0.997943 0.897695 0.361740
Si Si7 0.891789 0.601001 0.812620
O O1 0.296133 0.826948 0.356656
O O2 0.256736 0.890935 0.216407
O O3 0.485603 0.881824 0.248618
O O4 0.339568 0.000000 0.318652
O O5 0.105162 0.163231 0.109891
O O6 0.116816 0.331746 0.114360
O O7 0.250000 0.250000 0.000000
O O8 0.000000 0.254998 0.000000
O O9 0.250000 0.250000 0.500000
O O10 0.147123 0.315886 0.381822
O O11 0.076915 0.158328 0.419748
O O12 0.964555 0.131870 0.731585
O O13 0.908259 0.000000 0.829022
O O14 0.718666 0.892201 0.246484
O O15 0.850937 0.894764 0.374741
O O16 0.664547 0.000000 0.363641
O O17 0.036900 0.000000 0.366176
O O18 0.898457 0.500000 0.841182
#
# Coordination Sequence:
#
# PCOD9215863 Si02
#       7
#     8   8   8   8   8   8   8
#     4   9  19  39  67  93 118 165 224 265 309 379
#     4  12  27  40  59  96 134 164 201 263 335 398
#     4  11  23  36  61  95 132 164 203 258 327 382
#     4   9  19  38  64  87 116 160 208 254 303 375
#     4  10  23  40  62  91 122 163 216 263 307 368
#     4   9  20  41  66  90 117 164 218 259 305 371
#     4  10  22  42  67  88 119 167 216 265 314 377
#
# _framework density 20.776983999999999
#
# number of rings (size 3 to 8) (size 9 to 14) (size 15 to 20)
#    0.000    2.000    0.000    3.857    6.000    2.857 
#    0.000    1.429    0.000    2.571    0.000    0.000 
#    0.000    0.000    0.000    0.000    0.000    0.000 
#
# Total GULP energy -156395.753012 kJ/mol
# GULP energy per Si atom -5585.562608 kJ/mol
# Density = 2.072969 g / cm^3
# Si number density = 20.776984 Si / 1000 Ang^3
#
#
#
# Elastic Constant Matrix: (Units=GPa)
#
#
# Indices 1 2 3 4 5 6 
#
# 1 73.7934 27.9188 25.5659 0.0000 5.8127 0.0000
# 2 27.9188 132.1678 84.2970 0.0000 6.6703 0.0000
# 3 25.5659 84.2970 108.1761 0.0000 12.9062 0.0000
# 4 0.0000 0.0000 0.0000 -0.8444 0.0000 19.6659
# 5 5.8127 6.6703 12.9062 0.0000 30.0323 0.0000
# 6 0.0000 0.0000 0.0000 19.6659 0.0000 19.4110
#
#
#
# Elastic Compliance Matrix: (Units=1/GPa)
#
#
# Indices 1 2 3 4 5 6 
#
# 1 0.015052 -0.001896 -0.001879 0.000000 -0.001685 0.000000
# 2 -0.001896 0.015373 -0.011771 0.000000 0.002011 0.000000
# 3 -0.001879 -0.011771 0.019506 0.000000 -0.005404 0.000000
# 4 0.000000 0.000000 0.000000 -0.048150 0.000000 0.048782
# 5 -0.001685 0.002011 -0.005404 0.000000 0.035499 0.000000
# 6 0.000000 0.000000 0.000000 0.048782 0.000000 0.002095
#
#
# Mechanical properties :
#
#
# Convention : Reuss Voigt Hill
#
# Bulk Modulus (GPa) = 53.08252 65.52229 59.30241
# Shear Modulus (GPa) = 65.14887 21.47682 43.31284
#
# Velocity S-wave (km/s) = 5.60574 3.21858 4.57076
# Velocity P-wave (km/s) = 8.21604 6.73920 7.51399
#
# Compressibility (1/GPa) = 0.01883859
#
# Stress axis : x y z
#
# Youngs Moduli (GPa) = 66.43459 65.04932 51.26686
#
# Poissons Ratio (x) = 0.12336 0.09631
# Poissons Ratio (y) = 0.12599 0.60347
# Poissons Ratio (z) = 0.12481 0.76571
#
# Static dielectric constant tensor:
#      x y z
#    x 1.788210 0.000000 -0.003940 
#    y 0.000000 1.770460 0.000000 
#    z -0.003940 0.000000 1.725120 
# 
# From -- ./inp_files/205036.got.cif
#   From: 2010.05.17/outbox.cif.g08.bks.cpg/sg12_103_cif.got.tgz:205036.got - 2010.06.03 13:09:07.
