data_PCOD9215101
_publ_section_title
;
Structure prediction by ZEFSAII (Michael W. Deem and Ramdas Pophale) SiO2 
 PCOD9215101
Probable space group: C 2/M
;
_chemical_formula_sum "Si O2"
_cell_formula_units_Z 56
_cell_length_a 18.875036
_cell_length_b 18.261296
_cell_length_c 17.390126
_cell_angle_alpha 90.000000
_cell_angle_beta 22.807299
_cell_angle_gamma 90.000000
_cell_volume 2323.501083
_symmetry_space_group_name_H-M "C 2/M"
_symmetry_group_IT_number 12
_symmetry_cell_setting 'monoclinic'
loop_
_space_group_symop_operation_xyz
x,y,z
-x,y,-z
-x,-y,-z
x,-y,z
1/2+x,1/2+y,z
1/2-x,1/2+y,-z
1/2-x,1/2-y,-z
1/2+x,1/2-y,z
loop_
_atom_site_type_symbol
_atom_site_label
_atom_site_fract_x
_atom_site_fract_y
_atom_site_fract_z
Si Si1 0.713579 0.718773 0.300074
Si Si2 0.886181 0.419516 0.193571
Si Si3 0.479033 0.325286 0.788529
Si Si4 0.801864 0.413006 0.832115
Si Si5 0.851733 0.680360 0.992884
Si Si6 0.183569 0.416483 0.513236
Si Si7 0.800539 0.121021 0.229762
O O1 0.500000 0.727798 0.500000
O O2 0.748722 0.647143 0.316163
O O3 0.812756 0.708554 0.118626
O O4 0.791465 0.792797 0.258438
O O5 0.807501 0.500000 0.286591
O O6 0.000000 0.424134 0.000000
O O7 0.028972 0.392734 0.115029
O O8 0.346025 0.330855 0.847994
O O9 0.678396 0.361172 0.582453
O O10 0.373613 0.373233 0.958222
O O11 0.461402 0.242471 0.836559
O O12 0.784360 0.500000 0.854901
O O13 0.823195 0.391669 0.721834
O O14 0.975527 0.390172 0.709534
O O15 0.191423 0.500000 0.535163
O O16 0.246734 0.419497 0.360548
O O17 0.000000 0.099556 0.000000
#
# Coordination Sequence:
#
# PCOD9215101 Si02
#       7
#     8   8   8   8   8   8   8
#     4  11  21  37  63  92 121 151 199 260 308 355
#     4   9  19  37  61  84 110 146 195 254 308 358
#     4  11  22  41  62  84 127 167 206 245 297 365
#     4  11  23  38  58  90 125 164 207 247 299 356
#     4  10  22  41  61  89 115 159 208 246 302 370
#     4  11  23  38  59  91 128 164 206 249 295 357
#     4  12  21  35  62  88 125 163 207 250 301 349
#
# _framework density 24.101559999999999
#
# number of rings (size 3 to 8) (size 9 to 14) (size 15 to 20)
#    0.000    1.286    2.857    4.286    0.000    3.143 
#    2.571    1.429    0.000    0.000    0.000    0.000 
#    0.000    0.000    0.000    0.000    0.000    0.000 
#
# Total GULP energy -156826.069249 kJ/mol
# GULP energy per Si atom -5600.931045 kJ/mol
# Density = 2.404670 g / cm^3
# Si number density = 24.101560 Si / 1000 Ang^3
#
#
#
# Elastic Constant Matrix: (Units=GPa)
#
#
# Indices 1 2 3 4 5 6 
#
# 1 119.3023 31.9197 5.0575 -0.0138 -20.9301 0.0006
# 2 31.9197 126.8803 13.0844 -0.0620 -13.8385 0.0242
# 3 5.0575 13.0844 74.9039 -0.0752 -16.0663 0.0326
# 4 -0.0138 -0.0620 -0.0752 27.5639 0.0254 -11.4101
# 5 -20.9301 -13.8385 -16.0663 0.0254 38.9059 -0.0029
# 6 0.0006 0.0242 0.0326 -11.4101 -0.0029 17.6715
#
#
#
# Elastic Compliance Matrix: (Units=1/GPa)
#
#
# Indices 1 2 3 4 5 6 
#
# 1 0.009732 -0.001997 0.000727 -0.000002 0.004825 0.000001
# 2 -0.001997 0.008663 -0.001040 0.000014 0.001578 -0.000001
# 3 0.000727 -0.001040 0.014798 0.000031 0.006132 -0.000005
# 4 -0.000002 0.000014 0.000031 0.049513 -0.000013 0.031970
# 5 0.004825 0.001578 0.006132 -0.000013 0.031392 -0.000017
# 6 0.000001 -0.000001 -0.000005 0.031970 -0.000017 0.077230
#
#
# Mechanical properties :
#
#
# Convention : Reuss Voigt Hill
#
# Bulk Modulus (GPa) = 34.99815 46.80108 40.89962
# Shear Modulus (GPa) = 24.33389 34.89658 29.61524
#
# Velocity S-wave (km/s) = 3.18093 3.80925 3.50918
# Velocity P-wave (km/s) = 5.29563 6.22958 5.78149
#
# Compressibility (1/GPa) = 0.02857294
#
# Stress axis : x y z
#
# Youngs Moduli (GPa) = 102.75267 115.43134 67.57507
#
# Poissons Ratio (x) = 0.23052 -0.04911
# Poissons Ratio (y) = 0.20520 0.07028
# Poissons Ratio (z) = -0.07467 0.12006
#
# Static dielectric constant tensor:
#      x y z
#    x 1.950070 0.000000 0.003190 
#    y 0.000000 1.889690 0.000020 
#    z 0.003190 0.000020 1.923860 
# 
# From -- ./inp_files/322645.got.cif
#   From: 2010.05.17/outbox.cif.g08.bks.cpg/sg12_162_cif.got.tgz:322645.got - 2010.06.03 13:09:07.
