data_PCOD9215156
_publ_section_title
;
Structure prediction by ZEFSAII (Michael W. Deem and Ramdas Pophale) SiO2 
 PCOD9215156
Probable space group: C 2/M
;
_chemical_formula_sum "Si O2"
_cell_formula_units_Z 64
_cell_length_a 9.396549
_cell_length_b 17.409327
_cell_length_c 28.934921
_cell_angle_alpha 90.000000
_cell_angle_beta 42.987392
_cell_angle_gamma 90.000000
_cell_volume 3227.405176
_symmetry_space_group_name_H-M "C 2/M"
_symmetry_group_IT_number 12
_symmetry_cell_setting 'monoclinic'
loop_
_space_group_symop_operation_xyz
x,y,z
-x,y,-z
-x,-y,-z
x,-y,z
1/2+x,1/2+y,z
1/2-x,1/2+y,-z
1/2-x,1/2-y,-z
1/2+x,1/2-y,z
loop_
_atom_site_type_symbol
_atom_site_label
_atom_site_fract_x
_atom_site_fract_y
_atom_site_fract_z
Si Si1 0.848364 0.091561 0.494073
Si Si2 0.508423 0.243243 0.048892
Si Si3 0.657015 0.195138 0.198478
Si Si4 0.826855 0.590075 0.231145
Si Si5 0.192031 0.412530 0.874534
Si Si6 0.121429 0.843197 0.760304
Si Si7 0.400598 0.831557 0.614177
Si Si8 0.459670 0.671341 0.373415
O O1 0.617495 0.126609 0.553145
O O2 0.934508 0.116969 0.423875
O O3 0.000000 0.118295 0.500000
O O4 0.836086 0.000000 0.499575
O O5 0.362690 0.287254 0.119671
O O6 0.427391 0.155138 0.070495
O O7 0.500000 0.276805 0.000000
O O8 0.750000 0.250000 0.000000
O O9 0.529316 0.124115 0.208223
O O10 0.728496 0.181591 0.233667
O O11 0.505276 0.268552 0.228145
O O12 0.800323 0.500000 0.246418
O O13 0.846833 0.600499 0.171198
O O14 0.629716 0.635876 0.298265
O O15 0.134248 0.500000 0.900035
O O16 0.440333 0.399306 0.821288
O O17 0.257639 0.875258 0.685863
O O18 0.459483 0.751404 0.624858
O O19 0.257366 0.819946 0.602962
#
# Coordination Sequence:
#
# PCOD9215156 Si02
#       8
#     8   8   8   8   8   8   8   8
#     4  11  27  47  65  92 134 176 215 264 320 383
#     4  11  22  39  64  94 125 171 212 256 313 381
#     4  11  22  39  64  93 130 162 216 261 319 374
#     4  11  23  40  64  92 128 170 212 268 330 378
#     4  10  22  41  62  93 131 167 212 264 319 377
#     4  11  21  38  64  95 125 166 210 272 317 374
#     4  12  24  40  69  96 126 169 219 269 321 379
#     4  12  24  43  66  97 127 168 220 267 324 380
#
# _framework density 19.830171
#
# number of rings (size 3 to 8) (size 9 to 14) (size 15 to 20)
#    0.000    0.875    2.500    6.375    1.750    2.750 
#    0.000    0.625    0.000    2.250    0.000    0.000 
#    0.000    0.000    0.000    0.000    0.000    0.000 
#
# Total GULP energy -178891.523754 kJ/mol
# GULP energy per Si atom -5590.360117 kJ/mol
# Density = 1.978504 g / cm^3
# Si number density = 19.830171 Si / 1000 Ang^3
#
#
#
# Elastic Constant Matrix: (Units=GPa)
#
#
# Indices 1 2 3 4 5 6 
#
# 1 145.1124 7.5526 7.7947 0.0001 -9.3723 0.0002
# 2 7.5526 57.9862 2.9232 -0.0003 -5.1966 0.0001
# 3 7.7947 2.9232 63.5621 -0.0033 -11.2788 0.0007
# 4 0.0001 -0.0003 -0.0033 14.9736 -0.0001 -1.2496
# 5 -9.3723 -5.1966 -11.2788 -0.0001 36.9490 0.0005
# 6 0.0002 0.0001 0.0007 -1.2496 0.0005 21.5841
#
#
#
# Elastic Compliance Matrix: (Units=1/GPa)
#
#
# Indices 1 2 3 4 5 6 
#
# 1 0.007058 -0.000755 -0.000562 0.000000 0.001512 0.000000
# 2 -0.000755 0.017556 -0.000328 0.000000 0.002177 0.000000
# 3 -0.000562 -0.000328 0.016687 0.000004 0.004905 0.000000
# 4 0.000000 0.000000 0.000004 0.067108 0.000001 0.003885
# 5 0.001512 0.002177 0.004905 0.000001 0.029251 -0.000001
# 6 0.000000 0.000000 0.000000 0.003885 -0.000001 0.046555
#
#
# Mechanical properties :
#
#
# Convention : Reuss Voigt Hill
#
# Bulk Modulus (GPa) = 26.30995 33.68909 29.99952
# Shear Modulus (GPa) = 24.97775 31.26071 28.11923
#
# Velocity S-wave (km/s) = 3.55291 3.97472 3.76972
# Velocity P-wave (km/s) = 5.48884 6.17173 5.84027
#
# Compressibility (1/GPa) = 0.03800844
#
# Stress axis : x y z
#
# Youngs Moduli (GPa) = 141.67467 56.96201 59.92659
#
# Poissons Ratio (x) = 0.04303 0.03371
# Poissons Ratio (y) = 0.10703 0.01968
# Poissons Ratio (z) = 0.07969 0.01871
#
# Static dielectric constant tensor:
#      x y z
#    x 1.681330 -0.000010 0.040120 
#    y -0.000010 1.717350 -0.000020 
#    z 0.040120 -0.000020 1.866160 
# 
# From -- ./inp_files/372930.got.cif
#   From: 2010.05.17/outbox.cif.g08.bks.cpg/sg12_187_cif.got.tgz:372930.got - 2010.06.03 13:09:07.
