data_PCOD9215784
_publ_section_title
;
Structure prediction by ZEFSAII (Michael W. Deem and Ramdas Pophale) SiO2 
 PCOD9215784
Probable space group: C 2/M
;
_chemical_formula_sum "Si O2"
_cell_formula_units_Z 30
_cell_length_a 13.287197
_cell_length_b 15.815701
_cell_length_c 10.736540
_cell_angle_alpha 90.000000
_cell_angle_beta 144.972965
_cell_angle_gamma 90.000000
_cell_volume 1295.000629
_symmetry_space_group_name_H-M "C 2/M"
_symmetry_group_IT_number 12
_symmetry_cell_setting 'monoclinic'
loop_
_space_group_symop_operation_xyz
x,y,z
-x,y,-z
-x,-y,-z
x,-y,z
1/2+x,1/2+y,z
1/2-x,1/2+y,-z
1/2-x,1/2-y,-z
1/2+x,1/2-y,z
loop_
_atom_site_type_symbol
_atom_site_label
_atom_site_fract_x
_atom_site_fract_y
_atom_site_fract_z
Si Si1 0.213748 0.500000 0.991685
Si Si2 0.220118 0.824197 0.072252
Si Si3 0.858785 0.164584 0.609553
Si Si4 0.000000 0.000000 0.500000
Si Si5 0.679260 0.000000 0.362240
Si Si6 0.500000 0.270437 0.500000
O O1 0.214152 0.414406 0.910275
O O2 0.027133 0.500000 0.873228
O O3 0.391345 0.500000 0.252789
O O4 0.334659 0.788686 0.301414
O O5 0.250000 0.750000 0.000000
O O6 0.011120 0.833212 0.865957
O O7 0.750000 0.250000 0.500000
O O8 0.733936 0.084410 0.491439
O O9 0.953121 0.169251 0.568290
O O10 0.807175 0.000000 0.373773
#
# Coordination Sequence:
#
# PCOD9215784 Si02
#       6
#     4   8   8   2   4   4
#     4  12  25  44  66 100 135 178 223 280 339 402
#     4  10  22  42  65  92 135 170 220 277 327 403
#     4  11  23  43  67 100 135 175 227 279 336 406
#     4  12  24  44  66 100 138 168 230 286 338 392
#     4  12  23  41  69  98 133 174 224 279 341 390
#     4  10  23  42  66  93 136 182 217 280 340 391
#
# _framework density 23.166011000000001
#
# number of rings (size 3 to 8) (size 9 to 14) (size 15 to 20)
#    0.000    1.067    2.667    4.400    3.733    1.600 
#    4.800    1.333    0.000    4.800    0.000    0.000 
#    0.000    0.000    0.000    0.000    0.000    0.000 
#
# Total GULP energy -83644.772708 kJ/mol
# GULP energy per Si atom -5576.318181 kJ/mol
# Density = 2.311328 g / cm^3
# Si number density = 23.166011 Si / 1000 Ang^3
#
#
#
# Elastic Constant Matrix: (Units=GPa)
#
#
# Indices 1 2 3 4 5 6 
#
# 1 58.9274 19.6182 35.8107 0.0000 14.9569 0.0000
# 2 19.6182 197.6833 56.4614 0.0000 6.6127 0.0000
# 3 35.8107 56.4614 206.9284 0.0000 21.7967 0.0000
# 4 0.0000 0.0000 0.0000 32.7480 0.0000 24.2296
# 5 14.9569 6.6127 21.7967 0.0000 47.1355 0.0000
# 6 0.0000 0.0000 0.0000 24.2296 0.0000 9.0374
#
#
#
# Elastic Compliance Matrix: (Units=1/GPa)
#
#
# Indices 1 2 3 4 5 6 
#
# 1 0.020232 -0.001075 -0.002678 0.000000 -0.005031 0.000000
# 2 -0.001075 0.005544 -0.001346 0.000000 0.000186 0.000000
# 3 -0.002678 -0.001346 0.005838 0.000000 -0.001661 0.000000
# 4 0.000000 0.000000 0.000000 -0.031044 0.000000 0.083230
# 5 -0.005031 0.000186 -0.001661 0.000000 0.023554 0.000000
# 6 0.000000 0.000000 0.000000 0.083230 0.000000 -0.112491
#
#
# Mechanical properties :
#
#
# Convention : Reuss Voigt Hill
#
# Bulk Modulus (GPa) = 46.69384 76.36885 61.53134
# Shear Modulus (GPa) = -70.39204 41.22743 -14.58231
#
# Velocity S-wave (km/s) = -5.51832 4.22317 -2.51165
# Velocity P-wave (km/s) = 4.51692 7.53775 4.26703
#
# Compressibility (1/GPa) = 0.02141610
#
# Stress axis : x y z
#
# Youngs Moduli (GPa) = 49.42593 180.39091 171.28091
#
# Poissons Ratio (x) = 0.19385 0.45873
# Poissons Ratio (y) = 0.05311 0.23057
# Poissons Ratio (z) = 0.13237 0.24284
#
# Static dielectric constant tensor:
#      x y z
#    x 1.963140 0.000000 -0.044230 
#    y 0.000000 1.985870 0.000000 
#    z -0.044230 0.000000 1.858460 
# 
# From -- ./inp_files/145251.got.cif
#   From: 2010.05.17/outbox.cif.g08.bks.cpg/sg12_73_cif.got.tgz:145251.got - 2010.06.03 13:09:07.
