data_PCOD9215256
_publ_section_title
;
Structure prediction by ZEFSAII (Michael W. Deem and Ramdas Pophale) SiO2 
 PCOD9215256
Probable space group: C 2/M
;
_chemical_formula_sum "Si O2"
_cell_formula_units_Z 36
_cell_length_a 10.045281
_cell_length_b 13.941044
_cell_length_c 19.025972
_cell_angle_alpha 90.000000
_cell_angle_beta 30.817587
_cell_angle_gamma 90.000000
_cell_volume 1365.004574
_symmetry_space_group_name_H-M "C 2/M"
_symmetry_group_IT_number 12
_symmetry_cell_setting 'monoclinic'
loop_
_space_group_symop_operation_xyz
x,y,z
-x,y,-z
-x,-y,-z
x,-y,z
1/2+x,1/2+y,z
1/2-x,1/2+y,-z
1/2-x,1/2-y,-z
1/2+x,1/2-y,z
loop_
_atom_site_type_symbol
_atom_site_label
_atom_site_fract_x
_atom_site_fract_y
_atom_site_fract_z
Si Si1 0.867019 0.365420 0.842375
Si Si2 0.701458 0.645219 0.140053
Si Si3 0.073813 0.828604 0.360300
Si Si4 0.997864 0.608244 0.627615
Si Si5 0.931849 0.000000 0.913380
O O1 0.796904 0.255018 0.882800
O O2 0.170027 0.374170 0.723509
O O3 0.844321 0.398259 0.771673
O O4 0.693259 0.420082 0.975864
O O5 0.597264 0.649097 0.266581
O O6 0.531440 0.582710 0.165225
O O7 0.000000 0.608853 0.000000
O O8 0.072962 0.712543 0.373910
O O9 0.801965 0.872123 0.507590
O O10 0.985498 0.500000 0.601737
#
# Coordination Sequence:
#
# PCOD9215256 Si02
#       5
#     8   8   8   8   4
#     4  11  23  41  61  89 121 156 198 249 289 350
#     4  11  24  40  60  88 123 156 197 243 295 350
#     4  10  23  39  63  88 124 151 197 251 293 345
#     4  10  22  41  64  89 116 157 200 243 298 350
#     4  12  23  38  62  92 112 165 199 243 283 371
#
# _framework density 26.373538
#
# number of rings (size 3 to 8) (size 9 to 14) (size 15 to 20)
#    0.000    1.333    3.333    1.667    3.111    0.889 
#    2.000    0.556    0.000    4.000    0.000    0.000 
#    0.000    0.000    0.000    0.000    0.000    0.000 
#
# Total GULP energy -100412.016312 kJ/mol
# GULP energy per Si atom -5578.445351 kJ/mol
# Density = 2.631351 g / cm^3
# Si number density = 26.373538 Si / 1000 Ang^3
#
#
#
# Elastic Constant Matrix: (Units=GPa)
#
#
# Indices 1 2 3 4 5 6 
#
# 1 73.9026 3.9341 23.7283 0.0320 5.9951 -0.0549
# 2 3.9341 152.2410 31.0947 0.0290 24.0198 -0.0597
# 3 23.7283 31.0947 154.7674 0.0073 -10.8416 -0.0463
# 4 0.0320 0.0290 0.0073 -210.1040 -0.0307 390.6819
# 5 5.9951 24.0198 -10.8416 -0.0307 60.7824 0.0491
# 6 -0.0549 -0.0597 -0.0463 390.6819 0.0491 -499.5676
#
#
#
# Elastic Compliance Matrix: (Units=1/GPa)
#
#
# Indices 1 2 3 4 5 6 
#
# 1 0.014460 0.000449 -0.002450 0.000001 -0.002040 -0.000001
# 2 0.000449 0.007446 -0.001796 0.000001 -0.003307 0.000000
# 3 -0.002450 -0.001796 0.007356 0.000001 0.002264 0.000001
# 4 0.000001 0.000001 0.000001 0.010479 -0.000002 0.008195
# 5 -0.002040 -0.003307 0.002264 -0.000002 0.018364 0.000001
# 6 -0.000001 0.000000 0.000001 0.008195 0.000001 0.004407
#
#
# Mechanical properties :
#
#
# Convention : Reuss Voigt Hill
#
# Bulk Modulus (GPa) = 46.15464 55.38059 50.76761
# Shear Modulus (GPa) = 64.65813 -108.30091 -21.82139
#
# Velocity S-wave (km/s) = 4.95676 -6.41509 -2.87957
# Velocity P-wave (km/s) = 7.09209 5.81610 2.86973
#
# Compressibility (1/GPa) = 0.02166630
#
# Stress axis : x y z
#
# Youngs Moduli (GPa) = 69.15829 134.30750 135.93585
#
# Poissons Ratio (x) = -0.06026 0.33304
# Poissons Ratio (y) = -0.03103 0.24419
# Poissons Ratio (z) = 0.16944 0.24126
#
# Static dielectric constant tensor:
#      x y z
#    x 2.271700 0.000040 -0.175370 
#    y 0.000040 2.037460 -0.000030 
#    z -0.175370 -0.000030 2.060720 
# 
# From -- ./inp_files/128940.got.cif
#   From: 2010.05.17/outbox.cif.g08.bks.cpg/sg12_65_cif.got.tgz:128940.got - 2010.06.03 13:09:07.
