data_PCOD9215667
_publ_section_title
;
Structure prediction by ZEFSAII (Michael W. Deem and Ramdas Pophale) SiO2 
 PCOD9215667
Probable space group: C 2/M
;
_chemical_formula_sum "Si O2"
_cell_formula_units_Z 28
_cell_length_a 16.382677
_cell_length_b 7.655728
_cell_length_c 13.525912
_cell_angle_alpha 90.000000
_cell_angle_beta 110.323110
_cell_angle_gamma 90.000000
_cell_volume 1590.832649
_symmetry_space_group_name_H-M "C 2/M"
_symmetry_group_IT_number 12
_symmetry_cell_setting 'monoclinic'
loop_
_space_group_symop_operation_xyz
x,y,z
-x,y,-z
-x,-y,-z
x,-y,z
1/2+x,1/2+y,z
1/2-x,1/2+y,-z
1/2-x,1/2-y,-z
1/2+x,1/2-y,z
loop_
_atom_site_type_symbol
_atom_site_label
_atom_site_fract_x
_atom_site_fract_y
_atom_site_fract_z
Si Si1 0.397437 0.500000 0.977903
Si Si2 0.357560 0.500000 0.192859
Si Si3 0.806204 0.304685 0.819380
Si Si4 0.165317 0.293678 0.399264
Si Si5 0.471456 0.500000 0.601505
O O1 0.353130 0.666999 0.907981
O O2 0.500000 0.500000 0.000000
O O3 0.379587 0.500000 0.087010
O O4 0.294752 0.336498 0.194094
O O5 0.443844 0.500000 0.293865
O O6 0.845421 0.500000 0.848274
O O7 0.814510 0.257511 0.707723
O O8 0.145974 0.500000 0.400847
O O9 0.250000 0.250000 0.500000
O O10 0.087419 0.169228 0.400383
O O11 0.500000 0.500000 0.500000
#
# Coordination Sequence:
#
# PCOD9215667 Si02
#       5
#     4   4   8   8   4
#     4  12  22  38  64  90 120 161 203 250 307 367
#     4  10  22  42  59  88 125 159 203 258 299 361
#     4   9  22  40  60  87 120 159 203 248 306 356
#     4  11  21  39  64  90 121 165 205 253 308 363
#     4  12  24  42  62  92 130 156 206 258 302 374
#
# _framework density 17.600845
#
# number of rings (size 3 to 8) (size 9 to 14) (size 15 to 20)
#    0.857    0.571    1.429    5.143    0.000    1.143 
#    2.571    0.000    0.000    0.000    0.000    0.000 
#    0.000    0.000    0.000    0.000    0.000    0.000 
#
# Total GULP energy -78121.001275 kJ/mol
# GULP energy per Si atom -5580.071520 kJ/mol
# Density = 1.756079 g / cm^3
# Si number density = 17.600845 Si / 1000 Ang^3
#
#
#
# Elastic Constant Matrix: (Units=GPa)
#
#
# Indices 1 2 3 4 5 6 
#
# 1 177.2276 80.0105 114.4599 0.0000 -5.8885 0.0000
# 2 80.0105 106.4192 92.9367 0.0000 0.1282 0.0000
# 3 114.4599 92.9367 200.1607 0.0000 -8.7322 0.0000
# 4 0.0000 0.0000 0.0000 25.2279 0.0000 1.5409
# 5 -5.8885 0.1282 -8.7322 0.0000 49.5466 0.0000
# 6 0.0000 0.0000 0.0000 1.5409 0.0000 43.0377
#
#
#
# Elastic Compliance Matrix: (Units=1/GPa)
#
#
# Indices 1 2 3 4 5 6 
#
# 1 0.009978 -0.004273 -0.003698 0.000000 0.000545 0.000000
# 2 -0.004273 0.017725 -0.005856 0.000000 -0.001586 0.000000
# 3 -0.003698 -0.005856 0.009887 0.000000 0.001318 0.000000
# 4 0.000000 0.000000 0.000000 0.039726 0.000000 -0.001422
# 5 0.000545 -0.001586 0.001318 0.000000 0.020484 0.000000
# 6 0.000000 0.000000 0.000000 -0.001422 0.000000 0.023286
#
#
# Mechanical properties :
#
#
# Convention : Reuss Voigt Hill
#
# Bulk Modulus (GPa) = 100.63668 117.62464 109.13066
# Shear Modulus (GPa) = 32.88352 36.65582 34.76967
#
# Velocity S-wave (km/s) = 4.32706 4.56852 4.44943
# Velocity P-wave (km/s) = 9.07006 9.73666 9.40926
#
# Compressibility (1/GPa) = 0.00993673
#
# Stress axis : x y z
#
# Youngs Moduli (GPa) = 100.22084 56.41698 101.14281
#
# Poissons Ratio (x) = 0.24107 0.37403
# Poissons Ratio (y) = 0.42825 0.59226
# Poissons Ratio (z) = 0.37062 0.33036
#
# Static dielectric constant tensor:
#      x y z
#    x 1.581210 0.000000 -0.010530 
#    y 0.000000 1.598850 0.000000 
#    z -0.010530 0.000000 1.560610 
# 
# From -- ./inp_files/138880.got.cif
#   From: 2010.05.17/outbox.cif.g08.bks.cpg/sg12_70_cif.got.tgz:138880.got - 2010.06.03 13:09:07.
