data_PCOD9215464
_publ_section_title
;
Structure prediction by ZEFSAII (Michael W. Deem and Ramdas Pophale) SiO2 
 PCOD9215464
Probable space group: C 2/M
;
_chemical_formula_sum "Si O2"
_cell_formula_units_Z 40
_cell_length_a 23.739058
_cell_length_b 8.841833
_cell_length_c 9.671176
_cell_angle_alpha 90.000000
_cell_angle_beta 75.183235
_cell_angle_gamma 90.000000
_cell_volume 1962.450130
_symmetry_space_group_name_H-M "C 2/M"
_symmetry_group_IT_number 12
_symmetry_cell_setting 'monoclinic'
loop_
_space_group_symop_operation_xyz
x,y,z
-x,y,-z
-x,-y,-z
x,-y,z
1/2+x,1/2+y,z
1/2-x,1/2+y,-z
1/2-x,1/2-y,-z
1/2+x,1/2-y,z
loop_
_atom_site_type_symbol
_atom_site_label
_atom_site_fract_x
_atom_site_fract_y
_atom_site_fract_z
Si Si1 0.076252 0.178122 0.073041
Si Si2 0.760996 0.819821 0.343943
Si Si3 0.386276 0.820983 0.226389
Si Si4 0.022711 0.818554 0.638072
Si Si5 0.702091 0.320843 0.131158
O O1 0.138315 0.201554 0.108413
O O2 0.026861 0.212808 0.216199
O O3 0.071089 0.000000 0.039124
O O4 0.076820 0.272632 0.931909
O O5 0.750000 0.750000 0.500000
O O6 0.824001 0.761125 0.253881
O O7 0.712065 0.758843 0.270789
O O8 0.760961 0.000000 0.347527
O O9 0.419871 0.763702 0.341699
O O10 0.377936 0.000000 0.235335
O O11 0.000000 0.774666 0.500000
O O12 0.033049 0.000000 0.629161
O O13 0.712146 0.500000 0.138462
O O14 0.750000 0.250000 0.000000
#
# Coordination Sequence:
#
# PCOD9215464 Si02
#       5
#     8   8   8   8   8
#     4  10  22  41  66  94 127 171 217 261 317 384
#     4  12  26  44  66  95 132 172 213 265 322 387
#     4  12  25  42  65  95 128 169 216 266 322 382
#     4  10  23  43  67  94 125 168 215 266 326 386
#     4  11  22  39  65  98 131 169 214 263 317 383
#
# _framework density 20.382683
#
# number of rings (size 3 to 8) (size 9 to 14) (size 15 to 20)
#    0.000    1.000    2.000    4.800    2.800    4.400 
#    0.000    0.000    0.000    0.000    0.000    0.000 
#    0.000    0.000    0.000    0.000    0.000    0.000 
#
# Total GULP energy -111937.308570 kJ/mol
# GULP energy per Si atom -5596.865429 kJ/mol
# Density = 2.033629 g / cm^3
# Si number density = 20.382683 Si / 1000 Ang^3
#
#
#
# Elastic Constant Matrix: (Units=GPa)
#
#
# Indices 1 2 3 4 5 6 
#
# 1 68.5595 48.2430 12.0520 0.0000 17.9012 0.0000
# 2 48.2430 110.3872 46.6839 0.0000 22.3532 0.0000
# 3 12.0520 46.6839 103.3758 0.0000 28.8202 0.0000
# 4 0.0000 0.0000 0.0000 34.8415 0.0000 8.2513
# 5 17.9012 22.3532 28.8202 0.0000 38.0964 0.0000
# 6 0.0000 0.0000 0.0000 8.2513 0.0000 25.3977
#
#
#
# Elastic Compliance Matrix: (Units=1/GPa)
#
#
# Indices 1 2 3 4 5 6 
#
# 1 0.023171 -0.010266 0.004170 0.000000 -0.008019 0.000000
# 2 -0.010266 0.016122 -0.006072 0.000000 -0.000042 0.000000
# 3 0.004170 -0.006072 0.014551 0.000000 -0.009405 0.000000
# 4 0.000000 0.000000 0.000000 0.031094 0.000000 -0.010102
# 5 -0.008019 -0.000042 -0.009405 0.000000 0.037157 0.000000
# 6 0.000000 0.000000 0.000000 -0.010102 0.000000 0.042656
#
#
# Mechanical properties :
#
#
# Convention : Reuss Voigt Hill
#
# Bulk Modulus (GPa) = 33.88868 55.14226 44.51547
# Shear Modulus (GPa) = 25.13548 31.35670 28.24609
#
# Velocity S-wave (km/s) = 3.51547 3.92650 3.72666
# Velocity P-wave (km/s) = 5.75677 6.90425 6.35646
#
# Compressibility (1/GPa) = 0.02950838
#
# Stress axis : x y z
#
# Youngs Moduli (GPa) = 43.15830 62.02634 68.72206
#
# Poissons Ratio (x) = 0.63678 -0.28660
# Poissons Ratio (y) = 0.44307 0.41728
# Poissons Ratio (z) = -0.17999 0.37663
#
# Static dielectric constant tensor:
#      x y z
#    x 1.725430 0.000000 -0.005970 
#    y 0.000000 1.680920 0.000000 
#    z -0.005970 0.000000 1.717690 
# 
# From -- ./inp_files/92710.got.cif
#   From: 2010.05.17/outbox.cif.g08.bks.cpg/sg12_47_cif.got.tgz:92710.got - 2010.06.03 13:09:07.
