data_PCOD9215092
_publ_section_title
;
Structure prediction by ZEFSAII (Michael W. Deem and Ramdas Pophale) SiO2 
 PCOD9215092
Probable space group: C 2/M
;
_chemical_formula_sum "Si O2"
_cell_formula_units_Z 26
_cell_length_a 19.240319
_cell_length_b 7.245239
_cell_length_c 9.671629
_cell_angle_alpha 90.000000
_cell_angle_beta 136.860252
_cell_angle_gamma 90.000000
_cell_volume 921.894238
_symmetry_space_group_name_H-M "C 2/M"
_symmetry_group_IT_number 12
_symmetry_cell_setting 'monoclinic'
loop_
_space_group_symop_operation_xyz
x,y,z
-x,y,-z
-x,-y,-z
x,-y,z
1/2+x,1/2+y,z
1/2-x,1/2+y,-z
1/2-x,1/2-y,-z
1/2+x,1/2-y,z
loop_
_atom_site_type_symbol
_atom_site_label
_atom_site_fract_x
_atom_site_fract_y
_atom_site_fract_z
Si Si1 0.083156 0.709664 0.787684
Si Si2 0.778726 0.277068 0.252875
Si Si3 0.500000 0.500000 0.000000
Si Si4 0.888962 0.722083 0.677540
O O1 0.051785 0.500000 0.715089
O O2 0.126743 0.786134 0.707497
O O3 0.988410 0.789364 0.732116
O O4 0.179668 0.709698 0.030025
O O5 0.779391 0.500000 0.246489
O O6 0.798568 0.225897 0.440597
O O7 0.588135 0.339620 0.154621
O O8 0.891813 0.500000 0.702163
#
# Coordination Sequence:
#
# PCOD9215092 Si02
#       4
#     8   8   2   8
#     4   9  18  34  60  91 120 147 182 236 305 362
#     4   9  18  34  60  91 120 147 182 236 305 362
#     4  12  26  40  62  82 108 166 218 242 264 334
#     4  10  22  41  61  81 121 154 197 244 290 334
#
# _framework density 28.202801999999998
#
# number of rings (size 3 to 8) (size 9 to 14) (size 15 to 20)
#    0.000    2.462    0.000    1.385    4.308    3.692 
#    0.000    3.077    0.000    0.000    0.000    0.000 
#    0.000    0.000    0.000    0.000    0.000    0.000 
#
# Total GULP energy -72583.434656 kJ/mol
# GULP energy per Si atom -5583.341127 kJ/mol
# Density = 2.813861 g / cm^3
# Si number density = 28.202802 Si / 1000 Ang^3
#
#
#
# Elastic Constant Matrix: (Units=GPa)
#
#
# Indices 1 2 3 4 5 6 
#
# 1 93.7362 -5.6513 -0.7816 0.0000 -24.0688 0.0000
# 2 -5.6513 186.2071 34.1811 0.0000 -10.9118 0.0000
# 3 -0.7816 34.1811 186.1064 0.0000 -18.3989 0.0000
# 4 0.0000 0.0000 0.0000 29.4336 0.0000 5.6415
# 5 -24.0688 -10.9118 -18.3989 0.0000 56.5423 0.0000
# 6 0.0000 0.0000 0.0000 5.6415 0.0000 -31.2336
#
#
#
# Elastic Compliance Matrix: (Units=1/GPa)
#
#
# Indices 1 2 3 4 5 6 
#
# 1 0.012100 0.000597 0.000477 0.000000 0.005421 0.000000
# 2 0.000597 0.005619 -0.000927 0.000000 0.001037 0.000000
# 3 0.000477 -0.000927 0.005732 0.000000 0.001889 0.000000
# 4 0.000000 0.000000 0.000000 0.032838 0.000000 0.005931
# 5 0.005421 0.001037 0.001889 0.000000 0.020809 0.000000
# 6 0.000000 0.000000 0.000000 0.005931 0.000000 -0.030945
#
#
# Mechanical properties :
#
#
# Convention : Reuss Voigt Hill
#
# Bulk Modulus (GPa) = 42.11092 57.94956 50.03024
# Shear Modulus (GPa) = 92.98172 40.16855 66.57514
#
# Velocity S-wave (km/s) = 5.74809 3.77805 4.86386
# Velocity P-wave (km/s) = 7.68231 6.29473 7.02288
#
# Compressibility (1/GPa) = 0.02374681
#
# Stress axis : x y z
#
# Youngs Moduli (GPa) = 82.64272 177.95357 174.44888
#
# Poissons Ratio (x) = -0.10630 -0.08322
# Poissons Ratio (y) = -0.04937 0.16172
# Poissons Ratio (z) = -0.03943 0.16497
#
# Static dielectric constant tensor:
#      x y z
#    x 2.458600 0.000000 -0.059190 
#    y 0.000000 2.162520 0.000000 
#    z -0.059190 0.000000 2.267390 
# 
# From -- ./inp_files/69357.got.cif
#   From: 2010.05.17/outbox.cif.g08.bks.cpg/sg12_35_cif.got.tgz:69357.got - 2010.06.03 13:09:07.
