data_PCOD9215859
_publ_section_title
;
Structure prediction by ZEFSAII (Michael W. Deem and Ramdas Pophale) SiO2 
 PCOD9215859
Probable space group: C 2/M
;
_chemical_formula_sum "Si O2"
_cell_formula_units_Z 38
_cell_length_a 14.999726
_cell_length_b 14.665015
_cell_length_c 21.630796
_cell_angle_alpha 90.000000
_cell_angle_beta 20.506352
_cell_angle_gamma 90.000000
_cell_volume 1666.834145
_symmetry_space_group_name_H-M "C 2/M"
_symmetry_group_IT_number 12
_symmetry_cell_setting 'monoclinic'
loop_
_space_group_symop_operation_xyz
x,y,z
-x,y,-z
-x,-y,-z
x,-y,z
1/2+x,1/2+y,z
1/2-x,1/2+y,-z
1/2-x,1/2-y,-z
1/2+x,1/2-y,z
loop_
_atom_site_type_symbol
_atom_site_label
_atom_site_fract_x
_atom_site_fract_y
_atom_site_fract_z
Si Si1 0.000000 0.752353 0.500000
Si Si2 0.837443 0.857823 0.825034
Si Si3 0.500000 0.000000 0.000000
Si Si4 0.715572 0.658306 0.480714
Si Si5 0.887692 0.102576 0.228087
Si Si6 0.770687 0.142705 0.103432
O O1 0.857957 0.812140 0.540752
O O2 0.810124 0.682928 0.659054
O O3 0.758959 0.752555 0.876565
O O4 0.981758 0.887865 0.668146
O O5 0.030259 0.879001 0.755063
O O6 0.593893 0.920475 0.987359
O O7 0.750000 0.750000 0.500000
O O8 0.988595 0.609531 0.303810
O O9 0.786301 0.000000 0.286471
O O10 0.135007 0.113172 0.024894
O O11 0.000000 0.115796 0.000000
#
# Coordination Sequence:
#
# PCOD9215859 Si02
#       6
#     4   8   2   8   8   8
#     4  12  23  40  72  95 132 178 224 277 330 396
#     4  11  23  43  66  99 134 170 221 277 328 404
#     4  12  24  40  72 100 126 172 216 272 344 372
#     4  10  22  42  67 100 129 176 227 267 333 396
#     4  12  25  41  63 100 131 173 219 279 329 389
#     4  11  23  43  71  93 133 181 222 273 329 400
#
# _framework density 22.797709000000001
#
# number of rings (size 3 to 8) (size 9 to 14) (size 15 to 20)
#    0.000    0.842    6.316    3.474    0.000    0.421 
#    1.895    0.000    0.000    1.895    0.000    0.000 
#    0.000    0.000    0.000    0.000    0.000    0.000 
#
# Total GULP energy -105957.087355 kJ/mol
# GULP energy per Si atom -5576.688808 kJ/mol
# Density = 2.274582 g / cm^3
# Si number density = 22.797709 Si / 1000 Ang^3
#
#
#
# Elastic Constant Matrix: (Units=GPa)
#
#
# Indices 1 2 3 4 5 6 
#
# 1 91.7804 14.9417 32.8237 0.0437 -7.6488 -0.0026
# 2 14.9417 82.7053 7.2043 -0.0245 -1.0985 -0.0312
# 3 32.8237 7.2043 129.6177 0.0183 5.7789 0.1652
# 4 0.0437 -0.0245 0.0183 -2.3382 0.0085 1.7544
# 5 -7.6488 -1.0985 5.7789 0.0085 38.2771 -0.0508
# 6 -0.0026 -0.0312 0.1652 1.7544 -0.0508 -6.1379
#
#
#
# Elastic Compliance Matrix: (Units=1/GPa)
#
#
# Indices 1 2 3 4 5 6 
#
# 1 0.012610 -0.001959 -0.003216 0.000206 0.002949 -0.000048
# 2 -0.001959 0.012462 -0.000196 -0.000279 -0.000004 -0.000148
# 3 -0.003216 -0.000196 0.008627 0.000243 -0.001950 0.000320
# 4 0.000206 -0.000279 0.000243 -0.544436 -0.000090 -0.155606
# 5 0.002949 -0.000004 -0.001950 -0.000090 0.027009 -0.000303
# 6 -0.000048 -0.000148 0.000320 -0.155606 -0.000303 -0.207387
#
#
# Mechanical properties :
#
#
# Convention : Reuss Voigt Hill
#
# Bulk Modulus (GPa) = 43.55963 46.00478 44.78220
# Shear Modulus (GPa) = -7.43250 22.56911 7.56831
#
# Velocity S-wave (km/s) = -1.80756 3.14980 1.82400
# Velocity P-wave (km/s) = 3.84605 5.78374 4.91140
#
# Compressibility (1/GPa) = 0.02295704
#
# Stress axis : x y z
#
# Youngs Moduli (GPa) = 79.30046 80.24456 115.91780
#
# Poissons Ratio (x) = 0.15719 0.37278
# Poissons Ratio (y) = 0.15534 0.02274
# Poissons Ratio (z) = 0.25503 0.01574
#
# Static dielectric constant tensor:
#      x y z
#    x 1.865880 -0.000210 -0.056100 
#    y -0.000210 1.133190 -0.002970 
#    z -0.056100 -0.002970 2.044480 
# 
# From -- ./inp_files/311628.got.cif
#   From: 2010.05.17/outbox.cif.g08.bks.cpg/sg12_156_cif.got.tgz:311628.got - 2010.06.03 13:09:07.
