data_PCOD9215994
_publ_section_title
;
Structure prediction by ZEFSAII (Michael W. Deem and Ramdas Pophale) SiO2 
 PCOD9215994
Probable space group: C 2/M
;
_chemical_formula_sum "Si O2"
_cell_formula_units_Z 28
_cell_length_a 6.459628
_cell_length_b 23.456114
_cell_length_c 10.398067
_cell_angle_alpha 90.000000
_cell_angle_beta 133.100876
_cell_angle_gamma 90.000000
_cell_volume 1150.348317
_symmetry_space_group_name_H-M "C 2/M"
_symmetry_group_IT_number 12
_symmetry_cell_setting 'monoclinic'
loop_
_space_group_symop_operation_xyz
x,y,z
-x,y,-z
-x,-y,-z
x,-y,z
1/2+x,1/2+y,z
1/2-x,1/2+y,-z
1/2-x,1/2-y,-z
1/2+x,1/2-y,z
loop_
_atom_site_type_symbol
_atom_site_label
_atom_site_fract_x
_atom_site_fract_y
_atom_site_fract_z
Si Si1 0.500000 0.265623 0.000000
Si Si2 0.102244 0.652803 0.175510
Si Si3 0.213782 0.434916 0.791714
Si Si4 0.695479 0.662846 0.327298
O O1 0.559299 0.213595 0.913037
O O2 0.369177 0.308999 0.837856
O O3 0.020272 0.608335 0.249226
O O4 0.929092 0.828560 0.307054
O O5 0.000000 0.622336 0.000000
O O6 0.121237 0.500000 0.744050
O O7 0.292285 0.405031 0.691243
O O8 0.500000 0.433067 0.000000
O O9 0.000000 0.684526 0.500000
#
# Coordination Sequence:
#
# PCOD9215994 Si02
#       4
#     4   8   8   8
#     4  10  22  46  70  96 142 170 218 280 326 396
#     4  10  22  42  69  96 136 176 213 275 332 386
#     4  11  23  43  70  96 129 176 227 272 326 393
#     4  12  25  42  68 104 134 175 218 272 338 390
#
# _framework density 24.340454000000001
#
# number of rings (size 3 to 8) (size 9 to 14) (size 15 to 20)
#    0.857    0.286    4.286    0.857    4.000    4.571 
#    0.000    1.429    0.000    0.000    0.000    0.000 
#    0.000    0.000    0.000    0.000    0.000    0.000 
#
# Total GULP energy -77946.648186 kJ/mol
# GULP energy per Si atom -5567.617728 kJ/mol
# Density = 2.428505 g / cm^3
# Si number density = 24.340454 Si / 1000 Ang^3
#
#
#
# Elastic Constant Matrix: (Units=GPa)
#
#
# Indices 1 2 3 4 5 6 
#
# 1 103.9851 68.1245 39.8427 0.0000 35.6903 0.0000
# 2 68.1245 186.7991 34.0383 0.0000 4.3728 0.0000
# 3 39.8427 34.0383 121.3940 0.0000 37.2096 0.0000
# 4 0.0000 0.0000 0.0000 3.8840 0.0000 -2.7582
# 5 35.6903 4.3728 37.2096 0.0000 44.5269 0.0000
# 6 0.0000 0.0000 0.0000 -2.7582 0.0000 42.0346
#
#
#
# Elastic Compliance Matrix: (Units=1/GPa)
#
#
# Indices 1 2 3 4 5 6 
#
# 1 0.018879 -0.006565 0.000114 0.000000 -0.014583 0.000000
# 2 -0.006565 0.007960 -0.001950 0.000000 0.006110 0.000000
# 3 0.000114 -0.001950 0.011718 0.000000 -0.009692 0.000000
# 4 0.000000 0.000000 0.000000 0.270050 0.000000 0.017720
# 5 -0.014583 0.006110 -0.009692 0.000000 0.041647 0.000000
# 6 0.000000 0.000000 0.000000 0.017720 0.000000 0.024953
#
#
# Mechanical properties :
#
#
# Convention : Reuss Voigt Hill
#
# Bulk Modulus (GPa) = 45.96400 77.35437 61.65918
# Shear Modulus (GPa) = 12.52322 36.10063 24.31192
#
# Velocity S-wave (km/s) = 2.27073 3.85535 3.16385
# Velocity P-wave (km/s) = 5.07934 7.18801 6.22363
#
# Compressibility (1/GPa) = 0.02175616
#
# Stress axis : x y z
#
# Youngs Moduli (GPa) = 52.96917 125.63299 85.34067
#
# Poissons Ratio (x) = 0.82472 -0.00977
# Poissons Ratio (y) = 0.34772 0.16642
# Poissons Ratio (z) = -0.00606 0.24499
#
# Static dielectric constant tensor:
#      x y z
#    x 1.047540 0.000000 -0.200900 
#    y 0.000000 1.889970 0.000000 
#    z -0.200900 0.000000 1.913570 
# 
# From -- ./inp_files/120558.got.cif
#   From: 2010.05.17/outbox.cif.g08.bks.cpg/sg12_61_cif.got.tgz:120558.got - 2010.06.03 13:09:07.
