data_PCOD9215694
_publ_section_title
;
Structure prediction by ZEFSAII (Michael W. Deem and Ramdas Pophale) SiO2 
 PCOD9215694
Probable space group: C 2/M
;
_chemical_formula_sum "Si O2"
_cell_formula_units_Z 58
_cell_length_a 8.077437
_cell_length_b 17.778911
_cell_length_c 21.428172
_cell_angle_alpha 90.000000
_cell_angle_beta 63.006064
_cell_angle_gamma 90.000000
_cell_volume 2742.004480
_symmetry_space_group_name_H-M "C 2/M"
_symmetry_group_IT_number 12
_symmetry_cell_setting 'monoclinic'
loop_
_space_group_symop_operation_xyz
x,y,z
-x,y,-z
-x,-y,-z
x,-y,z
1/2+x,1/2+y,z
1/2-x,1/2+y,-z
1/2-x,1/2-y,-z
1/2+x,1/2-y,z
loop_
_atom_site_type_symbol
_atom_site_label
_atom_site_fract_x
_atom_site_fract_y
_atom_site_fract_z
Si Si1 0.244209 0.085217 0.292496
Si Si2 0.216547 0.263077 0.787503
Si Si3 0.515535 0.826979 0.658677
Si Si4 0.807263 0.623148 0.996062
Si Si5 0.151011 0.251372 0.111491
Si Si6 0.500000 0.500000 0.000000
Si Si7 0.407093 0.416622 0.447856
Si Si8 0.832831 0.708591 0.567098
O O1 0.251884 0.150418 0.238872
O O2 0.406410 0.104419 0.314515
O O3 0.059213 0.091009 0.366472
O O4 0.260048 0.000000 0.265661
O O5 0.351445 0.212024 0.724872
O O6 0.181646 0.243900 0.866613
O O7 0.002852 0.241978 0.807231
O O8 0.687594 0.768961 0.618986
O O9 0.425136 0.838953 0.607017
O O10 0.860865 0.672454 0.925918
O O11 0.702855 0.681488 0.059815
O O12 0.652308 0.564269 0.999430
O O13 0.000000 0.599051 0.000000
O O14 0.500000 0.413949 0.500000
O O15 0.321874 0.500000 0.456715
O O16 0.267578 0.349350 0.460881
O O17 0.000000 0.745437 0.500000
#
# Coordination Sequence:
#
# PCOD9215694 Si02
#       8
#     8   8   8   8   8   2   8   8
#     4  11  24  43  63  92 136 176 218 277 352 414
#     4  12  21  42  69  97 133 176 229 285 336 420
#     4  12  23  40  63  95 130 168 225 280 339 405
#     4  11  24  47  73 110 150 192 239 297 354 415
#     4  11  23  43  76 102 132 188 242 280 347 426
#     4  12  26  44  72 114 160 182 234 300 352 410
#     4  10  22  42  63  86 127 174 217 276 351 414
#     4  12  23  37  63  93 126 164 227 285 339 403
#
# _framework density 21.15241
#
# number of rings (size 3 to 8) (size 9 to 14) (size 15 to 20)
#    0.000    0.690    5.517    2.276    1.931    1.931 
#    2.483    0.000    0.000    0.000    0.000    0.000 
#    0.000    0.000    0.000    0.000    0.000    0.000 
#
# Total GULP energy -161456.217030 kJ/mol
# GULP energy per Si atom -5567.455760 kJ/mol
# Density = 2.110427 g / cm^3
# Si number density = 21.152410 Si / 1000 Ang^3
#
#
#
# Elastic Constant Matrix: (Units=GPa)
#
#
# Indices 1 2 3 4 5 6 
#
# 1 78.7401 45.6039 27.5482 0.0000 5.8365 0.0000
# 2 45.6039 82.8607 12.5832 0.0000 -7.0001 0.0000
# 3 27.5482 12.5832 86.7269 0.0000 -5.2730 0.0000
# 4 0.0000 0.0000 0.0000 30.0060 0.0000 -1.9261
# 5 5.8365 -7.0001 -5.2730 0.0000 51.0080 0.0000
# 6 0.0000 0.0000 0.0000 -1.9261 0.0000 17.0759
#
#
#
# Elastic Compliance Matrix: (Units=1/GPa)
#
#
# Indices 1 2 3 4 5 6 
#
# 1 0.021579 -0.011434 -0.005475 0.000000 -0.004604 0.000000
# 2 -0.011434 0.018517 0.001187 0.000000 0.003972 0.000000
# 3 -0.005475 0.001187 0.013229 0.000000 0.002157 0.000000
# 4 0.000000 0.000000 0.000000 0.033570 0.000000 0.003786
# 5 -0.004604 0.003972 0.002157 0.000000 0.020900 0.000000
# 6 0.000000 0.000000 0.000000 0.003786 0.000000 0.058989
#
#
# Mechanical properties :
#
#
# Convention : Reuss Voigt Hill
#
# Bulk Modulus (GPa) = 45.70529 46.64425 46.17477
# Shear Modulus (GPa) = 24.32837 30.45746 27.39291
#
# Velocity S-wave (km/s) = 3.39506 3.79872 3.60255
# Velocity P-wave (km/s) = 6.08466 6.42960 6.25951
#
# Compressibility (1/GPa) = 0.02187930
#
# Stress axis : x y z
#
# Youngs Moduli (GPa) = 46.34100 54.00545 75.59355
#
# Poissons Ratio (x) = 0.61750 0.41391
# Poissons Ratio (y) = 0.52986 -0.08972
# Poissons Ratio (z) = 0.25374 -0.06410
#
# Static dielectric constant tensor:
#      x y z
#    x 1.841610 0.000000 0.013200 
#    y 0.000000 1.709260 0.000000 
#    z 0.013200 0.000000 1.776120 
# 
# From -- ./inp_files/301110.got.cif
#   From: 2010.05.17/outbox.cif.g08.bks.cpg/sg12_151_cif.got.tgz:301110.got - 2010.06.03 13:09:07.
