data_PCOD9215461
_publ_section_title
;
Structure prediction by ZEFSAII (Michael W. Deem and Ramdas Pophale) SiO2 
 PCOD9215461
Probable space group: C 2/M
;
_chemical_formula_sum "Si O2"
_cell_formula_units_Z 44
_cell_length_a 10.602414
_cell_length_b 31.831008
_cell_length_c 6.581002
_cell_angle_alpha 90.000000
_cell_angle_beta 107.665545
_cell_angle_gamma 90.000000
_cell_volume 2116.260084
_symmetry_space_group_name_H-M "C 2/M"
_symmetry_group_IT_number 12
_symmetry_cell_setting 'monoclinic'
loop_
_space_group_symop_operation_xyz
x,y,z
-x,y,-z
-x,-y,-z
x,-y,z
1/2+x,1/2+y,z
1/2-x,1/2+y,-z
1/2-x,1/2-y,-z
1/2+x,1/2-y,z
loop_
_atom_site_type_symbol
_atom_site_label
_atom_site_fract_x
_atom_site_fract_y
_atom_site_fract_z
Si Si1 0.840762 0.952067 0.932661
Si Si2 0.788943 0.387461 0.435304
Si Si3 0.618814 0.761951 0.214912
Si Si4 0.864376 0.451737 0.807071
Si Si5 0.500000 0.177338 0.500000
Si Si6 0.654255 0.690877 0.540773
O O1 0.786133 0.916975 0.756436
O O2 0.805312 0.000000 0.852078
O O3 0.764553 0.946043 0.110362
O O4 0.000000 0.949566 0.000000
O O5 0.863019 0.418229 0.627014
O O6 0.886175 0.354567 0.373317
O O7 0.696304 0.356564 0.520669
O O8 0.553941 0.792869 0.351037
O O9 0.669359 0.719289 0.344597
O O10 0.755167 0.787720 0.238792
O O11 0.500000 0.754772 0.000000
O O12 0.860744 0.500000 0.730054
O O13 0.000000 0.446951 0.000000
O O14 0.500000 0.693596 0.500000
#
# Coordination Sequence:
#
# PCOD9215461 Si02
#       6
#     8   8   8   8   4   8
#     4  10  23  41  60  89 128 166 206 247 304 378
#     4  11  23  38  64  91 125 162 196 264 310 355
#     4  10  22  44  66  83 121 171 201 258 324 365
#     4  10  22  41  66  94 123 162 211 254 305 374
#     4  10  22  42  61  94 124 150 213 256 304 382
#     4  10  23  41  59  94 124 151 219 260 297 388
#
# _framework density 20.791395999999999
#
# number of rings (size 3 to 8) (size 9 to 14) (size 15 to 20)
#    0.000    1.818    0.909    1.636    2.545    7.273 
#    0.000    6.364    0.000    0.000    0.000    0.000 
#    0.000    0.000    0.000    0.000    0.000    0.000 
#
# Total GULP energy -122741.132933 kJ/mol
# GULP energy per Si atom -5579.142406 kJ/mol
# Density = 2.074407 g / cm^3
# Si number density = 20.791396 Si / 1000 Ang^3
#
#
#
# Elastic Constant Matrix: (Units=GPa)
#
#
# Indices 1 2 3 4 5 6 
#
# 1 90.0130 10.3953 1.3549 0.0000 10.4910 0.0000
# 2 10.3953 130.5068 39.3363 0.0000 15.1813 0.0000
# 3 1.3549 39.3363 43.0406 0.0000 28.2371 0.0000
# 4 0.0000 0.0000 0.0000 36.0945 0.0000 23.1217
# 5 10.4910 15.1813 28.2371 0.0000 28.9328 0.0000
# 6 0.0000 0.0000 0.0000 23.1217 0.0000 43.6152
#
#
#
# Elastic Compliance Matrix: (Units=1/GPa)
#
#
# Indices 1 2 3 4 5 6 
#
# 1 0.013018 -0.002949 0.012139 0.000000 -0.015021 0.000000
# 2 -0.002949 0.012614 -0.021669 0.000000 0.015598 0.000000
# 3 0.012139 -0.021669 0.105872 0.000000 -0.096358 0.000000
# 4 0.000000 0.000000 0.000000 0.041952 0.000000 -0.022240
# 5 -0.015021 0.015598 -0.096358 0.000000 0.125866 0.000000
# 6 0.000000 0.000000 0.000000 -0.022240 0.000000 0.034718
#
#
# Mechanical properties :
#
#
# Convention : Reuss Voigt Hill
#
# Bulk Modulus (GPa) = 9.38548 40.63703 25.01126
# Shear Modulus (GPa) = 12.67390 35.89343 24.28366
#
# Velocity S-wave (km/s) = 2.47163 4.15946 3.42126
# Velocity P-wave (km/s) = 3.55938 6.53113 5.25951
#
# Compressibility (1/GPa) = 0.10654758
#
# Stress axis : x y z
#
# Youngs Moduli (GPa) = 76.81705 79.27633 9.44536
#
# Poissons Ratio (x) = 0.23375 -0.11466
# Poissons Ratio (y) = 0.22650 0.20467
# Poissons Ratio (z) = -0.93251 1.71784
#
# Static dielectric constant tensor:
#      x y z
#    x 1.851870 0.000000 -0.032350 
#    y 0.000000 1.714030 0.000000 
#    z -0.032350 0.000000 1.733300 
# 
# From -- ./inp_files/8463.got.cif
#   From: 2010.05.17/outbox.cif.g08.bks.cpg/sg12_5_cif.got.tgz:8463.got - 2010.06.03 13:09:07.
