data_PCOD9215700
_publ_section_title
;
Structure prediction by ZEFSAII (Michael W. Deem and Ramdas Pophale) SiO2 
 PCOD9215700
Probable space group: C 2/M
;
_chemical_formula_sum "Si O2"
_cell_formula_units_Z 36
_cell_length_a 26.461339
_cell_length_b 8.355750
_cell_length_c 11.603238
_cell_angle_alpha 90.000000
_cell_angle_beta 140.582509
_cell_angle_gamma 90.000000
_cell_volume 1629.022886
_symmetry_space_group_name_H-M "C 2/M"
_symmetry_group_IT_number 12
_symmetry_cell_setting 'monoclinic'
loop_
_space_group_symop_operation_xyz
x,y,z
-x,y,-z
-x,-y,-z
x,-y,z
1/2+x,1/2+y,z
1/2-x,1/2+y,-z
1/2-x,1/2-y,-z
1/2+x,1/2-y,z
loop_
_atom_site_type_symbol
_atom_site_label
_atom_site_fract_x
_atom_site_fract_y
_atom_site_fract_z
Si Si1 0.500000 0.738588 0.500000
Si Si2 0.335834 0.691175 0.106073
Si Si3 0.609456 0.182920 0.032656
Si Si4 0.163131 0.690380 0.375696
Si Si5 0.956913 0.173887 0.679675
O O1 0.411308 0.790680 0.293642
O O2 0.467774 0.667457 0.562449
O O3 0.347142 0.500000 0.150244
O O4 0.343726 0.717359 0.982002
O O5 0.250000 0.750000 0.000000
O O6 0.517666 0.196171 0.835050
O O7 0.637873 0.000000 0.076420
O O8 0.615305 0.234248 0.175255
O O9 0.160207 0.500000 0.387571
O O10 0.250000 0.750000 0.500000
O O11 0.128958 0.778619 0.426850
O O12 0.979881 0.000000 0.766842
#
# Coordination Sequence:
#
# PCOD9215700 Si02
#       5
#     4   8   8   8   8
#     4  10  23  44  67  94 133 176 215 260 331 394
#     4  11  23  41  66  96 131 174 220 272 328 392
#     4  10  22  42  63  89 125 166 211 264 324 383
#     4  11  25  42  62  91 127 167 212 266 325 384
#     4  11  22  40  67  94 125 168 212 262 321 390
#
# _framework density 22.099136999999999
#
# number of rings (size 3 to 8) (size 9 to 14) (size 15 to 20)
#    0.000    1.333    0.000    6.667    3.111    6.222 
#    0.000   18.889    0.000    0.000    0.000    0.000 
#    0.000    0.000    0.000    0.000    0.000    0.000 
#
# Total GULP energy -100250.973071 kJ/mol
# GULP energy per Si atom -5569.498504 kJ/mol
# Density = 2.204884 g / cm^3
# Si number density = 22.099137 Si / 1000 Ang^3
#
#
#
# Elastic Constant Matrix: (Units=GPa)
#
#
# Indices 1 2 3 4 5 6 
#
# 1 175.0431 31.7808 34.9715 0.0000 22.9951 0.0000
# 2 31.7808 56.5536 15.0609 0.0000 -8.2889 0.0000
# 3 34.9715 15.0609 60.6630 0.0000 -0.3866 0.0000
# 4 0.0000 0.0000 0.0000 14.4383 0.0000 6.5459
# 5 22.9951 -8.2889 -0.3866 0.0000 34.0634 0.0000
# 6 0.0000 0.0000 0.0000 6.5459 0.0000 15.5190
#
#
#
# Elastic Compliance Matrix: (Units=1/GPa)
#
#
# Indices 1 2 3 4 5 6 
#
# 1 0.008138 -0.004591 -0.003594 0.000000 -0.006652 0.000000
# 2 -0.004591 0.022258 -0.002825 0.000000 0.008484 0.000000
# 3 -0.003594 -0.002825 0.019270 0.000000 0.001958 0.000000
# 4 0.000000 0.000000 0.000000 0.085637 0.000000 -0.036122
# 5 -0.006652 0.008484 0.001958 0.000000 0.035934 0.000000
# 6 0.000000 0.000000 0.000000 -0.036122 0.000000 0.079673
#
#
# Mechanical properties :
#
#
# Convention : Reuss Voigt Hill
#
# Bulk Modulus (GPa) = 36.17198 50.65402 43.41300
# Shear Modulus (GPa) = 17.72119 26.83388 22.27754
#
# Velocity S-wave (km/s) = 2.83485 3.48839 3.17846
# Velocity P-wave (km/s) = 5.20756 6.26068 5.75825
#
# Compressibility (1/GPa) = 0.02764571
#
# Stress axis : x y z
#
# Youngs Moduli (GPa) = 122.87425 44.92723 51.89293
#
# Poissons Ratio (x) = 0.20627 0.18651
# Poissons Ratio (y) = 0.56414 0.14661
# Poissons Ratio (z) = 0.44164 0.12693
#
# Static dielectric constant tensor:
#      x y z
#    x 2.011360 0.000000 0.513050 
#    y 0.000000 1.781820 0.000000 
#    z 0.513050 0.000000 2.946900 
# 
# From -- ./inp_files/180351.got.cif
#   From: 2010.05.17/outbox.cif.g08.bks.cpg/sg12_91_cif.got.tgz:180351.got - 2010.06.03 13:09:07.
