data_PCOD9215359
_publ_section_title
;
Structure prediction by ZEFSAII (Michael W. Deem and Ramdas Pophale) SiO2 
 PCOD9215359
Probable space group: C 2/M
;
_chemical_formula_sum "Si O2"
_cell_formula_units_Z 48
_cell_length_a 32.075482
_cell_length_b 16.579380
_cell_length_c 8.980601
_cell_angle_alpha 90.000000
_cell_angle_beta 147.134852
_cell_angle_gamma 90.000000
_cell_volume 2591.657393
_symmetry_space_group_name_H-M "C 2/M"
_symmetry_group_IT_number 12
_symmetry_cell_setting 'monoclinic'
loop_
_space_group_symop_operation_xyz
x,y,z
-x,y,-z
-x,-y,-z
x,-y,z
1/2+x,1/2+y,z
1/2-x,1/2+y,-z
1/2-x,1/2-y,-z
1/2+x,1/2-y,z
loop_
_atom_site_type_symbol
_atom_site_label
_atom_site_fract_x
_atom_site_fract_y
_atom_site_fract_z
Si Si1 0.590393 0.000000 0.948928
Si Si2 0.000000 0.903900 0.322646
Si Si3 0.187117 0.641200 0.384774
Si Si4 0.348226 0.670666 0.721526
Si Si5 0.848226 0.829335 0.367830
Si Si6 0.590392 0.000000 0.593426
Si Si7 0.187116 0.358800 0.737925
O O1 0.630724 0.077986 0.139787
O O2 0.600616 0.000000 0.801849
O O3 0.500000 0.000000 0.710913
O O4 0.000000 0.889849 0.500000
O O5 0.075732 0.865113 0.477643
O O6 1.000000 0.000000 0.296638
O O7 0.924268 0.865113 0.023251
O O8 0.271501 0.634931 0.565826
O O9 0.157562 0.732690 0.272897
O O10 0.191982 0.626746 0.575947
O O11 0.347967 0.655325 0.543902
O O12 0.842438 0.732690 0.327527
O O13 0.771500 0.865069 0.063178
O O14 0.630724 0.922014 0.644555
#
# Coordination Sequence:
#
# PCOD9215359 Si02
#       7
#     4   8   8   8   8   4   8
#     4  11  25  41  61  92 125 162 205 251 303 359
#     4  11  25  41  61  90 125 164 205 251 303 360
#     4  10  22  41  65  91 122 161 203 251 307 363
#     4  10  22  41  65  92 122 160 204 252 306 362
#     4  10  22  41  65  92 122 160 204 252 306 362
#     4  11  25  41  61  92 125 162 205 251 303 359
#     4  10  22  41  65  91 122 161 203 251 307 363
#
# _framework density 18.520966000000001
#
# number of rings (size 3 to 8) (size 9 to 14) (size 15 to 20)
#    0.000    1.667    0.000    3.000    4.667    6.667 
#    0.000    0.000    0.000    0.000    0.000    0.000 
#    0.000    0.000    0.000    0.000    0.000    0.000 
#
# Total GULP energy -134203.446880 kJ/mol
# GULP energy per Si atom -5591.810287 kJ/mol
# Density = 1.847881 g / cm^3
# Si number density = 18.520966 Si / 1000 Ang^3
#
#
#
# Elastic Constant Matrix: (Units=GPa)
#
#
# Indices 1 2 3 4 5 6 
#
# 1 168.9356 96.9619 122.1161 0.0000 25.6112 0.0000
# 2 96.9619 82.2349 106.8141 0.0000 7.4150 0.0000
# 3 122.1161 106.8141 215.1655 0.0000 9.1814 0.0000
# 4 0.0000 0.0000 0.0000 30.5784 0.0000 -2.3640
# 5 25.6112 7.4150 9.1814 0.0000 28.0599 0.0000
# 6 0.0000 0.0000 0.0000 -2.3640 0.0000 33.7196
#
#
#
# Elastic Compliance Matrix: (Units=1/GPa)
#
#
# Indices 1 2 3 4 5 6 
#
# 1 0.022698 -0.026874 0.001054 0.000000 -0.013961 0.000000
# 2 -0.026874 0.066402 -0.018265 0.000000 0.012958 0.000000
# 3 0.001054 -0.018265 0.013135 0.000000 -0.000434 0.000000
# 4 0.000000 0.000000 0.000000 0.032881 0.000000 0.002305
# 5 -0.013961 0.012958 -0.000434 0.000000 0.045098 0.000000
# 6 0.000000 0.000000 0.000000 0.002305 0.000000 0.029818
#
#
# Mechanical properties :
#
#
# Convention : Reuss Voigt Hill
#
# Bulk Modulus (GPa) = 71.08866 124.23556 97.66211
# Shear Modulus (GPa) = 16.50766 27.83450 22.17108
#
# Velocity S-wave (km/s) = 2.98870 3.88088 3.46364
# Velocity P-wave (km/s) = 7.09760 9.34375 8.29703
#
# Compressibility (1/GPa) = 0.01406694
#
# Stress axis : x y z
#
# Youngs Moduli (GPa) = 44.05650 15.05975 76.13340
#
# Poissons Ratio (x) = 0.40471 -0.08027
# Poissons Ratio (y) = 1.18396 1.39056
# Poissons Ratio (z) = -0.04645 0.27506
#
# Static dielectric constant tensor:
#      x y z
#    x 1.608570 0.000000 -0.009850 
#    y 0.000000 1.625300 0.000000 
#    z -0.009850 0.000000 1.595470 
# 
# From -- ./inp_files/112968.got.cif
#   From: 2010.05.17/outbox.cif.g08.bks.cpg/sg12_57_cif.got.tgz:112968.got - 2010.06.03 13:09:07.
