data_PCOD9215454
_publ_section_title
;
Structure prediction by ZEFSAII (Michael W. Deem and Ramdas Pophale) SiO2 
 PCOD9215454
Probable space group: C 2/M
;
_chemical_formula_sum "Si O2"
_cell_formula_units_Z 36
_cell_length_a 9.051002
_cell_length_b 14.667345
_cell_length_c 20.199823
_cell_angle_alpha 90.000000
_cell_angle_beta 39.161437
_cell_angle_gamma 90.000000
_cell_volume 1693.457499
_symmetry_space_group_name_H-M "C 2/M"
_symmetry_group_IT_number 12
_symmetry_cell_setting 'monoclinic'
loop_
_space_group_symop_operation_xyz
x,y,z
-x,y,-z
-x,-y,-z
x,-y,z
1/2+x,1/2+y,z
1/2-x,1/2+y,-z
1/2-x,1/2-y,-z
1/2+x,1/2-y,z
loop_
_atom_site_type_symbol
_atom_site_label
_atom_site_fract_x
_atom_site_fract_y
_atom_site_fract_z
Si Si1 0.112707 0.500000 0.275232
Si Si2 0.765335 0.818487 0.433710
Si Si3 0.370623 0.806586 0.901290
Si Si4 0.821211 0.292312 0.768262
Si Si5 0.643351 0.500000 0.520576
Si Si6 0.718802 0.000000 0.086983
O O1 0.207352 0.395577 0.250387
O O2 0.083532 0.500000 0.204992
O O3 0.902337 0.500000 0.399893
O O4 0.500000 0.836107 0.500000
O O5 0.750000 0.750000 0.500000
O O6 0.930926 0.759272 0.327239
O O7 0.878664 0.911028 0.424727
O O8 0.633014 0.773177 0.801405
O O9 0.259412 0.799092 0.867341
O O10 0.353398 0.911091 0.926607
O O11 0.250000 0.750000 0.000000
O O12 0.500000 0.500000 0.500000
O O13 0.000000 0.000000 0.000000
#
# Coordination Sequence:
#
# PCOD9215454 Si02
#       6
#     4   8   8   8   4   4
#     4  10  22  41  66  92 129 178 225 265 346 399
#     4  12  25  44  66 100 140 182 232 289 346 410
#     4  11  23  43  68  99 132 176 224 278 340 410
#     4  11  24  41  69  97 135 175 230 279 341 411
#     4  12  27  43  72  96 139 186 239 288 352 418
#     4  10  22  42  69  96 132 173 224 269 335 419
#
# _framework density 21.258282999999999
#
# number of rings (size 3 to 8) (size 9 to 14) (size 15 to 20)
#    0.000    0.889    2.222    5.667    6.222    0.000 
#    0.000    4.444    0.000    0.000    0.000    0.000 
#    0.000    0.000    0.000    0.000    0.000    0.000 
#
# Total GULP energy -100321.603951 kJ/mol
# GULP energy per Si atom -5573.422442 kJ/mol
# Density = 2.120990 g / cm^3
# Si number density = 21.258283 Si / 1000 Ang^3
#
#
#
# Elastic Constant Matrix: (Units=GPa)
#
#
# Indices 1 2 3 4 5 6 
#
# 1 75.6817 45.9084 7.8330 -0.0008 -10.0483 0.0006
# 2 45.9084 227.2009 38.9830 -0.0005 -4.7962 0.0002
# 3 7.8330 38.9830 91.2201 -0.0009 12.8063 0.0001
# 4 -0.0008 -0.0005 -0.0009 28.5585 0.0005 7.2525
# 5 -10.0483 -4.7962 12.8063 0.0005 35.6058 -0.0003
# 6 0.0006 0.0002 0.0001 7.2525 -0.0003 33.6582
#
#
#
# Elastic Compliance Matrix: (Units=1/GPa)
#
#
# Indices 1 2 3 4 5 6 
#
# 1 0.015641 -0.002954 -0.000679 0.000000 0.004260 0.000000
# 2 -0.002954 0.005379 -0.002138 0.000000 0.000660 0.000000
# 3 -0.000679 -0.002138 0.012640 0.000000 -0.005026 0.000000
# 4 0.000000 0.000000 0.000000 0.037043 -0.000001 -0.007982
# 5 0.004260 0.000660 -0.005026 -0.000001 0.031184 0.000000
# 6 0.000000 0.000000 0.000000 -0.007982 0.000000 0.031430
#
#
# Mechanical properties :
#
#
# Convention : Reuss Voigt Hill
#
# Bulk Modulus (GPa) = 45.21015 64.39460 54.80238
# Shear Modulus (GPa) = 32.84481 39.65639 36.25060
#
# Velocity S-wave (km/s) = 3.93496 4.32378 4.13394
# Velocity P-wave (km/s) = 6.47753 7.43532 6.97289
#
# Compressibility (1/GPa) = 0.02211893
#
# Stress axis : x y z
#
# Youngs Moduli (GPa) = 63.93434 185.90824 79.11471
#
# Poissons Ratio (x) = 0.54918 0.05370
# Poissons Ratio (y) = 0.18886 0.16912
# Poissons Ratio (z) = 0.04340 0.39741
#
# Static dielectric constant tensor:
#      x y z
#    x 0.735510 0.000020 1.327220 
#    y 0.000020 1.845480 -0.000030 
#    z 1.327220 -0.000030 0.118400 
# 
# From -- ./inp_files/300098.got.cif
#   From: 2010.05.17/outbox.cif.g08.bks.cpg/sg12_151_cif.got.tgz:300098.got - 2010.06.03 13:09:07.
