data_PCOD9215817
_publ_section_title
;
Structure prediction by ZEFSAII (Michael W. Deem and Ramdas Pophale) SiO2 
 PCOD9215817
Probable space group: C 2/M
;
_chemical_formula_sum "Si O2"
_cell_formula_units_Z 56
_cell_length_a 9.314667
_cell_length_b 17.596250
_cell_length_c 17.827296
_cell_angle_alpha 90.000000
_cell_angle_beta 69.367423
_cell_angle_gamma 90.000000
_cell_volume 2734.535146
_symmetry_space_group_name_H-M "C 2/M"
_symmetry_group_IT_number 12
_symmetry_cell_setting 'monoclinic'
loop_
_space_group_symop_operation_xyz
x,y,z
-x,y,-z
-x,-y,-z
x,-y,z
1/2+x,1/2+y,z
1/2-x,1/2+y,-z
1/2-x,1/2-y,-z
1/2+x,1/2-y,z
loop_
_atom_site_type_symbol
_atom_site_label
_atom_site_fract_x
_atom_site_fract_y
_atom_site_fract_z
Si Si1 0.330960 0.410902 0.499279
Si Si2 0.433416 0.151165 0.356708
Si Si3 0.269249 0.916956 0.252198
Si Si4 0.259135 0.411400 0.338098
Si Si5 0.229761 0.737771 0.092803
Si Si6 0.015182 0.193739 0.257257
Si Si7 0.521799 0.147222 0.910535
O O1 0.500000 0.395441 0.500000
O O2 0.294304 0.500000 0.524403
O O3 0.320779 0.404282 0.411725
O O4 0.206159 0.355925 0.559626
O O5 0.386026 0.095143 0.298157
O O6 0.589294 0.122236 0.365007
O O7 0.459788 0.232663 0.313039
O O8 0.363676 0.903625 0.158674
O O9 0.138478 0.853765 0.282403
O O10 0.197597 0.000000 0.267418
O O11 0.260069 0.500000 0.317225
O O12 0.370960 0.359917 0.267352
O O13 0.390052 0.770104 0.096629
O O14 0.108316 0.784053 0.165711
O O15 0.138680 0.657333 0.104682
O O16 0.250000 0.750000 0.000000
O O17 0.500000 0.120422 0.000000
#
# Coordination Sequence:
#
# PCOD9215817 Si02
#       7
#     8   8   8   8   8   8   8
#     4  10  22  42  66  91 124 165 201 241 304 372
#     4  12  23  39  64  92 122 156 206 255 294 353
#     4  11  22  37  58  86 121 161 199 247 307 364
#     4  11  24  41  63  91 124 161 202 249 303 363
#     4   9  18  34  57  85 117 156 201 250 302 359
#     4  11  23  39  61  89 123 159 205 252 303 362
#     4   9  18  33  55  84 115 154 199 249 302 355
#
# _framework density 20.478801000000001
#
# number of rings (size 3 to 8) (size 9 to 14) (size 15 to 20)
#    0.000    1.571    1.429    3.857    2.000    3.143 
#    0.000    1.429    0.000    0.000    0.000    1.000 
#    0.000    0.000    0.000    0.000    0.000    0.000 
#
# Total GULP energy -156137.163027 kJ/mol
# GULP energy per Si atom -5576.327251 kJ/mol
# Density = 2.043219 g / cm^3
# Si number density = 20.478801 Si / 1000 Ang^3
#
#
#
# Elastic Constant Matrix: (Units=GPa)
#
#
# Indices 1 2 3 4 5 6 
#
# 1 91.2355 13.9193 16.6373 0.0000 -2.5214 0.0000
# 2 13.9193 81.4193 26.8637 0.0000 -11.5724 0.0000
# 3 16.6373 26.8637 83.6122 0.0000 -22.1911 0.0000
# 4 0.0000 0.0000 0.0000 2.2181 0.0000 -8.3921
# 5 -2.5214 -11.5724 -22.1911 0.0000 36.0493 0.0000
# 6 0.0000 0.0000 0.0000 -8.3921 0.0000 23.3266
#
#
#
# Elastic Compliance Matrix: (Units=1/GPa)
#
#
# Indices 1 2 3 4 5 6 
#
# 1 0.011531 -0.001415 -0.002087 0.000000 -0.000933 0.000000
# 2 -0.001415 0.014037 -0.003656 0.000000 0.002157 0.000000
# 3 -0.002087 -0.003656 0.015777 0.000000 0.008393 0.000000
# 4 0.000000 0.000000 0.000000 -1.248286 0.000000 -0.449090
# 5 -0.000933 0.002157 0.008393 0.000000 0.033533 0.000000
# 6 0.000000 0.000000 0.000000 -0.449090 0.000000 -0.118697
#
#
# Mechanical properties :
#
#
# Convention : Reuss Voigt Hill
#
# Bulk Modulus (GPa) = 36.99791 41.23416 39.11603
# Shear Modulus (GPa) = -3.94080 25.57526 10.81723
#
# Velocity S-wave (km/s) = -1.38871 3.53776 2.30079
# Velocity P-wave (km/s) = 3.94136 6.07177 5.11863
#
# Compressibility (1/GPa) = 0.02702855
#
# Stress axis : x y z
#
# Youngs Moduli (GPa) = 86.71948 71.24130 63.38188
#
# Poissons Ratio (x) = 0.10082 0.13230
# Poissons Ratio (y) = 0.12273 0.23172
# Poissons Ratio (z) = 0.18102 0.26045
#
# Static dielectric constant tensor:
#      x y z
#    x 1.770950 0.000000 -0.016240 
#    y 0.000000 1.743950 0.000000 
#    z -0.016240 0.000000 1.753790 
# 
# From -- ./inp_files/257038.got.cif
#   From: 2010.05.17/outbox.cif.g08.bks.cpg/sg12_129_cif.got.tgz:257038.got - 2010.06.03 13:09:07.
