data_PCOD9215440
_publ_section_title
;
Structure prediction by ZEFSAII (Michael W. Deem and Ramdas Pophale) SiO2 
 PCOD9215440
Probable space group: C 2/M
;
_chemical_formula_sum "Si O2"
_cell_formula_units_Z 36
_cell_length_a 13.027706
_cell_length_b 25.224062
_cell_length_c 9.874424
_cell_angle_alpha 90.000000
_cell_angle_beta 148.922664
_cell_angle_gamma 90.000000
_cell_volume 1674.974455
_symmetry_space_group_name_H-M "C 2/M"
_symmetry_group_IT_number 12
_symmetry_cell_setting 'monoclinic'
loop_
_space_group_symop_operation_xyz
x,y,z
-x,y,-z
-x,-y,-z
x,-y,z
1/2+x,1/2+y,z
1/2-x,1/2+y,-z
1/2-x,1/2-y,-z
1/2+x,1/2-y,z
loop_
_atom_site_type_symbol
_atom_site_label
_atom_site_fract_x
_atom_site_fract_y
_atom_site_fract_z
Si Si1 0.586629 0.703470 0.309079
Si Si2 0.737160 0.831775 0.756220
Si Si3 0.304583 0.943625 0.188022
Si Si4 0.500000 0.348802 0.500000
Si Si5 0.186256 0.441306 0.113861
O O1 0.750000 0.750000 0.500000
O O2 0.699279 0.665211 0.328706
O O3 0.536693 0.684118 0.403834
O O4 0.374198 0.711218 0.990578
O O5 0.500000 0.822525 0.500000
O O6 0.794452 0.887953 0.889099
O O7 0.500000 0.944581 0.500000
O O8 0.194243 0.000000 0.083605
O O9 0.370251 0.941764 0.107124
O O10 0.319132 0.389875 0.282524
O O11 0.277074 0.500000 0.244854
O O12 0.000000 0.436804 0.000000
#
# Coordination Sequence:
#
# PCOD9215440 Si02
#       5
#     8   8   8   4   8
#     4  11  27  48  68 100 135 180 240 303 359 410
#     4  10  23  48  72  98 139 180 237 295 352 423
#     4   9  18  37  67 102 138 180 224 272 340 426
#     4  12  25  44  70 104 134 186 237 284 364 430
#     4  10  22  41  66 103 147 185 223 280 351 432
#
# _framework density 21.492865999999999
#
# number of rings (size 3 to 8) (size 9 to 14) (size 15 to 20)
#    0.000    1.778    2.222    0.333    7.778    0.889 
#    8.000    3.333    0.000    0.000    0.000    0.000 
#    0.000    0.000    0.000    0.000    0.000    0.222 
#
# Total GULP energy -100299.696973 kJ/mol
# GULP energy per Si atom -5572.205387 kJ/mol
# Density = 2.144395 g / cm^3
# Si number density = 21.492866 Si / 1000 Ang^3
#
#
#
# Elastic Constant Matrix: (Units=GPa)
#
#
# Indices 1 2 3 4 5 6 
#
# 1 193.1883 67.9085 64.4731 0.0000 -8.6299 0.0000
# 2 67.9085 102.9677 47.3643 0.0000 -1.2578 0.0000
# 3 64.4731 47.3643 105.2935 0.0000 13.1411 0.0000
# 4 0.0000 0.0000 0.0000 18.1241 0.0000 -4.4376
# 5 -8.6299 -1.2578 13.1411 0.0000 36.8069 0.0000
# 6 0.0000 0.0000 0.0000 -4.4376 0.0000 33.2571
#
#
#
# Elastic Compliance Matrix: (Units=1/GPa)
#
#
# Indices 1 2 3 4 5 6 
#
# 1 0.007687 -0.003403 -0.003545 0.000000 0.002952 0.000000
# 2 -0.003403 0.013976 -0.004357 0.000000 0.001235 0.000000
# 3 -0.003545 -0.004357 0.014391 0.000000 -0.006118 0.000000
# 4 0.000000 0.000000 0.000000 0.057039 0.000000 0.007611
# 5 0.002952 0.001235 -0.006118 0.000000 0.030087 0.000000
# 6 0.000000 0.000000 0.000000 0.007611 0.000000 0.031084
#
#
# Mechanical properties :
#
#
# Convention : Reuss Voigt Hill
#
# Bulk Modulus (GPa) = 74.38022 84.54905 79.46464
# Shear Modulus (GPa) = 27.57014 32.41786 29.99400
#
# Velocity S-wave (km/s) = 3.58545 3.88791 3.73974
# Velocity P-wave (km/s) = 7.19879 7.71868 7.46327
#
# Compressibility (1/GPa) = 0.01344443
#
# Stress axis : x y z
#
# Youngs Moduli (GPa) = 130.08230 71.55332 69.48763
#
# Poissons Ratio (x) = 0.24353 0.24630
# Poissons Ratio (y) = 0.44273 0.30275
# Poissons Ratio (z) = 0.46108 0.31175
#
# Static dielectric constant tensor:
#      x y z
#    x 1.731060 0.000000 -0.005660 
#    y 0.000000 1.900260 0.000000 
#    z -0.005660 0.000000 1.758560 
# 
# From -- ./inp_files/52919.got.cif
#   From: 2010.05.17/outbox.cif.g08.bks.cpg/sg12_27_cif.got.tgz:52919.got - 2010.06.03 13:09:07.
