data_PCOD9215851
_publ_section_title
;
Structure prediction by ZEFSAII (Michael W. Deem and Ramdas Pophale) SiO2 
 PCOD9215851
Probable space group: C 2/M
;
_chemical_formula_sum "Si O2"
_cell_formula_units_Z 48
_cell_length_a 10.123658
_cell_length_b 10.145102
_cell_length_c 25.812385
_cell_angle_alpha 90.000000
_cell_angle_beta 114.496934
_cell_angle_gamma 90.000000
_cell_volume 2412.434419
_symmetry_space_group_name_H-M "C 2/M"
_symmetry_group_IT_number 12
_symmetry_cell_setting 'monoclinic'
loop_
_space_group_symop_operation_xyz
x,y,z
-x,y,-z
-x,-y,-z
x,-y,z
1/2+x,1/2+y,z
1/2-x,1/2+y,-z
1/2-x,1/2-y,-z
1/2+x,1/2-y,z
loop_
_atom_site_type_symbol
_atom_site_label
_atom_site_fract_x
_atom_site_fract_y
_atom_site_fract_z
Si Si1 0.481941 0.154258 0.837226
Si Si2 0.660615 0.271433 0.537990
Si Si3 0.757326 0.500000 0.627776
Si Si4 0.613041 0.844964 0.971837
Si Si5 0.649106 0.267287 0.768825
Si Si6 0.522377 0.500000 0.680322
Si Si7 0.583951 0.000000 0.701975
Si Si8 0.182691 0.500000 0.600477
O O1 0.535500 0.179684 0.904210
O O2 0.570089 0.240142 0.810273
O O3 0.311566 0.181977 0.803943
O O4 0.509119 0.000000 0.830129
O O5 0.500000 0.325649 0.500000
O O6 0.750000 0.250000 0.500000
O O7 0.743121 0.371898 0.589212
O O8 0.641467 0.131482 0.563063
O O9 0.627260 0.500000 0.647719
O O10 0.910453 0.500000 0.682140
O O11 0.655692 0.000000 0.980349
O O12 0.500000 0.822482 0.000000
O O13 0.750000 0.750000 0.000000
O O14 0.560142 0.372559 0.720720
O O15 0.650764 0.130322 0.737874
O O16 0.356164 0.500000 0.636280
O O17 0.610074 0.000000 0.644898
#
# Coordination Sequence:
#
# PCOD9215851 Si02
#       8
#     8   8   4   8   8   4   4   4
#     4  11  23  43  65  97 135 173 219 274 329 386
#     4  12  24  42  64  90 122 164 207 261 321 382
#     4  12  24  43  64  92 128 165 210 266 324 380
#     4  10  22  42  66  96 132 174 220 274 329 386
#     4  12  23  43  66  95 131 175 219 269 331 386
#     4  12  24  41  66  94 126 171 216 264 324 390
#     4  12  24  41  64  94 128 167 210 270 320 382
#     4  12  24  41  60  94 122 159 214 262 314 386
#
# _framework density 19.896913999999999
#
# number of rings (size 3 to 8) (size 9 to 14) (size 15 to 20)
#    0.000    0.500    1.667    8.000    0.000    0.333 
#    3.000    0.000    0.000    0.000    0.000    0.000 
#    0.000    0.000    0.000    0.000    0.000    0.000 
#
# Total GULP energy -134426.316412 kJ/mol
# GULP energy per Si atom -5601.096517 kJ/mol
# Density = 1.985163 g / cm^3
# Si number density = 19.896914 Si / 1000 Ang^3
#
#
#
# Elastic Constant Matrix: (Units=GPa)
#
#
# Indices 1 2 3 4 5 6 
#
# 1 75.8624 -5.2132 14.6645 0.0000 -12.7016 0.0000
# 2 -5.2132 92.8068 33.9778 0.0000 -5.4795 0.0000
# 3 14.6645 33.9778 95.6728 0.0000 -16.9987 0.0000
# 4 0.0000 0.0000 0.0000 -15.5954 0.0000 29.6280
# 5 -12.7016 -5.4795 -16.9987 0.0000 51.3656 0.0000
# 6 0.0000 0.0000 0.0000 29.6280 0.0000 22.4631
#
#
#
# Elastic Compliance Matrix: (Units=1/GPa)
#
#
# Indices 1 2 3 4 5 6 
#
# 1 0.014247 0.001818 -0.002305 0.000000 0.002954 0.000000
# 2 0.001818 0.012619 -0.004719 0.000000 0.000234 0.000000
# 3 -0.002305 -0.004719 0.013058 0.000000 0.003248 0.000000
# 4 0.000000 0.000000 0.000000 -0.018290 0.000000 0.024124
# 5 0.002954 0.000234 0.003248 0.000000 0.021299 0.000000
# 6 0.000000 0.000000 0.000000 0.024124 0.000000 0.012698
#
#
# Mechanical properties :
#
#
# Convention : Reuss Voigt Hill
#
# Bulk Modulus (GPa) = 33.88174 39.02225 36.45200
# Shear Modulus (GPa) = 65.89499 26.37418 46.13459
#
# Velocity S-wave (km/s) = 5.76108 3.64475 4.82049
# Velocity P-wave (km/s) = 7.83065 6.11286 7.02446
#
# Compressibility (1/GPa) = 0.02951442
#
# Stress axis : x y z
#
# Youngs Moduli (GPa) = 70.19093 79.24821 76.57873
#
# Poissons Ratio (x) = -0.14411 0.17649
# Poissons Ratio (y) = -0.12764 0.36134
# Poissons Ratio (z) = 0.16177 0.37394
#
# Static dielectric constant tensor:
#      x y z
#    x 1.659000 0.000000 -0.004000 
#    y 0.000000 1.686180 0.000000 
#    z -0.004000 0.000000 1.667400 
# 
# From -- ./inp_files/334834.got.cif
#   From: 2010.05.17/outbox.cif.g08.bks.cpg/sg12_168_cif.got.tgz:334834.got - 2010.06.03 13:09:07.
