data_PCOD9215361
_publ_section_title
;
Structure prediction by ZEFSAII (Michael W. Deem and Ramdas Pophale) SiO2 
 PCOD9215361
Probable space group: C 2/M
;
_chemical_formula_sum "Si O2"
_cell_formula_units_Z 48
_cell_length_a 19.402096
_cell_length_b 8.798116
_cell_length_c 29.599261
_cell_angle_alpha 90.000000
_cell_angle_beta 154.944441
_cell_angle_gamma 90.000000
_cell_volume 2139.781532
_symmetry_space_group_name_H-M "C 2/M"
_symmetry_group_IT_number 12
_symmetry_cell_setting 'monoclinic'
loop_
_space_group_symop_operation_xyz
x,y,z
-x,y,-z
-x,-y,-z
x,-y,z
1/2+x,1/2+y,z
1/2-x,1/2+y,-z
1/2-x,1/2-y,-z
1/2+x,1/2-y,z
loop_
_atom_site_type_symbol
_atom_site_label
_atom_site_fract_x
_atom_site_fract_y
_atom_site_fract_z
Si Si1 0.787716 0.679999 0.182370
Si Si2 0.508184 0.174328 0.165348
Si Si3 0.293558 0.822645 0.286754
Si Si4 0.649926 0.318370 0.398047
Si Si5 0.742028 0.824868 0.066599
Si Si6 0.411777 0.320644 0.494303
O O1 0.792329 0.500000 0.177293
O O2 0.724745 0.705520 0.195737
O O3 0.691773 0.758691 0.084879
O O4 0.970809 0.746697 0.290152
O O5 0.661289 0.278739 0.245451
O O6 0.395041 0.229968 0.138691
O O7 0.560420 0.000000 0.202950
O O8 0.394449 0.182707 0.053125
O O9 0.450615 0.718704 0.387134
O O10 0.339976 0.000000 0.317273
O O11 0.642005 0.500000 0.397171
O O12 0.750000 0.250000 0.500000
O O13 0.752076 0.269448 0.414336
O O14 0.790483 0.000000 0.100433
O O15 0.500000 0.275825 0.500000
O O16 0.377146 0.500000 0.472471
#
# Coordination Sequence:
#
# PCOD9215361 Si02
#       6
#     8   8   8   8   8   8
#     4  11  24  41  63  92 125 163 207 254 306 365
#     4  10  22  41  65  91 125 162 203 256 309 366
#     4  11  24  41  63  91 125 163 206 255 307 365
#     4  12  24  41  65  91 125 165 206 254 305 363
#     4  10  22  41  65  93 122 161 207 253 309 368
#     4  11  25  43  64  91 125 164 207 255 308 364
#
# _framework density 22.432196000000001
#
# number of rings (size 3 to 8) (size 9 to 14) (size 15 to 20)
#    0.000    1.167    1.667    4.000    2.333    6.000 
#    0.000    3.333    0.000    0.000    0.000    0.000 
#    0.000    0.000    0.000    0.000    0.000    0.000 
#
# Total GULP energy -134360.200414 kJ/mol
# GULP energy per Si atom -5598.341684 kJ/mol
# Density = 2.238114 g / cm^3
# Si number density = 22.432196 Si / 1000 Ang^3
#
#
#
# Elastic Constant Matrix: (Units=GPa)
#
#
# Indices 1 2 3 4 5 6 
#
# 1 84.6856 23.6798 0.0954 -0.0002 -5.3830 0.0000
# 2 23.6798 61.3129 1.5192 -0.0003 -12.9788 0.0001
# 3 0.0954 1.5192 30.1630 -0.0011 -7.4965 0.0002
# 4 -0.0002 -0.0003 -0.0011 20.5388 0.0004 -4.6904
# 5 -5.3830 -12.9788 -7.4965 0.0004 37.1472 0.0000
# 6 0.0000 0.0001 0.0002 -4.6904 0.0000 32.8962
#
#
#
# Elastic Compliance Matrix: (Units=1/GPa)
#
#
# Indices 1 2 3 4 5 6 
#
# 1 0.013241 -0.005078 0.000263 0.000000 0.000197 0.000000
# 2 -0.005078 0.019573 0.000576 0.000000 0.006219 0.000000
# 3 0.000263 0.000576 0.034935 0.000002 0.007289 0.000000
# 4 0.000000 0.000000 0.000002 0.050327 0.000000 0.007176
# 5 0.000197 0.006219 0.007289 0.000000 0.030592 0.000000
# 6 0.000000 0.000000 0.000000 0.007176 0.000000 0.031422
#
#
# Mechanical properties :
#
#
# Convention : Reuss Voigt Hill
#
# Bulk Modulus (GPa) = 16.87200 25.19448 21.03324
# Shear Modulus (GPa) = 24.00086 28.17427 26.08756
#
# Velocity S-wave (km/s) = 3.27453 3.54782 3.41391
# Velocity P-wave (km/s) = 4.67272 5.29514 4.99364
#
# Compressibility (1/GPa) = 0.05926981
#
# Stress axis : x y z
#
# Youngs Moduli (GPa) = 75.52487 51.08991 28.62457
#
# Poissons Ratio (x) = 0.25946 -0.00753
# Poissons Ratio (y) = 0.38355 -0.01648
# Poissons Ratio (z) = -0.01986 -0.02942
#
# Static dielectric constant tensor:
#      x y z
#    x 1.839070 0.000000 -0.043690 
#    y 0.000000 1.746000 0.000000 
#    z -0.043690 0.000000 1.848610 
# 
# From -- ./inp_files/244724.got.cif
#   From: 2010.05.17/outbox.cif.g08.bks.cpg/sg12_123_cif.got.tgz:244724.got - 2010.06.03 13:09:07.
