data_PCOD9215327
_publ_section_title
;
Structure prediction by ZEFSAII (Michael W. Deem and Ramdas Pophale) SiO2 
 PCOD9215327
Probable space group: C 2/M
;
_chemical_formula_sum "Si O2"
_cell_formula_units_Z 40
_cell_length_a 9.951147
_cell_length_b 20.163343
_cell_length_c 11.118540
_cell_angle_alpha 90.000000
_cell_angle_beta 101.458242
_cell_angle_gamma 90.000000
_cell_volume 2186.454408
_symmetry_space_group_name_H-M "C 2/M"
_symmetry_group_IT_number 12
_symmetry_cell_setting 'monoclinic'
loop_
_space_group_symop_operation_xyz
x,y,z
-x,y,-z
-x,-y,-z
x,-y,z
1/2+x,1/2+y,z
1/2-x,1/2+y,-z
1/2-x,1/2-y,-z
1/2+x,1/2-y,z
loop_
_atom_site_type_symbol
_atom_site_label
_atom_site_fract_x
_atom_site_fract_y
_atom_site_fract_z
Si Si1 0.230190 0.122797 0.250080
Si Si2 0.416922 0.371447 0.276843
Si Si3 0.862218 0.739697 0.417241
Si Si4 0.855068 0.500000 0.406892
Si Si5 0.646218 0.500000 0.590852
Si Si6 0.342403 0.683993 0.008221
O O1 0.296640 0.190527 0.309690
O O2 0.211685 0.133875 0.104383
O O3 0.077662 0.114809 0.279149
O O4 0.322419 0.063320 0.316988
O O5 0.402614 0.308778 0.362463
O O6 0.348033 0.434678 0.326189
O O7 0.349661 0.351242 0.138475
O O8 0.750000 0.750000 0.500000
O O9 0.000000 0.710517 0.500000
O O10 0.752036 0.500000 0.501250
O O11 0.000000 0.500000 0.500000
O O12 0.500000 0.500000 0.500000
O O13 0.500000 0.701670 0.000000
O O14 0.250000 0.750000 0.000000
#
# Coordination Sequence:
#
# PCOD9215327 Si02
#       6
#     8   8   8   4   4   8
#     4  11  22  41  65  90 127 167 207 265 308 374
#     4  11  22  40  65  94 122 166 216 253 315 373
#     4  12  22  34  58  89 123 160 210 256 308 367
#     4  12  26  45  63  95 133 162 208 263 325 374
#     4  12  22  43  69  85 131 168 202 262 311 388
#     4  10  22  41  64  94 126 164 213 264 310 365
#
# _framework density 18.294459
#
# number of rings (size 3 to 8) (size 9 to 14) (size 15 to 20)
#    0.000    0.800    6.000    2.400    0.000    0.800 
#    3.600    3.000    0.000    1.200    0.000    0.000 
#    0.000    0.000    0.000    0.000    0.000    0.000 
#
# Total GULP energy -111748.669862 kJ/mol
# GULP energy per Si atom -5587.433493 kJ/mol
# Density = 1.825282 g / cm^3
# Si number density = 18.294459 Si / 1000 Ang^3
#
#
#
# Elastic Constant Matrix: (Units=GPa)
#
#
# Indices 1 2 3 4 5 6 
#
# 1 83.7283 12.2638 46.3665 0.0000 11.7516 0.0000
# 2 12.2638 99.2704 46.5798 0.0000 7.1317 0.0000
# 3 46.3665 46.5798 142.3474 0.0000 9.4204 0.0000
# 4 0.0000 0.0000 0.0000 35.3841 0.0000 5.5292
# 5 11.7516 7.1317 9.4204 0.0000 30.6070 0.0000
# 6 0.0000 0.0000 0.0000 5.5292 0.0000 21.8907
#
#
#
# Elastic Compliance Matrix: (Units=1/GPa)
#
#
# Indices 1 2 3 4 5 6 
#
# 1 0.015172 0.000742 -0.004887 0.000000 -0.004494 0.000000
# 2 0.000742 0.012015 -0.004052 0.000000 -0.001837 0.000000
# 3 -0.004887 -0.004052 0.009959 0.000000 -0.000245 0.000000
# 4 0.000000 0.000000 0.000000 0.029423 0.000000 -0.007432
# 5 -0.004494 -0.001837 -0.000245 0.000000 0.034901 0.000000
# 6 0.000000 0.000000 0.000000 -0.007432 0.000000 0.047558
#
#
# Mechanical properties :
#
#
# Convention : Reuss Voigt Hill
#
# Bulk Modulus (GPa) = 48.18910 59.52960 53.85935
# Shear Modulus (GPa) = 29.01251 32.25209 30.63230
#
# Velocity S-wave (km/s) = 3.98661 4.20330 4.09639
# Velocity P-wave (km/s) = 6.89846 7.49448 7.20264
#
# Compressibility (1/GPa) = 0.02075158
#
# Stress axis : x y z
#
# Youngs Moduli (GPa) = 65.91133 83.22948 100.41202
#
# Poissons Ratio (x) = -0.06173 0.49074
# Poissons Ratio (y) = -0.04889 0.40683
# Poissons Ratio (z) = 0.32212 0.33721
#
# Static dielectric constant tensor:
#      x y z
#    x 1.308830 0.000000 0.013610 
#    y 0.000000 1.615560 0.000000 
#    z 0.013610 0.000000 1.626930 
# 
# From -- ./inp_files/118989.got.cif
#   From: 2010.05.17/outbox.cif.g08.bks.cpg/sg12_60_cif.got.tgz:118989.got - 2010.06.03 13:09:07.
