data_PCOD9215749
_publ_section_title
;
Structure prediction by ZEFSAII (Michael W. Deem and Ramdas Pophale) SiO2 
 PCOD9215749
Probable space group: C 2/M
;
_chemical_formula_sum "Si O2"
_cell_formula_units_Z 40
_cell_length_a 9.606883
_cell_length_b 14.949237
_cell_length_c 18.124596
_cell_angle_alpha 90.000000
_cell_angle_beta 46.086673
_cell_angle_gamma 90.000000
_cell_volume 1875.156081
_symmetry_space_group_name_H-M "C 2/M"
_symmetry_group_IT_number 12
_symmetry_cell_setting 'monoclinic'
loop_
_space_group_symop_operation_xyz
x,y,z
-x,y,-z
-x,-y,-z
x,-y,z
1/2+x,1/2+y,z
1/2-x,1/2+y,-z
1/2-x,1/2-y,-z
1/2+x,1/2-y,z
loop_
_atom_site_type_symbol
_atom_site_label
_atom_site_fract_x
_atom_site_fract_y
_atom_site_fract_z
Si Si1 0.875518 0.337709 0.940739
Si Si2 0.790484 0.773595 0.569746
Si Si3 0.703013 0.396547 0.693975
Si Si4 0.250829 0.900518 0.139243
Si Si5 0.439026 0.103855 0.754105
O O1 0.605118 0.168429 0.874063
O O2 0.858260 0.370561 0.863975
O O3 0.750000 0.250000 0.000000
O O4 0.801844 0.400847 0.033812
O O5 0.750000 0.750000 0.500000
O O6 0.800476 0.680233 0.610368
O O7 0.619454 0.833785 0.665958
O O8 0.000000 0.818931 0.500000
O O9 0.742234 0.500000 0.657014
O O10 0.473897 0.380543 0.771050
O O11 0.777208 0.387162 0.750274
O O12 0.287789 0.000000 0.156602
O O13 0.499718 0.000000 0.733072
#
# Coordination Sequence:
#
# PCOD9215749 Si02
#       5
#     8   8   8   8   8
#     4  11  23  38  64  97 134 171 215 271 327 390
#     4  12  26  45  69  99 136 174 229 285 348 410
#     4  10  24  45  70  98 136 180 225 280 344 406
#     4  10  22  42  64  93 131 175 217 259 326 402
#     4  11  25  46  69  99 136 178 230 284 338 404
#
# _framework density 21.331555999999999
#
# number of rings (size 3 to 8) (size 9 to 14) (size 15 to 20)
#    0.000    1.200    2.000    3.600    2.800   10.400 
#    0.000    3.000    0.000    0.000    0.000    0.000 
#    0.000    0.000    0.000    0.000    0.000    0.000 
#
# Total GULP energy -111820.214551 kJ/mol
# GULP energy per Si atom -5591.010728 kJ/mol
# Density = 2.128300 g / cm^3
# Si number density = 21.331556 Si / 1000 Ang^3
#
#
#
# Elastic Constant Matrix: (Units=GPa)
#
#
# Indices 1 2 3 4 5 6 
#
# 1 109.9122 57.5434 20.7827 0.0000 -2.2996 0.0001
# 2 57.5434 121.7929 43.5271 -0.0001 2.7550 0.0001
# 3 20.7827 43.5271 73.2119 -0.0003 20.5755 0.0002
# 4 0.0000 -0.0001 -0.0003 22.2260 0.0000 1.2557
# 5 -2.2996 2.7550 20.5755 0.0000 48.6499 -0.0001
# 6 0.0001 0.0001 0.0002 1.2557 -0.0001 20.6970
#
#
#
# Elastic Compliance Matrix: (Units=1/GPa)
#
#
# Indices 1 2 3 4 5 6 
#
# 1 0.012136 -0.005612 -0.000407 0.000000 0.001064 0.000000
# 2 -0.005612 0.013254 -0.006811 0.000000 0.001865 0.000000
# 3 -0.000407 -0.006811 0.020111 0.000000 -0.008139 0.000000
# 4 0.000000 0.000000 0.000000 0.045147 0.000000 -0.002739
# 5 0.001064 0.001865 -0.008139 0.000000 0.023942 0.000000
# 6 0.000000 0.000000 0.000000 -0.002739 0.000000 0.048482
#
#
# Mechanical properties :
#
#
# Convention : Reuss Voigt Hill
#
# Bulk Modulus (GPa) = 50.40230 60.95816 55.68023
# Shear Modulus (GPa) = 25.59544 30.51884 28.05714
#
# Velocity S-wave (km/s) = 3.46770 3.78655 3.63062
# Velocity P-wave (km/s) = 6.30179 6.91056 6.61318
#
# Compressibility (1/GPa) = 0.01984036
#
# Stress axis : x y z
#
# Youngs Moduli (GPa) = 82.40174 75.44736 49.72293
#
# Poissons Ratio (x) = 0.42343 0.02025
# Poissons Ratio (y) = 0.46246 0.33866
# Poissons Ratio (z) = 0.03355 0.51388
#
# Static dielectric constant tensor:
#      x y z
#    x 1.789740 0.000000 -0.014880 
#    y 0.000000 1.821610 0.000000 
#    z -0.014880 0.000000 1.740270 
# 
# From -- ./inp_files/261507.got.cif
#   From: 2010.05.17/outbox.cif.g08.bks.cpg/sg12_131_cif.got.tgz:261507.got - 2010.06.03 13:09:07.
