data_PCOD9215486
_publ_section_title
;
Structure prediction by ZEFSAII (Michael W. Deem and Ramdas Pophale) SiO2 
 PCOD9215486
Probable space group: C 2/M
;
_chemical_formula_sum "Si O2"
_cell_formula_units_Z 64
_cell_length_a 30.514013
_cell_length_b 16.604560
_cell_length_c 12.273609
_cell_angle_alpha 90.000000
_cell_angle_beta 29.082493
_cell_angle_gamma 90.000000
_cell_volume 3022.709047
_symmetry_space_group_name_H-M "C 2/M"
_symmetry_group_IT_number 12
_symmetry_cell_setting 'monoclinic'
loop_
_space_group_symop_operation_xyz
x,y,z
-x,y,-z
-x,-y,-z
x,-y,z
1/2+x,1/2+y,z
1/2-x,1/2+y,-z
1/2-x,1/2-y,-z
1/2+x,1/2-y,z
loop_
_atom_site_type_symbol
_atom_site_label
_atom_site_fract_x
_atom_site_fract_y
_atom_site_fract_z
Si Si1 0.256519 0.847184 0.997524
Si Si2 0.083485 0.904570 0.243284
Si Si3 0.371837 0.695381 0.069867
Si Si4 0.780075 0.180796 0.688014
Si Si5 0.553037 0.091453 0.497351
Si Si6 0.716626 0.406319 0.543312
Si Si7 0.898221 0.588591 0.263087
Si Si8 0.450371 0.216761 0.318557
O O1 0.172028 0.886395 0.121340
O O2 0.257707 0.864554 0.124071
O O3 0.250000 0.750000 0.000000
O O4 0.345115 0.881906 0.748288
O O5 0.093844 0.858031 0.106719
O O6 0.000000 0.877033 0.500000
O O7 0.074055 0.000000 0.243619
O O8 0.460415 0.741533 0.921067
O O9 0.294582 0.754543 0.190124
O O10 0.330342 0.643520 0.258162
O O11 0.802815 0.127495 0.533608
O O12 0.874181 0.221036 0.521923
O O13 0.500000 0.094650 0.500000
O O14 0.515459 0.157096 0.661874
O O15 0.548482 0.000000 0.549589
O O16 0.692272 0.500000 0.604504
O O17 0.824167 0.398632 0.331211
O O18 0.877250 0.500000 0.357071
O O19 0.896648 0.660272 0.351483
O O20 0.000000 0.586528 0.000000
#
# Coordination Sequence:
#
# PCOD9215486 Si02
#       8
#     8   8   8   8   8   8   8   8
#     4  12  23  42  68 102 135 178 225 279 342 404
#     4  11  25  44  69 100 137 182 231 280 338 405
#     4  12  24  43  71 100 136 178 230 283 340 404
#     4  12  25  42  67 101 133 175 230 279 340 402
#     4  11  25  43  66  99 139 176 218 276 347 414
#     4  11  26  47  68  97 141 181 227 281 343 405
#     4  10  22  41  66  96 132 172 218 275 338 402
#     4  12  24  39  68  98 131 173 221 283 328 405
#
# _framework density 21.17306
#
# number of rings (size 3 to 8) (size 9 to 14) (size 15 to 20)
#    0.000    0.625    3.750    3.750    1.750    1.000 
#    0.000    5.000    0.000    0.000    0.000    0.000 
#    0.000    0.000    0.000    0.000    0.000    0.000 
#
# Total GULP energy -179025.270553 kJ/mol
# GULP energy per Si atom -5594.539705 kJ/mol
# Density = 2.112487 g / cm^3
# Si number density = 21.173060 Si / 1000 Ang^3
#
#
#
# Elastic Constant Matrix: (Units=GPa)
#
#
# Indices 1 2 3 4 5 6 
#
# 1 74.2347 21.4136 6.1720 0.0000 10.5861 0.0000
# 2 21.4136 63.9031 21.3845 0.0000 1.5818 0.0000
# 3 6.1720 21.3845 83.6988 0.0000 -5.5135 0.0000
# 4 0.0000 0.0000 0.0000 126.8078 0.0000 -50.9721
# 5 10.5861 1.5818 -5.5135 0.0000 44.6667 0.0000
# 6 0.0000 0.0000 0.0000 -50.9721 0.0000 65.1456
#
#
#
# Elastic Compliance Matrix: (Units=1/GPa)
#
#
# Indices 1 2 3 4 5 6 
#
# 1 0.015434 -0.005060 -0.000075 0.000000 -0.003488 0.000000
# 2 -0.005060 0.018830 -0.004439 0.000000 -0.000015 0.000000
# 3 -0.000075 -0.004439 0.013206 0.000000 0.001805 0.000000
# 4 0.000000 0.000000 0.000000 0.011504 0.000000 0.009001
# 5 -0.003488 -0.000015 0.001805 0.000000 0.023438 0.000000
# 6 0.000000 0.000000 0.000000 0.009001 0.000000 0.022393
#
#
# Mechanical properties :
#
#
# Convention : Reuss Voigt Hill
#
# Bulk Modulus (GPa) = 35.30834 35.53075 35.41954
# Shear Modulus (GPa) = 37.48269 58.84847 48.16558
#
# Velocity S-wave (km/s) = 4.21206 5.27772 4.77472
# Velocity P-wave (km/s) = 6.35354 7.34552 6.86747
#
# Compressibility (1/GPa) = 0.02832192
#
# Stress axis : x y z
#
# Youngs Moduli (GPa) = 64.79141 53.10610 75.72240
#
# Poissons Ratio (x) = 0.26874 0.00568
# Poissons Ratio (y) = 0.32787 0.33612
# Poissons Ratio (z) = 0.00486 0.23573
#
# Static dielectric constant tensor:
#      x y z
#    x 1.736580 0.000000 0.023400 
#    y 0.000000 1.789260 0.000000 
#    z 0.023400 0.000000 1.752080 
# 
# From -- ./inp_files/190018.got.cif
#   From: 2010.05.17/outbox.cif.g08.bks.cpg/sg12_96_cif.got.tgz:190018.got - 2010.06.03 13:09:07.
