data_PCOD9215343
_publ_section_title
;
Structure prediction by ZEFSAII (Michael W. Deem and Ramdas Pophale) SiO2 
 PCOD9215343
Probable space group: C 2/M
;
_chemical_formula_sum "Si O2"
_cell_formula_units_Z 36
_cell_length_a 7.927380
_cell_length_b 27.295402
_cell_length_c 11.745855
_cell_angle_alpha 90.000000
_cell_angle_beta 138.109170
_cell_angle_gamma 90.000000
_cell_volume 1697.047168
_symmetry_space_group_name_H-M "C 2/M"
_symmetry_group_IT_number 12
_symmetry_cell_setting 'monoclinic'
loop_
_space_group_symop_operation_xyz
x,y,z
-x,y,-z
-x,-y,-z
x,-y,z
1/2+x,1/2+y,z
1/2-x,1/2+y,-z
1/2-x,1/2-y,-z
1/2+x,1/2-y,z
loop_
_atom_site_type_symbol
_atom_site_label
_atom_site_fract_x
_atom_site_fract_y
_atom_site_fract_z
Si Si1 0.912972 0.680599 0.795957
Si Si2 0.000000 0.107612 0.500000
Si Si3 0.557113 0.364617 0.895354
Si Si4 0.832990 0.720839 0.305072
Si Si5 0.786976 0.941877 0.609102
O O1 0.689025 0.642269 0.665063
O O2 0.806396 0.729389 0.800914
O O3 0.003336 0.699752 0.716429
O O4 0.157171 0.654228 0.970976
O O5 0.158886 0.075137 0.492020
O O6 0.372768 0.320218 0.767765
O O7 0.479086 0.411909 0.785032
O O8 0.500000 0.373827 0.000000
O O9 0.000000 0.731027 0.500000
O O10 0.500000 0.928698 0.500000
O O11 0.817514 0.000000 0.636461
#
# Coordination Sequence:
#
# PCOD9215343 Si02
#       5
#     8   4   8   8   8
#     4  11  24  38  61  95 137 178 218 267 325 392
#     4  12  25  46  68 104 136 172 225 278 334 394
#     4  10  22  41  64  99 138 174 220 276 333 392
#     4  11  21  38  61  93 133 182 224 264 320 396
#     4  11  25  48  76  98 127 174 224 281 339 397
#
# _framework density 21.213318999999998
#
# number of rings (size 3 to 8) (size 9 to 14) (size 15 to 20)
#    0.000    1.111    1.111    6.333    3.111    1.333 
#    0.000    3.333    0.000    0.000    0.000    0.000 
#    0.000    0.000    0.000    0.000    0.000    0.000 
#
# Total GULP energy -100862.374816 kJ/mol
# GULP energy per Si atom -5603.465268 kJ/mol
# Density = 2.116504 g / cm^3
# Si number density = 21.213319 Si / 1000 Ang^3
#
#
#
# Elastic Constant Matrix: (Units=GPa)
#
#
# Indices 1 2 3 4 5 6 
#
# 1 125.1056 41.8376 19.6974 0.0000 6.6436 0.0000
# 2 41.8376 117.5707 53.6453 0.0000 9.4484 0.0000
# 3 19.6974 53.6453 99.3166 0.0000 13.6684 0.0000
# 4 0.0000 0.0000 0.0000 7.9271 0.0000 11.3538
# 5 6.6436 9.4484 13.6684 0.0000 30.9358 0.0000
# 6 0.0000 0.0000 0.0000 11.3538 0.0000 32.3885
#
#
#
# Elastic Compliance Matrix: (Units=1/GPa)
#
#
# Indices 1 2 3 4 5 6 
#
# 1 0.009103 -0.003182 0.000052 0.000000 -0.001006 0.000000
# 2 -0.003182 0.012418 -0.006014 0.000000 -0.000452 0.000000
# 3 0.000052 -0.006014 0.013901 0.000000 -0.004316 0.000000
# 4 0.000000 0.000000 0.000000 0.253358 0.000000 -0.088814
# 5 -0.001006 -0.000452 -0.004316 0.000000 0.034586 0.000000
# 6 0.000000 0.000000 0.000000 -0.088814 0.000000 0.062009
#
#
# Mechanical properties :
#
#
# Convention : Reuss Voigt Hill
#
# Bulk Modulus (GPa) = 58.36654 63.59481 60.98067
# Shear Modulus (GPa) = 12.21374 29.37110 20.79242
#
# Velocity S-wave (km/s) = 2.40210 3.72500 3.13414
# Velocity P-wave (km/s) = 5.93863 6.96740 6.47348
#
# Compressibility (1/GPa) = 0.01713310
#
# Stress axis : x y z
#
# Youngs Moduli (GPa) = 109.85850 80.52531 71.93621
#
# Poissons Ratio (x) = 0.25623 -0.00373
# Poissons Ratio (y) = 0.34957 0.43266
# Poissons Ratio (z) = -0.00570 0.48432
#
# Static dielectric constant tensor:
#      x y z
#    x 1.811290 0.000000 -0.029900 
#    y 0.000000 1.701650 0.000000 
#    z -0.029900 0.000000 1.758460 
# 
# From -- ./inp_files/123984.got.cif
#   From: 2010.05.17/outbox.cif.g08.bks.cpg/sg12_62_cif.got.tgz:123984.got - 2010.06.03 13:09:07.
