data_PCOD9215575
_publ_section_title
;
Structure prediction by ZEFSAII (Michael W. Deem and Ramdas Pophale) SiO2 
 PCOD9215575
Probable space group: C 2/M
;
_chemical_formula_sum "Si O2"
_cell_formula_units_Z 32
_cell_length_a 10.055492
_cell_length_b 21.880090
_cell_length_c 8.180286
_cell_angle_alpha 90.000000
_cell_angle_beta 45.245419
_cell_angle_gamma 90.000000
_cell_volume 1278.080525
_symmetry_space_group_name_H-M "C 2/M"
_symmetry_group_IT_number 12
_symmetry_cell_setting 'monoclinic'
loop_
_space_group_symop_operation_xyz
x,y,z
-x,y,-z
-x,-y,-z
x,-y,z
1/2+x,1/2+y,z
1/2-x,1/2+y,-z
1/2-x,1/2-y,-z
1/2+x,1/2-y,z
loop_
_atom_site_type_symbol
_atom_site_label
_atom_site_fract_x
_atom_site_fract_y
_atom_site_fract_z
Si Si1 0.469512 0.741318 0.834898
Si Si2 0.240555 0.932138 0.672864
Si Si3 0.428534 0.386842 0.734522
Si Si4 0.951303 0.625480 0.779749
O O1 0.510734 0.681649 0.693355
O O2 0.543207 0.807484 0.716742
O O3 0.500000 0.730817 0.000000
O O4 0.250000 0.750000 0.000000
O O5 0.381996 0.921460 0.397629
O O6 0.315451 0.882532 0.738219
O O7 0.031483 0.924111 0.788507
O O8 0.268889 0.000000 0.715162
O O9 0.500000 0.409727 0.500000
O O10 0.203096 0.385353 0.945453
#
# Coordination Sequence:
#
# PCOD9215575 Si02
#       4
#     8   8   8   8
#     4  10  22  41  68 101 140 177 220 276 349 413
#     4  11  25  45  71  95 129 187 235 274 333 401
#     4  11  25  41  67 103 138 176 219 281 342 404
#     4  10  23  43  68  98 132 172 228 278 334 403
#
# _framework density 25.037545000000001
#
# number of rings (size 3 to 8) (size 9 to 14) (size 15 to 20)
#    0.000    1.500    0.000    5.250   10.500    4.500 
#    0.000    1.250    0.000    0.000    0.000    0.000 
#    0.000    0.000    0.000    0.000    0.000    0.000 
#
# Total GULP energy -89454.143188 kJ/mol
# GULP energy per Si atom -5590.883949 kJ/mol
# Density = 2.498056 g / cm^3
# Si number density = 25.037545 Si / 1000 Ang^3
#
#
#
# Elastic Constant Matrix: (Units=GPa)
#
#
# Indices 1 2 3 4 5 6 
#
# 1 79.6395 -10.4814 1.2756 0.0000 -0.6830 0.0000
# 2 -10.4814 77.3956 0.0749 0.0000 2.3638 0.0000
# 3 1.2756 0.0749 90.8468 0.0000 -8.9963 0.0000
# 4 0.0000 0.0000 0.0000 24.1098 0.0000 -1.5984
# 5 -0.6830 2.3638 -8.9963 0.0000 53.5208 0.0000
# 6 0.0000 0.0000 0.0000 -1.5984 0.0000 25.7812
#
#
#
# Elastic Compliance Matrix: (Units=1/GPa)
#
#
# Indices 1 2 3 4 5 6 
#
# 1 0.012788 0.001730 -0.000175 0.000000 0.000057 0.000000
# 2 0.001730 0.013173 -0.000092 0.000000 -0.000575 0.000000
# 3 -0.000175 -0.000092 0.011197 0.000000 0.001884 0.000000
# 4 0.000000 0.000000 0.000000 0.041648 0.000000 0.002582
# 5 0.000057 -0.000575 0.001884 0.000000 0.019027 0.000000
# 6 0.000000 0.000000 0.000000 0.002582 0.000000 0.038948
#
#
# Mechanical properties :
#
#
# Convention : Reuss Voigt Hill
#
# Bulk Modulus (GPa) = 24.94861 25.51334 25.23098
# Shear Modulus (GPa) = 33.96387 37.81655 35.89021
#
# Velocity S-wave (km/s) = 3.68709 3.89059 3.79021
# Velocity P-wave (km/s) = 5.30210 5.51312 5.40864
#
# Compressibility (1/GPa) = 0.04008239
#
# Stress axis : x y z
#
# Youngs Moduli (GPa) = 78.20079 75.91512 89.31254
#
# Poissons Ratio (x) = -0.13135 0.01566
# Poissons Ratio (y) = -0.13530 0.00823
# Poissons Ratio (z) = 0.01371 0.00699
#
# Static dielectric constant tensor:
#      x y z
#    x 1.940310 0.000000 0.002500 
#    y 0.000000 2.029080 0.000000 
#    z 0.002500 0.000000 2.070600 
# 
# From -- ./inp_files/48283.got.cif
#   From: 2010.05.17/outbox.cif.g08.bks.cpg/sg12_25_cif.got.tgz:48283.got - 2010.06.03 13:09:07.
