data_PCOD9215909
_publ_section_title
;
Structure prediction by ZEFSAII (Michael W. Deem and Ramdas Pophale) SiO2 
 PCOD9215909
Probable space group: C 2/M
;
_chemical_formula_sum "Si O2"
_cell_formula_units_Z 48
_cell_length_a 23.390369
_cell_length_b 20.612448
_cell_length_c 15.150248
_cell_angle_alpha 90.000000
_cell_angle_beta 162.481248
_cell_angle_gamma 90.000000
_cell_volume 2198.764611
_symmetry_space_group_name_H-M "C 2/M"
_symmetry_group_IT_number 12
_symmetry_cell_setting 'monoclinic'
loop_
_space_group_symop_operation_xyz
x,y,z
-x,y,-z
-x,-y,-z
x,-y,z
1/2+x,1/2+y,z
1/2-x,1/2+y,-z
1/2-x,1/2-y,-z
1/2+x,1/2-y,z
loop_
_atom_site_type_symbol
_atom_site_label
_atom_site_fract_x
_atom_site_fract_y
_atom_site_fract_z
Si Si1 0.968728 0.748165 0.355090
Si Si2 0.917519 0.925105 0.654812
Si Si3 0.125323 0.691795 0.270589
Si Si4 0.432511 0.393614 0.311302
Si Si5 0.343331 0.576705 0.833598
Si Si6 0.487553 0.144842 0.249486
O O1 0.030678 0.822377 0.450252
O O2 0.063898 0.705084 0.420901
O O3 0.000000 0.721449 0.500000
O O4 0.750000 0.750000 0.000000
O O5 0.758356 0.869892 0.437558
O O6 0.000549 0.926301 0.678876
O O7 0.854995 0.000000 0.584449
O O8 0.095808 0.903953 0.978815
O O9 0.250000 0.750000 0.500000
O O10 0.990895 0.665954 0.152827
O O11 0.000000 0.710904 0.000000
O O12 0.500000 0.426556 0.500000
O O13 0.210518 0.379209 0.001084
O O14 0.364328 0.500000 0.864660
O O15 0.141780 0.591061 0.496389
O O16 0.500000 0.607109 0.000000
#
# Coordination Sequence:
#
# PCOD9215909 Si02
#       6
#     8   8   8   8   8   8
#     4   9  20  36  59  92 131 172 217 279 344 408
#     4  11  25  46  71 101 145 190 235 298 362 429
#     4  12  28  47  74 110 145 188 244 299 360 430
#     4  10  22  43  63  96 139 179 232 291 359 420
#     4  10  22  42  67  98 136 182 235 295 359 420
#     4  11  23  39  71  98 134 185 237 288 354 427
#
# _framework density 21.830442000000001
#
# number of rings (size 3 to 8) (size 9 to 14) (size 15 to 20)
#    0.000    1.500    1.667    2.000    7.000    4.000 
#    0.000    3.333    0.000    0.000    0.000    0.000 
#    0.000    0.000    0.000    0.000    0.000    0.000 
#
# Total GULP energy -133822.080081 kJ/mol
# GULP energy per Si atom -5575.920003 kJ/mol
# Density = 2.178075 g / cm^3
# Si number density = 21.830442 Si / 1000 Ang^3
#
#
#
# Elastic Constant Matrix: (Units=GPa)
#
#
# Indices 1 2 3 4 5 6 
#
# 1 152.4466 40.5044 50.4957 0.0000 -26.1085 0.0000
# 2 40.5044 80.7017 34.6260 -0.0001 -1.7949 0.0000
# 3 50.4957 34.6260 109.2518 -0.0002 -16.2863 0.0000
# 4 0.0000 -0.0001 -0.0002 24.2333 -0.0001 -0.3280
# 5 -26.1085 -1.7949 -16.2863 -0.0001 49.9137 0.0000
# 6 0.0000 0.0000 0.0000 -0.3280 0.0000 28.2624
#
#
#
# Elastic Compliance Matrix: (Units=1/GPa)
#
#
# Indices 1 2 3 4 5 6 
#
# 1 0.008909 -0.003310 -0.002514 0.000000 0.003721 0.000000
# 2 -0.003310 0.015621 -0.003779 0.000000 -0.002403 0.000000
# 3 -0.002514 -0.003779 0.011874 0.000000 0.002423 0.000000
# 4 0.000000 0.000000 0.000000 0.041272 0.000000 0.000479
# 5 0.003721 -0.002403 0.002423 0.000000 0.022685 0.000000
# 6 0.000000 0.000000 0.000000 0.000479 0.000000 0.035388
#
#
# Mechanical properties :
#
#
# Convention : Reuss Voigt Hill
#
# Bulk Modulus (GPa) = 58.14757 65.96136 62.05446
# Shear Modulus (GPa) = 31.11618 34.93349 33.02484
#
# Velocity S-wave (km/s) = 3.77949 4.00461 3.89368
# Velocity P-wave (km/s) = 6.76312 7.18773 6.97866
#
# Compressibility (1/GPa) = 0.01719762
#
# Stress axis : x y z
#
# Youngs Moduli (GPa) = 112.24468 64.01777 84.21673
#
# Poissons Ratio (x) = 0.21190 0.21172
# Poissons Ratio (y) = 0.37154 0.31826
# Poissons Ratio (z) = 0.28218 0.24193
#
# Static dielectric constant tensor:
#      x y z
#    x 1.998950 0.000000 -0.064300 
#    y 0.000000 1.894870 0.000000 
#    z -0.064300 0.000000 1.702910 
# 
# From -- ./inp_files/241883.got.cif
#   From: 2010.05.17/outbox.cif.g08.bks.cpg/sg12_121_cif.got.tgz:241883.got - 2010.06.03 13:09:07.
