data_PCOD9215722
_publ_section_title
;
Structure prediction by ZEFSAII (Michael W. Deem and Ramdas Pophale) SiO2 
 PCOD9215722
Probable space group: C 2/M
;
_chemical_formula_sum "Si O2"
_cell_formula_units_Z 34
_cell_length_a 29.913234
_cell_length_b 7.756012
_cell_length_c 11.539246
_cell_angle_alpha 90.000000
_cell_angle_beta 146.570559
_cell_angle_gamma 90.000000
_cell_volume 1474.890066
_symmetry_space_group_name_H-M "C 2/M"
_symmetry_group_IT_number 12
_symmetry_cell_setting 'monoclinic'
loop_
_space_group_symop_operation_xyz
x,y,z
-x,y,-z
-x,-y,-z
x,-y,z
1/2+x,1/2+y,z
1/2-x,1/2+y,-z
1/2-x,1/2-y,-z
1/2+x,1/2-y,z
loop_
_atom_site_type_symbol
_atom_site_label
_atom_site_fract_x
_atom_site_fract_y
_atom_site_fract_z
Si Si1 0.015804 0.208778 0.667133
Si Si2 0.139827 0.201556 0.530735
Si Si3 0.309974 0.796276 0.853026
Si Si4 0.109502 0.808657 0.190592
Si Si5 0.500000 0.000000 0.000000
O O1 0.000000 0.255396 0.500000
O O2 0.939355 0.275493 0.577695
O O3 0.017804 0.000000 0.680892
O O4 0.104441 0.268236 0.899159
O O5 0.230402 0.271839 0.748339
O O6 0.130720 0.211111 0.371657
O O7 0.140365 0.000000 0.565295
O O8 0.318439 0.710543 0.745148
O O9 0.297205 0.000000 0.808092
O O10 0.049202 0.652381 0.036529
O O11 0.074776 0.000000 0.096024
#
# Coordination Sequence:
#
# PCOD9215722 Si02
#       5
#     8   8   8   8   2
#     4  10  22  42  64  89 124 171 226 274 329 395
#     4   9  21  40  64  92 131 175 211 268 335 388
#     4  11  22  40  64  94 131 169 220 272 324 394
#     4  11  22  39  63  96 139 174 212 264 324 394
#     4  12  22  36  60  98 130 178 214 256 316 388
#
# _framework density 23.052567
#
# number of rings (size 3 to 8) (size 9 to 14) (size 15 to 20)
#    0.000    1.647    1.176    3.176    0.000    3.294 
#    4.235    0.000    0.000    0.000    0.000    0.000 
#    0.000    0.000    0.000    0.000    0.000    0.000 
#
# Total GULP energy -94717.507474 kJ/mol
# GULP energy per Si atom -5571.618087 kJ/mol
# Density = 2.300010 g / cm^3
# Si number density = 23.052567 Si / 1000 Ang^3
#
#
#
# Elastic Constant Matrix: (Units=GPa)
#
#
# Indices 1 2 3 4 5 6 
#
# 1 113.8809 31.6295 78.6956 0.0000 33.4003 0.0000
# 2 31.6295 114.8951 30.4950 0.0000 10.3356 0.0000
# 3 78.6956 30.4950 123.3441 0.0000 36.1122 0.0000
# 4 0.0000 0.0000 0.0000 36.8900 0.0000 25.8260
# 5 33.4003 10.3356 36.1122 0.0000 42.7600 0.0000
# 6 0.0000 0.0000 0.0000 25.8260 0.0000 50.5875
#
#
#
# Elastic Compliance Matrix: (Units=1/GPa)
#
#
# Indices 1 2 3 4 5 6 
#
# 1 0.016933 -0.001850 -0.008774 0.000000 -0.005369 0.000000
# 2 -0.001850 0.009522 -0.001227 0.000000 0.000179 0.000000
# 3 -0.008774 -0.001227 0.015829 0.000000 -0.006218 0.000000
# 4 0.000000 0.000000 0.000000 0.042185 0.000000 -0.021536
# 5 -0.005369 0.000179 -0.006218 0.000000 0.032789 0.000000
# 6 0.000000 0.000000 0.000000 -0.021536 0.000000 0.030762
#
#
# Mechanical properties :
#
#
# Convention : Reuss Voigt Hill
#
# Bulk Modulus (GPa) = 53.81061 70.41781 62.11421
# Shear Modulus (GPa) = 28.10328 40.13416 34.11872
#
# Velocity S-wave (km/s) = 3.49534 4.17704 3.85130
# Velocity P-wave (km/s) = 6.29946 7.34006 6.83958
#
# Compressibility (1/GPa) = 0.01858369
#
# Stress axis : x y z
#
# Youngs Moduli (GPa) = 59.05697 105.01750 63.17420
#
# Poissons Ratio (x) = 0.19425 0.55430
# Poissons Ratio (y) = 0.10923 0.07748
# Poissons Ratio (z) = 0.51817 0.12881
#
# Static dielectric constant tensor:
#      x y z
#    x 1.910280 0.000000 0.049970 
#    y 0.000000 1.843590 0.000000 
#    z 0.049970 0.000000 1.926160 
# 
# From -- ./inp_files/180368.got.cif
#   From: 2010.05.17/outbox.cif.g08.bks.cpg/sg12_91_cif.got.tgz:180368.got - 2010.06.03 13:09:07.
