data_PCOD9215422
_publ_section_title
;
Structure prediction by ZEFSAII (Michael W. Deem and Ramdas Pophale) SiO2 
 PCOD9215422
Probable space group: C 2/M
;
_chemical_formula_sum "Si O2"
_cell_formula_units_Z 64
_cell_length_a 8.828632
_cell_length_b 28.082163
_cell_length_c 18.775066
_cell_angle_alpha 90.000000
_cell_angle_beta 136.792526
_cell_angle_gamma 90.000000
_cell_volume 3186.904885
_symmetry_space_group_name_H-M "C 2/M"
_symmetry_group_IT_number 12
_symmetry_cell_setting 'monoclinic'
loop_
_space_group_symop_operation_xyz
x,y,z
-x,y,-z
-x,-y,-z
x,-y,z
1/2+x,1/2+y,z
1/2-x,1/2+y,-z
1/2-x,1/2-y,-z
1/2+x,1/2-y,z
loop_
_atom_site_type_symbol
_atom_site_label
_atom_site_fract_x
_atom_site_fract_y
_atom_site_fract_z
Si Si1 0.137650 0.716714 0.747891
Si Si2 0.042887 0.942898 0.598960
Si Si3 0.795648 0.267837 0.387066
Si Si4 0.259585 0.374306 0.605268
Si Si5 0.054554 0.443867 0.807592
Si Si6 0.655881 0.617041 0.196545
Si Si7 0.855659 0.613794 0.022078
Si Si8 0.464284 0.783312 0.070328
O O1 0.099441 0.715721 0.650696
O O2 0.240004 0.665809 0.799006
O O3 0.321600 0.755958 0.828944
O O4 0.904446 0.732638 0.698959
O O5 0.299502 0.932020 0.702713
O O6 0.000000 0.934953 0.500000
O O7 0.897930 0.908306 0.599882
O O8 0.002589 0.000000 0.599091
O O9 0.703468 0.316823 0.391105
O O10 0.000000 0.246406 0.500000
O O11 0.312076 0.384934 0.706723
O O12 0.000000 0.381741 0.500000
O O13 0.074639 0.500000 0.814159
O O14 0.214343 0.423262 0.801578
O O15 0.114342 0.424756 0.906248
O O16 0.397303 0.617140 0.089876
O O17 0.921663 0.663773 0.083230
O O18 0.000000 0.604992 0.000000
O O19 0.500000 0.792252 0.000000
O O20 0.250000 0.750000 0.000000
#
# Coordination Sequence:
#
# PCOD9215422 Si02
#       8
#     8   8   8   8   8   8   8   8
#     4  11  23  38  62  90 125 169 214 267 315 383
#     4  10  22  42  69  99 128 165 219 277 330 387
#     4  10  23  40  59  89 130 172 215 259 318 391
#     4  10  22  41  65  96 132 171 214 268 329 394
#     4  11  26  45  67  96 132 173 219 272 331 393
#     4  11  24  41  64  96 128 170 221 265 326 390
#     4  11  25  42  65  93 130 170 216 271 328 394
#     4  11  23  37  61  93 125 165 213 268 323 376
#
# _framework density 20.082179
#
# number of rings (size 3 to 8) (size 9 to 14) (size 15 to 20)
#    0.000    1.375    1.250    3.000   10.500    2.000 
#    0.000    1.250    0.000    0.000    0.000    0.000 
#    0.000    0.000    0.000    0.000    0.000    0.000 
#
# Total GULP energy -178710.921624 kJ/mol
# GULP energy per Si atom -5584.716301 kJ/mol
# Density = 2.003647 g / cm^3
# Si number density = 20.082179 Si / 1000 Ang^3
#
#
#
# Elastic Constant Matrix: (Units=GPa)
#
#
# Indices 1 2 3 4 5 6 
#
# 1 79.3976 43.6501 13.2645 0.0000 -8.0990 0.0000
# 2 43.6501 66.8652 36.7353 0.0000 8.0152 0.0000
# 3 13.2645 36.7353 106.6612 0.0000 -6.6952 0.0000
# 4 0.0000 0.0000 0.0000 46.9607 0.0000 7.7221
# 5 -8.0990 8.0152 -6.6952 0.0000 27.4679 0.0000
# 6 0.0000 0.0000 0.0000 7.7221 0.0000 38.5036
#
#
#
# Elastic Compliance Matrix: (Units=1/GPa)
#
#
# Indices 1 2 3 4 5 6 
#
# 1 0.024419 -0.020329 0.004864 0.000000 0.014318 0.000000
# 2 -0.020329 0.036815 -0.011376 0.000000 -0.019510 0.000000
# 3 0.004864 -0.011376 0.013189 0.000000 0.007968 0.000000
# 4 0.000000 0.000000 0.000000 0.022021 0.000000 -0.004416
# 5 0.014318 -0.019510 0.007968 0.000000 0.048263 0.000000
# 6 0.000000 0.000000 0.000000 -0.004416 0.000000 0.026857
#
#
# Mechanical properties :
#
#
# Convention : Reuss Voigt Hill
#
# Bulk Modulus (GPa) = 48.21677 48.91376 48.56527
# Shear Modulus (GPa) = 21.53679 33.20470 27.37075
#
# Velocity S-wave (km/s) = 3.27836 4.07066 3.69580
# Velocity P-wave (km/s) = 6.19613 6.81934 6.51519
#
# Compressibility (1/GPa) = 0.02073967
#
# Stress axis : x y z
#
# Youngs Moduli (GPa) = 40.95144 27.16272 75.82164
#
# Poissons Ratio (x) = 0.55220 -0.36876
# Poissons Ratio (y) = 0.83251 0.86255
# Poissons Ratio (z) = -0.19917 0.30900
#
# Static dielectric constant tensor:
#      x y z
#    x 1.704260 0.000000 -0.010130 
#    y 0.000000 1.749060 0.000000 
#    z -0.010130 0.000000 1.691700 
# 
# From -- ./inp_files/260406.got.cif
#   From: 2010.05.17/outbox.cif.g08.bks.cpg/sg12_131_cif.got.tgz:260406.got - 2010.06.03 13:09:07.
