data_PCOD9215996
_publ_section_title
;
Structure prediction by ZEFSAII (Michael W. Deem and Ramdas Pophale) SiO2 
 PCOD9215996
Probable space group: C 2/M
;
_chemical_formula_sum "Si O2"
_cell_formula_units_Z 48
_cell_length_a 15.048483
_cell_length_b 28.421757
_cell_length_c 9.281527
_cell_angle_alpha 90.000000
_cell_angle_beta 38.656391
_cell_angle_gamma 90.000000
_cell_volume 2479.697816
_symmetry_space_group_name_H-M "C 2/M"
_symmetry_group_IT_number 12
_symmetry_cell_setting 'monoclinic'
loop_
_space_group_symop_operation_xyz
x,y,z
-x,y,-z
-x,-y,-z
x,-y,z
1/2+x,1/2+y,z
1/2-x,1/2+y,-z
1/2-x,1/2-y,-z
1/2+x,1/2-y,z
loop_
_atom_site_type_symbol
_atom_site_label
_atom_site_fract_x
_atom_site_fract_y
_atom_site_fract_z
Si Si1 0.615961 0.945330 0.724124
Si Si2 0.148768 0.853869 0.229974
Si Si3 0.632764 0.682858 0.931274
Si Si4 0.597526 0.794430 0.012347
Si Si5 0.425135 0.141315 0.444573
Si Si6 0.829045 0.949183 0.697226
O O1 0.596120 0.904114 0.632168
O O2 0.769257 0.941254 0.611752
O O3 0.604172 0.000000 0.687355
O O4 0.500000 0.939404 0.000000
O O5 0.221226 0.904962 0.148322
O O6 0.000000 0.855240 0.500000
O O7 0.127956 0.841254 0.091939
O O8 0.248392 0.817554 0.186468
O O9 0.776044 0.666656 0.670518
O O10 0.500000 0.669842 0.000000
O O11 0.619359 0.738558 0.981927
O O12 0.521877 0.818843 0.244388
O O13 0.500000 0.807049 0.000000
O O14 0.500000 0.127744 0.500000
O O15 0.000000 0.951066 0.500000
O O16 0.771840 0.000000 0.815757
#
# Coordination Sequence:
#
# PCOD9215996 Si02
#       6
#     8   8   8   8   8   8
#     4  10  22  42  69  97 128 168 215 260 315 389
#     4  11  23  39  66  92 124 168 212 266 312 385
#     4  11  28  42  61  95 130 169 214 266 329 373
#     4  11  25  43  64  90 124 174 219 259 315 383
#     4  12  25  42  67  94 134 169 212 272 323 381
#     4   9  19  36  62  91 118 158 208 252 300 370
#
# _framework density 19.357196999999999
#
# number of rings (size 3 to 8) (size 9 to 14) (size 15 to 20)
#    0.000    1.333    1.667    3.000    9.333    1.667 
#    0.000    0.833    0.000    1.000    0.000    0.000 
#    0.000    0.000    0.000    0.000    0.000    0.000 
#
# Total GULP energy -133951.800396 kJ/mol
# GULP energy per Si atom -5581.325016 kJ/mol
# Density = 1.931314 g / cm^3
# Si number density = 19.357197 Si / 1000 Ang^3
#
#
#
# Elastic Constant Matrix: (Units=GPa)
#
#
# Indices 1 2 3 4 5 6 
#
# 1 138.3198 82.3899 36.2451 0.0000 1.0626 0.0000
# 2 82.3899 122.8702 47.8238 0.0000 18.8891 0.0000
# 3 36.2451 47.8238 90.0204 0.0000 -4.0507 0.0000
# 4 0.0000 0.0000 0.0000 17.8423 0.0000 -10.6771
# 5 1.0626 18.8891 -4.0507 0.0000 30.3662 0.0000
# 6 0.0000 0.0000 0.0000 -10.6771 0.0000 6.2974
#
#
#
# Elastic Compliance Matrix: (Units=1/GPa)
#
#
# Indices 1 2 3 4 5 6 
#
# 1 0.012793 -0.009465 0.000123 0.000000 0.005457 0.000000
# 2 -0.009465 0.019081 -0.006886 0.000000 -0.012456 0.000000
# 3 0.000123 -0.006886 0.015000 0.000000 0.006280 0.000000
# 4 0.000000 0.000000 0.000000 -3.840872 0.000000 -6.512076
# 5 0.005457 -0.012456 0.006280 0.000000 0.041327 0.000000
# 6 0.000000 0.000000 0.000000 -6.512076 0.000000-10.882222
#
#
# Mechanical properties :
#
#
# Convention : Reuss Voigt Hill
#
# Bulk Modulus (GPa) = 69.36193 76.01422 72.68807
# Shear Modulus (GPa) = -0.34252 23.21795 11.43772
#
# Velocity S-wave (km/s) = -0.42111 3.46706 2.43343
# Velocity P-wave (km/s) = 5.97277 7.44190 6.74744
#
# Compressibility (1/GPa) = 0.01441713
#
# Stress axis : x y z
#
# Youngs Moduli (GPa) = 78.16488 52.40869 66.66646
#
# Poissons Ratio (x) = 0.49606 -0.00820
# Poissons Ratio (y) = 0.73985 0.45908
# Poissons Ratio (z) = -0.00961 0.36090
#
# Static dielectric constant tensor:
#      x y z
#    x 1.685440 0.000000 -0.036380 
#    y 0.000000 1.716370 0.000000 
#    z -0.036380 0.000000 1.662940 
# 
# From -- ./inp_files/67317.got.cif
#   From: 2010.05.17/outbox.cif.g08.bks.cpg/sg12_34_cif.got.tgz:67317.got - 2010.06.03 13:09:07.
