data_PCOD9215777
_publ_section_title
;
Structure prediction by ZEFSAII (Michael W. Deem and Ramdas Pophale) SiO2 
 PCOD9215777
Probable space group: C 2/M
;
_chemical_formula_sum "Si O2"
_cell_formula_units_Z 52
_cell_length_a 8.651265
_cell_length_b 14.947570
_cell_length_c 30.347842
_cell_angle_alpha 90.000000
_cell_angle_beta 142.860247
_cell_angle_gamma 90.000000
_cell_volume 2369.426504
_symmetry_space_group_name_H-M "C 2/M"
_symmetry_group_IT_number 12
_symmetry_cell_setting 'monoclinic'
loop_
_space_group_symop_operation_xyz
x,y,z
-x,y,-z
-x,-y,-z
x,-y,z
1/2+x,1/2+y,z
1/2-x,1/2+y,-z
1/2-x,1/2-y,-z
1/2+x,1/2-y,z
loop_
_atom_site_type_symbol
_atom_site_label
_atom_site_fract_x
_atom_site_fract_y
_atom_site_fract_z
Si Si1 0.688814 0.894854 0.326552
Si Si2 0.523739 0.894995 0.622491
Si Si3 0.000000 0.856686 0.000000
Si Si4 0.446354 0.743866 0.143251
Si Si5 0.975053 0.213607 0.246358
Si Si6 0.762186 0.391233 0.475502
Si Si7 0.211905 0.901543 0.955176
O O1 0.595007 0.888415 0.355946
O O2 0.533674 0.819339 0.265409
O O3 0.986601 0.865978 0.394269
O O4 0.663231 0.000000 0.307412
O O5 0.786977 0.840471 0.680609
O O6 0.324692 0.864298 0.539796
O O7 0.579024 0.000000 0.626749
O O8 0.203699 0.801315 0.074542
O O9 0.826671 0.898614 0.000439
O O10 0.429200 0.691586 0.184938
O O11 0.460523 0.673116 0.106869
O O12 0.701852 0.802206 0.206211
O O13 0.756732 0.500000 0.473760
O O14 0.000000 0.361029 0.500000
O O15 0.130461 0.000000 0.922252
O O16 0.500000 0.888351 0.000000
#
# Coordination Sequence:
#
# PCOD9215777 Si02
#       7
#     8   8   4   8   8   8   8
#     4  10  22  42  65  91 130 176 218 265 326 396
#     4  10  22  42  65  91 129 173 219 270 326 393
#     4  12  23  48  73  96 132 178 224 276 337 406
#     4  12  24  44  68  92 132 176 216 268 339 400
#     4  12  25  41  64  99 131 173 220 271 333 399
#     4   9  19  36  63  95 126 166 219 272 323 378
#     4  11  24  43  71 103 131 166 221 279 332 397
#
# _framework density 21.94624
#
# number of rings (size 3 to 8) (size 9 to 14) (size 15 to 20)
#    0.000    1.231    3.846    2.077    2.154    3.692 
#    0.000    1.538    0.000    0.000    0.000    0.000 
#    0.000    0.000    0.000    0.000    0.000    0.000 
#
# Total GULP energy -145092.803414 kJ/mol
# GULP energy per Si atom -5580.492439 kJ/mol
# Density = 2.189629 g / cm^3
# Si number density = 21.946240 Si / 1000 Ang^3
#
#
#
# Elastic Constant Matrix: (Units=GPa)
#
#
# Indices 1 2 3 4 5 6 
#
# 1 92.1222 14.7772 17.9332 -0.0001 1.0470 0.0000
# 2 14.7772 49.5819 19.5735 0.0000 2.6731 0.0000
# 3 17.9332 19.5735 84.8554 -0.0005 15.1391 0.0000
# 4 -0.0001 0.0000 -0.0005 -10.2125 -0.0001 2.8700
# 5 1.0470 2.6731 15.1391 -0.0001 49.9331 0.0000
# 6 0.0000 0.0000 0.0000 2.8700 0.0000 14.5590
#
#
#
# Elastic Compliance Matrix: (Units=1/GPa)
#
#
# Indices 1 2 3 4 5 6 
#
# 1 0.011663 -0.002745 -0.001918 0.000000 0.000484 0.000000
# 2 -0.002745 0.022842 -0.004737 0.000000 0.000271 0.000000
# 3 -0.001918 -0.004737 0.013987 -0.000001 -0.003947 0.000000
# 4 0.000000 0.000000 -0.000001 -0.092779 0.000000 0.018290
# 5 0.000484 0.000271 -0.003947 0.000000 0.021199 0.000000
# 6 0.000000 0.000000 0.000000 0.018290 0.000000 0.065080
#
#
# Mechanical properties :
#
#
# Convention : Reuss Voigt Hill
#
# Bulk Modulus (GPa) = 33.67903 36.79191 35.23547
# Shear Modulus (GPa) = 70.73059 22.47430 46.60244
#
# Velocity S-wave (km/s) = 5.68322 3.20357 4.61312
# Velocity P-wave (km/s) = 7.64492 5.52130 6.66819
#
# Compressibility (1/GPa) = 0.02969207
#
# Stress axis : x y z
#
# Youngs Moduli (GPa) = 85.73868 43.77848 71.49492
#
# Poissons Ratio (x) = 0.12017 0.13713
# Poissons Ratio (y) = 0.23535 0.33869
# Poissons Ratio (z) = 0.16445 0.20739
#
# Static dielectric constant tensor:
#      x y z
#    x 1.878560 0.000000 0.020510 
#    y 0.000000 1.802630 0.000000 
#    z 0.020510 0.000000 1.759740 
# 
# From -- ./inp_files/372627.got.cif
#   From: 2010.05.17/outbox.cif.g08.bks.cpg/sg12_187_cif.got.tgz:372627.got - 2010.06.03 13:09:07.
