data_PCOD9215534
_publ_section_title
;
Structure prediction by ZEFSAII (Michael W. Deem and Ramdas Pophale) SiO2 
 PCOD9215534
Probable space group: C 2/M
;
_chemical_formula_sum "Si O2"
_cell_formula_units_Z 64
_cell_length_a 12.342501
_cell_length_b 16.798422
_cell_length_c 29.060272
_cell_angle_alpha 90.000000
_cell_angle_beta 151.283041
_cell_angle_gamma 90.000000
_cell_volume 2895.005899
_symmetry_space_group_name_H-M "C 2/M"
_symmetry_group_IT_number 12
_symmetry_cell_setting 'monoclinic'
loop_
_space_group_symop_operation_xyz
x,y,z
-x,y,-z
-x,-y,-z
x,-y,z
1/2+x,1/2+y,z
1/2-x,1/2+y,-z
1/2-x,1/2-y,-z
1/2+x,1/2-y,z
loop_
_atom_site_type_symbol
_atom_site_label
_atom_site_fract_x
_atom_site_fract_y
_atom_site_fract_z
Si Si1 0.973652 0.406283 0.041710
Si Si2 0.842626 0.590287 0.663137
Si Si3 0.689036 0.688336 0.300133
Si Si4 0.830864 0.686945 0.150466
Si Si5 0.573380 0.095280 0.406797
Si Si6 0.149730 0.829488 0.983891
Si Si7 0.013754 0.155623 0.602899
Si Si8 0.402445 0.596793 0.264785
O O1 0.004171 0.500000 0.048106
O O2 0.174858 0.382372 0.151530
O O3 0.733957 0.391870 0.977271
O O4 0.000000 0.369954 0.000000
O O5 0.912866 0.500000 0.684602
O O6 0.869193 0.626498 0.622900
O O7 0.595796 0.597422 0.592556
O O8 0.998865 0.631625 0.758567
O O9 0.466805 0.730131 0.196034
O O10 0.874721 0.759895 0.369485
O O11 0.601910 0.647071 0.314470
O O12 0.815562 0.619114 0.319910
O O13 0.765332 0.654286 0.076215
O O14 0.608398 0.686758 0.099251
O O15 0.746457 0.141922 0.504488
O O16 0.603783 0.000000 0.422834
O O17 0.250000 0.750000 0.000000
O O18 0.111358 0.126795 0.688040
O O19 0.435535 0.500000 0.275866
#
# Coordination Sequence:
#
# PCOD9215534 Si02
#       8
#     8   8   8   8   8   8   8   8
#     4  10  23  42  66  98 133 175 222 275 335 396
#     4  10  22  41  67  95 131 172 217 272 337 404
#     4  11  25  42  66  97 136 172 225 280 337 402
#     4  10  25  41  61  96 128 175 221 274 335 395
#     4  11  24  43  69  99 131 175 223 277 339 406
#     4  11  24  40  65  92 129 174 222 272 327 397
#     4  11  24  43  69  95 136 175 225 276 337 405
#     4  11  24  44  69  97 136 182 225 278 340 403
#
# _framework density 22.107037999999999
#
# number of rings (size 3 to 8) (size 9 to 14) (size 15 to 20)
#    0.000    1.375    0.000    4.500    8.750    3.500 
#    4.500    5.000    0.000    0.000    0.000    0.000 
#    0.000    0.000    0.000    0.000    0.000    0.000 
#
# Total GULP energy -178588.283954 kJ/mol
# GULP energy per Si atom -5580.883874 kJ/mol
# Density = 2.205672 g / cm^3
# Si number density = 22.107038 Si / 1000 Ang^3
#
#
#
# Elastic Constant Matrix: (Units=GPa)
#
#
# Indices 1 2 3 4 5 6 
#
# 1 153.2743 19.6556 46.2812 -0.0003 8.1121 0.0000
# 2 19.6556 63.1010 24.1892 -0.0002 3.8191 0.0000
# 3 46.2812 24.1892 92.1729 0.0023 12.9995 -0.0007
# 4 -0.0003 -0.0002 0.0023 15.9949 0.0002 13.9101
# 5 8.1121 3.8191 12.9995 0.0002 30.1328 -0.0002
# 6 0.0000 0.0000 -0.0007 13.9101 -0.0002 34.0761
#
#
#
# Elastic Compliance Matrix: (Units=1/GPa)
#
#
# Indices 1 2 3 4 5 6 
#
# 1 0.007754 -0.001023 -0.003566 0.000001 -0.000420 -0.000001
# 2 -0.001023 0.017757 -0.004118 0.000001 -0.000198 -0.000001
# 3 -0.003566 -0.004118 0.014387 -0.000004 -0.004725 0.000002
# 4 0.000001 0.000001 -0.000004 0.096931 0.000000 -0.039568
# 5 -0.000420 -0.000198 -0.004725 0.000000 0.035363 0.000000
# 6 -0.000001 -0.000001 0.000002 -0.039568 0.000000 0.045498
#
#
# Mechanical properties :
#
#
# Convention : Reuss Voigt Hill
#
# Bulk Modulus (GPa) = 44.47704 54.31115 49.39409
# Shear Modulus (GPa) = 20.61015 30.60224 25.60620
#
# Velocity S-wave (km/s) = 3.05665 3.72462 3.40705
# Velocity P-wave (km/s) = 5.71140 6.56641 6.15378
#
# Compressibility (1/GPa) = 0.02248351
#
# Stress axis : x y z
#
# Youngs Moduli (GPa) = 128.95934 56.31577 69.50824
#
# Poissons Ratio (x) = 0.05762 0.24786
# Poissons Ratio (y) = 0.13194 0.28626
# Poissons Ratio (z) = 0.45986 0.23193
#
# Static dielectric constant tensor:
#      x y z
#    x 1.885090 0.000000 0.091480 
#    y 0.000000 1.854860 0.000000 
#    z 0.091480 0.000000 1.936540 
# 
# From -- ./inp_files/374513.got.cif
#   From: 2010.05.17/outbox.cif.g08.bks.cpg/sg12_188_cif.got.tgz:374513.got - 2010.06.03 13:09:07.
