data_PCOD9215737
_publ_section_title
;
Structure prediction by ZEFSAII (Michael W. Deem and Ramdas Pophale) SiO2 
 PCOD9215737
Probable space group: C 2/M
;
_chemical_formula_sum "Si O2"
_cell_formula_units_Z 56
_cell_length_a 18.208438
_cell_length_b 28.180219
_cell_length_c 7.946309
_cell_angle_alpha 90.000000
_cell_angle_beta 139.312892
_cell_angle_gamma 90.000000
_cell_volume 2658.165434
_symmetry_space_group_name_H-M "C 2/M"
_symmetry_group_IT_number 12
_symmetry_cell_setting 'monoclinic'
loop_
_space_group_symop_operation_xyz
x,y,z
-x,y,-z
-x,-y,-z
x,-y,z
1/2+x,1/2+y,z
1/2-x,1/2+y,-z
1/2-x,1/2-y,-z
1/2+x,1/2-y,z
loop_
_atom_site_type_symbol
_atom_site_label
_atom_site_fract_x
_atom_site_fract_y
_atom_site_fract_z
Si Si1 0.025697 0.377212 0.737012
Si Si2 0.095325 0.221276 0.764862
Si Si3 0.557879 0.358767 0.935548
Si Si4 0.436649 0.553820 0.567141
Si Si5 0.793366 0.300236 0.849048
Si Si6 0.294862 0.858733 0.513447
Si Si7 0.682456 0.055411 0.199508
O O1 0.000000 0.387423 0.500000
O O2 0.915953 0.354604 0.635361
O O3 0.126866 0.340088 0.932180
O O4 0.074779 0.423870 0.914405
O O5 0.186419 0.206385 0.784238
O O6 0.000000 0.250472 0.500000
O O7 0.040446 0.174745 0.747307
O O8 0.144418 0.250362 0.008131
O O9 0.690779 0.360714 0.204806
O O10 0.500000 0.337662 0.000000
O O11 0.494545 0.407995 0.788520
O O12 0.500000 0.557124 0.500000
O O13 0.449568 0.500000 0.654807
O O14 0.302493 0.561740 0.311556
O O15 0.776193 0.318962 0.628182
O O16 0.300794 0.909950 0.613679
O O17 0.669325 0.000000 0.215479
#
# Coordination Sequence:
#
# PCOD9215737 Si02
#       7
#     8   8   8   8   8   8   8
#     4  11  24  41  66  92 127 174 214 263 319 383
#     4  11  24  40  68  95 126 167 212 269 310 376
#     4  12  24  38  63  98 130 163 213 264 317 375
#     4  10  23  41  64  92 130 174 211 262 326 379
#     4  10  23  45  63  91 129 169 212 255 328 378
#     4  11  24  41  65  94 128 174 209 261 322 384
#     4  10  22  42  64  91 129 171 217 266 318 376
#
# _framework density 21.067160999999999
#
# number of rings (size 3 to 8) (size 9 to 14) (size 15 to 20)
#    0.000    1.286    1.429    4.286    8.000    5.143 
#    0.000    0.000    0.000    0.000    0.000    0.000 
#    0.000    0.000    0.000    0.000    0.000    0.000 
#
# Total GULP energy -156362.790477 kJ/mol
# GULP energy per Si atom -5584.385374 kJ/mol
# Density = 2.101921 g / cm^3
# Si number density = 21.067161 Si / 1000 Ang^3
#
#
#
# Elastic Constant Matrix: (Units=GPa)
#
#
# Indices 1 2 3 4 5 6 
#
# 1 63.4825 29.2387 13.3823 0.0000 1.3970 0.0000
# 2 29.2387 70.8129 16.9036 0.0000 0.7885 0.0000
# 3 13.3823 16.9036 90.4616 0.0000 1.3442 0.0000
# 4 0.0000 0.0000 0.0000 0.3748 0.0000 2.8575
# 5 1.3970 0.7885 1.3442 0.0000 32.6156 0.0000
# 6 0.0000 0.0000 0.0000 2.8575 0.0000 15.2269
#
#
#
# Elastic Compliance Matrix: (Units=1/GPa)
#
#
# Indices 1 2 3 4 5 6 
#
# 1 0.019644 -0.007759 -0.001447 0.000000 -0.000594 0.000000
# 2 -0.007759 0.017848 -0.002187 0.000000 -0.000009 0.000000
# 3 -0.001447 -0.002187 0.011683 0.000000 -0.000367 0.000000
# 4 0.000000 0.000000 0.000000 -6.194664 0.000000 1.162484
# 5 -0.000594 -0.000009 -0.000367 0.000000 0.030701 0.000000
# 6 0.000000 0.000000 0.000000 1.162484 0.000000 -0.152478
#
#
# Mechanical properties :
#
#
# Convention : Reuss Voigt Hill
#
# Bulk Modulus (GPa) = 37.89657 38.20070 38.04863
# Shear Modulus (GPa) = -0.80184 20.65897 9.92857
#
# Velocity S-wave (km/s) = -0.61761 3.13489 2.17326
# Velocity P-wave (km/s) = 4.18556 5.59246 4.93936
#
# Compressibility (1/GPa) = 0.02638762
#
# Stress axis : x y z
#
# Youngs Moduli (GPa) = 50.90573 56.03009 85.59709
#
# Poissons Ratio (x) = 0.43473 0.12389
# Poissons Ratio (y) = 0.39498 0.18720
# Poissons Ratio (z) = 0.07368 0.12254
#
# Static dielectric constant tensor:
#      x y z
#    x 1.755350 0.000000 0.024050 
#    y 0.000000 1.765980 0.000000 
#    z 0.024050 0.000000 1.789800 
# 
# From -- ./inp_files/80105.got.cif
#   From: 2010.05.17/outbox.cif.g08.bks.cpg/sg12_41_cif.got.tgz:80105.got - 2010.06.03 13:09:07.
