data_PCOD9215235
_publ_section_title
;
Structure prediction by ZEFSAII (Michael W. Deem and Ramdas Pophale) SiO2 
 PCOD9215235
Probable space group: C 2/M
;
_chemical_formula_sum "Si O2"
_cell_formula_units_Z 56
_cell_length_a 14.382512
_cell_length_b 22.087292
_cell_length_c 18.088431
_cell_angle_alpha 90.000000
_cell_angle_beta 150.276935
_cell_angle_gamma 90.000000
_cell_volume 2848.996477
_symmetry_space_group_name_H-M "C 2/M"
_symmetry_group_IT_number 12
_symmetry_cell_setting 'monoclinic'
loop_
_space_group_symop_operation_xyz
x,y,z
-x,y,-z
-x,-y,-z
x,-y,z
1/2+x,1/2+y,z
1/2-x,1/2+y,-z
1/2-x,1/2-y,-z
1/2+x,1/2-y,z
loop_
_atom_site_type_symbol
_atom_site_label
_atom_site_fract_x
_atom_site_fract_y
_atom_site_fract_z
Si Si1 0.084728 0.000000 0.176629
Si Si2 0.276930 0.568774 0.345783
Si Si3 0.835160 0.266240 0.177188
Si Si4 0.167920 0.322615 0.173785
Si Si5 0.789084 0.613220 0.386955
Si Si6 0.015510 0.781147 0.158156
Si Si7 0.078686 0.613292 0.356741
Si Si8 0.203901 0.500000 0.834374
O O1 0.160216 0.058083 0.271761
O O2 0.187779 0.000000 0.168598
O O3 0.863051 0.000000 0.007582
O O4 0.500000 0.565230 0.500000
O O5 0.201109 0.500000 0.287545
O O6 0.229353 0.612656 0.244980
O O7 0.202060 0.598897 0.369790
O O8 0.810705 0.223148 0.231148
O O9 0.904696 0.223635 0.158366
O O10 0.975328 0.321902 0.283532
O O11 0.634675 0.293405 0.011058
O O12 0.094025 0.284778 0.192635
O O13 0.000000 0.330012 0.000000
O O14 0.684501 0.672299 0.283227
O O15 0.806554 0.612442 0.487533
O O16 0.000000 0.607933 0.500000
O O17 0.924360 0.559682 0.251803
#
# Coordination Sequence:
#
# PCOD9215235 Si02
#       8
#     4   8   8   8   8   8   8   4
#     4  11  24  43  62  98 132 172 217 261 332 404
#     4  11  26  46  66  92 132 177 222 274 334 390
#     4  10  22  41  67  94 127 169 218 272 325 391
#     4  10  22  43  69  94 127 170 218 277 323 387
#     4  12  24  39  62  99 137 170 209 267 328 409
#     4  10  22  41  63  95 129 165 216 268 329 387
#     4  12  23  42  68  98 131 174 219 272 334 393
#     4  11  23  42  70  91 130 177 217 267 328 397
#
# _framework density 19.656043
#
# number of rings (size 3 to 8) (size 9 to 14) (size 15 to 20)
#    0.000    1.143    3.571    2.357    2.000    2.571 
#    0.000    0.000    0.000    0.000    0.000    0.000 
#    0.000    0.000    0.000    0.000    0.000    0.000 
#
# Total GULP energy -156397.941290 kJ/mol
# GULP energy per Si atom -5585.640760 kJ/mol
# Density = 1.961131 g / cm^3
# Si number density = 19.656043 Si / 1000 Ang^3
#
#
#
# Elastic Constant Matrix: (Units=GPa)
#
#
# Indices 1 2 3 4 5 6 
#
# 1 91.0629 28.0721 16.4975 -0.0146 -13.5123 0.0012
# 2 28.0721 122.1060 65.2220 -0.0107 -16.5344 0.0009
# 3 16.4975 65.2220 99.9440 0.0160 -17.6977 0.0051
# 4 -0.0146 -0.0107 0.0160 71.4772 -0.0039 -0.6156
# 5 -13.5123 -16.5344 -17.6977 -0.0039 20.0616 0.0014
# 6 0.0012 0.0009 0.0051 -0.6156 0.0014 22.8303
#
#
#
# Elastic Compliance Matrix: (Units=1/GPa)
#
#
# Indices 1 2 3 4 5 6 
#
# 1 0.012637 -0.002296 0.000693 0.000002 0.007230 -0.000001
# 2 -0.002296 0.013225 -0.007816 0.000003 0.002458 0.000001
# 3 0.000693 -0.007816 0.016514 -0.000004 0.008592 -0.000004
# 4 0.000002 0.000003 -0.000004 0.013994 0.000003 0.000377
# 5 0.007230 0.002458 0.008592 0.000003 0.064322 -0.000006
# 6 -0.000001 0.000001 -0.000004 0.000377 -0.000006 0.043812
#
#
# Mechanical properties :
#
#
# Convention : Reuss Voigt Hill
#
# Bulk Modulus (GPa) = 42.48800 59.18846 50.83823
# Shear Modulus (GPa) = 26.15228 36.42857 31.29043
#
# Velocity S-wave (km/s) = 3.65155 4.30967 3.99419
# Velocity P-wave (km/s) = 6.28022 7.41227 6.86960
#
# Compressibility (1/GPa) = 0.02353606
#
# Stress axis : x y z
#
# Youngs Moduli (GPa) = 79.13541 75.61181 60.55609
#
# Poissons Ratio (x) = 0.17362 -0.04196
# Poissons Ratio (y) = 0.18171 0.47333
# Poissons Ratio (z) = -0.05483 0.59101
#
# Static dielectric constant tensor:
#      x y z
#    x 1.703630 0.000000 0.009530 
#    y 0.000000 1.681230 0.000000 
#    z 0.009530 0.000000 1.684740 
# 
# From -- ./inp_files/272448.got.cif
#   From: 2010.05.17/outbox.cif.g08.bks.cpg/sg12_137_cif.got.tgz:272448.got - 2010.06.03 13:09:07.
