data_PCOD9215626
_publ_section_title
;
Structure prediction by ZEFSAII (Michael W. Deem and Ramdas Pophale) SiO2 
 PCOD9215626
Probable space group: C 2/M
;
_chemical_formula_sum "Si O2"
_cell_formula_units_Z 26
_cell_length_a 22.201434
_cell_length_b 11.159781
_cell_length_c 4.979333
_cell_angle_alpha 90.000000
_cell_angle_beta 123.098120
_cell_angle_gamma 90.000000
_cell_volume 1033.511654
_symmetry_space_group_name_H-M "C 2/M"
_symmetry_group_IT_number 12
_symmetry_cell_setting 'monoclinic'
loop_
_space_group_symop_operation_xyz
x,y,z
-x,y,-z
-x,-y,-z
x,-y,z
1/2+x,1/2+y,z
1/2-x,1/2+y,-z
1/2-x,1/2-y,-z
1/2+x,1/2-y,z
loop_
_atom_site_type_symbol
_atom_site_label
_atom_site_fract_x
_atom_site_fract_y
_atom_site_fract_z
Si Si1 0.602853 0.864212 0.939516
Si Si2 0.259168 0.631306 0.198072
Si Si3 0.500000 0.500000 0.500000
Si Si4 0.916490 0.205829 0.628121
O O1 0.688799 0.866836 0.214166
O O2 0.566398 0.774354 0.055958
O O3 0.576199 0.000000 0.889575
O O4 0.594504 0.809163 0.623498
O O5 0.255006 0.500000 0.047269
O O6 0.339191 0.642674 0.505418
O O7 0.250000 0.750000 0.000000
O O8 0.464458 0.604129 0.609633
#
# Coordination Sequence:
#
# PCOD9215626 Si02
#       4
#     8   8   2   8
#     4  10  22  41  69  96 128 163 220 280 335 382
#     4   9  18  37  63  98 130 168 215 278 336 388
#     4  12  28  46  66  94 140 182 228 258 316 410
#     4  11  23  42  63  96 130 177 216 265 325 394
#
# _framework density 25.156950999999999
#
# number of rings (size 3 to 8) (size 9 to 14) (size 15 to 20)
#    0.000    1.846    1.538    1.846    0.000    4.923 
#    2.769    7.692    0.000    0.000    0.000    0.000 
#    0.000    0.000    0.000    0.000    0.000    0.000 
#
# Total GULP energy -72404.679255 kJ/mol
# GULP energy per Si atom -5569.590712 kJ/mol
# Density = 2.509969 g / cm^3
# Si number density = 25.156951 Si / 1000 Ang^3
#
#
#
# Elastic Constant Matrix: (Units=GPa)
#
#
# Indices 1 2 3 4 5 6 
#
# 1 92.1543 45.6856 15.5914 0.0000 8.4704 0.0000
# 2 45.6856 252.2800 31.6694 0.0000 -2.9320 0.0000
# 3 15.5914 31.6694 54.7664 0.0000 -11.6718 0.0000
# 4 0.0000 0.0000 0.0000 13.1565 0.0000 -13.9780
# 5 8.4704 -2.9320 -11.6718 0.0000 21.3993 0.0000
# 6 0.0000 0.0000 0.0000 -13.9780 0.0000 34.5720
#
#
#
# Elastic Compliance Matrix: (Units=1/GPa)
#
#
# Indices 1 2 3 4 5 6 
#
# 1 0.013277 -0.001952 -0.004331 0.000000 -0.007885 0.000000
# 2 -0.001952 0.004575 -0.002027 0.000000 0.000294 0.000000
# 3 -0.004331 -0.002027 0.023729 0.000000 0.014379 0.000000
# 4 0.000000 0.000000 0.000000 0.133244 0.000000 0.053873
# 5 -0.007885 0.000294 0.014379 0.000000 0.057735 0.000000
# 6 0.000000 0.000000 0.000000 0.053873 0.000000 0.050707
#
#
# Mechanical properties :
#
#
# Convention : Reuss Voigt Hill
#
# Bulk Modulus (GPa) = 40.06475 65.01038 52.53757
# Shear Modulus (GPa) = 16.22277 34.24251 25.23264
#
# Velocity S-wave (km/s) = 2.54217 3.69339 3.17047
# Velocity P-wave (km/s) = 4.95755 6.63974 5.85933
#
# Compressibility (1/GPa) = 0.02495960
#
# Stress axis : x y z
#
# Youngs Moduli (GPa) = 75.31956 218.56536 42.14198
#
# Poissons Ratio (x) = 0.42669 0.18253
# Poissons Ratio (y) = 0.14704 0.08544
# Poissons Ratio (z) = 0.32623 0.44310
#
# Static dielectric constant tensor:
#      x y z
#    x 2.045880 0.000000 0.138270 
#    y 0.000000 1.905220 0.000000 
#    z 0.138270 0.000000 2.058220 
# 
# From -- ./inp_files/18927.got.cif
#   From: 2010.05.17/outbox.cif.g08.bks.cpg/sg12_10_cif.got.tgz:18927.got - 2010.06.03 13:09:07.
