data_PCOD9215307
_publ_section_title
;
Structure prediction by ZEFSAII (Michael W. Deem and Ramdas Pophale) SiO2 
 PCOD9215307
Probable space group: C 2/M
;
_chemical_formula_sum "Si O2"
_cell_formula_units_Z 56
_cell_length_a 16.450485
_cell_length_b 8.502475
_cell_length_c 23.322984
_cell_angle_alpha 90.000000
_cell_angle_beta 122.461983
_cell_angle_gamma 90.000000
_cell_volume 2752.458772
_symmetry_space_group_name_H-M "C 2/M"
_symmetry_group_IT_number 12
_symmetry_cell_setting 'monoclinic'
loop_
_space_group_symop_operation_xyz
x,y,z
-x,y,-z
-x,-y,-z
x,-y,z
1/2+x,1/2+y,z
1/2-x,1/2+y,-z
1/2-x,1/2-y,-z
1/2+x,1/2-y,z
loop_
_atom_site_type_symbol
_atom_site_label
_atom_site_fract_x
_atom_site_fract_y
_atom_site_fract_z
Si Si1 0.797451 0.815612 0.288541
Si Si2 0.441601 0.689326 0.922237
Si Si3 0.781528 0.690782 0.160596
Si Si4 0.619551 0.684499 0.285584
Si Si5 0.527294 0.186589 0.575301
Si Si6 0.342117 0.311301 0.569335
Si Si7 0.453892 0.185094 0.151187
O O1 0.825457 0.759662 0.235726
O O2 0.703247 0.720335 0.271927
O O3 0.881554 0.777249 0.365103
O O4 0.775671 0.000000 0.280259
O O5 0.438526 0.500000 0.922499
O O6 0.330154 0.742944 0.883022
O O7 0.498100 0.736812 0.886167
O O8 0.500000 0.745513 0.000000
O O9 0.784041 0.500000 0.164374
O O10 0.848254 0.739357 0.132213
O O11 0.595176 0.500000 0.275513
O O12 0.659976 0.724192 0.363729
O O13 0.526439 0.780866 0.231282
O O14 0.500000 0.229698 0.500000
O O15 0.435923 0.229237 0.579155
O O16 0.547685 0.000000 0.584594
O O17 0.348932 0.500000 0.565453
O O18 0.250000 0.250000 0.500000
O O19 0.449355 0.000000 0.138526
#
# Coordination Sequence:
#
# PCOD9215307 Si02
#       7
#     8   8   8   8   8   8   8
#     4  12  24  38  62  93 122 159 209 261 315 376
#     4  10  22  42  67  94 129 175 217 259 319 386
#     4  10  22  41  64  92 131 171 210 261 320 380
#     4  11  23  40  61  87 122 163 205 257 319 378
#     4  11  24  41  60  84 118 161 206 256 318 380
#     4  11  24  40  60  87 119 159 208 260 318 381
#     4  11  23  39  63  96 127 165 215 265 317 374
#
# _framework density 20.345445999999999
#
# number of rings (size 3 to 8) (size 9 to 14) (size 15 to 20)
#    0.000    1.143    1.429    4.714    0.000   11.143 
#    0.000    0.000    0.000    0.000    0.000    0.000 
#    0.000    0.000    0.000    0.000    0.000    0.000 
#
# Total GULP energy -156569.204794 kJ/mol
# GULP energy per Si atom -5591.757314 kJ/mol
# Density = 2.029914 g / cm^3
# Si number density = 20.345446 Si / 1000 Ang^3
#
#
#
# Elastic Constant Matrix: (Units=GPa)
#
#
# Indices 1 2 3 4 5 6 
#
# 1 115.7036 -1.4980 29.3311 0.0000 -4.9928 0.0000
# 2 -1.4980 11.7787 12.5233 0.0000 -2.8261 0.0000
# 3 29.3311 12.5233 98.4025 0.0000 -5.8880 0.0000
# 4 0.0000 0.0000 0.0000 19.9139 0.0000 -0.3424
# 5 -4.9928 -2.8261 -5.8880 0.0000 22.5681 0.0000
# 6 0.0000 0.0000 0.0000 -0.3424 0.0000 27.4081
#
#
#
# Elastic Compliance Matrix: (Units=1/GPa)
#
#
# Indices 1 2 3 4 5 6 
#
# 1 0.009669 0.005355 -0.003449 0.000000 0.001910 0.000000
# 2 0.005355 0.103059 -0.014089 0.000000 0.010415 0.000000
# 3 -0.003449 -0.014089 0.013036 0.000000 0.000874 0.000000
# 4 0.000000 0.000000 0.000000 0.050227 0.000000 0.000627
# 5 0.001910 0.010415 0.000874 0.000000 0.046265 0.000000
# 6 0.000000 0.000000 0.000000 0.000627 0.000000 0.036493
#
#
# Mechanical properties :
#
#
# Convention : Reuss Voigt Hill
#
# Bulk Modulus (GPa) = 9.86220 34.06640 21.96430
# Shear Modulus (GPa) = 15.77717 26.34657 21.06187
#
# Velocity S-wave (km/s) = 2.78774 3.60246 3.22096
# Velocity P-wave (km/s) = 3.90126 5.83815 4.96507
#
# Compressibility (1/GPa) = 0.10139728
#
# Stress axis : x y z
#
# Youngs Moduli (GPa) = 103.42415 9.70322 76.71187
#
# Poissons Ratio (x) = -0.05196 0.26460
# Poissons Ratio (y) = -0.55386 1.08079
# Poissons Ratio (z) = 0.35674 0.13671
#
# Static dielectric constant tensor:
#      x y z
#    x 1.727250 0.000000 0.003190 
#    y 0.000000 1.700530 0.000000 
#    z 0.003190 0.000000 1.745640 
# 
# From -- ./inp_files/338995.got.cif
#   From: 2010.05.17/outbox.cif.g08.bks.cpg/sg12_170_cif.got.tgz:338995.got - 2010.06.03 13:09:07.
