data_PCOD9215482
_publ_section_title
;
Structure prediction by ZEFSAII (Michael W. Deem and Ramdas Pophale) SiO2 
 PCOD9215482
Probable space group: C 2/M
;
_chemical_formula_sum "Si O2"
_cell_formula_units_Z 40
_cell_length_a 13.961505
_cell_length_b 16.851085
_cell_length_c 11.998725
_cell_angle_alpha 90.000000
_cell_angle_beta 133.341060
_cell_angle_gamma 90.000000
_cell_volume 2053.040429
_symmetry_space_group_name_H-M "C 2/M"
_symmetry_group_IT_number 12
_symmetry_cell_setting 'monoclinic'
loop_
_space_group_symop_operation_xyz
x,y,z
-x,y,-z
-x,-y,-z
x,-y,z
1/2+x,1/2+y,z
1/2-x,1/2+y,-z
1/2-x,1/2-y,-z
1/2+x,1/2-y,z
loop_
_atom_site_type_symbol
_atom_site_label
_atom_site_fract_x
_atom_site_fract_y
_atom_site_fract_z
Si Si1 0.619096 0.246320 0.326809
Si Si2 0.204231 0.909624 0.973113
Si Si3 0.006839 0.411661 0.139340
Si Si4 0.410919 0.321468 0.318206
Si Si5 0.350589 0.285106 0.873050
O O1 0.750000 0.250000 0.500000
O O2 0.595702 0.159181 0.256670
O O3 0.498364 0.264733 0.310355
O O4 0.639632 0.312712 0.246964
O O5 0.358665 0.899674 0.066797
O O6 0.169142 0.847194 0.042907
O O7 0.181622 0.000000 0.991639
O O8 0.126598 0.892767 0.795618
O O9 0.052270 0.500000 0.210791
O O10 0.000000 0.413125 0.000000
O O11 0.500000 0.337981 0.500000
O O12 0.272262 0.275571 0.226067
O O13 0.500000 0.251556 0.000000
#
# Coordination Sequence:
#
# PCOD9215482 Si02
#       5
#     8   8   8   8   8
#     4  12  23  39  66  98 129 171 214 263 327 384
#     4  11  24  42  65  95 131 171 214 267 326 386
#     4  10  22  41  66  96 129 167 216 269 320 380
#     4  12  24  41  65  97 130 165 217 269 324 388
#     4  12  23  41  69  93 125 170 221 268 311 389
#
# _framework density 19.483298000000001
#
# number of rings (size 3 to 8) (size 9 to 14) (size 15 to 20)
#    0.000    0.600    6.000    3.600    0.000    0.800 
#    0.000    2.000    0.000    3.600    0.000    0.000 
#    0.000    0.000    0.000    0.000    0.000    0.000 
#
# Total GULP energy -111445.766032 kJ/mol
# GULP energy per Si atom -5572.288302 kJ/mol
# Density = 1.943895 g / cm^3
# Si number density = 19.483298 Si / 1000 Ang^3
#
#
#
# Elastic Constant Matrix: (Units=GPa)
#
#
# Indices 1 2 3 4 5 6 
#
# 1 129.0447 39.8147 41.8376 0.0000 6.3095 0.0000
# 2 39.8147 102.2816 59.3931 0.0000 0.1201 0.0000
# 3 41.8376 59.3931 140.5370 0.0000 -5.8656 0.0000
# 4 0.0000 0.0000 0.0000 23.7300 0.0000 -0.5685
# 5 6.3095 0.1201 -5.8656 0.0000 42.2808 0.0000
# 6 0.0000 0.0000 0.0000 -0.5685 0.0000 16.2294
#
#
#
# Elastic Compliance Matrix: (Units=1/GPa)
#
#
# Indices 1 2 3 4 5 6 
#
# 1 0.009177 -0.002578 -0.001709 0.000000 -0.001599 0.000000
# 2 -0.002578 0.013708 -0.005040 0.000000 -0.000353 0.000000
# 3 -0.001709 -0.005040 0.009823 0.000000 0.001632 0.000000
# 4 0.000000 0.000000 0.000000 0.042176 0.000000 0.001477
# 5 -0.001599 -0.000353 0.001632 0.000000 0.024117 0.000000
# 6 0.000000 0.000000 0.000000 0.001477 0.000000 0.061668
#
#
# Mechanical properties :
#
#
# Convention : Reuss Voigt Hill
#
# Bulk Modulus (GPa) = 71.16292 72.66158 71.91225
# Shear Modulus (GPa) = 27.17268 31.83592 29.50430
#
# Velocity S-wave (km/s) = 3.73857 4.04668 3.89567
# Velocity P-wave (km/s) = 7.43238 7.69476 7.56471
#
# Compressibility (1/GPa) = 0.01405226
#
# Stress axis : x y z
#
# Youngs Moduli (GPa) = 108.96847 72.95168 101.80511
#
# Poissons Ratio (x) = 0.18806 0.17401
# Poissons Ratio (y) = 0.28091 0.51314
# Poissons Ratio (z) = 0.18626 0.36771
#
# Static dielectric constant tensor:
#      x y z
#    x 1.747800 0.000000 -0.031640 
#    y 0.000000 1.686730 0.000000 
#    z -0.031640 0.000000 1.753900 
# 
# From -- ./inp_files/145282.got.cif
#   From: 2010.05.17/outbox.cif.g08.bks.cpg/sg12_73_cif.got.tgz:145282.got - 2010.06.03 13:09:07.
