data_PCOD9215212
_publ_section_title
;
Structure prediction by ZEFSAII (Michael W. Deem and Ramdas Pophale) SiO2 
 PCOD9215212
Probable space group: C 2/M
;
_chemical_formula_sum "Si O2"
_cell_formula_units_Z 64
_cell_length_a 15.418047
_cell_length_b 8.778864
_cell_length_c 29.592520
_cell_angle_alpha 90.000000
_cell_angle_beta 127.812718
_cell_angle_gamma 90.000000
_cell_volume 3164.369153
_symmetry_space_group_name_H-M "C 2/M"
_symmetry_group_IT_number 12
_symmetry_cell_setting 'monoclinic'
loop_
_space_group_symop_operation_xyz
x,y,z
-x,y,-z
-x,-y,-z
x,-y,z
1/2+x,1/2+y,z
1/2-x,1/2+y,-z
1/2-x,1/2-y,-z
1/2+x,1/2-y,z
loop_
_atom_site_type_symbol
_atom_site_label
_atom_site_fract_x
_atom_site_fract_y
_atom_site_fract_z
Si Si1 0.525958 0.817577 0.144177
Si Si2 0.882904 0.683057 0.234167
Si Si3 0.781285 0.317272 0.558070
Si Si4 0.534342 0.817461 0.641968
Si Si5 0.320838 0.818555 0.885881
Si Si6 0.272098 0.818269 0.056069
Si Si7 0.899309 0.818542 0.742197
Si Si8 0.308505 0.317436 0.376587
O O1 0.570279 0.782471 0.108220
O O2 0.398134 0.778519 0.109037
O O3 0.595986 0.729519 0.203900
O O4 0.538435 0.000000 0.155193
O O5 0.875634 0.500000 0.227319
O O6 0.895126 0.721951 0.291035
O O7 0.780239 0.759682 0.176962
O O8 0.994255 0.740778 0.246256
O O9 0.775493 0.500000 0.553267
O O10 0.750000 0.250000 0.500000
O O11 0.705290 0.268798 0.575711
O O12 0.907504 0.276929 0.609686
O O13 0.581951 0.736716 0.613183
O O14 0.541052 0.000000 0.638395
O O15 0.307542 0.744415 0.930590
O O16 0.313658 0.000000 0.888543
O O17 0.264579 0.000000 0.051871
O O18 0.250000 0.750000 0.000000
O O19 0.791835 0.755091 0.683368
O O20 0.904513 0.000000 0.739477
O O21 0.299469 0.500000 0.371833
#
# Coordination Sequence:
#
# PCOD9215212 Si02
#       8
#     8   8   8   8   8   8   8   8
#     4  10  23  42  64  90 126 165 200 246 310 365
#     4  11  21  38  62  89 127 164 196 244 308 364
#     4  10  23  43  63  86 120 161 205 255 307 359
#     4  10  22  41  63  90 124 161 203 250 303 365
#     4  11  23  40  63  94 124 158 205 251 301 367
#     4  11  24  43  65  88 121 165 207 258 309 357
#     4  12  23  36  62  95 125 160 204 248 299 364
#     4  11  23  41  63  90 125 161 200 249 307 365
#
# _framework density 20.225199
#
# number of rings (size 3 to 8) (size 9 to 14) (size 15 to 20)
#    0.000    1.250    2.500    3.375    0.000    7.000 
#    0.000    5.000    0.000    0.000    0.000    0.000 
#    0.000    0.000    0.000    0.000    0.000    0.000 
#
# Total GULP energy -178970.494925 kJ/mol
# GULP energy per Si atom -5592.827966 kJ/mol
# Density = 2.017917 g / cm^3
# Si number density = 20.225199 Si / 1000 Ang^3
#
#
#
# Elastic Constant Matrix: (Units=GPa)
#
#
# Indices 1 2 3 4 5 6 
#
# 1 110.1653 27.2633 4.5074 0.0000 -37.4844 0.0000
# 2 27.2633 33.2561 16.7379 0.0000 -15.9103 0.0000
# 3 4.5074 16.7379 57.5405 0.0000 -35.9432 0.0000
# 4 0.0000 0.0000 0.0000 33.6342 0.0000 -3.5912
# 5 -37.4844 -15.9103 -35.9432 0.0000 35.5303 0.0000
# 6 0.0000 0.0000 0.0000 -3.5912 0.0000 32.1763
#
#
#
# Elastic Compliance Matrix: (Units=1/GPa)
#
#
# Indices 1 2 3 4 5 6 
#
# 1 0.077818 -0.034247 0.123805 0.000000 0.192006 0.000000
# 2 -0.034247 0.053369 -0.055648 0.000000 -0.068527 0.000000
# 3 0.123805 -0.055648 0.244217 0.000000 0.352750 0.000000
# 4 0.000000 0.000000 0.000000 0.030090 0.000000 0.003358
# 5 0.192006 -0.068527 0.352750 0.000000 0.556875 0.000000
# 6 0.000000 0.000000 0.000000 0.003358 0.000000 0.031454
#
#
# Mechanical properties :
#
#
# Convention : Reuss Voigt Hill
#
# Bulk Modulus (GPa) = 2.25620 33.10880 17.68250
# Shear Modulus (GPa) = 4.65661 30.43172 17.54416
#
# Velocity S-wave (km/s) = 1.51901 3.88318 2.94843
# Velocity P-wave (km/s) = 2.04804 6.04244 4.51140
#
# Compressibility (1/GPa) = 0.44322314
#
# Stress axis : x y z
#
# Youngs Moduli (GPa) = 12.85042 18.73764 4.09473
#
# Poissons Ratio (x) = 0.64171 -0.50695
# Poissons Ratio (y) = 0.44009 0.22786
# Poissons Ratio (z) = -1.59094 1.04270
#
# Static dielectric constant tensor:
#      x y z
#    x 1.733480 0.000000 -0.009140 
#    y 0.000000 1.674140 0.000000 
#    z -0.009140 0.000000 1.696960 
# 
# From -- ./inp_files/375637.got.cif
#   From: 2010.05.17/outbox.cif.g08.bks.cpg/sg12_188_cif.got.tgz:375637.got - 2010.06.03 13:09:07.
