data_PCOD9215496
_publ_section_title
;
Structure prediction by ZEFSAII (Michael W. Deem and Ramdas Pophale) SiO2 
 PCOD9215496
Probable space group: C 2/M
;
_chemical_formula_sum "Si O2"
_cell_formula_units_Z 48
_cell_length_a 13.765789
_cell_length_b 18.674796
_cell_length_c 16.565078
_cell_angle_alpha 90.000000
_cell_angle_beta 32.868131
_cell_angle_gamma 90.000000
_cell_volume 2311.086316
_symmetry_space_group_name_H-M "C 2/M"
_symmetry_group_IT_number 12
_symmetry_cell_setting 'monoclinic'
loop_
_space_group_symop_operation_xyz
x,y,z
-x,y,-z
-x,-y,-z
x,-y,z
1/2+x,1/2+y,z
1/2-x,1/2+y,-z
1/2-x,1/2-y,-z
1/2+x,1/2-y,z
loop_
_atom_site_type_symbol
_atom_site_label
_atom_site_fract_x
_atom_site_fract_y
_atom_site_fract_z
Si Si1 0.994101 0.000000 0.599095
Si Si2 0.000000 0.307809 0.500000
Si Si3 0.039580 0.352460 0.292671
Si Si4 0.637055 0.621904 0.197288
Si Si5 0.619760 0.268989 0.697318
Si Si6 0.905920 0.500000 0.976214
Si Si7 0.403836 0.000000 0.320288
Si Si8 0.638226 0.263502 0.972436
O O1 0.907664 0.072456 0.694771
O O2 0.000000 0.000000 0.500000
O O3 0.197007 0.000000 0.486231
O O4 0.950198 0.348727 0.617474
O O5 0.184344 0.268579 0.398744
O O6 0.900887 0.292125 0.356308
O O7 0.986917 0.429348 0.299429
O O8 0.224309 0.328492 0.122676
O O9 0.454713 0.653903 0.284179
O O10 0.749909 0.693800 0.132558
O O11 0.774693 0.568390 0.055814
O O12 0.471233 0.251581 0.869642
O O13 0.058161 0.500000 0.802199
O O14 0.000000 0.500000 0.000000
O O15 0.500000 0.280158 0.000000
#
# Coordination Sequence:
#
# PCOD9215496 Si02
#       8
#     4   4   8   8   8   4   4   8
#     4  11  25  43  62 100 141 178 225 266 347 421
#     4  12  24  43  68  99 134 180 238 278 352 415
#     4  11  25  44  67  99 135 185 226 288 343 406
#     4  10  22  41  66  97 137 180 219 285 345 404
#     4  11  23  44  69 101 137 176 232 294 347 404
#     4  11  21  39  69 102 136 184 235 278 353 413
#     4  12  24  45  64  96 145 181 225 283 340 411
#     4  11  21  43  70 100 130 172 233 283 342 402
#
# _framework density 20.769454
#
# number of rings (size 3 to 8) (size 9 to 14) (size 15 to 20)
#    0.000    1.000    1.667    7.000    0.000    3.000 
#    7.500    2.083    0.000    0.000    0.000    0.000 
#    0.000    0.000    0.000    0.000    0.000    0.000 
#
# Total GULP energy -133992.353873 kJ/mol
# GULP energy per Si atom -5583.014745 kJ/mol
# Density = 2.072218 g / cm^3
# Si number density = 20.769454 Si / 1000 Ang^3
#
#
#
# Elastic Constant Matrix: (Units=GPa)
#
#
# Indices 1 2 3 4 5 6 
#
# 1 130.9335 45.9784 32.0563 -0.0137 3.8637 -0.0068
# 2 45.9784 123.5864 30.8655 0.0047 -8.2114 0.0066
# 3 32.0563 30.8655 98.3297 0.0172 -1.1840 0.0112
# 4 -0.0137 0.0047 0.0172 31.7331 0.0028 -14.4460
# 5 3.8637 -8.2114 -1.1840 0.0028 54.8224 -0.0018
# 6 -0.0068 0.0066 0.0112 -14.4460 -0.0018 19.1213
#
#
#
# Elastic Compliance Matrix: (Units=1/GPa)
#
#
# Indices 1 2 3 4 5 6 
#
# 1 0.009232 -0.002990 -0.002085 0.000012 -0.001143 0.000015
# 2 -0.002990 0.009835 -0.002093 -0.000005 0.001639 -0.000007
# 3 -0.002085 -0.002093 0.011507 -0.000015 0.000082 -0.000018
# 4 0.000012 -0.000005 -0.000015 0.048033 -0.000003 0.036288
# 5 -0.001143 0.001639 0.000082 -0.000003 0.018569 -0.000002
# 6 0.000015 -0.000007 -0.000018 0.036288 -0.000002 0.079713
#
#
# Mechanical properties :
#
#
# Convention : Reuss Voigt Hill
#
# Bulk Modulus (GPa) = 61.57852 63.40553 62.49203
# Shear Modulus (GPa) = 25.42760 37.39866 31.41313
#
# Velocity S-wave (km/s) = 3.50277 4.24802 3.89326
# Velocity P-wave (km/s) = 6.78764 7.39293 7.09674
#
# Compressibility (1/GPa) = 0.01623943
#
# Stress axis : x y z
#
# Youngs Moduli (GPa) = 108.32461 101.67392 86.89993
#
# Poissons Ratio (x) = 0.30398 0.18117
# Poissons Ratio (y) = 0.32386 0.18187
# Poissons Ratio (z) = 0.22584 0.21279
#
# Static dielectric constant tensor:
#      x y z
#    x 1.750040 -0.000050 -0.008660 
#    y -0.000050 2.418520 0.000260 
#    z -0.008660 0.000260 1.816680 
# 
# From -- ./inp_files/271662.got.cif
#   From: 2010.05.17/outbox.cif.g08.bks.cpg/sg12_136_cif.got.tgz:271662.got - 2010.06.03 13:09:07.
