data_PCOD9215207
_publ_section_title
;
Structure prediction by ZEFSAII (Michael W. Deem and Ramdas Pophale) SiO2 
 PCOD9215207
Probable space group: C 2/M
;
_chemical_formula_sum "Si O2"
_cell_formula_units_Z 64
_cell_length_a 25.417098
_cell_length_b 8.439285
_cell_length_c 14.672109
_cell_angle_alpha 90.000000
_cell_angle_beta 90.392233
_cell_angle_gamma 90.000000
_cell_volume 3147.124944
_symmetry_space_group_name_H-M "C 2/M"
_symmetry_group_IT_number 12
_symmetry_cell_setting 'monoclinic'
loop_
_space_group_symop_operation_xyz
x,y,z
-x,y,-z
-x,-y,-z
x,-y,z
1/2+x,1/2+y,z
1/2-x,1/2+y,-z
1/2-x,1/2-y,-z
1/2+x,1/2-y,z
loop_
_atom_site_type_symbol
_atom_site_label
_atom_site_fract_x
_atom_site_fract_y
_atom_site_fract_z
Si Si1 0.833862 0.691362 0.236534
Si Si2 0.916642 0.314090 0.515198
Si Si3 0.306571 0.683190 0.527950
Si Si4 0.308387 0.810189 0.026687
Si Si5 0.350722 0.310207 0.849456
Si Si6 0.943538 0.188133 0.715587
Si Si7 0.274541 0.816222 0.707608
Si Si8 0.445832 0.190844 0.320009
O O1 0.828859 0.500000 0.246910
O O2 0.824235 0.730626 0.130340
O O3 0.786695 0.773062 0.291186
O O4 0.891263 0.740414 0.272466
O O5 0.927447 0.500000 0.526172
O O6 0.855142 0.284836 0.492451
O O7 0.927676 0.235279 0.612303
O O8 0.946993 0.254116 0.425942
O O9 0.312544 0.500000 0.503309
O O10 0.250000 0.750000 0.500000
O O11 0.305220 0.705794 0.636917
O O12 0.308457 0.000000 0.019489
O O13 0.250000 0.750000 0.000000
O O14 0.349263 0.737902 0.954670
O O15 0.344746 0.500000 0.841414
O O16 0.400997 0.257391 0.790211
O O17 0.300360 0.224217 0.804324
O O18 0.002013 0.254120 0.730115
O O19 0.944931 0.000000 0.720846
O O20 0.282369 0.000000 0.683838
O O21 0.445451 0.000000 0.323003
#
# Coordination Sequence:
#
# PCOD9215207 Si02
#       8
#     8   8   8   8   8   8   8   8
#     4  10  22  41  63  89 126 164 200 253 315 371
#     4  11  22  38  62  90 120 160 208 255 306 365
#     4  12  24  38  56  84 124 165 205 252 306 367
#     4  11  22  37  63  94 124 160 203 251 310 375
#     4  11  23  40  61  88 123 160 201 253 308 363
#     4  11  24  41  63  89 121 164 208 256 309 360
#     4  12  23  36  60  90 121 161 203 248 307 369
#     4  10  23  42  63  88 120 161 206 254 308 365
#
# _framework density 20.336020999999999
#
# number of rings (size 3 to 8) (size 9 to 14) (size 15 to 20)
#    0.000    1.000    2.500    4.875    0.000    6.000 
#    0.000    0.625    0.000    3.750    0.000    0.000 
#    0.000    0.000    0.000    0.000    0.000    0.000 
#
# Total GULP energy -178948.623211 kJ/mol
# GULP energy per Si atom -5592.144475 kJ/mol
# Density = 2.028974 g / cm^3
# Si number density = 20.336021 Si / 1000 Ang^3
#
#
#
# Elastic Constant Matrix: (Units=GPa)
#
#
# Indices 1 2 3 4 5 6 
#
# 1 127.4835 14.1747 32.2353 0.0000 -15.8863 0.0000
# 2 14.1747 28.9889 14.8824 0.0000 -2.0185 0.0000
# 3 32.2353 14.8824 84.1207 0.0000 -16.0843 0.0000
# 4 0.0000 0.0000 0.0000 24.5362 0.0000 -1.8793
# 5 -15.8863 -2.0185 -16.0843 0.0000 30.2197 0.0000
# 6 0.0000 0.0000 0.0000 -1.8793 0.0000 32.7790
#
#
#
# Elastic Compliance Matrix: (Units=1/GPa)
#
#
# Indices 1 2 3 4 5 6 
#
# 1 0.009197 -0.003063 -0.002335 0.000000 0.003388 0.000000
# 2 -0.003063 0.038998 -0.006163 0.000000 -0.002285 0.000000
# 3 -0.002335 -0.006163 0.015096 0.000000 0.006395 0.000000
# 4 0.000000 0.000000 0.000000 0.040936 0.000000 0.002347
# 5 0.003388 -0.002285 0.006395 0.000000 0.038123 0.000000
# 6 0.000000 0.000000 0.000000 0.002347 0.000000 0.030642
#
#
# Mechanical properties :
#
#
# Convention : Reuss Voigt Hill
#
# Bulk Modulus (GPa) = 24.89388 40.35309 32.62349
# Shear Modulus (GPa) = 23.86606 29.46037 26.66321
#
# Velocity S-wave (km/s) = 3.42948 3.81028 3.62488
# Velocity P-wave (km/s) = 5.28674 6.26449 5.79627
#
# Compressibility (1/GPa) = 0.04017052
#
# Stress axis : x y z
#
# Youngs Moduli (GPa) = 108.72860 25.64220 66.24469
#
# Poissons Ratio (x) = 0.07853 0.15467
# Poissons Ratio (y) = 0.33299 0.40825
# Poissons Ratio (z) = 0.25386 0.15803
#
# Static dielectric constant tensor:
#      x y z
#    x 1.732280 0.000000 0.008190 
#    y 0.000000 1.685120 0.000000 
#    z 0.008190 0.000000 1.771490 
# 
# From -- ./inp_files/238589.got.cif
#   From: 2010.05.17/outbox.cif.g08.bks.cpg/sg12_120_cif.got.tgz:238589.got - 2010.06.03 13:09:07.
