data_PCOD9215417
_publ_section_title
;
Structure prediction by ZEFSAII (Michael W. Deem and Ramdas Pophale) SiO2 
 PCOD9215417
Probable space group: C 2/M
;
_chemical_formula_sum "Si O2"
_cell_formula_units_Z 48
_cell_length_a 24.086462
_cell_length_b 18.001184
_cell_length_c 5.628448
_cell_angle_alpha 90.000000
_cell_angle_beta 112.715096
_cell_angle_gamma 90.000000
_cell_volume 2251.122686
_symmetry_space_group_name_H-M "C 2/M"
_symmetry_group_IT_number 12
_symmetry_cell_setting 'monoclinic'
loop_
_space_group_symop_operation_xyz
x,y,z
-x,y,-z
-x,-y,-z
x,-y,z
1/2+x,1/2+y,z
1/2-x,1/2+y,-z
1/2-x,1/2-y,-z
1/2+x,1/2-y,z
loop_
_atom_site_type_symbol
_atom_site_label
_atom_site_fract_x
_atom_site_fract_y
_atom_site_fract_z
Si Si1 0.869726 0.321105 0.759679
Si Si2 0.839856 0.579768 0.100334
Si Si3 0.626042 0.645852 0.252160
Si Si4 0.046459 0.416761 0.379578
Si Si5 0.741856 0.086510 0.640266
Si Si6 0.429123 0.588218 0.338744
O O1 0.873085 0.234745 0.721824
O O2 0.932233 0.361788 0.790572
O O3 0.810066 0.360176 0.549837
O O4 0.858161 0.344356 0.009129
O O5 0.845232 0.500000 0.974859
O O6 0.890032 0.573034 0.384190
O O7 0.774077 0.585732 0.105266
O O8 0.693370 0.616126 0.319538
O O9 0.602147 0.614558 0.465781
O O10 0.590815 0.624176 0.948125
O O11 0.025799 0.500000 0.276298
O O12 0.000000 0.387877 0.500000
O O13 0.736432 0.000000 0.559258
O O14 0.500000 0.600923 0.500000
O O15 0.418128 0.500000 0.295269
#
# Coordination Sequence:
#
# PCOD9215417 Si02
#       6
#     8   8   8   8   8   8
#     4  11  23  38  60  96 141 176 217 288 353 397
#     4   9  19  36  59  86 125 177 229 277 331 402
#     4  12  27  43  74 108 138 176 227 289 352 416
#     4   9  19  37  59  86 126 181 240 281 329 407
#     4  10  22  41  65  95 134 185 234 276 333 413
#     4  11  26  52  77 101 135 179 231 286 343 413
#
# _framework density 21.322695
#
# number of rings (size 3 to 8) (size 9 to 14) (size 15 to 20)
#    0.000    1.667    0.000    5.000    7.000    3.333 
#    3.000    2.500    0.000    0.000    0.000    0.000 
#    0.000    0.000    0.000    0.000    0.000    0.000 
#
# Total GULP energy -133695.596376 kJ/mol
# GULP energy per Si atom -5570.649849 kJ/mol
# Density = 2.127416 g / cm^3
# Si number density = 21.322695 Si / 1000 Ang^3
#
#
#
# Elastic Constant Matrix: (Units=GPa)
#
#
# Indices 1 2 3 4 5 6 
#
# 1 138.6214 42.5135 18.3233 0.0000 -18.5702 0.0000
# 2 42.5135 107.4785 21.6651 0.0000 -1.7125 0.0000
# 3 18.3233 21.6651 73.2960 0.0000 -1.2411 0.0000
# 4 0.0000 0.0000 0.0000 13.1406 0.0000 23.0907
# 5 -18.5702 -1.7125 -1.2411 0.0000 23.3896 0.0000
# 6 0.0000 0.0000 0.0000 23.0907 0.0000 -11.0366
#
#
#
# Elastic Compliance Matrix: (Units=1/GPa)
#
#
# Indices 1 2 3 4 5 6 
#
# 1 0.009354 -0.003338 -0.001231 0.000000 0.007117 0.000000
# 2 -0.003338 0.011093 -0.002478 0.000000 -0.001970 0.000000
# 3 -0.001231 -0.002478 0.014677 0.000000 -0.000380 0.000000
# 4 0.000000 0.000000 0.000000 0.016273 0.000000 0.034047
# 5 0.007117 -0.001970 -0.000380 0.000000 0.048240 0.000000
# 6 0.000000 0.000000 0.000000 0.034047 0.000000 -0.019375
#
#
# Mechanical properties :
#
#
# Convention : Reuss Voigt Hill
#
# Bulk Modulus (GPa) = 47.55259 53.82221 50.68740
# Shear Modulus (GPa) = 49.32654 20.89165 35.10909
#
# Velocity S-wave (km/s) = 4.81493 3.13355 4.06218
# Velocity P-wave (km/s) = 7.29803 6.19586 6.76941
#
# Compressibility (1/GPa) = 0.02102935
#
# Stress axis : x y z
#
# Youngs Moduli (GPa) = 106.90785 90.14904 68.13395
#
# Poissons Ratio (x) = 0.30095 0.08388
# Poissons Ratio (y) = 0.35690 0.16881
# Poissons Ratio (z) = 0.13161 0.22336
#
# Static dielectric constant tensor:
#      x y z
#    x 1.774430 0.000000 -0.059940 
#    y 0.000000 1.801250 0.000000 
#    z -0.059940 0.000000 1.923270 
# 
# From -- ./inp_files/25031.got.cif
#   From: 2010.05.17/outbox.cif.g08.bks.cpg/sg12_13_cif.got.tgz:25031.got - 2010.06.03 13:09:07.
