data_PCOD9215512
_publ_section_title
;
Structure prediction by ZEFSAII (Michael W. Deem and Ramdas Pophale) SiO2 
 PCOD9215512
Probable space group: C 2/M
;
_chemical_formula_sum "Si O2"
_cell_formula_units_Z 32
_cell_length_a 11.503107
_cell_length_b 23.419423
_cell_length_c 5.105780
_cell_angle_alpha 90.000000
_cell_angle_beta 73.671205
_cell_angle_gamma 90.000000
_cell_volume 1319.996271
_symmetry_space_group_name_H-M "C 2/M"
_symmetry_group_IT_number 12
_symmetry_cell_setting 'monoclinic'
loop_
_space_group_symop_operation_xyz
x,y,z
-x,y,-z
-x,-y,-z
x,-y,z
1/2+x,1/2+y,z
1/2-x,1/2+y,-z
1/2-x,1/2-y,-z
1/2+x,1/2-y,z
loop_
_atom_site_type_symbol
_atom_site_label
_atom_site_fract_x
_atom_site_fract_y
_atom_site_fract_z
Si Si1 0.630764 0.297529 0.998019
Si Si2 0.640154 0.400580 0.343898
Si Si3 0.212936 0.436422 0.234484
Si Si4 0.117770 0.319057 0.259179
O O1 0.655207 0.333958 0.246208
O O2 0.620063 0.229788 0.037776
O O3 0.500000 0.319824 0.000000
O O4 0.742861 0.310059 0.736024
O O5 0.500000 0.410902 0.500000
O O6 0.726330 0.421353 0.524425
O O7 0.683038 0.432223 0.052460
O O8 0.161898 0.500000 0.273327
O O9 0.118276 0.386758 0.210258
O O10 0.000000 0.304929 0.500000
#
# Coordination Sequence:
#
# PCOD9215512 Si02
#       4
#     8   8   8   8
#     4  10  22  41  67 102 136 167 216 280 340 398
#     4  11  22  40  68  98 132 173 219 277 340 394
#     4  11  25  42  62  94 134 178 227 272 319 388
#     4  10  23  40  66  97 134 178 221 269 334 397
#
# _framework density 24.242494000000001
#
# number of rings (size 3 to 8) (size 9 to 14) (size 15 to 20)
#    0.000    1.500    0.000    5.250    0.000   11.500 
#    0.000    0.000    0.000    8.250    0.000    0.000 
#    0.000    0.000    0.000    0.000    0.000    0.000 
#
# Total GULP energy -89239.559938 kJ/mol
# GULP energy per Si atom -5577.472496 kJ/mol
# Density = 2.418732 g / cm^3
# Si number density = 24.242494 Si / 1000 Ang^3
#
#
#
# Elastic Constant Matrix: (Units=GPa)
#
#
# Indices 1 2 3 4 5 6 
#
# 1 69.6969 16.3939 51.8596 0.0000 -25.7448 0.0000
# 2 16.3939 175.8524 26.2049 0.0000 5.8228 0.0000
# 3 51.8596 26.2049 118.7369 0.0000 -11.9730 0.0000
# 4 0.0000 0.0000 0.0000 1.0001 0.0000 -10.9796
# 5 -25.7448 5.8228 -11.9730 0.0000 62.9640 0.0000
# 6 0.0000 0.0000 0.0000 -10.9796 0.0000 -11.7366
#
#
#
# Elastic Compliance Matrix: (Units=1/GPa)
#
#
# Indices 1 2 3 4 5 6 
#
# 1 0.025078 -0.001152 -0.009843 0.000000 0.008489 0.000000
# 2 -0.001152 0.005973 -0.000936 0.000000 -0.001202 0.000000
# 3 -0.009843 -0.000936 0.012775 0.000000 -0.001509 0.000000
# 4 0.000000 0.000000 0.000000 0.088719 0.000000 -0.082997
# 5 0.008489 -0.001202 -0.001509 0.000000 0.019177 0.000000
# 6 0.000000 0.000000 0.000000 -0.082997 0.000000 -0.007560
#
#
# Mechanical properties :
#
#
# Convention : Reuss Voigt Hill
#
# Bulk Modulus (GPa) = 50.08920 61.46699 55.77810
# Shear Modulus (GPa) = 28.62352 28.43401 28.52877
#
# Velocity S-wave (km/s) = 3.43988 3.42848 3.43419
# Velocity P-wave (km/s) = 6.04017 6.40958 6.22761
#
# Compressibility (1/GPa) = 0.01996438
#
# Stress axis : x y z
#
# Youngs Moduli (GPa) = 39.87483 167.41160 78.27484
#
# Poissons Ratio (x) = 0.19290 0.77046
# Poissons Ratio (y) = 0.04595 0.07328
# Poissons Ratio (z) = 0.39249 0.15673
#
# Static dielectric constant tensor:
#      x y z
#    x 1.975780 0.000000 0.000940 
#    y 0.000000 2.006640 0.000000 
#    z 0.000940 0.000000 1.932800 
# 
# From -- ./inp_files/11086.got.cif
#   From: 2010.05.17/outbox.cif.g08.bks.cpg/sg12_6_cif.got.tgz:11086.got - 2010.06.03 13:09:07.
