data_PCOD9215083
_publ_section_title
;
Structure prediction by ZEFSAII (Michael W. Deem and Ramdas Pophale) SiO2 
 PCOD9215083
Probable space group: C 2/M
;
_chemical_formula_sum "Si O2"
_cell_formula_units_Z 48
_cell_length_a 18.215809
_cell_length_b 18.644569
_cell_length_c 15.007733
_cell_angle_alpha 90.000000
_cell_angle_beta 151.864776
_cell_angle_gamma 90.000000
_cell_volume 2403.518302
_symmetry_space_group_name_H-M "C 2/M"
_symmetry_group_IT_number 12
_symmetry_cell_setting 'monoclinic'
loop_
_space_group_symop_operation_xyz
x,y,z
-x,y,-z
-x,-y,-z
x,-y,z
1/2+x,1/2+y,z
1/2-x,1/2+y,-z
1/2-x,1/2-y,-z
1/2+x,1/2-y,z
loop_
_atom_site_type_symbol
_atom_site_label
_atom_site_fract_x
_atom_site_fract_y
_atom_site_fract_z
Si Si1 0.139466 0.000000 0.812637
Si Si2 0.234057 0.272410 0.681022
Si Si3 0.207717 0.000000 0.522701
Si Si4 0.600078 0.215669 0.735825
Si Si5 0.028991 0.000000 0.886024
Si Si6 0.703974 0.853574 0.012886
Si Si7 0.500000 0.380941 0.000000
Si Si8 0.089050 0.371436 0.181784
O O1 0.143307 0.000000 0.924713
O O2 0.225333 0.927852 0.876902
O O3 0.954800 0.000000 0.594815
O O4 0.166273 0.285687 0.707191
O O5 0.304330 0.193641 0.740011
O O6 0.085761 0.283356 0.459944
O O7 0.369759 0.329940 0.818518
O O8 0.309475 0.069445 0.657513
O O9 0.138721 0.000000 0.347116
O O10 0.659345 0.151588 0.861349
O O11 0.667601 0.291654 0.841001
O O12 0.050966 0.932286 0.973747
O O13 0.546568 0.839726 0.899867
O O14 0.000000 0.402829 0.000000
#
# Coordination Sequence:
#
# PCOD9215083 Si02
#       8
#     4   8   4   8   4   8   4   8
#     4  10  22  41  60  88 122 162 209 257 305 375
#     4  11  22  41  64  96 126 162 208 264 318 374
#     4  10  25  42  62  93 127 171 215 254 314 384
#     4  10  23  39  63  93 128 163 208 255 319 379
#     4   9  24  41  65  89 128 166 215 257 317 373
#     4  11  22  41  63  90 126 170 206 260 313 373
#     4  11  20  42  68  93 126 166 210 267 318 368
#     4  12  23  42  64  94 128 164 211 266 315 373
#
# _framework density 19.970724000000001
#
# number of rings (size 3 to 8) (size 9 to 14) (size 15 to 20)
#    0.500    0.833    2.500    2.750    2.333    2.000 
#    0.000    0.833    0.000    4.000    0.000    0.000 
#    0.000    0.000    0.000    0.000    0.000    0.000 
#
# Total GULP energy -133842.131973 kJ/mol
# GULP energy per Si atom -5576.755499 kJ/mol
# Density = 1.992527 g / cm^3
# Si number density = 19.970724 Si / 1000 Ang^3
#
#
#
# Elastic Constant Matrix: (Units=GPa)
#
#
# Indices 1 2 3 4 5 6 
#
# 1 42.3879 -7.5817 2.1368 0.0000 5.5390 0.0000
# 2 -7.5817 85.7500 36.2588 0.0000 9.3274 0.0000
# 3 2.1368 36.2588 98.1032 0.0000 13.0126 0.0000
# 4 0.0000 0.0000 0.0000 31.7405 0.0000 -0.7779
# 5 5.5390 9.3274 13.0126 0.0000 31.3885 0.0000
# 6 0.0000 0.0000 0.0000 -0.7779 0.0000 13.8037
#
#
#
# Elastic Compliance Matrix: (Units=1/GPa)
#
#
# Indices 1 2 3 4 5 6 
#
# 1 0.024853 0.003181 -0.001069 0.000000 -0.004888 0.000000
# 2 0.003181 0.014362 -0.005012 0.000000 -0.002751 0.000000
# 3 -0.001069 -0.005012 0.012536 0.000000 -0.003519 0.000000
# 4 0.000000 0.000000 0.000000 0.031549 0.000000 0.001778
# 5 -0.004888 -0.002751 -0.003519 0.000000 0.034998 0.000000
# 6 0.000000 0.000000 0.000000 0.001778 0.000000 0.072545
#
#
# Mechanical properties :
#
#
# Convention : Reuss Voigt Hill
#
# Bulk Modulus (GPa) = 21.76247 31.98544 26.87396
# Shear Modulus (GPa) = 23.58940 28.41501 26.00220
#
# Velocity S-wave (km/s) = 3.44059 3.77614 3.61226
# Velocity P-wave (km/s) = 5.16763 5.92142 5.55732
#
# Compressibility (1/GPa) = 0.04595066
#
# Stress axis : x y z
#
# Youngs Moduli (GPa) = 40.23625 69.62919 79.77041
#
# Poissons Ratio (x) = -0.22149 0.08525
# Poissons Ratio (y) = -0.12799 0.39985
# Poissons Ratio (z) = 0.04300 0.34901
#
# Static dielectric constant tensor:
#      x y z
#    x 1.714240 0.000000 -0.017120 
#    y 0.000000 1.668500 0.000000 
#    z -0.017120 0.000000 1.718060 
# 
# From -- ./inp_files/226980.got.cif
#   From: 2010.05.17/outbox.cif.g08.bks.cpg/sg12_114_cif.got.tgz:226980.got - 2010.06.03 13:09:07.
