data_PCOD9215089
_publ_section_title
;
Structure prediction by ZEFSAII (Michael W. Deem and Ramdas Pophale) SiO2 
 PCOD9215089
Probable space group: C 2/M
;
_chemical_formula_sum "Si O2"
_cell_formula_units_Z 40
_cell_length_a 24.904500
_cell_length_b 9.814451
_cell_length_c 12.323973
_cell_angle_alpha 90.000000
_cell_angle_beta 141.779124
_cell_angle_gamma 90.000000
_cell_volume 1863.678356
_symmetry_space_group_name_H-M "C 2/M"
_symmetry_group_IT_number 12
_symmetry_cell_setting 'monoclinic'
loop_
_space_group_symop_operation_xyz
x,y,z
-x,y,-z
-x,-y,-z
x,-y,z
1/2+x,1/2+y,z
1/2-x,1/2+y,-z
1/2-x,1/2-y,-z
1/2+x,1/2-y,z
loop_
_atom_site_type_symbol
_atom_site_label
_atom_site_fract_x
_atom_site_fract_y
_atom_site_fract_z
Si Si1 0.816311 0.791057 0.299411
Si Si2 0.742263 0.000000 0.733139
Si Si3 0.590122 0.706028 0.325505
Si Si4 0.059489 0.000000 0.905439
Si Si5 0.267244 0.500000 0.526203
Si Si6 0.093167 0.000000 0.704154
Si Si7 0.020729 0.500000 0.159735
Si Si8 0.176770 0.500000 0.152515
O O1 0.795321 0.632251 0.266945
O O2 0.882291 0.815031 0.505074
O O3 0.727926 0.869050 0.189222
O O4 0.855739 0.866575 0.258034
O O5 0.724670 0.000000 0.576406
O O6 0.846317 0.000000 0.894876
O O7 0.501055 0.627000 0.160683
O O8 0.668968 0.631648 0.386963
O O9 0.569641 0.861861 0.268898
O O10 0.078612 0.000000 0.808000
O O11 0.199335 0.500000 0.317891
O O12 0.000000 0.000000 0.500000
O O13 0.921259 0.500000 0.044552
O O14 0.000000 0.500000 0.000000
#
# Coordination Sequence:
#
# PCOD9215089 Si02
#       8
#     8   4   8   4   4   4   4   4
#     4  10  22  41  67  87 124 160 216 250 311 378
#     4  12  25  37  57  98 128 157 197 275 303 355
#     4  10  22  41  60  96 120 170 214 246 299 378
#     4  11  23  41  71  87 123 162 212 264 311 365
#     4   9  23  40  63  79 130 178 212 232 305 379
#     4  11  20  46  73  89 110 169 210 258 322 379
#     4  12  26  34  59  94 138 163 203 256 300 343
#     4   9  21  41  57  88 123 177 204 247 300 376
#
# _framework density 21.462928999999999
#
# number of rings (size 3 to 8) (size 9 to 14) (size 15 to 20)
#    0.000    1.600    2.000    3.000    8.400    3.200 
#    0.000    1.500    0.000    0.000    0.000    0.000 
#    0.000    0.000    0.000    0.000    0.000    0.000 
#
# Total GULP energy -111837.336415 kJ/mol
# GULP energy per Si atom -5591.866821 kJ/mol
# Density = 2.141408 g / cm^3
# Si number density = 21.462929 Si / 1000 Ang^3
#
#
#
# Elastic Constant Matrix: (Units=GPa)
#
#
# Indices 1 2 3 4 5 6 
#
# 1 74.4475 51.2174 10.3828 0.0000 6.4891 0.0000
# 2 51.2174 194.6126 34.1098 0.0000 21.3121 0.0000
# 3 10.3828 34.1098 97.8442 0.0000 26.7405 0.0000
# 4 0.0000 0.0000 0.0000 44.0374 0.0000 -16.8216
# 5 6.4891 21.3121 26.7405 0.0000 31.1532 0.0000
# 6 0.0000 0.0000 0.0000 -16.8216 0.0000 26.1590
#
#
#
# Elastic Compliance Matrix: (Units=1/GPa)
#
#
# Indices 1 2 3 4 5 6 
#
# 1 0.016411 -0.004250 -0.000157 0.000000 -0.000376 0.000000
# 2 -0.004250 0.006760 -0.001155 0.000000 -0.002748 0.000000
# 3 -0.000157 -0.001155 0.013607 0.000000 -0.010857 0.000000
# 4 0.000000 0.000000 0.000000 0.030102 0.000000 0.019357
# 5 -0.000376 -0.002748 -0.010857 0.000000 0.043377 0.000000
# 6 0.000000 0.000000 0.000000 0.019357 0.000000 0.050675
#
#
# Mechanical properties :
#
#
# Convention : Reuss Voigt Hill
#
# Bulk Modulus (GPa) = 38.98003 62.03601 50.50802
# Shear Modulus (GPa) = 27.68436 38.34956 33.01696
#
# Velocity S-wave (km/s) = 3.59537 4.23162 3.92640
# Velocity P-wave (km/s) = 5.95286 7.26925 6.64374
#
# Compressibility (1/GPa) = 0.02565416
#
# Stress axis : x y z
#
# Youngs Moduli (GPa) = 60.93472 147.92163 73.49374
#
# Poissons Ratio (x) = 0.62871 0.01154
# Poissons Ratio (y) = 0.25899 0.08485
# Poissons Ratio (z) = 0.00957 0.17079
#
# Static dielectric constant tensor:
#      x y z
#    x 1.786890 0.000000 0.004640 
#    y 0.000000 1.811820 0.000000 
#    z 0.004640 0.000000 1.822590 
# 
# From -- ./inp_files/250290.got.cif
#   From: 2010.05.17/outbox.cif.g08.bks.cpg/sg12_126_cif.got.tgz:250290.got - 2010.06.03 13:09:07.
