data_PCOD9215055
_publ_section_title
;
Structure prediction by ZEFSAII (Michael W. Deem and Ramdas Pophale) SiO2 
 PCOD9215055
Probable space group: C 2/M
;
_chemical_formula_sum "Si O2"
_cell_formula_units_Z 56
_cell_length_a 14.181703
_cell_length_b 17.661176
_cell_length_c 18.329397
_cell_angle_alpha 90.000000
_cell_angle_beta 140.946593
_cell_angle_gamma 90.000000
_cell_volume 2892.460379
_symmetry_space_group_name_H-M "C 2/M"
_symmetry_group_IT_number 12
_symmetry_cell_setting 'monoclinic'
loop_
_space_group_symop_operation_xyz
x,y,z
-x,y,-z
-x,-y,-z
x,-y,z
1/2+x,1/2+y,z
1/2-x,1/2+y,-z
1/2-x,1/2-y,-z
1/2+x,1/2-y,z
loop_
_atom_site_type_symbol
_atom_site_label
_atom_site_fract_x
_atom_site_fract_y
_atom_site_fract_z
Si Si1 0.379465 0.849454 0.629693
Si Si2 0.856581 0.000000 0.311669
Si Si3 0.207296 0.000000 0.558886
Si Si4 0.873434 0.840332 0.259561
Si Si5 0.067385 0.714988 0.121445
Si Si6 0.636263 0.319516 0.917938
Si Si7 0.407056 0.090940 0.125115
Si Si8 0.396565 0.257589 0.508216
O O1 0.531760 0.869414 0.763896
O O2 0.397196 0.815986 0.559823
O O3 0.271760 0.788190 0.606276
O O4 0.288764 0.926826 0.577681
O O5 0.822394 0.925196 0.246192
O O6 0.782226 0.000000 0.346641
O O7 0.033915 0.000000 0.434299
O O8 0.744351 0.788551 0.216721
O O9 0.889771 0.828319 0.183591
O O10 0.024014 0.820629 0.392907
O O11 0.010175 0.789785 0.128808
O O12 0.002631 0.639238 0.122581
O O13 0.000000 0.715381 0.000000
O O14 0.750000 0.250000 0.000000
O O15 0.732523 0.389916 0.006004
O O16 0.431198 0.000000 0.138821
O O17 0.500000 0.250171 0.500000
#
# Coordination Sequence:
#
# PCOD9215055 Si02
#       8
#     8   4   4   8   8   8   8   8
#     4  11  23  39  63  93 122 162 203 247 310 365
#     4  11  24  34  64  93 127 159 184 254 315 377
#     4  11  20  44  56  88 133 159 189 245 325 359
#     4  12  23  38  63  92 126 154 202 248 307 365
#     4  11  22  37  59  89 118 161 198 244 299 355
#     4  10  22  41  56  88 122 162 195 247 304 348
#     4  11  22  38  62  88 125 160 197 249 306 366
#     4  11  23  40  63  92 120 163 208 253 297 367
#
# _framework density 19.360679999999999
#
# number of rings (size 3 to 8) (size 9 to 14) (size 15 to 20)
#    0.000    1.000    5.000    4.286    2.000    1.429 
#    0.000    0.357    0.000    0.429    1.857    0.000 
#    0.000    0.000    0.000    0.000    0.000    0.000 
#
# Total GULP energy -156358.144312 kJ/mol
# GULP energy per Si atom -5584.219440 kJ/mol
# Density = 1.931661 g / cm^3
# Si number density = 19.360680 Si / 1000 Ang^3
#
#
#
# Elastic Constant Matrix: (Units=GPa)
#
#
# Indices 1 2 3 4 5 6 
#
# 1 79.7159 56.0867 43.1563 -0.0004 -21.0993 -0.0002
# 2 56.0867 102.8145 32.8512 -0.0004 -19.1672 -0.0002
# 3 43.1563 32.8512 72.7397 -0.0010 -9.4111 -0.0006
# 4 -0.0004 -0.0004 -0.0010 28.5441 -0.0004 6.8315
# 5 -21.0993 -19.1672 -9.4111 -0.0004 34.0766 -0.0002
# 6 -0.0002 -0.0002 -0.0006 6.8315 -0.0002 15.4043
#
#
#
# Elastic Compliance Matrix: (Units=1/GPa)
#
#
# Indices 1 2 3 4 5 6 
#
# 1 0.027754 -0.010100 -0.010803 0.000000 0.008520 0.000000
# 2 -0.010100 0.015990 -0.000907 0.000000 0.002490 0.000000
# 3 -0.010803 -0.000907 0.020363 0.000000 -0.001575 0.000000
# 4 0.000000 0.000000 0.000000 0.039193 0.000001 -0.017382
# 5 0.008520 0.002490 -0.001575 0.000001 0.035586 0.000000
# 6 0.000000 0.000000 0.000000 -0.017382 0.000000 0.072626
#
#
# Mechanical properties :
#
#
# Convention : Reuss Voigt Hill
#
# Bulk Modulus (GPa) = 48.81102 57.71764 53.26433
# Shear Modulus (GPa) = 19.08675 23.81672 21.45174
#
# Velocity S-wave (km/s) = 3.14323 3.51117 3.33228
# Velocity P-wave (km/s) = 6.19995 6.80546 6.50975
#
# Compressibility (1/GPa) = 0.02048718
#
# Stress axis : x y z
#
# Youngs Moduli (GPa) = 36.03022 62.53891 49.10952
#
# Poissons Ratio (x) = 0.63167 0.53052
# Poissons Ratio (y) = 0.36392 0.04454
# Poissons Ratio (z) = 0.38922 0.05672
#
# Static dielectric constant tensor:
#      x y z
#    x 1.693240 0.000000 0.042820 
#    y 0.000000 1.688790 0.000000 
#    z 0.042820 0.000000 1.750830 
# 
# From -- ./inp_files/271478.got.cif
#   From: 2010.05.17/outbox.cif.g08.bks.cpg/sg12_136_cif.got.tgz:271478.got - 2010.06.03 13:09:07.
