data_PCOD9215279
_publ_section_title
;
Structure prediction by ZEFSAII (Michael W. Deem and Ramdas Pophale) SiO2 
 PCOD9215279
Probable space group: C 2/M
;
_chemical_formula_sum "Si O2"
_cell_formula_units_Z 44
_cell_length_a 21.491500
_cell_length_b 17.049926
_cell_length_c 12.892934
_cell_angle_alpha 90.000000
_cell_angle_beta 22.115036
_cell_angle_gamma 90.000000
_cell_volume 1778.559330
_symmetry_space_group_name_H-M "C 2/M"
_symmetry_group_IT_number 12
_symmetry_cell_setting 'monoclinic'
loop_
_space_group_symop_operation_xyz
x,y,z
-x,y,-z
-x,-y,-z
x,-y,z
1/2+x,1/2+y,z
1/2-x,1/2+y,-z
1/2-x,1/2-y,-z
1/2+x,1/2-y,z
loop_
_atom_site_type_symbol
_atom_site_label
_atom_site_fract_x
_atom_site_fract_y
_atom_site_fract_z
Si Si1 0.250012 0.310160 0.802398
Si Si2 0.246756 0.415865 0.989403
Si Si3 0.348579 0.408027 0.448209
Si Si4 0.903603 0.307808 0.252178
Si Si5 0.910505 0.500000 0.456417
Si Si6 0.205085 0.133447 0.847933
O O1 0.318452 0.366429 0.606078
O O2 0.283632 0.219753 0.724061
O O3 0.305640 0.344584 0.826822
O O4 0.049233 0.313182 0.109329
O O5 0.333183 0.500000 0.833839
O O6 0.258633 0.399466 0.092441
O O7 0.056492 0.434229 0.256414
O O8 0.377892 0.500000 0.414307
O O9 0.181488 0.391057 0.642287
O O10 0.506155 0.367382 0.151622
O O11 0.750000 0.250000 0.500000
O O12 0.000000 0.282581 0.000000
O O13 0.772969 0.570116 0.663798
#
# Coordination Sequence:
#
# PCOD9215279 Si02
#       6
#     8   8   8   8   4   8
#     4  11  25  39  67  94 128 166 221 262 322 390
#     4  10  22  41  64  90 127 170 212 258 323 385
#     4  11  24  42  67  94 128 170 211 268 329 379
#     4  10  22  43  66  92 129 170 215 270 324 383
#     4  10  23  42  66  85 132 175 214 256 327 382
#     4  12  21  41  64  93 126 170 214 265 320 384
#
# _framework density 24.739124
#
# number of rings (size 3 to 8) (size 9 to 14) (size 15 to 20)
#    0.545    0.727    3.636    2.182    2.545    4.727 
#    3.273    1.818    0.000    1.636    0.000    0.000 
#    0.000    0.000    0.000    0.000    0.000    0.000 
#
# Total GULP energy -122521.563260 kJ/mol
# GULP energy per Si atom -5569.161966 kJ/mol
# Density = 2.468282 g / cm^3
# Si number density = 24.739124 Si / 1000 Ang^3
#
#
#
# Elastic Constant Matrix: (Units=GPa)
#
#
# Indices 1 2 3 4 5 6 
#
# 1 43.8024 23.4288 0.5181 -0.0009 17.1266 -0.0009
# 2 23.4288 160.8396 9.2348 0.0000 14.7142 -0.0004
# 3 0.5181 9.2348 100.4758 0.0003 3.1797 0.0015
# 4 -0.0009 0.0000 0.0003 25.4419 0.0014 -2.6614
# 5 17.1266 14.7142 3.1797 0.0014 19.3568 -0.0007
# 6 -0.0009 -0.0004 0.0015 -2.6614 -0.0007 33.1112
#
#
#
# Elastic Compliance Matrix: (Units=1/GPa)
#
#
# Indices 1 2 3 4 5 6 
#
# 1 0.035909 -0.002543 0.000998 0.000003 -0.030003 0.000000
# 2 -0.002543 0.006883 -0.000528 0.000000 -0.002895 0.000000
# 3 0.000998 -0.000528 0.010064 0.000000 -0.002135 0.000000
# 4 0.000003 0.000000 0.000000 0.039638 -0.000005 0.003186
# 5 -0.030003 -0.002895 -0.002135 -0.000005 0.080759 0.000001
# 6 0.000000 0.000000 0.000000 0.003186 0.000001 0.030457
#
#
# Mechanical properties :
#
#
# Convention : Reuss Voigt Hill
#
# Bulk Modulus (GPa) = 20.52981 41.27569 30.90275
# Shear Modulus (GPa) = 22.31215 33.71107 28.01161
#
# Velocity S-wave (km/s) = 3.00642 3.69543 3.36859
# Velocity P-wave (km/s) = 4.51309 5.91007 5.25818
#
# Compressibility (1/GPa) = 0.04870965
#
# Stress axis : x y z
#
# Youngs Moduli (GPa) = 27.84795 145.28513 99.36826
#
# Poissons Ratio (x) = 0.36950 -0.09918
# Poissons Ratio (y) = 0.07083 0.05245
# Poissons Ratio (z) = -0.02779 0.07669
#
# Static dielectric constant tensor:
#      x y z
#    x 1.986260 0.000000 -0.001770 
#    y 0.000000 1.981050 0.000000 
#    z -0.001770 0.000000 1.976400 
# 
# From -- ./inp_files/241383.got.cif
#   From: 2010.05.17/outbox.cif.g08.bks.cpg/sg12_121_cif.got.tgz:241383.got - 2010.06.03 13:09:07.
