data_PCOD9215150
_publ_section_title
;
Structure prediction by ZEFSAII (Michael W. Deem and Ramdas Pophale) SiO2 
 PCOD9215150
Probable space group: C 2/M
;
_chemical_formula_sum "Si O2"
_cell_formula_units_Z 36
_cell_length_a 16.324873
_cell_length_b 10.013403
_cell_length_c 13.580002
_cell_angle_alpha 90.000000
_cell_angle_beta 125.012327
_cell_angle_gamma 90.000000
_cell_volume 1818.152969
_symmetry_space_group_name_H-M "C 2/M"
_symmetry_group_IT_number 12
_symmetry_cell_setting 'monoclinic'
loop_
_space_group_symop_operation_xyz
x,y,z
-x,y,-z
-x,-y,-z
x,-y,z
1/2+x,1/2+y,z
1/2-x,1/2+y,-z
1/2-x,1/2-y,-z
1/2+x,1/2-y,z
loop_
_atom_site_type_symbol
_atom_site_label
_atom_site_fract_x
_atom_site_fract_y
_atom_site_fract_z
Si Si1 0.790361 0.214192 0.827091
Si Si2 0.926238 0.000000 0.238524
Si Si3 0.252575 0.500000 0.969402
Si Si4 0.564741 0.500000 0.144635
Si Si5 0.560288 0.774804 0.641679
Si Si6 0.479408 0.000000 0.229069
Si Si7 0.607584 0.000000 0.126993
O O1 0.783514 0.131696 0.926241
O O2 0.678617 0.201611 0.708503
O O3 0.832037 0.364624 0.857345
O O4 0.866402 0.129832 0.813588
O O5 0.945104 0.872359 0.317896
O O6 0.997382 0.000000 0.193273
O O7 0.816750 0.000000 0.112529
O O8 0.132326 0.500000 0.897717
O O9 0.500000 0.500000 0.000000
O O10 0.500000 0.791923 0.500000
O O11 0.521030 0.873464 0.699063
O O12 0.570542 0.000000 0.215589
O O13 0.500000 0.000000 0.000000
#
# Coordination Sequence:
#
# PCOD9215150 Si02
#       7
#     8   4   4   4   8   4   4
#     4  10  22  41  62  91 130 164 200 254 317 367
#     4  12  23  39  67  92 127 160 218 251 309 369
#     4   9  22  40  63  92 122 173 201 245 315 391
#     4  11  20  41  63  93 130 164 198 243 328 394
#     4  11  25  45  65  88 124 172 219 255 292 362
#     4  10  24  42  65  93 127 163 205 257 319 365
#     4  12  25  35  61 102 136 148 195 266 328 366
#
# _framework density 19.800312999999999
#
# number of rings (size 3 to 8) (size 9 to 14) (size 15 to 20)
#    0.000    1.333    2.222    4.000    6.222    1.778 
#    0.000    6.667    0.000    0.000    0.000    0.000 
#    0.000    0.000    0.000    0.000    0.000    0.000 
#
# Total GULP energy -100638.699916 kJ/mol
# GULP energy per Si atom -5591.038884 kJ/mol
# Density = 1.975525 g / cm^3
# Si number density = 19.800313 Si / 1000 Ang^3
#
#
#
# Elastic Constant Matrix: (Units=GPa)
#
#
# Indices 1 2 3 4 5 6 
#
# 1 124.5440 43.1230 29.7360 0.0000 2.3891 0.0000
# 2 43.1230 158.2371 33.4508 0.0000 1.8382 0.0000
# 3 29.7360 33.4508 73.4562 0.0000 6.2833 0.0000
# 4 0.0000 0.0000 0.0000 29.7528 0.0000 14.2128
# 5 2.3891 1.8382 6.2833 0.0000 19.6388 0.0000
# 6 0.0000 0.0000 0.0000 14.2128 0.0000 45.2190
#
#
#
# Elastic Compliance Matrix: (Units=1/GPa)
#
#
# Indices 1 2 3 4 5 6 
#
# 1 0.009400 -0.001945 -0.002917 0.000000 -0.000028 0.000000
# 2 -0.001945 0.007398 -0.002614 0.000000 0.000381 0.000000
# 3 -0.002917 -0.002614 0.016382 0.000000 -0.004642 0.000000
# 4 0.000000 0.000000 0.000000 0.039548 0.000000 -0.012430
# 5 -0.000028 0.000381 -0.004642 0.000000 0.052373 0.000000
# 6 0.000000 0.000000 0.000000 -0.012430 0.000000 0.026022
#
#
# Mechanical properties :
#
#
# Convention : Reuss Voigt Hill
#
# Bulk Modulus (GPa) = 54.86211 63.20633 59.03422
# Shear Modulus (GPa) = 29.04454 35.58395 32.31425
#
# Velocity S-wave (km/s) = 3.83413 4.24387 4.04419
# Velocity P-wave (km/s) = 6.88249 7.48365 7.18936
#
# Compressibility (1/GPa) = 0.01822752
#
# Stress axis : x y z
#
# Youngs Moduli (GPa) = 106.38709 135.17559 61.04283
#
# Poissons Ratio (x) = 0.26286 0.17807
# Poissons Ratio (y) = 0.20688 0.15958
# Poissons Ratio (z) = 0.31035 0.35337
#
# Static dielectric constant tensor:
#      x y z
#    x 1.698440 0.000000 0.004940 
#    y 0.000000 1.695810 0.000000 
#    z 0.004940 0.000000 1.668610 
# 
# From -- ./inp_files/220531.got.cif
#   From: 2010.05.17/outbox.cif.g08.bks.cpg/sg12_111_cif.got.tgz:220531.got - 2010.06.03 13:09:07.
