data_PCOD9215856
_publ_section_title
;
Structure prediction by ZEFSAII (Michael W. Deem and Ramdas Pophale) SiO2 
 PCOD9215856
Probable space group: C 2/M
;
_chemical_formula_sum "Si O2"
_cell_formula_units_Z 48
_cell_length_a 8.459889
_cell_length_b 21.526509
_cell_length_c 20.286469
_cell_angle_alpha 90.000000
_cell_angle_beta 140.690931
_cell_angle_gamma 90.000000
_cell_volume 2340.419178
_symmetry_space_group_name_H-M "C 2/M"
_symmetry_group_IT_number 12
_symmetry_cell_setting 'monoclinic'
loop_
_space_group_symop_operation_xyz
x,y,z
-x,y,-z
-x,-y,-z
x,-y,z
1/2+x,1/2+y,z
1/2-x,1/2+y,-z
1/2-x,1/2-y,-z
1/2+x,1/2-y,z
loop_
_atom_site_type_symbol
_atom_site_label
_atom_site_fract_x
_atom_site_fract_y
_atom_site_fract_z
Si Si1 0.891637 0.568185 0.180319
Si Si2 0.773537 0.805018 0.560865
Si Si3 0.443164 0.319835 0.879939
Si Si4 0.036663 0.071110 0.590440
Si Si5 0.606128 0.709197 0.792375
Si Si6 0.960026 0.383942 0.061740
O O1 0.809434 0.500000 0.174569
O O2 0.706135 0.618700 0.149467
O O3 0.897505 0.572433 0.102737
O O4 0.171979 0.578709 0.296989
O O5 0.500000 0.818670 0.500000
O O6 0.750000 0.750000 0.500000
O O7 0.890554 0.869686 0.572450
O O8 0.942536 0.779944 0.675411
O O9 0.435198 0.303000 0.800298
O O10 0.296903 0.265045 0.869104
O O11 0.733615 0.333866 0.987112
O O12 0.000000 0.072802 0.500000
O O13 0.964977 0.000000 0.589237
O O14 0.782773 0.650180 0.838084
O O15 0.000000 0.408885 0.000000
#
# Coordination Sequence:
#
# PCOD9215856 Si02
#       6
#     8   8   8   8   8   8
#     4  11  24  44  67  94 132 176 220 269 324 388
#     4  12  26  41  69 101 134 170 215 277 334 388
#     4  11  24  38  67  95 131 174 216 265 324 392
#     4  10  24  46  70  94 130 176 221 268 329 399
#     4  11  23  42  63  97 135 168 215 272 330 393
#     4  10  22  42  66  98 131 171 217 270 328 390
#
# _framework density 20.509146000000001
#
# number of rings (size 3 to 8) (size 9 to 14) (size 15 to 20)
#    0.000    1.167    1.667    3.500    7.000    4.667 
#    0.000    3.333    0.000    0.000    0.000    0.000 
#    0.000    0.000    0.000    0.000    0.000    0.000 
#
# Total GULP energy -134116.742368 kJ/mol
# GULP energy per Si atom -5588.197599 kJ/mol
# Density = 2.046247 g / cm^3
# Si number density = 20.509146 Si / 1000 Ang^3
#
#
#
# Elastic Constant Matrix: (Units=GPa)
#
#
# Indices 1 2 3 4 5 6 
#
# 1 119.8093 58.1611 34.4583 0.0002 -4.4227 0.0001
# 2 58.1611 83.1839 2.7193 0.0000 3.3767 0.0000
# 3 34.4583 2.7193 113.9334 0.0001 -18.2457 0.0000
# 4 0.0002 0.0000 0.0001 1.4217 0.0001 -8.6599
# 5 -4.4227 3.3767 -18.2457 0.0001 31.6665 0.0000
# 6 0.0001 0.0000 0.0000 -8.6599 0.0000 21.7201
#
#
#
# Elastic Compliance Matrix: (Units=1/GPa)
#
#
# Indices 1 2 3 4 5 6 
#
# 1 0.014337 -0.009925 -0.003976 0.000001 0.000770 0.000000
# 2 -0.009925 0.018976 0.002207 -0.000001 -0.002138 0.000000
# 3 -0.003976 0.002207 0.010796 0.000000 0.005430 0.000000
# 4 0.000001 -0.000001 0.000000 -0.492360 0.000002 -0.196305
# 5 0.000770 -0.002138 0.005430 0.000002 0.035043 0.000001
# 6 0.000000 0.000000 0.000000 -0.196305 0.000001 -0.032227
#
#
# Mechanical properties :
#
#
# Convention : Reuss Voigt Hill
#
# Bulk Modulus (GPa) = 48.26319 56.40043 52.33181
# Shear Modulus (GPa) = -12.04416 25.73418 6.84501
#
# Velocity S-wave (km/s) = -2.42597 3.54611 1.82888
# Velocity P-wave (km/s) = 3.96693 6.65781 5.48009
#
# Compressibility (1/GPa) = 0.02071972
#
# Stress axis : x y z
#
# Youngs Moduli (GPa) = 69.75088 52.69842 92.62286
#
# Poissons Ratio (x) = 0.52305 0.36826
# Poissons Ratio (y) = 0.69230 -0.20437
# Poissons Ratio (z) = 0.27732 -0.11628
#
# Static dielectric constant tensor:
#      x y z
#    x 1.734650 0.000000 -0.017690 
#    y 0.000000 1.722710 0.000000 
#    z -0.017690 0.000000 1.723590 
# 
# From -- ./inp_files/301841.got.cif
#   From: 2010.05.17/outbox.cif.g08.bks.cpg/sg12_151_cif.got.tgz:301841.got - 2010.06.03 13:09:07.
