data_PCOD9215339
_publ_section_title
;
Structure prediction by ZEFSAII (Michael W. Deem and Ramdas Pophale) SiO2 
 PCOD9215339
Probable space group: C 2/M
;
_chemical_formula_sum "Si O2"
_cell_formula_units_Z 48
_cell_length_a 19.868519
_cell_length_b 7.788652
_cell_length_c 14.269949
_cell_angle_alpha 90.000000
_cell_angle_beta 85.284987
_cell_angle_gamma 90.000000
_cell_volume 2200.787045
_symmetry_space_group_name_H-M "C 2/M"
_symmetry_group_IT_number 12
_symmetry_cell_setting 'monoclinic'
loop_
_space_group_symop_operation_xyz
x,y,z
-x,y,-z
-x,-y,-z
x,-y,z
1/2+x,1/2+y,z
1/2-x,1/2+y,-z
1/2-x,1/2-y,-z
1/2+x,1/2-y,z
loop_
_atom_site_type_symbol
_atom_site_label
_atom_site_fract_x
_atom_site_fract_y
_atom_site_fract_z
Si Si1 0.213323 0.203392 0.407427
Si Si2 0.480862 0.687881 0.226986
Si Si3 0.392536 0.208464 0.072639
Si Si4 0.606585 0.000000 0.433595
Si Si5 0.458062 0.000000 0.359681
Si Si6 0.615730 0.799567 0.141529
Si Si7 0.239319 0.294561 0.798756
O O1 0.250000 0.250000 0.500000
O O2 0.149723 0.330719 0.404887
O O3 0.261058 0.238628 0.312198
O O4 0.196184 0.000000 0.408248
O O5 0.460804 0.500000 0.261465
O O6 0.454899 0.721050 0.124552
O O7 0.450069 0.834004 0.295820
O O8 0.561636 0.704638 0.212225
O O9 0.325762 0.265281 0.136722
O O10 0.395926 0.000000 0.073925
O O11 0.388742 0.261723 0.965297
O O12 0.534752 0.000000 0.390070
O O13 0.591220 0.000000 0.546377
O O14 0.691665 0.780506 0.168219
O O15 0.596079 0.000000 0.146067
O O16 0.242745 0.500000 0.810767
#
# Coordination Sequence:
#
# PCOD9215339 Si02
#       7
#     8   8   8   4   4   8   8
#     4  11  24  42  70 102 132 172 224 273 333 407
#     4  12  25  42  70  97 131 180 226 274 331 398
#     4  10  22  41  64  96 136 179 223 278 329 388
#     4  11  26  46  72  98 134 179 213 284 348 385
#     4  11  26  48  69  96 138 172 225 280 333 406
#     4  11  22  39  65  95 136 180 224 271 331 400
#     4  10  23  40  64  96 135 175 221 277 334 399
#
# _framework density 21.810379000000001
#
# number of rings (size 3 to 8) (size 9 to 14) (size 15 to 20)
#    0.000    1.167    2.500    2.500    3.500    6.667 
#    0.000    1.667    0.000    0.000    0.000    0.000 
#    0.000    0.000    0.000    0.000    0.000    0.000 
#
# Total GULP energy -134352.469117 kJ/mol
# GULP energy per Si atom -5598.019547 kJ/mol
# Density = 2.176074 g / cm^3
# Si number density = 21.810379 Si / 1000 Ang^3
#
#
#
# Elastic Constant Matrix: (Units=GPa)
#
#
# Indices 1 2 3 4 5 6 
#
# 1 60.3241 5.8186 1.4697 0.0000 -3.8865 0.0000
# 2 5.8186 101.7082 38.2903 0.0000 -12.2955 0.0000
# 3 1.4697 38.2903 107.5624 0.0000 -6.2789 0.0000
# 4 0.0000 0.0000 0.0000 2.1941 0.0000 4.8844
# 5 -3.8865 -12.2955 -6.2789 0.0000 35.7316 0.0000
# 6 0.0000 0.0000 0.0000 4.8844 0.0000 25.4672
#
#
#
# Elastic Compliance Matrix: (Units=1/GPa)
#
#
# Indices 1 2 3 4 5 6 
#
# 1 0.016754 -0.000829 0.000157 0.000000 0.001565 0.000000
# 2 -0.000829 0.011776 -0.003990 0.000000 0.003261 0.000000
# 3 0.000157 -0.003990 0.010746 0.000000 0.000532 0.000000
# 4 0.000000 0.000000 0.000000 0.795338 0.000000 -0.152540
# 5 0.001565 0.003261 0.000532 0.000000 0.029372 0.000000
# 6 0.000000 0.000000 0.000000 -0.152540 0.000000 0.068522
#
#
# Mechanical properties :
#
#
# Convention : Reuss Voigt Hill
#
# Bulk Modulus (GPa) = 33.38536 40.08355 36.73446
# Shear Modulus (GPa) = 5.25312 27.61299 16.43305
#
# Velocity S-wave (km/s) = 1.55363 3.56202 2.74788
# Velocity P-wave (km/s) = 4.30798 5.94436 5.19105
#
# Compressibility (1/GPa) = 0.02995325
#
# Stress axis : x y z
#
# Youngs Moduli (GPa) = 59.68715 84.91912 93.05490
#
# Poissons Ratio (x) = 0.07036 -0.01464
# Poissons Ratio (y) = 0.04945 0.37132
# Poissons Ratio (z) = -0.00939 0.33886
#
# Static dielectric constant tensor:
#      x y z
#    x 1.770420 0.000000 0.003490 
#    y 0.000000 1.806430 0.000000 
#    z 0.003490 0.000000 1.781410 
# 
# From -- ./inp_files/221765.got.cif
#   From: 2010.05.17/outbox.cif.g08.bks.cpg/sg12_111_cif.got.tgz:221765.got - 2010.06.03 13:09:07.
