data_PCOD9215524
_publ_section_title
;
Structure prediction by ZEFSAII (Michael W. Deem and Ramdas Pophale) SiO2 
 PCOD9215524
Probable space group: C 2/M
;
_chemical_formula_sum "Si O2"
_cell_formula_units_Z 36
_cell_length_a 8.652316
_cell_length_b 19.253750
_cell_length_c 11.045172
_cell_angle_alpha 90.000000
_cell_angle_beta 120.634574
_cell_angle_gamma 90.000000
_cell_volume 1583.208454
_symmetry_space_group_name_H-M "C 2/M"
_symmetry_group_IT_number 12
_symmetry_cell_setting 'monoclinic'
loop_
_space_group_symop_operation_xyz
x,y,z
-x,y,-z
-x,-y,-z
x,-y,z
1/2+x,1/2+y,z
1/2-x,1/2+y,-z
1/2-x,1/2-y,-z
1/2+x,1/2-y,z
loop_
_atom_site_type_symbol
_atom_site_label
_atom_site_fract_x
_atom_site_fract_y
_atom_site_fract_z
Si Si1 0.000000 0.656407 0.000000
Si Si2 0.823849 0.800390 0.285622
Si Si3 0.811923 0.161627 0.695603
Si Si4 0.321850 0.079160 0.149304
Si Si5 0.715690 0.920700 0.422532
O O1 0.142214 0.699506 0.133953
O O2 0.881972 0.609928 0.044617
O O3 0.820786 0.727456 0.353067
O O4 0.808380 0.865610 0.369684
O O5 0.996272 0.810311 0.271511
O O6 0.812690 0.125972 0.827081
O O7 0.748562 0.106033 0.570658
O O8 0.506251 0.080428 0.301907
O O9 0.260814 0.000000 0.112710
O O10 0.778173 0.000000 0.431723
#
# Coordination Sequence:
#
# PCOD9215524 Si02
#       5
#     4   8   8   8   8
#     4  10  23  46  66  88 123 164 210 258 311 368
#     4  11  25  41  65  92 126 167 208 257 309 367
#     4  12  24  40  63  94 127 164 209 257 310 368
#     4  10  22  41  67  94 125 165 206 254 309 369
#     4  10  22  42  66  95 130 163 201 255 316 371
#
# _framework density 22.738637000000001
#
# number of rings (size 3 to 8) (size 9 to 14) (size 15 to 20)
#    0.000    1.333    0.000    5.667    0.000   11.556 
#    0.000    1.111    0.000    0.000    0.000    0.000 
#    0.000    0.000    0.000    0.000    0.000    0.000 
#
# Total GULP energy -100814.269357 kJ/mol
# GULP energy per Si atom -5600.792742 kJ/mol
# Density = 2.268688 g / cm^3
# Si number density = 22.738637 Si / 1000 Ang^3
#
#
#
# Elastic Constant Matrix: (Units=GPa)
#
#
# Indices 1 2 3 4 5 6 
#
# 1 100.8013 26.7214 14.0783 0.0000 -43.1301 0.0000
# 2 26.7214 119.2225 21.3195 0.0000 -24.9359 0.0000
# 3 14.0783 21.3195 82.3480 0.0000 -13.6663 0.0000
# 4 0.0000 0.0000 0.0000 12.6320 0.0000 -1.2636
# 5 -43.1301 -24.9359 -13.6663 0.0000 44.8157 0.0000
# 6 0.0000 0.0000 0.0000 -1.2636 0.0000 7.8649
#
#
#
# Elastic Compliance Matrix: (Units=1/GPa)
#
#
# Indices 1 2 3 4 5 6 
#
# 1 0.016887 -0.000420 -0.000126 0.000000 0.015979 0.000000
# 2 -0.000420 0.009725 -0.001701 0.000000 0.004488 0.000000
# 3 -0.000126 -0.001701 0.013091 0.000000 0.002924 0.000000
# 4 0.000000 0.000000 0.000000 0.080457 0.000000 0.012927
# 5 0.015979 0.004488 0.002924 0.000000 0.041081 0.000000
# 6 0.000000 0.000000 0.000000 0.012927 0.000000 0.129225
#
#
# Mechanical properties :
#
#
# Convention : Reuss Voigt Hill
#
# Bulk Modulus (GPa) = 28.40333 47.40113 37.90223
# Shear Modulus (GPa) = 16.30285 29.07935 22.69110
#
# Velocity S-wave (km/s) = 2.68053 3.57998 3.16240
# Velocity P-wave (km/s) = 4.70092 6.16277 5.48080
#
# Compressibility (1/GPa) = 0.03520714
#
# Stress axis : x y z
#
# Youngs Moduli (GPa) = 59.21877 102.83114 76.38935
#
# Poissons Ratio (x) = 0.04320 0.00965
# Poissons Ratio (y) = 0.02488 0.12994
# Poissons Ratio (z) = 0.00748 0.17492
#
# Static dielectric constant tensor:
#      x y z
#    x 1.843600 0.000000 0.020080 
#    y 0.000000 1.806870 0.000000 
#    z 0.020080 0.000000 1.854310 
# 
# From -- ./inp_files/119215.got.cif
#   From: 2010.05.17/outbox.cif.g08.bks.cpg/sg12_60_cif.got.tgz:119215.got - 2010.06.03 13:09:07.
