data_PCOD9215567
_publ_section_title
;
Structure prediction by ZEFSAII (Michael W. Deem and Ramdas Pophale) SiO2 
 PCOD9215567
Probable space group: C 2/M
;
_chemical_formula_sum "Si O2"
_cell_formula_units_Z 30
_cell_length_a 13.825931
_cell_length_b 5.260178
_cell_length_c 22.747510
_cell_angle_alpha 90.000000
_cell_angle_beta 120.922838
_cell_angle_gamma 90.000000
_cell_volume 1419.205154
_symmetry_space_group_name_H-M "C 2/M"
_symmetry_group_IT_number 12
_symmetry_cell_setting 'monoclinic'
loop_
_space_group_symop_operation_xyz
x,y,z
-x,y,-z
-x,-y,-z
x,-y,z
1/2+x,1/2+y,z
1/2-x,1/2+y,-z
1/2-x,1/2-y,-z
1/2+x,1/2-y,z
loop_
_atom_site_type_symbol
_atom_site_label
_atom_site_fract_x
_atom_site_fract_y
_atom_site_fract_z
Si Si1 0.649264 0.500000 0.658272
Si Si2 0.838540 0.500000 0.258163
Si Si3 0.000000 0.000000 0.000000
Si Si4 0.797229 0.500000 0.591384
Si Si5 0.521482 0.000000 0.813904
Si Si6 0.249787 0.500000 0.960464
Si Si7 0.921185 0.000000 0.840213
Si Si8 0.104179 0.000000 0.432192
O O1 0.654513 0.749564 0.699934
O O2 0.748435 0.500000 0.641522
O O3 0.525742 0.500000 0.589964
O O4 0.937102 0.500000 0.240311
O O5 0.713011 0.500000 0.191370
O O6 0.008572 0.000000 0.076822
O O7 0.135584 0.000000 0.039761
O O8 0.867357 0.249330 0.597096
O O9 0.688932 0.500000 0.513801
O O10 0.638126 0.000000 0.886782
O O11 0.454468 0.250285 0.813254
O O12 0.250000 0.250000 0.000000
#
# Coordination Sequence:
#
# PCOD9215567 Si02
#       8
#     4   4   2   4   4   4   4   4
#     4  12  25  43  68  94 133 177 215 263 315 379
#     4  12  28  44  63  96 130 174 223 260 313 390
#     4  12  24  44  72  96 126 160 212 276 334 380
#     4  10  22  41  68 102 133 165 219 266 312 378
#     4  12  25  46  64  92 129 167 210 267 321 387
#     4  12  24  42  67  99 123 159 206 265 335 387
#     4  12  27  44  69  94 126 168 215 272 327 382
#     4  10  22  41  68 100 133 171 210 267 323 369
#
# _framework density 21.138594000000001
#
# number of rings (size 3 to 8) (size 9 to 14) (size 15 to 20)
#    0.000    0.533    4.000    3.600    0.000    8.533 
#    0.000    5.333    0.000    0.000    0.000    0.000 
#    0.000    0.000    0.000    0.000    0.000    0.000 
#
# Total GULP energy -83704.511199 kJ/mol
# GULP energy per Si atom -5580.300747 kJ/mol
# Density = 2.109048 g / cm^3
# Si number density = 21.138594 Si / 1000 Ang^3
#
#
#
# Elastic Constant Matrix: (Units=GPa)
#
#
# Indices 1 2 3 4 5 6 
#
# 1 117.7523 37.4308 7.7138 0.0000 -17.3013 0.0000
# 2 37.4308 181.5112 27.4281 0.0000 -30.8692 0.0000
# 3 7.7138 27.4281 64.3632 0.0000 -11.8039 0.0000
# 4 0.0000 0.0000 0.0000 6.8965 0.0000 5.6692
# 5 -17.3013 -30.8692 -11.8039 0.0000 61.0440 0.0000
# 6 0.0000 0.0000 0.0000 5.6692 0.0000 17.4598
#
#
#
# Elastic Compliance Matrix: (Units=1/GPa)
#
#
# Indices 1 2 3 4 5 6 
#
# 1 0.009269 -0.001589 -0.000103 0.000000 0.001804 0.000000
# 2 -0.001589 0.006582 -0.002163 0.000000 0.002460 0.000000
# 3 -0.000103 -0.002163 0.016863 0.000000 0.002138 0.000000
# 4 0.000000 0.000000 0.000000 0.197797 0.000000 -0.064225
# 5 0.001804 0.002460 0.002138 0.000000 0.018550 0.000000
# 6 0.000000 0.000000 0.000000 -0.064225 0.000000 0.078128
#
#
# Mechanical properties :
#
#
# Convention : Reuss Voigt Hill
#
# Bulk Modulus (GPa) = 39.99417 56.53022 48.26220
# Shear Modulus (GPa) = 14.56726 36.48365 25.52545
#
# Velocity S-wave (km/s) = 2.62798 4.15893 3.47872
# Velocity P-wave (km/s) = 5.30749 7.06138 6.24630
#
# Compressibility (1/GPa) = 0.02500364
#
# Stress axis : x y z
#
# Youngs Moduli (GPa) = 107.88274 151.92305 59.30099
#
# Poissons Ratio (x) = 0.24144 0.00610
# Poissons Ratio (y) = 0.17145 0.12829
# Poissons Ratio (z) = 0.01110 0.32867
#
# Static dielectric constant tensor:
#      x y z
#    x 1.717950 0.000000 0.012410 
#    y 0.000000 1.709670 0.000000 
#    z 0.012410 0.000000 1.780510 
# 
# From -- ./inp_files/303209.got.cif
#   From: 2010.05.17/outbox.cif.g08.bks.cpg/sg12_152_cif.got.tgz:303209.got - 2010.06.03 13:09:07.
