data_PCOD9215325
_publ_section_title
;
Structure prediction by ZEFSAII (Michael W. Deem and Ramdas Pophale) SiO2 
 PCOD9215325
Probable space group: C 2/M
;
_chemical_formula_sum "Si O2"
_cell_formula_units_Z 40
_cell_length_a 16.104397
_cell_length_b 19.362840
_cell_length_c 8.533750
_cell_angle_alpha 90.000000
_cell_angle_beta 130.863399
_cell_angle_gamma 90.000000
_cell_volume 2012.478338
_symmetry_space_group_name_H-M "C 2/M"
_symmetry_group_IT_number 12
_symmetry_cell_setting 'monoclinic'
loop_
_space_group_symop_operation_xyz
x,y,z
-x,y,-z
-x,-y,-z
x,-y,z
1/2+x,1/2+y,z
1/2-x,1/2+y,-z
1/2-x,1/2-y,-z
1/2+x,1/2-y,z
loop_
_atom_site_type_symbol
_atom_site_label
_atom_site_fract_x
_atom_site_fract_y
_atom_site_fract_z
Si Si1 0.070730 0.500000 0.349121
Si Si2 0.590234 0.262816 0.882630
Si Si3 0.851877 0.794252 0.685196
Si Si4 0.166563 0.500000 0.817530
Si Si5 0.752268 0.578344 0.587254
Si Si6 0.259730 0.136818 0.945179
O O1 0.121526 0.500000 0.585897
O O2 0.124628 0.565607 0.327681
O O3 0.940625 0.500000 0.200922
O O4 0.460298 0.272491 0.723661
O O5 0.653779 0.317042 0.852281
O O6 0.627812 0.279150 0.107425
O O7 0.635715 0.186916 0.898519
O O8 0.750000 0.750000 0.500000
O O9 0.819558 0.873336 0.612550
O O10 0.232193 0.569365 0.936916
O O11 0.707859 0.500000 0.542167
O O12 0.757651 0.612003 0.763877
#
# Coordination Sequence:
#
# PCOD9215325 Si02
#       6
#     4   8   8   4   8   8
#     4   9  23  37  60  95 124 167 215 267 317 382
#     4  10  25  41  63  94 131 165 222 257 328 384
#     4  11  22  43  67  90 128 176 210 266 322 387
#     4  11  21  39  64  91 134 167 213 272 328 367
#     4  10  22  41  64  94 124 166 219 265 317 379
#     4  11  22  42  61  97 127 168 210 277 317 384
#
# _framework density 19.875990999999999
#
# number of rings (size 3 to 8) (size 9 to 14) (size 15 to 20)
#    0.600    1.000    3.000    1.200    2.800    2.400 
#    1.800    2.000    0.000    0.000    0.000    0.000 
#    0.000    0.000    0.000    0.000    0.000    0.000 
#
# Total GULP energy -111711.012614 kJ/mol
# GULP energy per Si atom -5585.550631 kJ/mol
# Density = 1.983075 g / cm^3
# Si number density = 19.875991 Si / 1000 Ang^3
#
#
#
# Elastic Constant Matrix: (Units=GPa)
#
#
# Indices 1 2 3 4 5 6 
#
# 1 103.2465 30.8875 16.7260 0.0000 13.7216 0.0000
# 2 30.8875 143.3665 23.2820 0.0000 9.1555 0.0000
# 3 16.7260 23.2820 48.7315 0.0000 13.5258 0.0000
# 4 0.0000 0.0000 0.0000 19.8202 0.0000 -9.6743
# 5 13.7216 9.1555 13.5258 0.0000 31.5955 0.0000
# 6 0.0000 0.0000 0.0000 -9.6743 0.0000 29.9475
#
#
#
# Elastic Compliance Matrix: (Units=1/GPa)
#
#
# Indices 1 2 3 4 5 6 
#
# 1 0.011005 -0.001836 -0.001953 0.000000 -0.003411 0.000000
# 2 -0.001836 0.007883 -0.003091 0.000000 -0.000164 0.000000
# 3 -0.001953 -0.003091 0.025175 0.000000 -0.009033 0.000000
# 4 0.000000 0.000000 0.000000 0.059898 0.000000 0.019350
# 5 -0.003411 -0.000164 -0.009033 0.000000 0.037046 0.000000
# 6 0.000000 0.000000 0.000000 0.019350 0.000000 0.039643
#
#
# Mechanical properties :
#
#
# Convention : Reuss Voigt Hill
#
# Bulk Modulus (GPa) = 32.99992 48.57061 40.78526
# Shear Modulus (GPa) = 24.44871 31.23590 27.84230
#
# Velocity S-wave (km/s) = 3.51103 3.96856 3.74679
# Velocity P-wave (km/s) = 5.75112 6.74457 6.26756
#
# Compressibility (1/GPa) = 0.03030311
#
# Stress axis : x y z
#
# Youngs Moduli (GPa) = 90.87178 126.85504 39.72224
#
# Poissons Ratio (x) = 0.23289 0.07759
# Poissons Ratio (y) = 0.16683 0.12276
# Poissons Ratio (z) = 0.17749 0.39206
#
# Static dielectric constant tensor:
#      x y z
#    x 1.712090 0.000000 -0.007960 
#    y 0.000000 1.717710 0.000000 
#    z -0.007960 0.000000 1.670120 
# 
# From -- ./inp_files/77783.got.cif
#   From: 2010.05.17/outbox.cif.g08.bks.cpg/sg12_39_cif.got.tgz:77783.got - 2010.06.03 13:09:07.
