data_PCOD9215360
_publ_section_title
;
Structure prediction by ZEFSAII (Michael W. Deem and Ramdas Pophale) SiO2 
 PCOD9215360
Probable space group: C 2/M
;
_chemical_formula_sum "Si O2"
_cell_formula_units_Z 64
_cell_length_a 14.834712
_cell_length_b 17.576955
_cell_length_c 25.819626
_cell_angle_alpha 90.000000
_cell_angle_beta 150.855903
_cell_angle_gamma 90.000000
_cell_volume 3278.751914
_symmetry_space_group_name_H-M "C 2/M"
_symmetry_group_IT_number 12
_symmetry_cell_setting 'monoclinic'
loop_
_space_group_symop_operation_xyz
x,y,z
-x,y,-z
-x,-y,-z
x,-y,z
1/2+x,1/2+y,z
1/2-x,1/2+y,-z
1/2-x,1/2-y,-z
1/2+x,1/2-y,z
loop_
_atom_site_type_symbol
_atom_site_label
_atom_site_fract_x
_atom_site_fract_y
_atom_site_fract_z
Si Si1 0.600379 0.655156 0.995003
Si Si2 0.685372 0.086625 0.218987
Si Si3 0.021467 0.585576 0.780199
Si Si4 0.971341 0.794268 0.385101
Si Si5 0.860400 0.293037 0.623062
Si Si6 0.886627 0.663966 0.996585
Si Si7 0.501225 0.409023 0.835350
Si Si8 0.299035 0.819968 0.377804
O O1 0.792357 0.610763 0.097421
O O2 0.500000 0.644727 0.000000
O O3 0.632210 0.745478 0.004208
O O4 0.498911 0.623508 0.893062
O O5 0.636639 0.085529 0.255416
O O6 0.863658 0.139037 0.302523
O O7 0.516098 0.126132 0.104744
O O8 0.708088 0.000000 0.212476
O O9 0.041529 0.500000 0.769683
O O10 0.973482 0.646773 0.712812
O O11 0.843711 0.751450 0.362593
O O12 0.034523 0.730917 0.375864
O O13 0.156859 0.823362 0.506064
O O14 0.819776 0.216546 0.635377
O O15 0.684965 0.625872 0.900010
O O16 0.000000 0.652966 0.000000
O O17 0.513794 0.500000 0.842924
O O18 0.321815 0.380357 0.714051
O O19 0.500000 0.846164 0.500000
#
# Coordination Sequence:
#
# PCOD9215360 Si02
#       8
#     8   8   8   8   8   8   8   8
#     4  11  25  42  65  91 121 166 212 256 306 373
#     4  11  23  39  62  93 128 158 201 263 318 366
#     4  11  23  39  62  93 128 158 201 263 318 366
#     4  10  22  41  65  91 122 165 214 256 304 370
#     4  10  22  41  65  91 122 165 214 256 304 370
#     4  11  25  42  65  91 121 166 212 256 306 373
#     4  12  25  42  64  92 130 167 206 257 318 381
#     4  10  22  42  65  91 124 165 217 264 301 367
#
# _framework density 19.519621999999998
#
# number of rings (size 3 to 8) (size 9 to 14) (size 15 to 20)
#    0.000    1.250    2.500    2.625    7.000    2.750 
#    0.000    1.250    0.000    4.500    0.000    0.000 
#    0.000    0.000    0.000    0.000    0.000    0.000 
#
# Total GULP energy -178815.599326 kJ/mol
# GULP energy per Si atom -5587.987479 kJ/mol
# Density = 1.947519 g / cm^3
# Si number density = 19.519622 Si / 1000 Ang^3
#
#
#
# Elastic Constant Matrix: (Units=GPa)
#
#
# Indices 1 2 3 4 5 6 
#
# 1 58.9845 15.6095 11.9185 0.0000 -5.5280 0.0000
# 2 15.6095 88.5674 50.7803 -0.0004 5.8066 0.0000
# 3 11.9185 50.7803 115.4973 -0.0021 -7.7681 -0.0001
# 4 0.0000 -0.0004 -0.0021 -29.4968 -0.0001 0.4035
# 5 -5.5280 5.8066 -7.7681 -0.0001 22.7987 -0.0001
# 6 0.0000 0.0000 -0.0001 0.4035 -0.0001 13.2432
#
#
#
# Elastic Compliance Matrix: (Units=1/GPa)
#
#
# Indices 1 2 3 4 5 6 
#
# 1 0.018410 -0.003635 0.000062 0.000000 0.005411 0.000000
# 2 -0.003635 0.016737 -0.007502 0.000000 -0.007700 0.000000
# 3 0.000062 -0.007502 0.012363 -0.000001 0.006138 0.000000
# 4 0.000000 0.000000 -0.000001 -0.033888 -0.000001 0.001033
# 5 0.005411 -0.007700 0.006138 -0.000001 0.049227 0.000000
# 6 0.000000 0.000000 0.000000 0.001033 0.000000 0.075479
#
#
# Mechanical properties :
#
#
# Convention : Reuss Voigt Hill
#
# Bulk Modulus (GPa) = 39.42987 46.62954 43.02970
# Shear Modulus (GPa) = 29.59784 13.62508 21.61146
#
# Velocity S-wave (km/s) = 3.89821 2.64487 3.33102
# Velocity P-wave (km/s) = 6.36438 5.76780 6.07342
#
# Compressibility (1/GPa) = 0.02536148
#
# Stress axis : x y z
#
# Youngs Moduli (GPa) = 54.31790 59.74626 80.88762
#
# Poissons Ratio (x) = 0.21719 -0.00505
# Poissons Ratio (y) = 0.19746 0.60679
# Poissons Ratio (z) = -0.00339 0.44820
#
# Static dielectric constant tensor:
#      x y z
#    x 1.729610 0.000000 -0.008020 
#    y 0.000000 1.644240 0.000000 
#    z -0.008020 0.000000 1.678030 
# 
# From -- ./inp_files/340832.got.cif
#   From: 2010.05.17/outbox.cif.g08.bks.cpg/sg12_171_cif.got.tgz:340832.got - 2010.06.03 13:09:07.
