data_PCOD9215232
_publ_section_title
;
Structure prediction by ZEFSAII (Michael W. Deem and Ramdas Pophale) SiO2 
 PCOD9215232
Probable space group: C 2/M
;
_chemical_formula_sum "Si O2"
_cell_formula_units_Z 52
_cell_length_a 17.617560
_cell_length_b 20.821560
_cell_length_c 6.082895
_cell_angle_alpha 90.000000
_cell_angle_beta 105.883747
_cell_angle_gamma 90.000000
_cell_volume 2146.162929
_symmetry_space_group_name_H-M "C 2/M"
_symmetry_group_IT_number 12
_symmetry_cell_setting 'monoclinic'
loop_
_space_group_symop_operation_xyz
x,y,z
-x,y,-z
-x,-y,-z
x,-y,z
1/2+x,1/2+y,z
1/2-x,1/2+y,-z
1/2-x,1/2-y,-z
1/2+x,1/2-y,z
loop_
_atom_site_type_symbol
_atom_site_label
_atom_site_fract_x
_atom_site_fract_y
_atom_site_fract_z
Si Si1 0.423554 0.402866 0.297188
Si Si2 0.594399 0.073476 0.542373
Si Si3 0.821585 0.000000 0.497354
Si Si4 0.809336 0.677897 0.121494
Si Si5 0.619078 0.278825 0.517360
Si Si6 0.839411 0.882726 0.822894
Si Si7 0.417540 0.829290 0.816751
O O1 0.500000 0.425030 0.500000
O O2 0.353332 0.444009 0.348560
O O3 0.419747 0.326680 0.339960
O O4 0.413491 0.407528 0.026592
O O5 0.500000 0.076081 0.500000
O O6 0.635741 0.119608 0.748627
O O7 0.611487 0.105361 0.320062
O O8 0.619350 0.000000 0.575591
O O9 0.804185 0.057039 0.665568
O O10 0.816547 0.736345 0.300415
O O11 0.722759 0.648661 0.058307
O O12 0.849503 0.695717 0.924237
O O13 0.642393 0.327791 0.341420
O O14 0.568363 0.223505 0.360575
O O15 0.500000 0.840102 0.000000
#
# Coordination Sequence:
#
# PCOD9215232 Si02
#       7
#     8   8   4   8   8   8   8
#     4  11  25  43  72 103 135 176 226 288 343 417
#     4  10  22  41  63  93 133 174 225 274 324 391
#     4  10  25  47  69  99 138 172 235 280 349 411
#     4  11  24  43  66  97 139 181 227 282 331 406
#     4  10  25  40  69  97 138 174 228 276 338 409
#     4  11  25  46  67  99 136 185 224 278 349 406
#     4  11  23  39  66  98 133 177 223 279 341 395
#
# _framework density 24.229285999999998
#
# number of rings (size 3 to 8) (size 9 to 14) (size 15 to 20)
#    0.000    1.385    1.538    2.077    5.385   10.769 
#    0.000    0.000    0.000    0.000    0.000    0.000 
#    0.000    0.000    0.000    0.000    0.000    0.000 
#
# Total GULP energy -144842.382519 kJ/mol
# GULP energy per Si atom -5570.860866 kJ/mol
# Density = 2.417414 g / cm^3
# Si number density = 24.229286 Si / 1000 Ang^3
#
#
#
# Elastic Constant Matrix: (Units=GPa)
#
#
# Indices 1 2 3 4 5 6 
#
# 1 48.4778 1.0093 29.0032 0.0000 2.3269 0.0000
# 2 1.0093 157.3549 27.5527 0.0000 7.7665 0.0000
# 3 29.0032 27.5527 68.6212 0.0000 -7.5505 0.0000
# 4 0.0000 0.0000 0.0000 36.8193 0.0000 -14.2152
# 5 2.3269 7.7665 -7.5505 0.0000 26.8045 0.0000
# 6 0.0000 0.0000 0.0000 -14.2152 0.0000 27.5609
#
#
#
# Elastic Compliance Matrix: (Units=1/GPa)
#
#
# Indices 1 2 3 4 5 6 
#
# 1 0.029526 0.002692 -0.014374 0.000000 -0.007392 0.000000
# 2 0.002692 0.007298 -0.004465 0.000000 -0.003606 0.000000
# 3 -0.014374 -0.004465 0.023447 0.000000 0.009146 0.000000
# 4 0.000000 0.000000 0.000000 0.033913 0.000000 0.017491
# 5 -0.007392 -0.003606 0.009146 0.000000 0.041570 0.000000
# 6 0.000000 0.000000 0.000000 0.017491 0.000000 0.045305
#
#
# Mechanical properties :
#
#
# Convention : Reuss Voigt Hill
#
# Bulk Modulus (GPa) = 35.74210 43.28715 39.51463
# Shear Modulus (GPa) = 22.45404 32.69619 27.57511
#
# Velocity S-wave (km/s) = 3.04753 3.67747 3.37722
# Velocity P-wave (km/s) = 5.21219 5.99468 5.61707
#
# Compressibility (1/GPa) = 0.02797821
#
# Stress axis : x y z
#
# Youngs Moduli (GPa) = 33.86806 137.03250 42.64931
#
# Poissons Ratio (x) = -0.36893 0.61304
# Poissons Ratio (y) = -0.09118 0.19042
# Poissons Ratio (z) = 0.48682 0.61182
#
# Static dielectric constant tensor:
#      x y z
#    x 2.013800 0.000000 -0.012020 
#    y 0.000000 1.886990 0.000000 
#    z -0.012020 0.000000 1.990340 
# 
# From -- ./inp_files/21243.got.cif
#   From: 2010.05.17/outbox.cif.g08.bks.cpg/sg12_11_cif.got.tgz:21243.got - 2010.06.03 13:09:07.
