data_PCOD9215724
_publ_section_title
;
Structure prediction by ZEFSAII (Michael W. Deem and Ramdas Pophale) SiO2 
 PCOD9215724
Probable space group: C 2/M
;
_chemical_formula_sum "Si O2"
_cell_formula_units_Z 56
_cell_length_a 11.157791
_cell_length_b 17.959566
_cell_length_c 18.117004
_cell_angle_alpha 90.000000
_cell_angle_beta 129.729175
_cell_angle_gamma 90.000000
_cell_volume 2792.085283
_symmetry_space_group_name_H-M "C 2/M"
_symmetry_group_IT_number 12
_symmetry_cell_setting 'monoclinic'
loop_
_space_group_symop_operation_xyz
x,y,z
-x,y,-z
-x,-y,-z
x,-y,z
1/2+x,1/2+y,z
1/2-x,1/2+y,-z
1/2-x,1/2-y,-z
1/2+x,1/2-y,z
loop_
_atom_site_type_symbol
_atom_site_label
_atom_site_fract_x
_atom_site_fract_y
_atom_site_fract_z
Si Si1 0.573618 0.410140 0.449727
Si Si2 0.008650 0.168034 0.915780
Si Si3 0.323363 0.663330 0.247088
Si Si4 0.227529 0.586726 0.056560
Si Si5 0.928990 0.410136 0.551540
Si Si6 0.476136 0.833130 0.136039
Si Si7 0.155838 0.338360 0.759310
O O1 0.500000 0.386007 0.500000
O O2 0.573603 0.500000 0.449813
O O3 0.458298 0.380872 0.341147
O O4 0.751392 0.385864 0.501210
O O5 0.055563 0.247153 0.897962
O O6 0.838348 0.147466 0.818682
O O7 0.132079 0.105407 0.944409
O O8 0.000000 0.180384 0.000000
O O9 0.278961 0.630311 0.150050
O O10 0.158791 0.659149 0.224852
O O11 0.368242 0.749610 0.258000
O O12 0.210952 0.500000 0.065223
O O13 0.077426 0.618814 0.955116
O O14 0.928045 0.500000 0.551156
O O15 0.000000 0.385932 0.500000
O O16 0.044915 0.380783 0.659759
O O17 0.383594 0.856978 0.171809
#
# Coordination Sequence:
#
# PCOD9215724 Si02
#       7
#     8   8   8   8   8   8   8
#     4  10  22  42  64  89 125 167 211 265 323 377
#     4  11  22  41  65  90 128 170 209 257 314 372
#     4  11  24  39  65  95 124 164 212 263 315 375
#     4  12  25  40  62  93 131 169 210 257 313 380
#     4  10  24  43  64  92 128 169 211 265 327 383
#     4  11  22  42  64  91 128 169 208 259 311 373
#     4  11  23  40  67  92 124 166 211 260 317 372
#
# _framework density 20.056692999999999
#
# number of rings (size 3 to 8) (size 9 to 14) (size 15 to 20)
#    0.000    1.143    2.857    3.857    2.000    4.286 
#    0.000    0.000    0.000    0.000    0.000    0.000 
#    0.000    0.000    0.000    0.000    0.000    0.000 
#
# Total GULP energy -156486.376823 kJ/mol
# GULP energy per Si atom -5588.799172 kJ/mol
# Density = 2.001104 g / cm^3
# Si number density = 20.056693 Si / 1000 Ang^3
#
#
#
# Elastic Constant Matrix: (Units=GPa)
#
#
# Indices 1 2 3 4 5 6 
#
# 1 94.4085 15.8205 48.2721 0.0000 0.8766 0.0000
# 2 15.8205 17.9358 2.4416 0.0000 11.7621 0.0000
# 3 48.2721 2.4416 121.3572 0.0000 15.4457 0.0000
# 4 0.0000 0.0000 0.0000 37.0891 0.0000 3.9703
# 5 0.8766 11.7621 15.4457 0.0000 34.9876 0.0000
# 6 0.0000 0.0000 0.0000 3.9703 0.0000 17.3158
#
#
#
# Elastic Compliance Matrix: (Units=1/GPa)
#
#
# Indices 1 2 3 4 5 6 
#
# 1 0.018388 -0.022035 -0.008217 0.000000 0.010574 0.000000
# 2 -0.022035 0.098268 0.011572 0.000000 -0.037592 0.000000
# 3 -0.008217 0.011572 0.012444 0.000000 -0.009178 0.000000
# 4 0.000000 0.000000 0.000000 0.027641 0.000000 -0.006338
# 5 0.010574 -0.037592 -0.009178 0.000000 0.045006 0.000000
# 6 0.000000 0.000000 0.000000 -0.006338 0.000000 0.059204
#
#
# Mechanical properties :
#
#
# Convention : Reuss Voigt Hill
#
# Bulk Modulus (GPa) = 10.90026 40.75222 25.82624
# Shear Modulus (GPa) = 15.20265 29.02300 22.11283
#
# Velocity S-wave (km/s) = 2.75614 3.80814 3.32402
# Velocity P-wave (km/s) = 3.94651 6.30067 5.25706
#
# Compressibility (1/GPa) = 0.09174089
#
# Stress axis : x y z
#
# Youngs Moduli (GPa) = 54.38353 10.17621 80.36155
#
# Poissons Ratio (x) = 0.22424 0.66030
# Poissons Ratio (y) = 1.19836 -0.92998
# Poissons Ratio (z) = 0.44685 -0.11776
#
# Static dielectric constant tensor:
#      x y z
#    x 1.786870 0.000000 -0.000350 
#    y 0.000000 1.670520 0.000000 
#    z -0.000350 0.000000 1.663270 
# 
# From -- ./inp_files/264310.got.cif
#   From: 2010.05.17/outbox.cif.g08.bks.cpg/sg12_133_cif.got.tgz:264310.got - 2010.06.03 13:09:07.
