data_PCOD9215208
_publ_section_title
;
Structure prediction by ZEFSAII (Michael W. Deem and Ramdas Pophale) SiO2 
 PCOD9215208
Probable space group: C 2/M
;
_chemical_formula_sum "Si O2"
_cell_formula_units_Z 48
_cell_length_a 18.690128
_cell_length_b 14.059478
_cell_length_c 16.100072
_cell_angle_alpha 90.000000
_cell_angle_beta 147.356566
_cell_angle_gamma 90.000000
_cell_volume 2282.063328
_symmetry_space_group_name_H-M "C 2/M"
_symmetry_group_IT_number 12
_symmetry_cell_setting 'monoclinic'
loop_
_space_group_symop_operation_xyz
x,y,z
-x,y,-z
-x,-y,-z
x,-y,z
1/2+x,1/2+y,z
1/2-x,1/2+y,-z
1/2-x,1/2-y,-z
1/2+x,1/2-y,z
loop_
_atom_site_type_symbol
_atom_site_label
_atom_site_fract_x
_atom_site_fract_y
_atom_site_fract_z
Si Si1 0.027299 0.742376 0.303381
Si Si2 0.529913 0.889871 0.893102
Si Si3 0.780057 0.109926 0.587932
Si Si4 0.646942 0.390407 0.146666
Si Si5 0.220071 0.608344 0.239632
Si Si6 0.115106 0.270919 0.665734
O O1 0.099577 0.836290 0.340124
O O2 0.146157 0.668273 0.440309
O O3 0.944338 0.688116 0.151279
O O4 0.941503 0.758966 0.301251
O O5 0.382911 0.870162 0.787037
O O6 0.531747 0.000000 0.865216
O O7 0.632213 0.885319 0.069603
O O8 0.807698 0.112470 0.713431
O O9 0.768523 0.000000 0.550674
O O10 0.637844 0.500000 0.110298
O O11 0.755597 0.335850 0.199986
O O12 0.500000 0.346855 0.000000
O O13 0.265433 0.500000 0.293649
O O14 0.337190 0.682465 0.343924
O O15 0.000000 0.321904 0.500000
#
# Coordination Sequence:
#
# PCOD9215208 Si02
#       6
#     8   8   8   8   8   8
#     4  11  23  38  61  95 125 163 209 251 316 370
#     4   9  19  39  66  90 117 162 210 252 303 369
#     4  10  22  41  63  89 126 165 207 256 305 373
#     4  10  23  44  68  91 120 169 216 253 307 368
#     4   9  21  40  63  90 122 161 206 254 307 371
#     4  12  25  40  62  94 129 163 202 260 315 369
#
# _framework density 21.033598000000001
#
# number of rings (size 3 to 8) (size 9 to 14) (size 15 to 20)
#    0.000    1.833    1.667    2.500    7.000    3.333 
#    0.000    0.000    0.000    0.000    0.000    0.000 
#    0.000    0.000    0.000    0.000    0.000    0.000 
#
# Total GULP energy -134226.442376 kJ/mol
# GULP energy per Si atom -5592.768432 kJ/mol
# Density = 2.098572 g / cm^3
# Si number density = 21.033598 Si / 1000 Ang^3
#
#
#
# Elastic Constant Matrix: (Units=GPa)
#
#
# Indices 1 2 3 4 5 6 
#
# 1 69.0497 18.1022 -0.3740 0.0000 18.3997 0.0000
# 2 18.1022 89.0964 4.8759 0.0000 16.9860 0.0000
# 3 -0.3740 4.8759 46.1720 0.0000 11.1856 0.0000
# 4 0.0000 0.0000 0.0000 12.4013 0.0000 -18.4793
# 5 18.3997 16.9860 11.1856 0.0000 30.9337 0.0000
# 6 0.0000 0.0000 0.0000 -18.4793 0.0000 -5.7142
#
#
#
# Elastic Compliance Matrix: (Units=1/GPa)
#
#
# Indices 1 2 3 4 5 6 
#
# 1 0.017802 -0.001739 0.002917 0.000000 -0.010689 0.000000
# 2 -0.001739 0.012712 0.000092 0.000000 -0.005979 0.000000
# 3 0.002917 0.000092 0.024227 0.000000 -0.010546 0.000000
# 4 0.000000 0.000000 0.000000 0.013858 0.000000 -0.044815
# 5 -0.010689 -0.005979 -0.010546 0.000000 0.045782 0.000000
# 6 0.000000 0.000000 0.000000 -0.044815 0.000000 -0.030075
#
#
# Mechanical properties :
#
#
# Convention : Reuss Voigt Hill
#
# Bulk Modulus (GPa) = 17.45735 27.72514 22.59124
# Shear Modulus (GPa) = 49.57409 19.63842 34.60626
#
# Velocity S-wave (km/s) = 4.86006 3.05892 4.06061
# Velocity P-wave (km/s) = 6.30962 5.06813 5.72264
#
# Compressibility (1/GPa) = 0.05728246
#
# Stress axis : x y z
#
# Youngs Moduli (GPa) = 56.17253 78.66601 41.27630
#
# Poissons Ratio (x) = 0.13678 -0.12042
# Poissons Ratio (y) = 0.09767 -0.00380
# Poissons Ratio (z) = -0.16388 -0.00724
#
# Static dielectric constant tensor:
#      x y z
#    x 1.723890 0.000000 -0.025010 
#    y 0.000000 1.763270 0.000000 
#    z -0.025010 0.000000 1.793550 
# 
# From -- ./inp_files/278230.got.cif
#   From: 2010.05.17/outbox.cif.g08.bks.cpg/sg12_140_cif.got.tgz:278230.got - 2010.06.03 13:09:07.
