data_PCOD9215864
_publ_section_title
;
Structure prediction by ZEFSAII (Michael W. Deem and Ramdas Pophale) SiO2 
 PCOD9215864
Probable space group: C 2/M
;
_chemical_formula_sum "Si O2"
_cell_formula_units_Z 48
_cell_length_a 17.173044
_cell_length_b 18.300316
_cell_length_c 15.394999
_cell_angle_alpha 90.000000
_cell_angle_beta 150.884134
_cell_angle_gamma 90.000000
_cell_volume 2354.167718
_symmetry_space_group_name_H-M "C 2/M"
_symmetry_group_IT_number 12
_symmetry_cell_setting 'monoclinic'
loop_
_space_group_symop_operation_xyz
x,y,z
-x,y,-z
-x,-y,-z
x,-y,z
1/2+x,1/2+y,z
1/2-x,1/2+y,-z
1/2-x,1/2-y,-z
1/2+x,1/2-y,z
loop_
_atom_site_type_symbol
_atom_site_label
_atom_site_fract_x
_atom_site_fract_y
_atom_site_fract_z
Si Si1 0.067312 0.500000 0.285621
Si Si2 0.500000 0.312335 0.000000
Si Si3 0.829429 0.000000 0.413950
Si Si4 0.404036 0.308813 0.720765
Si Si5 0.142691 0.725919 0.703364
Si Si6 0.709255 0.000000 0.103029
Si Si7 0.961827 0.334814 0.682292
Si Si8 0.554325 0.377900 0.694790
O O1 0.246077 0.500000 0.426296
O O2 0.035633 0.421543 0.298136
O O3 0.970882 0.500000 0.101463
O O4 0.469337 0.343885 0.873352
O O5 0.322619 0.277595 0.842202
O O6 0.933286 0.927236 0.522226
O O7 0.739169 0.000000 0.234738
O O8 0.210954 0.314672 0.529337
O O9 0.459079 0.223165 0.760941
O O10 0.473627 0.349815 0.704509
O O11 0.107134 0.808940 0.691865
O O12 0.000000 0.700207 0.500000
O O13 0.107566 0.684235 0.759880
O O14 0.794426 0.070070 0.143669
#
# Coordination Sequence:
#
# PCOD9215864 Si02
#       8
#     4   4   4   8   8   4   8   8
#     4  12  25  40  65  98 135 177 214 265 331 396
#     4  12  26  38  74 102 126 164 234 288 320 374
#     4  11  21  43  65  94 135 183 210 252 332 399
#     4  10  22  43  69  97 123 173 228 269 326 391
#     4  11  23  43  69  99 131 170 225 280 327 379
#     4  11  25  37  59 103 141 168 217 267 313 402
#     4  10  23  44  66  93 134 177 211 269 338 396
#     4  10  22  42  67  89 136 181 211 260 339 396
#
# _framework density 20.389371000000001
#
# number of rings (size 3 to 8) (size 9 to 14) (size 15 to 20)
#    0.000    1.333    3.333    2.250    4.667    2.667 
#    0.000    0.417    0.000    5.000    0.000    0.000 
#    0.000    0.000    0.000    0.000    0.000    0.000 
#
# Total GULP energy -133693.626084 kJ/mol
# GULP energy per Si atom -5570.567753 kJ/mol
# Density = 2.034296 g / cm^3
# Si number density = 20.389371 Si / 1000 Ang^3
#
#
#
# Elastic Constant Matrix: (Units=GPa)
#
#
# Indices 1 2 3 4 5 6 
#
# 1 124.9395 44.9868 22.9916 0.0000 18.7356 0.0000
# 2 44.9868 129.9142 7.0643 0.0000 5.6880 0.0000
# 3 22.9916 7.0643 63.9131 0.0001 -6.6437 0.0000
# 4 0.0000 0.0000 0.0001 10.2503 0.0000 -4.2069
# 5 18.7356 5.6880 -6.6437 0.0000 31.8226 0.0000
# 6 0.0000 0.0000 0.0000 -4.2069 0.0000 14.9066
#
#
#
# Elastic Compliance Matrix: (Units=1/GPa)
#
#
# Indices 1 2 3 4 5 6 
#
# 1 0.010991 -0.003275 -0.004297 0.000000 -0.006783 0.000000
# 2 -0.003275 0.008800 0.000248 0.000000 0.000407 0.000000
# 3 -0.004297 0.000248 0.017809 0.000000 0.006204 0.000000
# 4 0.000000 0.000000 0.000000 0.110338 0.000000 0.031139
# 5 -0.006783 0.000407 0.006204 0.000000 0.036640 0.000000
# 6 0.000000 0.000000 0.000000 0.031139 0.000000 0.075873
#
#
# Mechanical properties :
#
#
# Convention : Reuss Voigt Hill
#
# Bulk Modulus (GPa) = 43.56905 52.09469 47.83187
# Shear Modulus (GPa) = 17.68342 27.64417 22.66380
#
# Velocity S-wave (km/s) = 2.94817 3.68613 3.33761
# Velocity P-wave (km/s) = 5.74490 6.61227 6.19379
#
# Compressibility (1/GPa) = 0.02295207
#
# Stress axis : x y z
#
# Youngs Moduli (GPa) = 90.98303 113.63269 56.15002
#
# Poissons Ratio (x) = 0.37219 0.24127
# Poissons Ratio (y) = 0.29800 -0.01392
# Poissons Ratio (z) = 0.39094 -0.02817
#
# Static dielectric constant tensor:
#      x y z
#    x 1.743640 0.000000 0.005100 
#    y 0.000000 1.737480 0.000000 
#    z 0.005100 0.000000 1.775310 
# 
# From -- ./inp_files/226986.got.cif
#   From: 2010.05.17/outbox.cif.g08.bks.cpg/sg12_114_cif.got.tgz:226986.got - 2010.06.03 13:09:07.
