data_PCOD9215475
_publ_section_title
;
Structure prediction by ZEFSAII (Michael W. Deem and Ramdas Pophale) SiO2 
 PCOD9215475
Probable space group: C 2/M
;
_chemical_formula_sum "Si O2"
_cell_formula_units_Z 44
_cell_length_a 13.288100
_cell_length_b 17.881367
_cell_length_c 11.610869
_cell_angle_alpha 90.000000
_cell_angle_beta 54.663978
_cell_angle_gamma 90.000000
_cell_volume 2250.599705
_symmetry_space_group_name_H-M "C 2/M"
_symmetry_group_IT_number 12
_symmetry_cell_setting 'monoclinic'
loop_
_space_group_symop_operation_xyz
x,y,z
-x,y,-z
-x,-y,-z
x,-y,z
1/2+x,1/2+y,z
1/2-x,1/2+y,-z
1/2-x,1/2-y,-z
1/2+x,1/2-y,z
loop_
_atom_site_type_symbol
_atom_site_label
_atom_site_fract_x
_atom_site_fract_y
_atom_site_fract_z
Si Si1 0.614433 0.175430 0.352945
Si Si2 0.475494 0.410048 0.655014
Si Si3 0.548393 0.082981 0.716522
Si Si4 0.734438 0.338972 0.532703
Si Si5 0.000000 0.626252 0.000000
Si Si6 0.241229 0.201109 0.124508
O O1 0.500000 0.208764 0.500000
O O2 0.551800 0.127076 0.293909
O O3 0.698241 0.136419 0.393293
O O4 0.695019 0.239697 0.247242
O O5 0.500000 0.402358 0.500000
O O6 0.471032 0.500000 0.680760
O O7 0.595924 0.368164 0.625694
O O8 0.356615 0.367688 0.790718
O O9 0.681560 0.121754 0.619205
O O10 0.511636 0.082174 0.873558
O O11 0.557779 0.000000 0.663008
O O12 0.750000 0.250000 0.500000
O O13 0.122654 0.674387 0.935681
O O14 0.250000 0.250000 0.000000
#
# Coordination Sequence:
#
# PCOD9215475 Si02
#       6
#     8   8   8   8   4   8
#     4  10  22  41  66  95 129 171 222 275 319 389
#     4  11  24  43  67  98 133 171 222 280 335 390
#     4  11  23  40  63  98 132 171 216 269 329 392
#     4  11  22  39  70  96 131 169 224 273 327 388
#     4  12  25  42  66  92 131 174 218 268 329 402
#     4  12  25  43  65  95 132 171 221 268 331 394
#
# _framework density 19.550345
#
# number of rings (size 3 to 8) (size 9 to 14) (size 15 to 20)
#    0.000    0.909    1.818    6.818    2.545    6.909 
#    0.000    0.000    0.000    1.091    0.000    0.000 
#    0.000    0.000    0.000    0.000    0.000    0.000 
#
# Total GULP energy -122721.096311 kJ/mol
# GULP energy per Si atom -5578.231651 kJ/mol
# Density = 1.950585 g / cm^3
# Si number density = 19.550345 Si / 1000 Ang^3
#
#
#
# Elastic Constant Matrix: (Units=GPa)
#
#
# Indices 1 2 3 4 5 6 
#
# 1 127.2267 37.3916 58.1533 0.0000 -32.2258 0.0000
# 2 37.3916 120.8316 56.7908 0.0000 -27.6289 0.0000
# 3 58.1533 56.7908 121.0852 0.0000 -9.3709 0.0000
# 4 0.0000 0.0000 0.0000 25.3130 0.0000 -2.2689
# 5 -32.2258 -27.6289 -9.3709 0.0000 43.3469 0.0000
# 6 0.0000 0.0000 0.0000 -2.2689 0.0000 -1.4293
#
#
#
# Elastic Compliance Matrix: (Units=1/GPa)
#
#
# Indices 1 2 3 4 5 6 
#
# 1 0.012352 0.000757 -0.005634 0.000000 0.008448 0.000000
# 2 0.000757 0.012312 -0.005580 0.000000 0.007204 0.000000
# 3 -0.005634 -0.005580 0.013203 0.000000 -0.004891 0.000000
# 4 0.000000 0.000000 0.000000 0.034585 0.000000 -0.054899
# 5 0.008448 0.007204 -0.004891 0.000000 0.032885 0.000000
# 6 0.000000 0.000000 0.000000 -0.054899 0.000000 -0.612492
#
#
# Mechanical properties :
#
#
# Convention : Reuss Voigt Hill
#
# Bulk Modulus (GPa) = 58.98673 74.86830 66.92752
# Shear Modulus (GPa) = -10.40387 27.89998 8.74805
#
# Velocity S-wave (km/s) = -2.30936 3.78177 2.11763
# Velocity P-wave (km/s) = 4.80899 7.57940 6.34719
#
# Compressibility (1/GPa) = 0.01695296
#
# Stress axis : x y z
#
# Youngs Moduli (GPa) = 80.95608 81.22342 75.73953
#
# Poissons Ratio (x) = -0.06149 0.42670
# Poissons Ratio (y) = -0.06129 0.42266
# Poissons Ratio (z) = 0.45608 0.45326
#
# Static dielectric constant tensor:
#      x y z
#    x 1.590880 0.000000 -0.057820 
#    y 0.000000 1.686890 0.000000 
#    z -0.057820 0.000000 1.662570 
# 
# From -- ./inp_files/131568.got.cif
#   From: 2010.05.17/outbox.cif.g08.bks.cpg/sg12_66_cif.got.tgz:131568.got - 2010.06.03 13:09:07.
