data_PCOD9215485
_publ_section_title
;
Structure prediction by ZEFSAII (Michael W. Deem and Ramdas Pophale) SiO2 
 PCOD9215485
Probable space group: C 2/M
;
_chemical_formula_sum "Si O2"
_cell_formula_units_Z 26
_cell_length_a 9.851796
_cell_length_b 7.348989
_cell_length_c 24.483546
_cell_angle_alpha 90.000000
_cell_angle_beta 146.117537
_cell_angle_gamma 90.000000
_cell_volume 988.223580
_symmetry_space_group_name_H-M "C 2/M"
_symmetry_group_IT_number 12
_symmetry_cell_setting 'monoclinic'
loop_
_space_group_symop_operation_xyz
x,y,z
-x,y,-z
-x,-y,-z
x,-y,z
1/2+x,1/2+y,z
1/2-x,1/2+y,-z
1/2-x,1/2-y,-z
1/2+x,1/2-y,z
loop_
_atom_site_type_symbol
_atom_site_label
_atom_site_fract_x
_atom_site_fract_y
_atom_site_fract_z
Si Si1 0.500000 0.000000 0.000000
Si Si2 0.229798 0.788980 0.278794
Si Si3 0.040849 0.216099 0.099627
Si Si4 0.725890 0.720048 0.396709
O O1 0.366793 0.840485 0.918442
O O2 0.523109 0.777705 0.372013
O O3 0.152357 0.712745 0.311377
O O4 0.132185 0.715014 0.188908
O O5 0.163924 0.000000 0.256193
O O6 0.084438 0.000000 0.108052
O O7 0.750000 0.250000 0.000000
O O8 0.727400 0.500000 0.396189
O O9 0.000000 0.780807 0.500000
#
# Coordination Sequence:
#
# PCOD9215485 Si02
#       4
#     2   8   8   8
#     4  12  26  44  72  92 140 184 220 292 344 394
#     4  10  24  41  64  97 131 172 223 274 333 407
#     4  11  25  44  68 101 136 181 230 282 339 412
#     4  10  22  41  66  96 131 170 219 274 333 401
#
# _framework density 26.309837000000002
#
# number of rings (size 3 to 8) (size 9 to 14) (size 15 to 20)
#    0.000    1.538    1.538    1.385    6.462    1.846 
#    0.000    0.000    0.000    0.000    0.000    0.000 
#    0.000    0.000    0.000    0.000    0.000    0.000 
#
# Total GULP energy -72574.507586 kJ/mol
# GULP energy per Si atom -5582.654430 kJ/mol
# Density = 2.624995 g / cm^3
# Si number density = 26.309837 Si / 1000 Ang^3
#
#
#
# Elastic Constant Matrix: (Units=GPa)
#
#
# Indices 1 2 3 4 5 6 
#
# 1 103.5212 8.5225 3.7638 0.0000 0.2024 0.0000
# 2 8.5225 173.7221 11.9635 0.0000 -19.3409 0.0000
# 3 3.7638 11.9635 96.6932 0.0000 -5.4351 0.0000
# 4 0.0000 0.0000 0.0000 21.0133 0.0000 9.3000
# 5 0.2024 -19.3409 -5.4351 0.0000 60.5260 0.0000
# 6 0.0000 0.0000 0.0000 9.3000 0.0000 18.6462
#
#
#
# Elastic Compliance Matrix: (Units=1/GPa)
#
#
# Indices 1 2 3 4 5 6 
#
# 1 0.009712 -0.000478 -0.000331 0.000000 -0.000215 0.000000
# 2 -0.000478 0.006031 -0.000622 0.000000 0.001873 0.000000
# 3 -0.000331 -0.000622 0.010474 0.000000 0.000743 0.000000
# 4 0.000000 0.000000 0.000000 0.061069 0.000000 -0.030459
# 5 -0.000215 0.001873 0.000743 0.000000 0.017188 0.000000
# 6 0.000000 0.000000 0.000000 -0.030459 0.000000 0.068822
#
#
# Mechanical properties :
#
#
# Convention : Reuss Voigt Hill
#
# Bulk Modulus (GPa) = 42.81820 46.93735 44.87777
# Shear Modulus (GPa) = 27.18250 43.34955 35.26602
#
# Velocity S-wave (km/s) = 3.21778 4.06354 3.66514
# Velocity P-wave (km/s) = 5.48775 6.31628 5.91654
#
# Compressibility (1/GPa) = 0.02335455
#
# Stress axis : x y z
#
# Youngs Moduli (GPa) = 102.96939 165.80656 95.47792
#
# Poissons Ratio (x) = 0.07918 0.03160
# Poissons Ratio (y) = 0.04917 0.05942
# Poissons Ratio (z) = 0.03408 0.10319
#
# Static dielectric constant tensor:
#      x y z
#    x 2.436320 0.000000 0.128930 
#    y 0.000000 1.973440 0.000000 
#    z 0.128930 0.000000 2.127590 
# 
# From -- ./inp_files/201682.got.cif
#   From: 2010.05.17/outbox.cif.g08.bks.cpg/sg12_101_cif.got.tgz:201682.got - 2010.06.03 13:09:07.
