data_PCOD9215730
_publ_section_title
;
Structure prediction by ZEFSAII (Michael W. Deem and Ramdas Pophale) SiO2 
 PCOD9215730
Probable space group: C 2/M
;
_chemical_formula_sum "Si O2"
_cell_formula_units_Z 48
_cell_length_a 24.671063
_cell_length_b 8.126876
_cell_length_c 11.308029
_cell_angle_alpha 90.000000
_cell_angle_beta 99.706818
_cell_angle_gamma 90.000000
_cell_volume 2234.785564
_symmetry_space_group_name_H-M "C 2/M"
_symmetry_group_IT_number 12
_symmetry_cell_setting 'monoclinic'
loop_
_space_group_symop_operation_xyz
x,y,z
-x,y,-z
-x,-y,-z
x,-y,z
1/2+x,1/2+y,z
1/2-x,1/2+y,-z
1/2-x,1/2-y,-z
1/2+x,1/2-y,z
loop_
_atom_site_type_symbol
_atom_site_label
_atom_site_fract_x
_atom_site_fract_y
_atom_site_fract_z
Si Si1 0.186609 0.803035 0.491374
Si Si2 0.008536 0.188543 0.636289
Si Si3 0.871135 0.308282 0.297290
Si Si4 0.846520 0.802490 0.779759
Si Si5 0.964494 0.694292 0.875126
Si Si6 0.763574 0.301930 0.135660
O O1 0.250000 0.750000 0.500000
O O2 0.158236 0.707492 0.587030
O O3 0.153631 0.766107 0.359407
O O4 0.184620 0.000000 0.511335
O O5 0.073409 0.206298 0.682449
O O6 0.000000 0.263934 0.500000
O O7 0.981335 0.251738 0.748118
O O8 0.989841 0.000000 0.619469
O O9 0.884263 0.500000 0.276632
O O10 0.823950 0.242783 0.193037
O O11 0.899872 0.733717 0.864160
O O12 0.787432 0.741624 0.804390
O O13 0.847523 0.000000 0.793529
O O14 0.972282 0.500000 0.879718
O O15 0.000000 0.763042 0.000000
O O16 0.765571 0.500000 0.149378
O O17 0.750000 0.250000 0.000000
#
# Coordination Sequence:
#
# PCOD9215730 Si02
#       6
#     8   8   8   8   8   8
#     4  11  21  37  61  92 127 162 204 251 307 373
#     4  11  25  45  68  96 129 170 218 267 319 381
#     4  11  23  41  64  94 130 163 203 259 314 373
#     4  10  22  42  64  90 126 164 205 256 311 373
#     4  11  26  45  66  96 129 167 216 269 322 380
#     4  10  23  41  60  89 126 164 205 253 310 369
#
# _framework density 21.478569
#
# number of rings (size 3 to 8) (size 9 to 14) (size 15 to 20)
#    0.000    1.333    1.667    3.000    2.333   10.000 
#    0.000    0.000    0.000    0.000    0.000    0.000 
#    0.000    0.000    0.000    0.000    0.000    0.000 
#
# Total GULP energy -134058.326935 kJ/mol
# GULP energy per Si atom -5585.763622 kJ/mol
# Density = 2.142968 g / cm^3
# Si number density = 21.478569 Si / 1000 Ang^3
#
#
#
# Elastic Constant Matrix: (Units=GPa)
#
#
# Indices 1 2 3 4 5 6 
#
# 1 74.8558 -11.3485 21.5005 0.0000 21.7876 0.0000
# 2 -11.3485 19.0353 10.7006 0.0000 3.6707 0.0000
# 3 21.5005 10.7006 122.5200 0.0000 25.9988 0.0000
# 4 0.0000 0.0000 0.0000 29.3223 0.0000 -2.0647
# 5 21.7876 3.6707 25.9988 0.0000 34.1997 0.0000
# 6 0.0000 0.0000 0.0000 -2.0647 0.0000 29.7546
#
#
#
# Elastic Compliance Matrix: (Units=1/GPa)
#
#
# Indices 1 2 3 4 5 6 
#
# 1 0.020095 0.015676 -0.002172 0.000000 -0.012833 0.000000
# 2 0.015676 0.067685 -0.005964 0.000000 -0.012718 0.000000
# 3 -0.002172 -0.005964 0.010295 0.000000 -0.005803 0.000000
# 4 0.000000 0.000000 0.000000 0.034271 0.000000 0.002378
# 5 -0.012833 -0.012718 -0.005803 0.000000 0.043192 0.000000
# 6 0.000000 0.000000 0.000000 0.002378 0.000000 0.033773
#
#
# Mechanical properties :
#
#
# Convention : Reuss Voigt Hill
#
# Bulk Modulus (GPa) = 8.83750 28.67960 18.75855
# Shear Modulus (GPa) = 21.55650 31.69255 26.62453
#
# Velocity S-wave (km/s) = 3.17145 3.84545 3.52459
# Velocity P-wave (km/s) = 4.18739 5.75311 5.03153
#
# Compressibility (1/GPa) = 0.11315422
#
# Stress axis : x y z
#
# Youngs Moduli (GPa) = 49.76464 14.77443 97.13183
#
# Poissons Ratio (x) = -0.23160 0.21100
# Poissons Ratio (y) = -0.78010 0.57925
# Poissons Ratio (z) = 0.10810 0.08811
#
# Static dielectric constant tensor:
#      x y z
#    x 1.782540 0.000000 0.000930 
#    y 0.000000 1.766140 0.000000 
#    z 0.000930 0.000000 1.813460 
# 
# From -- ./inp_files/173065.got.cif
#   From: 2010.05.17/outbox.cif.g08.bks.cpg/sg12_87_cif.got.tgz:173065.got - 2010.06.03 13:09:07.
