data_PCOD9215745
_publ_section_title
;
Structure prediction by ZEFSAII (Michael W. Deem and Ramdas Pophale) SiO2 
 PCOD9215745
Probable space group: C 2/M
;
_chemical_formula_sum "Si O2"
_cell_formula_units_Z 28
_cell_length_a 8.641008
_cell_length_b 31.984932
_cell_length_c 5.112435
_cell_angle_alpha 90.000000
_cell_angle_beta 59.165587
_cell_angle_gamma 90.000000
_cell_volume 1213.262920
_symmetry_space_group_name_H-M "C 2/M"
_symmetry_group_IT_number 12
_symmetry_cell_setting 'monoclinic'
loop_
_space_group_symop_operation_xyz
x,y,z
-x,y,-z
-x,-y,-z
x,-y,z
1/2+x,1/2+y,z
1/2-x,1/2+y,-z
1/2-x,1/2-y,-z
1/2+x,1/2-y,z
loop_
_atom_site_type_symbol
_atom_site_label
_atom_site_fract_x
_atom_site_fract_y
_atom_site_fract_z
Si Si1 0.699550 0.191039 0.207063
Si Si2 0.294449 0.546892 0.590553
Si Si3 0.500000 0.250267 0.000000
Si Si4 0.192784 0.596008 0.185857
O O1 0.500000 0.189339 0.500000
O O2 0.643859 0.218536 0.004637
O O3 0.757266 0.143789 0.099694
O O4 0.853383 0.215661 0.237425
O O5 0.500000 0.543783 0.500000
O O6 0.216656 0.500000 0.635726
O O7 0.299526 0.569221 0.306382
O O8 0.197285 0.573642 0.901649
O O9 0.000000 0.597481 0.500000
#
# Coordination Sequence:
#
# PCOD9215745 Si02
#       4
#     8   8   4   8
#     4  10  23  40  64  95 133 173 227 275 336 399
#     4  11  25  45  69  99 135 176 224 276 338 408
#     4  10  22  42  64  92 130 178 222 278 336 398
#     4  11  25  42  69 101 136 175 224 278 335 404
#
# _framework density 23.078263
#
# number of rings (size 3 to 8) (size 9 to 14) (size 15 to 20)
#    0.000    1.429    0.000    3.429   12.000    5.714 
#    0.000    0.000    0.000    0.000    0.000    0.000 
#    0.000    0.000    0.000    0.000    0.000    0.000 
#
# Total GULP energy -77953.075011 kJ/mol
# GULP energy per Si atom -5568.076787 kJ/mol
# Density = 2.302574 g / cm^3
# Si number density = 23.078263 Si / 1000 Ang^3
#
#
#
# Elastic Constant Matrix: (Units=GPa)
#
#
# Indices 1 2 3 4 5 6 
#
# 1 66.0600 30.6763 11.0489 0.0000 2.3362 0.0000
# 2 30.6763 217.5044 59.8908 0.0000 14.2562 0.0000
# 3 11.0489 59.8908 97.9198 0.0000 6.1455 0.0000
# 4 0.0000 0.0000 0.0000 35.0947 0.0000 -3.3684
# 5 2.3362 14.2562 6.1455 0.0000 32.2608 0.0000
# 6 0.0000 0.0000 0.0000 -3.3684 0.0000 23.3937
#
#
#
# Elastic Compliance Matrix: (Units=1/GPa)
#
#
# Indices 1 2 3 4 5 6 
#
# 1 0.016221 -0.002137 -0.000515 0.000000 -0.000132 0.000000
# 2 -0.002137 0.005918 -0.003263 0.000000 -0.001839 0.000000
# 3 -0.000515 -0.003263 0.012321 0.000000 -0.000868 0.000000
# 4 0.000000 0.000000 0.000000 0.028894 0.000000 0.004160
# 5 -0.000132 -0.001839 -0.000868 0.000000 0.031985 0.000000
# 6 0.000000 0.000000 0.000000 0.004160 0.000000 0.043346
#
#
# Mechanical properties :
#
#
# Convention : Reuss Voigt Hill
#
# Bulk Modulus (GPa) = 44.19012 64.96846 54.57929
# Shear Modulus (GPa) = 31.63405 36.80775 34.22090
#
# Velocity S-wave (km/s) = 3.70635 3.99796 3.85492
# Velocity P-wave (km/s) = 6.12418 7.03734 6.59658
#
# Compressibility (1/GPa) = 0.02262949
#
# Stress axis : x y z
#
# Youngs Moduli (GPa) = 61.64827 168.97329 81.16357
#
# Poissons Ratio (x) = 0.36116 0.04178
# Poissons Ratio (y) = 0.13177 0.26485
# Poissons Ratio (z) = 0.03173 0.55138
#
# Static dielectric constant tensor:
#      x y z
#    x 1.952130 0.000000 -0.030250 
#    y 0.000000 1.874800 0.000000 
#    z -0.030250 0.000000 1.930670 
# 
# From -- ./inp_files/3386.got.cif
#   From: 2010.05.17/outbox.cif.g08.bks.cpg/sg12_2_cif.got.tgz:3386.got - 2010.06.03 13:09:07.
