data_PCOD9215499
_publ_section_title
;
Structure prediction by ZEFSAII (Michael W. Deem and Ramdas Pophale) SiO2 
 PCOD9215499
Probable space group: C 2/M
;
_chemical_formula_sum "Si O2"
_cell_formula_units_Z 60
_cell_length_a 11.393061
_cell_length_b 22.929772
_cell_length_c 17.245885
_cell_angle_alpha 90.000000
_cell_angle_beta 138.049539
_cell_angle_gamma 90.000000
_cell_volume 3011.751555
_symmetry_space_group_name_H-M "C 2/M"
_symmetry_group_IT_number 12
_symmetry_cell_setting 'monoclinic'
loop_
_space_group_symop_operation_xyz
x,y,z
-x,y,-z
-x,-y,-z
x,-y,z
1/2+x,1/2+y,z
1/2-x,1/2+y,-z
1/2-x,1/2-y,-z
1/2+x,1/2-y,z
loop_
_atom_site_type_symbol
_atom_site_label
_atom_site_fract_x
_atom_site_fract_y
_atom_site_fract_z
Si Si1 0.000000 0.645264 0.000000
Si Si2 0.803930 0.931407 0.870837
Si Si3 0.685717 0.660559 0.259706
Si Si4 0.773609 0.157975 0.541436
Si Si5 0.703250 0.567660 0.578580
Si Si6 0.671017 0.282051 0.887407
Si Si7 0.962564 0.258201 0.331742
Si Si8 0.995569 0.569728 0.842494
O O1 0.172786 0.685380 0.080792
O O2 0.996961 0.605535 0.074952
O O3 0.770621 0.888275 0.782477
O O4 0.664481 0.920558 0.870786
O O5 0.788970 0.000000 0.841138
O O6 0.000000 0.921903 0.000000
O O7 0.736916 0.644876 0.372649
O O8 0.478607 0.673435 0.158294
O O9 0.788380 0.720349 0.289366
O O10 0.765047 0.102024 0.484154
O O11 0.614003 0.198881 0.435969
O O12 0.954586 0.194083 0.615415
O O13 0.500000 0.573148 0.500000
O O14 0.746634 0.500000 0.588683
O O15 0.827142 0.588433 0.709163
O O16 0.578528 0.239176 0.780047
O O17 0.750000 0.250000 0.000000
O O18 0.984278 0.500000 0.852913
#
# Coordination Sequence:
#
# PCOD9215499 Si02
#       8
#     4   8   8   8   8   8   8   8
#     4  12  25  42  66  92 124 168 217 268 322 378
#     4  10  22  41  66  98 133 172 211 264 333 392
#     4  11  23  40  66  94 128 165 216 262 319 385
#     4  10  23  41  65  94 126 169 215 257 317 384
#     4  10  23  41  65  93 127 168 210 263 323 380
#     4  11  26  41  60  93 124 168 215 262 321 379
#     4  10  23  41  60  92 127 169 206 262 312 378
#     4  10  23  43  67  96 127 165 213 263 325 386
#
# _framework density 19.921962000000001
#
# number of rings (size 3 to 8) (size 9 to 14) (size 15 to 20)
#    0.000    1.600    0.000    3.000    9.333    3.733 
#    0.000    0.667    0.000    4.000    0.000    0.000 
#    0.000    0.000    0.000    0.000    0.000    0.000 
#
# Total GULP energy -167679.293890 kJ/mol
# GULP energy per Si atom -5589.309796 kJ/mol
# Density = 1.987662 g / cm^3
# Si number density = 19.921962 Si / 1000 Ang^3
#
#
#
# Elastic Constant Matrix: (Units=GPa)
#
#
# Indices 1 2 3 4 5 6 
#
# 1 96.9381 62.7135 49.6374 0.0001 -13.0138 0.0000
# 2 62.7135 43.4330 51.3084 -0.0001 -16.7183 0.0000
# 3 49.6374 51.3084 139.1372 0.0016 -21.1657 0.0006
# 4 0.0001 -0.0001 0.0016 17.4324 0.0004 -17.8409
# 5 -13.0138 -16.7183 -21.1657 0.0004 47.0213 0.0001
# 6 0.0000 0.0000 0.0006 -17.8409 0.0001 35.7125
#
#
#
# Elastic Compliance Matrix: (Units=1/GPa)
#
#
# Indices 1 2 3 4 5 6 
#
# 1 -0.247463 0.472034 -0.075868 0.000025 0.065191 0.000014
# 2 0.472034 -0.856345 0.129835 -0.000044 -0.115386 -0.000024
# 3 -0.075868 0.129835 -0.010517 0.000004 0.020431 0.000002
# 4 0.000025 -0.000044 0.000004 0.117376 -0.000008 0.058637
# 5 0.065191 -0.115386 0.020431 -0.000008 0.007481 -0.000004
# 6 0.000014 -0.000024 0.000002 0.058637 -0.000004 0.057295
#
#
# Mechanical properties :
#
#
# Convention : Reuss Voigt Hill
#
# Bulk Modulus (GPa) = -16.04552 67.42521 25.68985
# Shear Modulus (GPa) = -2.49383 27.75652 12.63135
#
# Velocity S-wave (km/s) = -1.12005 3.73669 2.52075
# Velocity P-wave (km/s) = 3.12160 7.24812 4.62552
#
# Compressibility (1/GPa) = -0.06232269
#
# Stress axis : x y z
#
# Youngs Moduli (GPa) = -4.04100 -1.16775 -95.08361
#
# Poissons Ratio (x) = 0.55122 -7.21380
# Poissons Ratio (y) = 1.90749 12.34520
# Poissons Ratio (z) = -0.30658 0.15162
#
# Static dielectric constant tensor:
#      x y z
#    x 1.686090 0.000000 0.028220 
#    y 0.000000 1.700980 0.000000 
#    z 0.028220 0.000000 1.695940 
# 
# From -- ./inp_files/265702.got.cif
#   From: 2010.05.17/outbox.cif.g08.bks.cpg/sg12_133_cif.got.tgz:265702.got - 2010.06.03 13:09:07.
