data_PCOD9215346
_publ_section_title
;
Structure prediction by ZEFSAII (Michael W. Deem and Ramdas Pophale) SiO2 
 PCOD9215346
Probable space group: C 2/M
;
_chemical_formula_sum "Si O2"
_cell_formula_units_Z 64
_cell_length_a 20.532142
_cell_length_b 8.834316
_cell_length_c 22.148577
_cell_angle_alpha 90.000000
_cell_angle_beta 56.941003
_cell_angle_gamma 90.000000
_cell_volume 3367.081933
_symmetry_space_group_name_H-M "C 2/M"
_symmetry_group_IT_number 12
_symmetry_cell_setting 'monoclinic'
loop_
_space_group_symop_operation_xyz
x,y,z
-x,y,-z
-x,-y,-z
x,-y,z
1/2+x,1/2+y,z
1/2-x,1/2+y,-z
1/2-x,1/2-y,-z
1/2+x,1/2-y,z
loop_
_atom_site_type_symbol
_atom_site_label
_atom_site_fract_x
_atom_site_fract_y
_atom_site_fract_z
Si Si1 0.850702 0.818406 0.574397
Si Si2 0.901790 0.320474 0.676243
Si Si3 0.319013 0.681153 0.358918
Si Si4 0.241646 0.180689 0.186658
Si Si5 0.477467 0.318760 0.941781
Si Si6 0.433155 0.681295 0.409427
Si Si7 0.116785 0.318463 0.794120
Si Si8 0.807078 0.318183 0.020960
O O1 0.878954 0.749483 0.622932
O O2 0.764911 0.758427 0.602672
O O3 0.907166 0.778045 0.490351
O O4 0.848559 0.000000 0.580916
O O5 0.900341 0.500000 0.673134
O O6 0.837235 0.263874 0.755941
O O7 0.987542 0.262428 0.648425
O O8 0.310162 0.500000 0.359102
O O9 0.364039 0.717336 0.397943
O O10 0.369119 0.741789 0.277386
O O11 0.308184 0.217148 0.202084
O O12 0.273725 0.218659 0.104336
O O13 0.228389 0.000000 0.195995
O O14 0.477277 0.500000 0.934387
O O15 0.541400 0.244885 0.866035
O O16 0.500000 0.284662 0.000000
O O17 0.392632 0.251835 0.972106
O O18 0.445482 0.500000 0.401412
O O19 0.112025 0.500000 0.790576
O O20 0.811143 0.500000 0.013629
O O21 0.750000 0.250000 0.000000
#
# Coordination Sequence:
#
# PCOD9215346 Si02
#       8
#     8   8   8   8   8   8   8   8
#     4  11  22  40  65  90 121 165 208 250 307 373
#     4  12  25  39  63  94 124 160 208 260 307 361
#     4  11  23  40  63  93 125 160 205 258 310 362
#     4  10  22  41  65  89 122 165 205 250 305 368
#     4  11  23  39  64  95 126 161 204 255 304 357
#     4  10  24  43  62  87 125 166 204 252 311 371
#     4  11  22  39  65  93 123 164 209 251 303 367
#     4  11  24  43  66  94 128 165 206 252 308 369
#
# _framework density 19.007556999999998
#
# number of rings (size 3 to 8) (size 9 to 14) (size 15 to 20)
#    0.000    1.125    2.500    3.750    0.000    6.500 
#    0.000    1.250    0.000    0.000    0.000    0.000 
#    0.000    0.000    0.000    0.000    0.000    0.000 
#
# Total GULP energy -179028.692552 kJ/mol
# GULP energy per Si atom -5594.646642 kJ/mol
# Density = 1.896430 g / cm^3
# Si number density = 19.007557 Si / 1000 Ang^3
#
#
#
# Elastic Constant Matrix: (Units=GPa)
#
#
# Indices 1 2 3 4 5 6 
#
# 1 58.9778 8.2857 -13.8714 0.0000 -13.4879 0.0002
# 2 8.2857 25.9766 6.0258 -0.0001 -5.6675 0.0002
# 3 -13.8714 6.0258 49.6013 0.0000 -17.3810 0.0001
# 4 0.0000 -0.0001 0.0000 14.4412 0.0000 5.6306
# 5 -13.4879 -5.6675 -17.3810 0.0000 31.2236 0.0000
# 6 0.0002 0.0002 0.0001 5.6306 0.0000 28.6557
#
#
#
# Elastic Compliance Matrix: (Units=1/GPa)
#
#
# Indices 1 2 3 4 5 6 
#
# 1 0.025313 -0.007545 0.014097 0.000000 0.017413 0.000000
# 2 -0.007545 0.042667 -0.007108 0.000000 0.000528 0.000000
# 3 0.014097 -0.007108 0.033106 0.000000 0.023228 0.000000
# 4 0.000000 0.000000 0.000000 0.074992 0.000000 -0.014735
# 5 0.017413 0.000528 0.023228 0.000000 0.052575 0.000000
# 6 0.000000 0.000000 0.000000 -0.014735 0.000000 0.037792
#
#
# Mechanical properties :
#
#
# Convention : Reuss Voigt Hill
#
# Bulk Modulus (GPa) = 10.00257 15.04844 12.52551
# Shear Modulus (GPa) = 16.61772 23.80513 20.21143
#
# Velocity S-wave (km/s) = 2.96001 3.54277 3.26442
# Velocity P-wave (km/s) = 4.11778 4.96681 4.56209
#
# Compressibility (1/GPa) = 0.09997430
#
# Stress axis : x y z
#
# Youngs Moduli (GPa) = 39.50471 23.43725 30.20567
#
# Poissons Ratio (x) = 0.17684 -0.42582
# Poissons Ratio (y) = 0.29808 0.21471
# Poissons Ratio (z) = -0.55691 0.16660
#
# Static dielectric constant tensor:
#      x y z
#    x 1.630400 0.000000 0.005430 
#    y 0.000000 1.630990 0.000000 
#    z 0.005430 0.000000 1.637540 
# 
# From -- ./inp_files/319873.got.cif
#   From: 2010.05.17/outbox.cif.g08.bks.cpg/sg12_160_cif.got.tgz:319873.got - 2010.06.03 13:09:07.
