data_PCOD9215641
_publ_section_title
;
Structure prediction by ZEFSAII (Michael W. Deem and Ramdas Pophale) SiO2 
 PCOD9215641
Probable space group: C 2/M
;
_chemical_formula_sum "Si O2"
_cell_formula_units_Z 52
_cell_length_a 28.074635
_cell_length_b 9.512132
_cell_length_c 12.164412
_cell_angle_alpha 90.000000
_cell_angle_beta 43.682825
_cell_angle_gamma 90.000000
_cell_volume 2243.628631
_symmetry_space_group_name_H-M "C 2/M"
_symmetry_group_IT_number 12
_symmetry_cell_setting 'monoclinic'
loop_
_space_group_symop_operation_xyz
x,y,z
-x,y,-z
-x,-y,-z
x,-y,z
1/2+x,1/2+y,z
1/2-x,1/2+y,-z
1/2-x,1/2-y,-z
1/2+x,1/2-y,z
loop_
_atom_site_type_symbol
_atom_site_label
_atom_site_fract_x
_atom_site_fract_y
_atom_site_fract_z
Si Si1 0.001718 0.165735 0.681584
Si Si2 0.458146 0.844753 0.956723
Si Si3 0.786158 0.000000 0.437285
Si Si4 0.865131 0.662421 0.512283
Si Si5 0.662611 0.207108 0.692926
Si Si6 0.647975 0.338666 0.126275
Si Si7 0.744039 0.663370 0.181997
O O1 0.933354 0.189500 0.722431
O O2 0.070315 0.254833 0.544631
O O3 0.018565 0.000000 0.653009
O O4 0.976287 0.222451 0.842362
O O5 0.380813 0.841008 0.130380
O O6 0.473060 0.000000 0.882411
O O7 0.500000 0.830641 0.000000
O O8 0.733245 0.121424 0.571675
O O9 0.833890 0.125714 0.308805
O O10 0.862164 0.500000 0.550827
O O11 0.870841 0.669263 0.370347
O O12 0.794545 0.739940 0.664544
O O13 0.653309 0.500000 0.075662
O O14 0.690897 0.331940 0.167099
O O15 0.685835 0.232101 0.980474
O O16 0.750174 0.500000 0.203520
#
# Coordination Sequence:
#
# PCOD9215641 Si02
#       7
#     8   8   4   8   8   8   8
#     4  11  25  41  65  94 125 164 215 261 312 378
#     4  11  22  40  63  85 121 169 206 251 308 363
#     4  10  24  40  60  88 120 164 208 262 306 368
#     4  12  24  42  64  91 129 170 208 264 317 371
#     4  11  23  43  62  87 128 166 211 258 313 369
#     4   9  21  45  66  95 130 162 203 257 319 383
#     4  10  22  41  70  95 126 165 205 257 317 380
#
# _framework density 23.176741
#
# number of rings (size 3 to 8) (size 9 to 14) (size 15 to 20)
#    0.000    1.385    3.077    1.385    3.231    5.231 
#    2.769    3.077    0.000    0.000    0.000    0.000 
#    0.000    0.000    0.000    0.000    0.000    0.000 
#
# Total GULP energy -144938.277847 kJ/mol
# GULP energy per Si atom -5574.549148 kJ/mol
# Density = 2.312399 g / cm^3
# Si number density = 23.176741 Si / 1000 Ang^3
#
#
#
# Elastic Constant Matrix: (Units=GPa)
#
#
# Indices 1 2 3 4 5 6 
#
# 1 78.6856 33.8950 -2.3865 0.0000 -2.1341 0.0000
# 2 33.8950 204.6633 36.0400 0.0000 -12.9038 0.0000
# 3 -2.3865 36.0400 60.5146 0.0000 -4.0513 0.0000
# 4 0.0000 0.0000 0.0000 34.2800 0.0000 -5.6817
# 5 -2.1341 -12.9038 -4.0513 0.0000 18.7435 0.0000
# 6 0.0000 0.0000 0.0000 -5.6817 0.0000 10.3054
#
#
#
# Elastic Compliance Matrix: (Units=1/GPa)
#
#
# Indices 1 2 3 4 5 6 
#
# 1 0.013932 -0.002674 0.002156 0.000000 0.000212 0.000000
# 2 -0.002674 0.006155 -0.003559 0.000000 0.003164 0.000000
# 3 0.002156 -0.003559 0.018855 0.000000 0.001870 0.000000
# 4 0.000000 0.000000 0.000000 0.032105 0.000000 0.017701
# 5 0.000212 0.003164 0.001870 0.000000 0.055958 0.000000
# 6 0.000000 0.000000 0.000000 0.017701 0.000000 0.106796
#
#
# Mechanical properties :
#
#
# Convention : Reuss Voigt Hill
#
# Bulk Modulus (GPa) = 32.48066 53.21784 42.84925
# Shear Modulus (GPa) = 19.82415 31.08677 25.45546
#
# Velocity S-wave (km/s) = 2.92780 3.66634 3.31769
# Velocity P-wave (km/s) = 5.04719 6.39799 5.76231
#
# Compressibility (1/GPa) = 0.03078755
#
# Stress axis : x y z
#
# Youngs Moduli (GPa) = 71.77930 162.46697 53.03634
#
# Poissons Ratio (x) = 0.43436 -0.11434
# Poissons Ratio (y) = 0.19191 0.18878
# Poissons Ratio (z) = -0.15474 0.57828
#
# Static dielectric constant tensor:
#      x y z
#    x 1.981110 0.000000 -0.031820 
#    y 0.000000 1.838000 0.000000 
#    z -0.031820 0.000000 1.877410 
# 
# From -- ./inp_files/249587.got.cif
#   From: 2010.05.17/outbox.cif.g08.bks.cpg/sg12_125_cif.got.tgz:249587.got - 2010.06.03 13:09:07.
