data_PCOD9215426
_publ_section_title
;
Structure prediction by ZEFSAII (Michael W. Deem and Ramdas Pophale) SiO2 
 PCOD9215426
Probable space group: C 2/M
;
_chemical_formula_sum "Si O2"
_cell_formula_units_Z 32
_cell_length_a 22.234111
_cell_length_b 11.003281
_cell_length_c 14.972656
_cell_angle_alpha 90.000000
_cell_angle_beta 158.309292
_cell_angle_gamma 90.000000
_cell_volume 1353.842565
_symmetry_space_group_name_H-M "C 2/M"
_symmetry_group_IT_number 12
_symmetry_cell_setting 'monoclinic'
loop_
_space_group_symop_operation_xyz
x,y,z
-x,y,-z
-x,-y,-z
x,-y,z
1/2+x,1/2+y,z
1/2-x,1/2+y,-z
1/2-x,1/2-y,-z
1/2+x,1/2-y,z
loop_
_atom_site_type_symbol
_atom_site_label
_atom_site_fract_x
_atom_site_fract_y
_atom_site_fract_z
Si Si1 0.001725 0.129173 0.292557
Si Si2 0.170087 0.365363 0.340060
Si Si3 0.027836 0.362859 0.432784
Si Si4 0.407454 0.317179 0.960231
O O1 0.199568 0.125847 0.560433
O O2 0.949957 0.251433 0.270984
O O3 0.945975 0.000000 0.255007
O O4 0.946223 0.132242 0.112420
O O5 0.171725 0.500000 0.384518
O O6 0.250000 0.250000 0.500000
O O7 0.986044 0.319186 0.073845
O O8 0.978848 0.500000 0.338820
O O9 0.220682 0.346239 0.686302
O O10 0.000000 0.349583 0.500000
O O11 0.500000 0.366356 0.000000
#
# Coordination Sequence:
#
# PCOD9215426 Si02
#       4
#     8   8   8   8
#     4  10  22  41  65  97 133 166 215 274 329 391
#     4   9  19  36  60  96 133 164 205 266 324 381
#     4  11  26  46  66  93 131 175 224 275 332 395
#     4  11  22  41  66 101 128 177 214 270 325 398
#
# _framework density 23.636427000000001
#
# number of rings (size 3 to 8) (size 9 to 14) (size 15 to 20)
#    0.000    1.750    2.500    0.750    0.000   10.000 
#    0.000    0.000    0.000    0.000    0.000    0.000 
#    0.000    0.000    0.000    0.000    0.000    0.000 
#
# Total GULP energy -89099.702086 kJ/mol
# GULP energy per Si atom -5568.731380 kJ/mol
# Density = 2.358263 g / cm^3
# Si number density = 23.636427 Si / 1000 Ang^3
#
#
#
# Elastic Constant Matrix: (Units=GPa)
#
#
# Indices 1 2 3 4 5 6 
#
# 1 101.6145 69.7481 13.1259 0.0000 -4.5072 0.0000
# 2 69.7481 278.2116 26.2752 0.0000 -28.2753 0.0000
# 3 13.1259 26.2752 69.9068 0.0000 -0.4449 0.0000
# 4 0.0000 0.0000 0.0000 7.1917 0.0000 -2.9558
# 5 -4.5072 -28.2753 -0.4449 0.0000 38.8261 0.0000
# 6 0.0000 0.0000 0.0000 -2.9558 0.0000 15.6181
#
#
#
# Elastic Compliance Matrix: (Units=1/GPa)
#
#
# Indices 1 2 3 4 5 6 
#
# 1 0.011999 -0.002981 -0.001138 0.000000 -0.000791 0.000000
# 2 -0.002981 0.004773 -0.001214 0.000000 0.003116 0.000000
# 3 -0.001138 -0.001214 0.014969 0.000000 -0.000845 0.000000
# 4 0.000000 0.000000 0.000000 0.150777 0.000000 0.028535
# 5 -0.000791 0.003116 -0.000845 0.000000 0.027924 0.000000
# 6 0.000000 0.000000 0.000000 0.028535 0.000000 0.069429
#
#
# Mechanical properties :
#
#
# Convention : Reuss Voigt Hill
#
# Bulk Modulus (GPa) = 47.44852 74.22570 60.83711
# Shear Modulus (GPa) = 16.80318 35.03277 25.91798
#
# Velocity S-wave (km/s) = 2.66917 3.85405 3.31498
# Velocity P-wave (km/s) = 5.44217 7.16074 6.35977
#
# Compressibility (1/GPa) = 0.02107547
#
# Stress axis : x y z
#
# Youngs Moduli (GPa) = 83.33850 209.50437 66.80278
#
# Poissons Ratio (x) = 0.62458 0.07599
# Poissons Ratio (y) = 0.24845 0.08113
# Poissons Ratio (z) = 0.09480 0.25443
#
# Static dielectric constant tensor:
#      x y z
#    x 1.910920 0.000000 -0.066990 
#    y 0.000000 2.003640 0.000000 
#    z -0.066990 0.000000 2.023900 
# 
# From -- ./inp_files/292969.got.cif
#   From: 2010.05.17/outbox.cif.g08.bks.cpg/sg12_147_cif.got.tgz:292969.got - 2010.06.03 13:09:07.
