data_PCOD9215107
_publ_section_title
;
Structure prediction by ZEFSAII (Michael W. Deem and Ramdas Pophale) SiO2 
 PCOD9215107
Probable space group: C 2/M
;
_chemical_formula_sum "Si O2"
_cell_formula_units_Z 48
_cell_length_a 15.786158
_cell_length_b 30.997145
_cell_length_c 9.147253
_cell_angle_alpha 90.000000
_cell_angle_beta 144.763475
_cell_angle_gamma 90.000000
_cell_volume 2582.434725
_symmetry_space_group_name_H-M "C 2/M"
_symmetry_group_IT_number 12
_symmetry_cell_setting 'monoclinic'
loop_
_space_group_symop_operation_xyz
x,y,z
-x,y,-z
-x,-y,-z
x,-y,z
1/2+x,1/2+y,z
1/2-x,1/2+y,-z
1/2-x,1/2-y,-z
1/2+x,1/2-y,z
loop_
_atom_site_type_symbol
_atom_site_label
_atom_site_fract_x
_atom_site_fract_y
_atom_site_fract_z
Si Si1 0.455448 0.689371 0.772602
Si Si2 0.299372 0.124532 0.602346
Si Si3 0.419306 0.233088 0.230482
Si Si4 0.901032 0.113828 0.213399
Si Si5 0.101032 0.362013 0.923889
Si Si6 0.436363 0.450660 0.746678
O O1 0.295962 0.667535 0.558260
O O2 0.481774 0.731567 0.713595
O O3 0.553732 0.651976 0.834534
O O4 0.500000 0.698803 0.000000
O O5 0.435609 0.120597 0.684849
O O6 0.198430 0.082490 0.450071
O O7 0.350809 0.130048 0.841481
O O8 0.500000 0.226391 0.500000
O O9 0.409312 0.188275 0.130142
O O10 0.250000 0.250000 0.000000
O O11 0.000000 0.119858 0.500000
O O12 0.946733 0.069313 0.201767
O O13 0.730267 0.117493 0.010277
O O14 0.398599 0.500000 0.658503
O O15 0.500000 0.448952 0.000000
#
# Coordination Sequence:
#
# PCOD9215107 Si02
#       6
#     8   8   8   8   8   8
#     4  11  23  39  62  85 124 175 214 259 313 367
#     4  10  22  41  61  92 130 167 203 262 324 378
#     4  12  26  41  61  90 128 172 226 277 313 366
#     4  11  19  40  65  90 126 163 209 260 313 382
#     4  11  23  38  62  92 127 167 211 263 319 375
#     4  10  22  42  69  96 124 163 208 254 315 393
#
# _framework density 18.587111
#
# number of rings (size 3 to 8) (size 9 to 14) (size 15 to 20)
#    0.000    1.167    5.000    3.500    4.667    2.333 
#    0.000    2.500    0.000    2.000    0.000    0.000 
#    0.000    0.000    0.000    0.000    0.000    0.000 
#
# Total GULP energy -133973.164547 kJ/mol
# GULP energy per Si atom -5582.215189 kJ/mol
# Density = 1.854481 g / cm^3
# Si number density = 18.587111 Si / 1000 Ang^3
#
#
#
# Elastic Constant Matrix: (Units=GPa)
#
#
# Indices 1 2 3 4 5 6 
#
# 1 102.1953 41.9716 36.8427 0.0000 28.1816 0.0000
# 2 41.9716 137.0097 45.7888 0.0000 9.6142 0.0000
# 3 36.8427 45.7888 68.1608 0.0000 17.8755 0.0000
# 4 0.0000 0.0000 0.0000 20.2062 0.0000 -14.2329
# 5 28.1816 9.6142 17.8755 0.0000 46.8477 0.0000
# 6 0.0000 0.0000 0.0000 -14.2329 0.0000 4.4896
#
#
#
# Elastic Compliance Matrix: (Units=1/GPa)
#
#
# Indices 1 2 3 4 5 6 
#
# 1 0.014085 -0.002425 -0.004325 0.000000 -0.006325 0.000000
# 2 -0.002425 0.009842 -0.005726 0.000000 0.001624 0.000000
# 3 -0.004325 -0.005726 0.022074 0.000000 -0.004646 0.000000
# 4 0.000000 0.000000 0.000000 -0.040136 0.000000 -0.127240
# 5 -0.006325 0.001624 -0.004646 0.000000 0.026590 0.000000
# 6 0.000000 0.000000 0.000000 -0.127240 0.000000 -0.180640
#
#
# Mechanical properties :
#
#
# Convention : Reuss Voigt Hill
#
# Bulk Modulus (GPa) = 47.51325 61.84132 54.67729
# Shear Modulus (GPa) = -43.02297 26.49288 -8.26505
#
# Velocity S-wave (km/s) = -4.81632 3.77946 -2.11100
# Velocity P-wave (km/s) = 2.30462 7.23803 4.85169
#
# Compressibility (1/GPa) = 0.02104676
#
# Stress axis : x y z
#
# Youngs Moduli (GPa) = 70.99922 101.61049 45.30183
#
# Poissons Ratio (x) = 0.24645 0.19593
# Poissons Ratio (y) = 0.17220 0.25941
# Poissons Ratio (z) = 0.30708 0.58185
#
# Static dielectric constant tensor:
#      x y z
#    x 1.654790 0.000000 0.048010 
#    y 0.000000 1.607490 0.000000 
#    z 0.048010 0.000000 1.633860 
# 
# From -- ./inp_files/68364.got.cif
#   From: 2010.05.17/outbox.cif.g08.bks.cpg/sg12_35_cif.got.tgz:68364.got - 2010.06.03 13:09:07.
