data_PCOD9215674
_publ_section_title
;
Structure prediction by ZEFSAII (Michael W. Deem and Ramdas Pophale) SiO2 
 PCOD9215674
Probable space group: C 2/M
;
_chemical_formula_sum "Si O2"
_cell_formula_units_Z 56
_cell_length_a 14.646539
_cell_length_b 26.336481
_cell_length_c 8.106114
_cell_angle_alpha 90.000000
_cell_angle_beta 60.878222
_cell_angle_gamma 90.000000
_cell_volume 2731.566507
_symmetry_space_group_name_H-M "C 2/M"
_symmetry_group_IT_number 12
_symmetry_cell_setting 'monoclinic'
loop_
_space_group_symop_operation_xyz
x,y,z
-x,y,-z
-x,-y,-z
x,-y,z
1/2+x,1/2+y,z
1/2-x,1/2+y,-z
1/2-x,1/2-y,-z
1/2+x,1/2-y,z
loop_
_atom_site_type_symbol
_atom_site_label
_atom_site_fract_x
_atom_site_fract_y
_atom_site_fract_z
Si Si1 0.879512 0.500000 0.569440
Si Si2 0.762345 0.404876 0.649476
Si Si3 0.619136 0.000000 0.831445
Si Si4 0.732185 0.306169 0.894927
Si Si5 0.302506 0.890619 0.254734
Si Si6 0.966632 0.942858 0.220551
Si Si7 0.087188 0.146754 0.301495
Si Si8 0.885321 0.711821 0.039802
O O1 0.824343 0.449603 0.685329
O O2 0.869962 0.500000 0.378102
O O3 0.000000 0.500000 0.500000
O O4 0.741136 0.356273 0.778562
O O5 0.823716 0.389770 0.430959
O O6 0.655418 0.429672 0.677654
O O7 0.671347 0.946556 0.836973
O O8 0.500000 0.000000 0.000000
O O9 0.692185 0.256861 0.831867
O O10 0.643566 0.318779 0.112764
O O11 0.841740 0.294082 0.890128
O O12 0.183045 0.875784 0.322047
O O13 0.367593 0.844685 0.121894
O O14 0.029530 0.900148 0.262787
O O15 0.983595 0.000000 0.270256
O O16 0.000000 0.941732 0.000000
O O17 0.000000 0.170741 0.500000
O O18 0.000000 0.727201 0.000000
#
# Coordination Sequence:
#
# PCOD9215674 Si02
#       8
#     4   8   4   8   8   8   8   8
#     4  10  24  40  60  92 123 161 200 253 300 356
#     4  11  21  40  62  89 128 157 208 251 304 378
#     4  10  22  42  62  83 120 159 200 248 307 362
#     4  10  24  42  64  92 119 165 209 253 319 374
#     4  10  23  38  61  94 121 160 209 254 305 371
#     4  11  22  36  58  92 130 166 201 243 312 370
#     4  11  22  36  60  92 126 161 204 247 304 374
#     4  10  23  44  64  87 124 158 208 265 311 369
#
# _framework density 20.501058
#
# number of rings (size 3 to 8) (size 9 to 14) (size 15 to 20)
#    0.000    1.571    3.571    0.429    3.000    5.429 
#    0.000    2.857    0.000    0.857    0.000    0.000 
#    0.000    0.000    0.000    0.000    0.000    0.000 
#
# Total GULP energy -156167.408312 kJ/mol
# GULP energy per Si atom -5577.407440 kJ/mol
# Density = 2.045440 g / cm^3
# Si number density = 20.501058 Si / 1000 Ang^3
#
#
#
# Elastic Constant Matrix: (Units=GPa)
#
#
# Indices 1 2 3 4 5 6 
#
# 1 89.6308 20.0686 -4.3344 0.0000 -12.7109 0.0000
# 2 20.0686 136.5843 25.8883 0.0000 3.0057 0.0000
# 3 -4.3344 25.8883 42.6516 0.0000 -0.7328 0.0000
# 4 0.0000 0.0000 0.0000 0.7106 0.0000 0.3938
# 5 -12.7109 3.0057 -0.7328 0.0000 17.6396 0.0000
# 6 0.0000 0.0000 0.0000 0.3938 0.0000 34.8184
#
#
#
# Elastic Compliance Matrix: (Units=1/GPa)
#
#
# Indices 1 2 3 4 5 6 
#
# 1 0.013399 -0.002809 0.003243 0.000000 0.010269 0.000000
# 2 -0.002809 0.008909 -0.005758 0.000000 -0.003782 0.000000
# 3 0.003243 -0.005758 0.027347 0.000000 0.004454 0.000000
# 4 0.000000 0.000000 0.000000 1.416166 0.000000 -0.016016
# 5 0.010269 -0.003782 0.004454 0.000000 0.064919 0.000000
# 6 0.000000 0.000000 0.000000 -0.016016 0.000000 0.028902
#
#
# Mechanical properties :
#
#
# Convention : Reuss Voigt Hill
#
# Bulk Modulus (GPa) = 25.63670 39.12354 32.38012
# Shear Modulus (GPa) = 3.15798 25.78333 14.47065
#
# Velocity S-wave (km/s) = 1.24247 3.55020 2.65966
# Velocity P-wave (km/s) = 3.81976 5.99419 5.02597
#
# Compressibility (1/GPa) = 0.03900658
#
# Stress axis : x y z
#
# Youngs Moduli (GPa) = 74.63238 112.24771 36.56738
#
# Poissons Ratio (x) = 0.31536 -0.11860
# Poissons Ratio (y) = 0.20968 0.21055
# Poissons Ratio (z) = -0.24206 0.64631
#
# Static dielectric constant tensor:
#      x y z
#    x 1.780760 0.000000 -0.042760 
#    y 0.000000 1.749840 0.000000 
#    z -0.042760 0.000000 1.812680 
# 
# From -- ./inp_files/65822.got.cif
#   From: 2010.05.17/outbox.cif.g08.bks.cpg/sg12_33_cif.got.tgz:65822.got - 2010.06.03 13:09:07.
