data_PCOD9215602
_publ_section_title
;
Structure prediction by ZEFSAII (Michael W. Deem and Ramdas Pophale) SiO2 
 PCOD9215602
Probable space group: C 2/M
;
_chemical_formula_sum "Si O2"
_cell_formula_units_Z 64
_cell_length_a 31.541765
_cell_length_b 8.858389
_cell_length_c 24.698453
_cell_angle_alpha 90.000000
_cell_angle_beta 152.220577
_cell_angle_gamma 90.000000
_cell_volume 3216.330275
_symmetry_space_group_name_H-M "C 2/M"
_symmetry_group_IT_number 12
_symmetry_cell_setting 'monoclinic'
loop_
_space_group_symop_operation_xyz
x,y,z
-x,y,-z
-x,-y,-z
x,-y,z
1/2+x,1/2+y,z
1/2-x,1/2+y,-z
1/2-x,1/2-y,-z
1/2+x,1/2-y,z
loop_
_atom_site_type_symbol
_atom_site_label
_atom_site_fract_x
_atom_site_fract_y
_atom_site_fract_z
Si Si1 0.099963 0.324455 0.587213
Si Si2 0.778158 0.181485 0.858995
Si Si3 0.701904 0.320519 0.312740
Si Si4 0.193023 0.180381 0.984885
Si Si5 0.991033 0.324103 0.260267
Si Si6 0.103315 0.681107 0.099166
Si Si7 0.605025 0.321922 0.477984
Si Si8 0.661826 0.175822 0.373190
O O1 0.115311 0.500000 0.587202
O O2 0.181644 0.285541 0.720665
O O3 0.101037 0.217721 0.536598
O O4 0.000000 0.316833 0.500000
O O5 0.858970 0.256307 0.915169
O O6 0.790494 0.000000 0.871165
O O7 0.777691 0.228647 0.921364
O O8 0.702735 0.500000 0.311362
O O9 0.667384 0.251828 0.217672
O O10 0.802644 0.257758 0.437633
O O11 0.641921 0.260932 0.294704
O O12 0.090712 0.234328 0.858979
O O13 0.200419 0.000000 0.990873
O O14 0.250000 0.250000 0.000000
O O15 0.966844 0.500000 0.240462
O O16 0.021511 0.251064 0.351296
O O17 0.077760 0.314887 0.318857
O O18 0.110631 0.500000 0.107519
O O19 0.000000 0.720766 0.000000
O O20 0.608999 0.500000 0.472993
O O21 0.750000 0.250000 0.500000
O O22 0.680223 0.000000 0.382524
#
# Coordination Sequence:
#
# PCOD9215602 Si02
#       8
#     8   8   8   8   8   8   8   8
#     4  10  22  41  68  98 130 169 210 261 328 398
#     4  10  23  44  68  98 134 173 219 270 330 396
#     4  12  24  40  63  91 130 174 216 265 326 392
#     4  11  26  47  70  99 133 176 227 280 335 395
#     4  11  25  44  67  94 130 177 224 273 331 394
#     4  11  25  43  65  95 131 172 219 271 329 389
#     4  12  24  40  65  98 133 167 214 274 330 393
#     4  11  23  39  62  93 130 170 213 264 322 386
#
# _framework density 19.898454000000001
#
# number of rings (size 3 to 8) (size 9 to 14) (size 15 to 20)
#    0.000    1.000    2.500    3.750    3.500    3.750 
#    0.000    0.000    0.000    0.000    0.000    0.000 
#    0.000    0.000    0.000    0.000    0.000    0.000 
#
# Total GULP energy -178961.466137 kJ/mol
# GULP energy per Si atom -5592.545817 kJ/mol
# Density = 1.985316 g / cm^3
# Si number density = 19.898454 Si / 1000 Ang^3
#
#
#
# Elastic Constant Matrix: (Units=GPa)
#
#
# Indices 1 2 3 4 5 6 
#
# 1 119.9672 52.6082 47.9143 0.0000 -20.0026 0.0000
# 2 52.6082 68.8293 30.0448 0.0000 -4.7171 0.0000
# 3 47.9143 30.0448 81.2073 0.0000 -13.7395 0.0000
# 4 0.0000 0.0000 0.0000 28.1066 0.0000 -0.8537
# 5 -20.0026 -4.7171 -13.7395 0.0000 37.2160 0.0000
# 6 0.0000 0.0000 0.0000 -0.8537 0.0000 36.5256
#
#
#
# Elastic Compliance Matrix: (Units=1/GPa)
#
#
# Indices 1 2 3 4 5 6 
#
# 1 0.015059 -0.009134 -0.004621 0.000000 0.005230 0.000000
# 2 -0.009134 0.022869 -0.003639 0.000000 -0.003354 0.000000
# 3 -0.004621 -0.003639 0.016947 0.000000 0.003312 0.000000
# 4 0.000000 0.000000 0.000000 0.035604 0.000000 0.000832
# 5 0.005230 -0.003354 0.003312 0.000000 0.030479 0.000000
# 6 0.000000 0.000000 0.000000 0.000832 0.000000 0.027397
#
#
# Mechanical properties :
#
#
# Convention : Reuss Voigt Hill
#
# Bulk Modulus (GPa) = 49.78403 59.01539 54.39971
# Shear Modulus (GPa) = 26.33812 29.66540 28.00176
#
# Velocity S-wave (km/s) = 3.64211 3.86533 3.75538
# Velocity P-wave (km/s) = 6.53912 7.04583 6.79719
#
# Compressibility (1/GPa) = 0.02008676
#
# Stress axis : x y z
#
# Youngs Moduli (GPa) = 66.40657 43.72732 59.00711
#
# Poissons Ratio (x) = 0.39942 0.27265
# Poissons Ratio (y) = 0.60659 0.21473
# Poissons Ratio (z) = 0.30684 0.15912
#
# Static dielectric constant tensor:
#      x y z
#    x 1.737800 0.000000 0.012400 
#    y 0.000000 1.663620 0.000000 
#    z 0.012400 0.000000 1.706920 
# 
# From -- ./inp_files/353536.got.cif
#   From: 2010.05.17/outbox.cif.g08.bks.cpg/sg12_177_cif.got.tgz:353536.got - 2010.06.03 13:09:07.
