data_PCOD9215051
_publ_section_title
;
Structure prediction by ZEFSAII (Michael W. Deem and Ramdas Pophale) SiO2 
 PCOD9215051
Probable space group: C 2/M
;
_chemical_formula_sum "Si O2"
_cell_formula_units_Z 56
_cell_length_a 9.613377
_cell_length_b 28.202347
_cell_length_c 11.247267
_cell_angle_alpha 90.000000
_cell_angle_beta 125.374428
_cell_angle_gamma 90.000000
_cell_volume 2486.403555
_symmetry_space_group_name_H-M "C 2/M"
_symmetry_group_IT_number 12
_symmetry_cell_setting 'monoclinic'
loop_
_space_group_symop_operation_xyz
x,y,z
-x,y,-z
-x,-y,-z
x,-y,z
1/2+x,1/2+y,z
1/2-x,1/2+y,-z
1/2-x,1/2-y,-z
1/2+x,1/2-y,z
loop_
_atom_site_type_symbol
_atom_site_label
_atom_site_fract_x
_atom_site_fract_y
_atom_site_fract_z
Si Si1 0.821559 0.420047 0.851125
Si Si2 0.104300 0.923416 0.943926
Si Si3 0.053196 0.554008 0.778598
Si Si4 0.143277 0.143513 0.324976
Si Si5 0.000000 0.592994 0.500000
Si Si6 0.514852 0.272848 0.869873
Si Si7 0.000000 0.833647 0.500000
Si Si8 0.219696 0.692767 0.190496
O O1 0.669645 0.443788 0.849675
O O2 0.804210 0.362941 0.848682
O O3 0.867764 0.433956 0.741063
O O4 0.000000 0.434653 0.000000
O O5 0.975229 0.883287 0.831266
O O6 0.291278 0.913077 0.094920
O O7 0.000000 0.947188 0.000000
O O8 0.101531 0.500000 0.831330
O O9 0.034161 0.561168 0.630774
O O10 0.333216 0.125319 0.424987
O O11 0.066653 0.137413 0.419270
O O12 0.123947 0.197852 0.275337
O O13 0.685874 0.282842 0.876772
O O14 0.451534 0.218832 0.852492
O O15 0.500000 0.290505 0.000000
O O16 0.848218 0.804160 0.365522
#
# Coordination Sequence:
#
# PCOD9215051 Si02
#       8
#     8   8   8   8   4   8   4   8
#     4  10  22  40  71  92 132 177 221 273 335 399
#     4  11  21  44  71 100 130 174 228 276 331 401
#     4  11  26  46  70 103 137 172 222 279 340 412
#     4  11  24  42  69  98 132 185 224 280 329 401
#     4  12  25  41  72 102 139 182 213 280 337 407
#     4  11  24  39  64  94 138 172 233 276 325 390
#     4  10  22  41  64  86 136 174 235 264 339 397
#     4  11  23  39  59  96 130 183 215 280 328 390
#
# _framework density 22.522490999999999
#
# number of rings (size 3 to 8) (size 9 to 14) (size 15 to 20)
#    0.000    1.143    4.286    2.357    0.000    8.000 
#    0.000    0.000    0.000    0.857    0.000    0.000 
#    0.000    0.000    0.000    0.000    0.000    0.000 
#
# Total GULP energy -155988.373984 kJ/mol
# GULP energy per Si atom -5571.013357 kJ/mol
# Density = 2.247123 g / cm^3
# Si number density = 22.522491 Si / 1000 Ang^3
#
#
#
# Elastic Constant Matrix: (Units=GPa)
#
#
# Indices 1 2 3 4 5 6 
#
# 1 172.8758 36.4379 34.7386 0.0000 -11.7271 0.0000
# 2 36.4379 80.4901 23.9077 0.0000 -1.4081 0.0000
# 3 34.7386 23.9077 118.7900 0.0000 -9.3864 0.0000
# 4 0.0000 0.0000 0.0000 -1.9151 0.0000 22.0595
# 5 -11.7271 -1.4081 -9.3864 0.0000 44.3220 0.0000
# 6 0.0000 0.0000 0.0000 22.0595 0.0000 -50.2706
#
#
#
# Elastic Compliance Matrix: (Units=1/GPa)
#
#
# Indices 1 2 3 4 5 6 
#
# 1 0.006697 -0.002615 -0.001321 0.000000 0.001409 0.000000
# 2 -0.002615 0.014236 -0.002155 0.000000 -0.000696 0.000000
# 3 -0.001321 -0.002155 0.009362 0.000000 0.001565 0.000000
# 4 0.000000 0.000000 0.000000 0.128784 0.000000 0.056512
# 5 0.001409 -0.000696 0.001565 0.000000 0.023244 0.000000
# 6 0.000000 0.000000 0.000000 0.056512 0.000000 0.004906
#
#
# Mechanical properties :
#
#
# Convention : Reuss Voigt Hill
#
# Bulk Modulus (GPa) = 55.21071 62.48047 58.84559
# Shear Modulus (GPa) = 24.33707 16.89871 20.61789
#
# Velocity S-wave (km/s) = 3.29077 2.74214 3.02890
# Velocity P-wave (km/s) = 6.24545 6.15040 6.19811
#
# Compressibility (1/GPa) = 0.01811243
#
# Stress axis : x y z
#
# Youngs Moduli (GPa) = 149.32999 70.24655 106.81585
#
# Poissons Ratio (x) = 0.18367 0.14108
# Poissons Ratio (y) = 0.39044 0.23024
# Poissons Ratio (z) = 0.19723 0.15141
#
# Static dielectric constant tensor:
#      x y z
#    x 1.926440 0.000000 -0.045530 
#    y 0.000000 1.834940 0.000000 
#    z -0.045530 0.000000 1.877550 
# 
# From -- ./inp_files/125878.got.cif
#   From: 2010.05.17/outbox.cif.g08.bks.cpg/sg12_63_cif.got.tgz:125878.got - 2010.06.03 13:09:07.
