data_PCOD9215416
_publ_section_title
;
Structure prediction by ZEFSAII (Michael W. Deem and Ramdas Pophale) SiO2 
 PCOD9215416
Probable space group: C 2/M
;
_chemical_formula_sum "Si O2"
_cell_formula_units_Z 64
_cell_length_a 19.620644
_cell_length_b 13.989105
_cell_length_c 14.939167
_cell_angle_alpha 90.000000
_cell_angle_beta 132.266285
_cell_angle_gamma 90.000000
_cell_volume 3034.430054
_symmetry_space_group_name_H-M "C 2/M"
_symmetry_group_IT_number 12
_symmetry_cell_setting 'monoclinic'
loop_
_space_group_symop_operation_xyz
x,y,z
-x,y,-z
-x,-y,-z
x,-y,z
1/2+x,1/2+y,z
1/2-x,1/2+y,-z
1/2-x,1/2-y,-z
1/2+x,1/2-y,z
loop_
_atom_site_type_symbol
_atom_site_label
_atom_site_fract_x
_atom_site_fract_y
_atom_site_fract_z
Si Si1 0.388893 0.718280 0.549800
Si Si2 0.717073 0.606052 0.847993
Si Si3 0.275872 0.891162 0.695644
Si Si4 0.591454 0.217080 0.687722
Si Si5 0.533302 0.787409 0.126179
Si Si6 0.109699 0.109632 0.259615
Si Si7 0.892569 0.391853 0.122899
Si Si8 0.324171 0.889652 0.411139
O O1 0.314523 0.660347 0.424282
O O2 0.489841 0.735634 0.596539
O O3 0.393828 0.662678 0.647473
O O4 0.350976 0.826971 0.521700
O O5 0.672707 0.500000 0.818178
O O6 0.767428 0.605074 0.796021
O O7 0.652157 0.696861 0.781426
O O8 0.790080 0.617578 0.992302
O O9 0.369192 0.833786 0.761014
O O10 0.280253 0.000000 0.665483
O O11 0.597249 0.131955 0.764557
O O12 0.631695 0.169380 0.632773
O O13 0.547229 0.674046 0.140945
O O14 0.457247 0.818468 0.129093
O O15 0.500000 0.821223 0.000000
O O16 0.213576 0.111463 0.312628
O O17 0.081377 0.000000 0.243940
O O18 0.922647 0.500000 0.129622
O O19 0.355156 0.000000 0.440277
#
# Coordination Sequence:
#
# PCOD9215416 Si02
#       8
#     8   8   8   8   8   8   8   8
#     4  12  24  44  68  99 140 181 226 279 343 411
#     4  10  22  41  65  95 133 178 228 280 337 405
#     4  11  23  40  67 100 137 175 221 277 341 409
#     4  12  24  44  68  97 142 183 229 288 346 416
#     4  12  23  43  73 101 134 175 223 288 351 408
#     4  11  25  47  71 101 139 179 229 283 344 417
#     4  11  24  42  67 101 134 177 234 288 346 407
#     4  11  25  44  69  98 137 184 231 283 342 409
#
# _framework density 21.091276000000001
#
# number of rings (size 3 to 8) (size 9 to 14) (size 15 to 20)
#    0.000    0.750    5.000    2.250    0.000    3.250 
#    0.000    1.250    0.000    0.000    0.000    0.000 
#    0.000    0.000    0.000    0.000    0.000    0.000 
#
# Total GULP energy -178761.933637 kJ/mol
# GULP energy per Si atom -5586.310426 kJ/mol
# Density = 2.104327 g / cm^3
# Si number density = 21.091276 Si / 1000 Ang^3
#
#
#
# Elastic Constant Matrix: (Units=GPa)
#
#
# Indices 1 2 3 4 5 6 
#
# 1 56.0444 36.8572 23.7456 0.0000 -1.9192 0.0000
# 2 36.8572 155.8440 42.0696 0.0000 23.3965 0.0000
# 3 23.7456 42.0696 79.2110 0.0000 -0.1826 0.0000
# 4 0.0000 0.0000 0.0000 25.5857 0.0000 -4.5483
# 5 -1.9192 23.3965 -0.1826 0.0000 26.7700 0.0000
# 6 0.0000 0.0000 0.0000 -4.5483 0.0000 17.3611
#
#
#
# Elastic Compliance Matrix: (Units=1/GPa)
#
#
# Indices 1 2 3 4 5 6 
#
# 1 0.023331 -0.005349 -0.004138 0.000000 0.006320 0.000000
# 2 -0.005349 0.010085 -0.003774 0.000000 -0.009224 0.000000
# 3 -0.004138 -0.003774 0.015877 0.000000 0.003110 0.000000
# 4 0.000000 0.000000 0.000000 0.040993 0.000000 0.010740
# 5 0.006320 -0.009224 0.003110 0.000000 0.045891 0.000000
# 6 0.000000 0.000000 0.000000 0.010740 0.000000 0.060414
#
#
# Mechanical properties :
#
#
# Convention : Reuss Voigt Hill
#
# Bulk Modulus (GPa) = 43.91890 55.16047 49.53969
# Shear Modulus (GPa) = 21.67278 26.50515 24.08897
#
# Velocity S-wave (km/s) = 3.20905 3.54883 3.38321
# Velocity P-wave (km/s) = 5.88210 6.55761 6.22902
#
# Compressibility (1/GPa) = 0.02276924
#
# Stress axis : x y z
#
# Youngs Moduli (GPa) = 42.86184 99.15400 62.98542
#
# Poissons Ratio (x) = 0.53041 0.26066
# Poissons Ratio (y) = 0.22928 0.23771
# Poissons Ratio (z) = 0.17738 0.37421
#
# Static dielectric constant tensor:
#      x y z
#    x 1.777400 0.000000 -0.019670 
#    y 0.000000 1.778230 0.000000 
#    z -0.019670 0.000000 1.778150 
# 
# From -- ./inp_files/225774.got.cif
#   From: 2010.05.17/outbox.cif.g08.bks.cpg/sg12_113_cif.got.tgz:225774.got - 2010.06.03 13:09:07.
