data_PCOD9215408
_publ_section_title
;
Structure prediction by ZEFSAII (Michael W. Deem and Ramdas Pophale) SiO2 
 PCOD9215408
Probable space group: C 2/M
;
_chemical_formula_sum "Si O2"
_cell_formula_units_Z 56
_cell_length_a 7.401042
_cell_length_b 13.256924
_cell_length_c 20.830084
_cell_angle_alpha 90.000000
_cell_angle_beta 91.877010
_cell_angle_gamma 90.000000
_cell_volume 2042.648167
_symmetry_space_group_name_H-M "C 2/M"
_symmetry_group_IT_number 12
_symmetry_cell_setting 'monoclinic'
loop_
_space_group_symop_operation_xyz
x,y,z
-x,y,-z
-x,-y,-z
x,-y,z
1/2+x,1/2+y,z
1/2-x,1/2+y,-z
1/2-x,1/2-y,-z
1/2+x,1/2-y,z
loop_
_atom_site_type_symbol
_atom_site_label
_atom_site_fract_x
_atom_site_fract_y
_atom_site_fract_z
Si Si1 0.325891 0.330939 0.181976
Si Si2 0.601637 0.333049 0.064321
Si Si3 0.853514 0.192872 0.734026
Si Si4 0.685371 0.112851 0.340315
Si Si5 0.691836 0.886160 0.598908
Si Si6 0.976545 0.387859 0.911315
Si Si7 0.193823 0.880085 0.533000
O O1 0.138145 0.380819 0.157149
O O2 0.273613 0.216555 0.205617
O O3 0.463771 0.361260 0.241137
O O4 0.461406 0.342457 0.122579
O O5 0.804217 0.374426 0.080788
O O6 0.611338 0.210750 0.056249
O O7 0.500000 0.374467 0.000000
O O8 0.876213 0.309751 0.713895
O O9 0.780154 0.147444 0.667430
O O10 0.517421 0.110994 0.386857
O O11 0.827809 0.157651 0.393123
O O12 0.720078 0.000000 0.317645
O O13 0.697083 0.839529 0.527700
O O14 0.762525 0.000000 0.590966
O O15 0.934000 0.500000 0.935029
O O16 0.000000 0.874094 0.500000
O O17 0.235777 0.000000 0.542835
#
# Coordination Sequence:
#
# PCOD9215408 Si02
#       7
#     8   8   8   8   8   8   8
#     4  12  26  49  73 107 157 203 253 323 383 455
#     4  12  26  54  83 118 165 206 259 332 387 458
#     4  12  24  44  68 100 148 193 244 314 374 459
#     4  10  22  41  65  94 132 182 239 301 374 451
#     4  10  22  41  66  94 129 181 237 300 373 445
#     4  12  27  49  83 118 156 210 259 313 395 467
#     4   9  19  36  61  95 132 173 232 302 370 447
#
# _framework density 27.415393000000002
#
# number of rings (size 3 to 8) (size 9 to 14) (size 15 to 20)
#    0.000    1.000    4.286    0.857    2.000    4.571 
#    0.000    3.571    0.000    0.000    0.000    0.000 
#    0.000    0.000    0.000    0.000    0.000    0.000 
#
# Total GULP energy -156104.480713 kJ/mol
# GULP energy per Si atom -5575.160025 kJ/mol
# Density = 2.735299 g / cm^3
# Si number density = 27.415393 Si / 1000 Ang^3
#
#
#
# Elastic Constant Matrix: (Units=GPa)
#
#
# Indices 1 2 3 4 5 6 
#
# 1 131.0123 9.2675 30.9483 0.0000 22.4739 0.0000
# 2 9.2675 97.5081 35.9413 0.0000 2.4728 0.0000
# 3 30.9483 35.9413 162.9955 0.0000 26.4663 0.0000
# 4 0.0000 0.0000 0.0000 -9.5706 0.0000 1.9154
# 5 22.4739 2.4728 26.4663 0.0000 58.7642 0.0000
# 6 0.0000 0.0000 0.0000 1.9154 0.0000 26.4359
#
#
#
# Elastic Compliance Matrix: (Units=1/GPa)
#
#
# Indices 1 2 3 4 5 6 
#
# 1 0.008375 -0.000330 -0.001078 0.000000 -0.002703 0.000000
# 2 -0.000330 0.011202 -0.002537 0.000000 0.000797 0.000000
# 3 -0.001078 -0.002537 0.007353 0.000000 -0.002792 0.000000
# 4 0.000000 0.000000 0.000000 -0.102994 0.000000 0.007462
# 5 -0.002703 0.000797 -0.002792 0.000000 0.019275 0.000000
# 6 0.000000 0.000000 0.000000 0.007462 0.000000 0.037287
#
#
# Mechanical properties :
#
#
# Convention : Reuss Voigt Hill
#
# Bulk Modulus (GPa) = 52.52452 60.42558 56.47505
# Shear Modulus (GPa) = -949.47747 36.14982 -456.66383
#
# Velocity S-wave (km/s) = -18.63013 3.63519 -12.92028
# Velocity P-wave (km/s) = 21.06123 6.30143 14.21034
#
# Compressibility (1/GPa) = 0.01903873
#
# Stress axis : x y z
#
# Youngs Moduli (GPa) = 119.40759 89.27149 136.00439
#
# Poissons Ratio (x) = 0.02945 0.14667
# Poissons Ratio (y) = 0.03939 0.34503
# Poissons Ratio (z) = 0.12877 0.22647
#
# Static dielectric constant tensor:
#      x y z
#    x 2.286790 0.000000 -0.080590 
#    y 0.000000 2.186200 0.000000 
#    z -0.080590 0.000000 2.826160 
# 
# From -- ./inp_files/332693.got.cif
#   From: 2010.05.17/outbox.cif.g08.bks.cpg/sg12_167_cif.got.tgz:332693.got - 2010.06.03 13:09:07.
