data_PCOD9215818
_publ_section_title
;
Structure prediction by ZEFSAII (Michael W. Deem and Ramdas Pophale) SiO2 
 PCOD9215818
Probable space group: C 2/M
;
_chemical_formula_sum "Si O2"
_cell_formula_units_Z 56
_cell_length_a 27.387336
_cell_length_b 8.804684
_cell_length_c 12.840542
_cell_angle_alpha 90.000000
_cell_angle_beta 112.177526
_cell_angle_gamma 90.000000
_cell_volume 2867.257422
_symmetry_space_group_name_H-M "C 2/M"
_symmetry_group_IT_number 12
_symmetry_cell_setting 'monoclinic'
loop_
_space_group_symop_operation_xyz
x,y,z
-x,y,-z
-x,-y,-z
x,-y,z
1/2+x,1/2+y,z
1/2-x,1/2+y,-z
1/2-x,1/2-y,-z
1/2+x,1/2-y,z
loop_
_atom_site_type_symbol
_atom_site_label
_atom_site_fract_x
_atom_site_fract_y
_atom_site_fract_z
Si Si1 0.614864 0.683067 0.716243
Si Si2 0.505092 0.319121 0.320793
Si Si3 0.196891 0.818820 0.411031
Si Si4 0.962770 0.677777 0.869948
Si Si5 0.148603 0.182389 0.157203
Si Si6 0.692052 0.683329 0.966963
Si Si7 0.109775 0.680552 0.491200
O O1 0.617717 0.500000 0.706777
O O2 0.554353 0.722003 0.695479
O O3 0.653448 0.728195 0.841388
O O4 0.628759 0.760989 0.618702
O O5 0.511202 0.500000 0.337789
O O6 0.515390 0.271493 0.210018
O O7 0.550272 0.238283 0.424371
O O8 0.250000 0.750000 0.500000
O O9 0.189954 0.785512 0.282839
O O10 0.146962 0.751112 0.432254
O O11 0.196941 0.000000 0.424287
O O12 0.960551 0.500000 0.838989
O O13 0.905373 0.736796 0.855097
O O14 0.000000 0.694833 0.000000
O O15 0.139750 0.000000 0.148534
O O16 0.168371 0.230047 0.059577
O O17 0.695015 0.500000 0.969301
O O18 0.750000 0.750000 0.000000
O O19 0.111881 0.500000 0.487278
#
# Coordination Sequence:
#
# PCOD9215818 Si02
#       7
#     8   8   8   8   8   8   8
#     4  10  23  42  64  91 126 168 214 260 312 378
#     4  11  22  40  65  92 125 166 212 259 315 381
#     4  11  24  42  66  96 129 166 211 260 315 375
#     4  11  23  37  59  93 130 165 208 258 311 371
#     4  10  22  42  66  91 124 165 211 256 309 376
#     4  10  23  43  65  93 124 161 210 260 311 370
#     4  12  25  41  64  95 131 166 209 261 317 378
#
# _framework density 19.530857999999998
#
# number of rings (size 3 to 8) (size 9 to 14) (size 15 to 20)
#    0.000    1.286    1.429    3.857    2.000    6.857 
#    0.000    0.000    0.000    0.000    0.000    0.000 
#    0.000    0.000    0.000    0.000    0.000    0.000 
#
# Total GULP energy -156626.356475 kJ/mol
# GULP energy per Si atom -5593.798446 kJ/mol
# Density = 1.948641 g / cm^3
# Si number density = 19.530858 Si / 1000 Ang^3
#
#
#
# Elastic Constant Matrix: (Units=GPa)
#
#
# Indices 1 2 3 4 5 6 
#
# 1 56.5785 18.1492 35.3411 0.0000 7.8645 0.0000
# 2 18.1492 43.6794 43.9013 0.0000 6.4697 0.0000
# 3 35.3411 43.9013 142.9468 0.0000 1.8481 0.0000
# 4 0.0000 0.0000 0.0000 20.0082 0.0000 7.0603
# 5 7.8645 6.4697 1.8481 0.0000 39.6672 0.0000
# 6 0.0000 0.0000 0.0000 7.0603 0.0000 31.3498
#
#
#
# Elastic Compliance Matrix: (Units=1/GPa)
#
#
# Indices 1 2 3 4 5 6 
#
# 1 0.022149 -0.004678 -0.003995 0.000000 -0.003442 0.000000
# 2 -0.004678 0.035097 -0.009566 0.000000 -0.004351 0.000000
# 3 -0.003995 -0.009566 0.010897 0.000000 0.001844 0.000000
# 4 0.000000 0.000000 0.000000 0.054294 0.000000 -0.012228
# 5 -0.003442 -0.004351 0.001844 0.000000 0.026516 0.000000
# 6 0.000000 0.000000 0.000000 -0.012228 0.000000 0.034652
#
#
# Mechanical properties :
#
#
# Convention : Reuss Voigt Hill
#
# Bulk Modulus (GPa) = 31.58032 48.66535 40.12284
# Shear Modulus (GPa) = 21.67897 27.92591 24.80244
#
# Velocity S-wave (km/s) = 3.33526 3.78542 3.56745
# Velocity P-wave (km/s) = 5.57104 6.63906 6.12836
#
# Compressibility (1/GPa) = 0.03166529
#
# Stress axis : x y z
#
# Youngs Moduli (GPa) = 45.14889 28.49245 91.76631
#
# Poissons Ratio (x) = 0.13330 0.36657
# Poissons Ratio (y) = 0.21122 0.87784
# Poissons Ratio (z) = 0.18035 0.27256
#
# Static dielectric constant tensor:
#      x y z
#    x 1.642280 0.000000 0.000170 
#    y 0.000000 1.656190 0.000000 
#    z 0.000170 0.000000 1.683470 
# 
# From -- ./inp_files/180778.got.cif
#   From: 2010.05.17/outbox.cif.g08.bks.cpg/sg12_91_cif.got.tgz:180778.got - 2010.06.03 13:09:07.
