data_PCOD9215337
_publ_section_title
;
Structure prediction by ZEFSAII (Michael W. Deem and Ramdas Pophale) SiO2 
 PCOD9215337
Probable space group: C 2/M
;
_chemical_formula_sum "Si O2"
_cell_formula_units_Z 64
_cell_length_a 9.840726
_cell_length_b 18.097240
_cell_length_c 18.317256
_cell_angle_alpha 90.000000
_cell_angle_beta 113.381959
_cell_angle_gamma 90.000000
_cell_volume 2994.233284
_symmetry_space_group_name_H-M "C 2/M"
_symmetry_group_IT_number 12
_symmetry_cell_setting 'monoclinic'
loop_
_space_group_symop_operation_xyz
x,y,z
-x,y,-z
-x,-y,-z
x,-y,z
1/2+x,1/2+y,z
1/2-x,1/2+y,-z
1/2-x,1/2-y,-z
1/2+x,1/2-y,z
loop_
_atom_site_type_symbol
_atom_site_label
_atom_site_fract_x
_atom_site_fract_y
_atom_site_fract_z
Si Si1 0.892872 0.298845 0.546028
Si Si2 0.850055 0.275602 0.113545
Si Si3 0.365326 0.585769 0.752904
Si Si4 0.342038 0.087271 0.650229
Si Si5 0.149443 0.084319 0.075861
Si Si6 0.398923 0.187432 0.285403
Si Si7 0.685775 0.411710 0.758030
Si Si8 0.109008 0.665852 0.082684
O O1 0.750000 0.250000 0.500000
O O2 0.833013 0.374657 0.569520
O O3 0.000000 0.309312 0.500000
O O4 0.000739 0.270496 0.634308
O O5 0.774358 0.355510 0.087284
O O6 0.868114 0.268629 0.205330
O O7 0.736477 0.211569 0.068772
O O8 0.005657 0.276564 0.105552
O O9 0.323698 0.500000 0.724593
O O10 0.382584 0.586965 0.844375
O O11 0.244821 0.648972 0.710483
O O12 0.521057 0.604378 0.749634
O O13 0.498983 0.116713 0.714640
O O14 0.224102 0.115189 0.684643
O O15 0.338210 0.000000 0.643448
O O16 0.193950 0.000000 0.066868
O O17 0.000000 0.101297 0.000000
O O18 0.697204 0.500000 0.757827
O O19 0.808270 0.384488 0.841506
O O20 0.000000 0.630047 0.000000
#
# Coordination Sequence:
#
# PCOD9215337 Si02
#       8
#     8   8   8   8   8   8   8   8
#     4  10  23  44  66 102 135 169 203 255 315 389
#     4  11  24  40  59  90 118 173 224 263 326 384
#     4   9  18  34  60  93 124 163 214 265 316 378
#     4   9  19  41  69  97 128 167 209 259 316 380
#     4   9  19  35  59  88 124 164 213 274 331 381
#     4   9  20  39  65  91 121 168 209 258 307 380
#     4  10  22  41  64  95 130 166 217 274 330 381
#     4  12  26  40  58  85 129 176 222 279 326 380
#
# _framework density 21.374420000000001
#
# number of rings (size 3 to 8) (size 9 to 14) (size 15 to 20)
#    0.750    1.375    1.250    1.125    5.250    3.500 
#    2.250    0.000    0.000    0.375    0.000    0.000 
#    0.000    0.000    0.000    0.000    0.000    0.000 
#
# Total GULP energy -178653.373470 kJ/mol
# GULP energy per Si atom -5582.917921 kJ/mol
# Density = 2.132577 g / cm^3
# Si number density = 21.374420 Si / 1000 Ang^3
#
#
#
# Elastic Constant Matrix: (Units=GPa)
#
#
# Indices 1 2 3 4 5 6 
#
# 1 143.2202 27.6988 39.5021 0.0000 -9.9939 0.0000
# 2 27.6988 53.9843 28.9645 0.0000 3.1170 0.0000
# 3 39.5021 28.9645 95.3614 0.0000 7.4206 0.0000
# 4 0.0000 0.0000 0.0000 30.9696 0.0000 6.6920
# 5 -9.9939 3.1170 7.4206 0.0000 31.0009 0.0000
# 6 0.0000 0.0000 0.0000 6.6920 0.0000 27.6854
#
#
#
# Elastic Compliance Matrix: (Units=1/GPa)
#
#
# Indices 1 2 3 4 5 6 
#
# 1 0.008656 -0.003080 -0.002946 0.000000 0.003805 0.000000
# 2 -0.003080 0.023239 -0.005628 0.000000 -0.001982 0.000000
# 3 -0.002946 -0.005628 0.013701 0.000000 -0.003664 0.000000
# 4 0.000000 0.000000 0.000000 0.034069 0.000000 -0.008235
# 5 0.003805 -0.001982 -0.003664 0.000000 0.034560 0.000000
# 6 0.000000 0.000000 0.000000 -0.008235 0.000000 0.038111
#
#
# Mechanical properties :
#
#
# Convention : Reuss Voigt Hill
#
# Bulk Modulus (GPa) = 44.86968 53.87741 49.37354
# Shear Modulus (GPa) = 27.31131 31.02454 29.16793
#
# Velocity S-wave (km/s) = 3.57845 3.81396 3.69808
# Velocity P-wave (km/s) = 6.17345 6.68254 6.43303
#
# Compressibility (1/GPa) = 0.02228677
#
# Stress axis : x y z
#
# Youngs Moduli (GPa) = 115.52493 43.03198 72.98545
#
# Poissons Ratio (x) = 0.13255 0.21503
# Poissons Ratio (y) = 0.35586 0.41077
# Poissons Ratio (z) = 0.34036 0.24219
#
# Static dielectric constant tensor:
#      x y z
#    x 1.792060 0.000000 -0.011640 
#    y 0.000000 1.793630 0.000000 
#    z -0.011640 0.000000 1.818720 
# 
# From -- ./inp_files/301775.got.cif
#   From: 2010.05.17/outbox.cif.g08.bks.cpg/sg12_151_cif.got.tgz:301775.got - 2010.06.03 13:09:07.
