data_PCOD9215816
_publ_section_title
;
Structure prediction by ZEFSAII (Michael W. Deem and Ramdas Pophale) SiO2 
 PCOD9215816
Probable space group: C 2/M
;
_chemical_formula_sum "Si O2"
_cell_formula_units_Z 32
_cell_length_a 9.640607
_cell_length_b 13.750994
_cell_length_c 24.436099
_cell_angle_alpha 90.000000
_cell_angle_beta 152.299820
_cell_angle_gamma 90.000000
_cell_volume 1505.838339
_symmetry_space_group_name_H-M "C 2/M"
_symmetry_group_IT_number 12
_symmetry_cell_setting 'monoclinic'
loop_
_space_group_symop_operation_xyz
x,y,z
-x,y,-z
-x,-y,-z
x,-y,z
1/2+x,1/2+y,z
1/2-x,1/2+y,-z
1/2-x,1/2-y,-z
1/2+x,1/2-y,z
loop_
_atom_site_type_symbol
_atom_site_label
_atom_site_fract_x
_atom_site_fract_y
_atom_site_fract_z
Si Si1 0.199405 0.276180 0.419395
Si Si2 0.386664 0.615847 0.244396
Si Si3 0.788665 0.118378 0.975125
Si Si4 0.925841 0.116879 0.810673
O O1 0.500000 0.321931 0.500000
O O2 0.250000 0.250000 0.500000
O O3 0.129891 0.178033 0.361303
O O4 0.907249 0.341643 0.309441
O O5 0.434115 0.500000 0.266282
O O6 0.403645 0.641212 0.186005
O O7 0.059923 0.640461 0.153639
O O8 0.907933 0.149711 0.076170
O O9 0.803876 0.000000 0.980422
O O10 0.000000 0.153395 0.000000
O O11 0.911507 0.000000 0.807944
#
# Coordination Sequence:
#
# PCOD9215816 Si02
#       4
#     8   8   8   8
#     4  12  26  43  61  90 126 162 211 258 296 359
#     4  10  22  42  67  90 122 165 203 249 308 368
#     4   9  19  36  63  98 125 151 199 256 310 365
#     4  10  22  42  66  91 123 163 203 250 309 366
#
# _framework density 21.250620999999999
#
# number of rings (size 3 to 8) (size 9 to 14) (size 15 to 20)
#    0.000    1.750    2.500    0.750    3.500    6.000 
#    0.000    0.000    0.000    0.000    0.000    0.000 
#    0.000    0.000    0.000    0.000    0.000    0.000 
#
# Total GULP energy -89506.993212 kJ/mol
# GULP energy per Si atom -5594.187076 kJ/mol
# Density = 2.120225 g / cm^3
# Si number density = 21.250621 Si / 1000 Ang^3
#
#
#
# Elastic Constant Matrix: (Units=GPa)
#
#
# Indices 1 2 3 4 5 6 
#
# 1 120.5857 7.2880 30.8488 0.0004 3.5920 0.0000
# 2 7.2880 51.2486 2.2655 0.0007 -7.3153 0.0001
# 3 30.8488 2.2655 90.9692 0.0034 -0.4274 0.0003
# 4 0.0004 0.0007 0.0034 38.1350 0.0005 1.3731
# 5 3.5920 -7.3153 -0.4274 0.0005 52.2947 0.0000
# 6 0.0000 0.0001 0.0003 1.3731 0.0000 20.9727
#
#
#
# Elastic Compliance Matrix: (Units=1/GPa)
#
#
# Indices 1 2 3 4 5 6 
#
# 1 0.009185 -0.001289 -0.003087 0.000000 -0.000836 0.000000
# 2 -0.001289 0.020112 -0.000050 0.000000 0.002902 0.000000
# 3 -0.003087 -0.000050 0.012042 -0.000001 0.000303 0.000000
# 4 0.000000 0.000000 -0.000001 0.026285 0.000000 -0.001721
# 5 -0.000836 0.002902 0.000303 0.000000 0.019588 0.000000
# 6 0.000000 0.000000 0.000000 -0.001721 0.000000 0.047794
#
#
# Mechanical properties :
#
#
# Convention : Reuss Voigt Hill
#
# Bulk Modulus (GPa) = 30.78058 38.17868 34.47963
# Shear Modulus (GPa) = 32.32317 37.10721 34.71519
#
# Velocity S-wave (km/s) = 3.90429 4.18325 4.04618
# Velocity P-wave (km/s) = 5.90260 6.42944 6.17164
#
# Compressibility (1/GPa) = 0.03248802
#
# Stress axis : x y z
#
# Youngs Moduli (GPa) = 108.86909 49.72045 83.04178
#
# Poissons Ratio (x) = 0.06410 0.25632
# Poissons Ratio (y) = 0.14035 0.00416
# Poissons Ratio (z) = 0.33604 0.00249
#
# Static dielectric constant tensor:
#      x y z
#    x 1.750310 0.000000 0.005740 
#    y 0.000000 1.785600 0.000000 
#    z 0.005740 0.000000 1.699220 
# 
# From -- ./inp_files/117426.got.cif
#   From: 2010.05.17/outbox.cif.g08.bks.cpg/sg12_59_cif.got.tgz:117426.got - 2010.06.03 13:09:07.
