data_PCOD9215471
_publ_section_title
;
Structure prediction by ZEFSAII (Michael W. Deem and Ramdas Pophale) SiO2 
 PCOD9215471
Probable space group: C 2/M
;
_chemical_formula_sum "Si O2"
_cell_formula_units_Z 48
_cell_length_a 25.563434
_cell_length_b 8.451671
_cell_length_c 14.484522
_cell_angle_alpha 90.000000
_cell_angle_beta 138.967025
_cell_angle_gamma 90.000000
_cell_volume 2054.453064
_symmetry_space_group_name_H-M "C 2/M"
_symmetry_group_IT_number 12
_symmetry_cell_setting 'monoclinic'
loop_
_space_group_symop_operation_xyz
x,y,z
-x,y,-z
-x,-y,-z
x,-y,z
1/2+x,1/2+y,z
1/2-x,1/2+y,-z
1/2-x,1/2-y,-z
1/2+x,1/2-y,z
loop_
_atom_site_type_symbol
_atom_site_label
_atom_site_fract_x
_atom_site_fract_y
_atom_site_fract_z
Si Si1 0.163728 0.811171 0.782910
Si Si2 0.251234 0.687829 0.606431
Si Si3 0.906549 0.690266 0.491631
Si Si4 0.508795 0.682273 0.229264
Si Si5 0.580578 0.815245 0.151819
Si Si6 0.155919 0.684058 0.978111
O O1 0.103234 0.752895 0.624764
O O2 0.157132 0.718034 0.869897
O O3 0.156519 0.000000 0.790181
O O4 0.254740 0.780525 0.869823
O O5 0.248385 0.500000 0.599126
O O6 0.250000 0.750000 0.500000
O O7 0.174674 0.740754 0.562800
O O8 0.335484 0.740020 0.761284
O O9 0.913678 0.500000 0.501229
O O10 0.976044 0.767103 0.645089
O O11 0.529844 0.500000 0.243611
O O12 0.564364 0.790044 0.238986
O O13 0.417112 0.714189 0.081816
O O14 0.584780 0.000000 0.134861
O O15 0.500000 0.746345 0.000000
O O16 0.138376 0.500000 0.972289
#
# Coordination Sequence:
#
# PCOD9215471 Si02
#       6
#     8   8   8   8   8   8
#     4  10  22  41  66  95 124 160 206 252 305 368
#     4  11  23  40  64  91 124 165 207 254 305 363
#     4  11  24  41  63  92 126 164 207 253 308 367
#     4  12  25  41  64  92 125 162 207 257 306 365
#     4  11  25  43  63  90 126 165 207 254 308 366
#     4  10  22  42  66  92 127 163 200 252 310 366
#
# _framework density 23.363883000000001
#
# number of rings (size 3 to 8) (size 9 to 14) (size 15 to 20)
#    0.000    1.167    1.667    4.000    2.333    6.000 
#    0.000    3.333    0.000    0.000    0.000    0.000 
#    0.000    0.000    0.000    0.000    0.000    0.000 
#
# Total GULP energy -134395.714269 kJ/mol
# GULP energy per Si atom -5599.821428 kJ/mol
# Density = 2.331071 g / cm^3
# Si number density = 23.363883 Si / 1000 Ang^3
#
#
#
# Elastic Constant Matrix: (Units=GPa)
#
#
# Indices 1 2 3 4 5 6 
#
# 1 46.3294 0.5866 -1.3205 0.0000 4.0720 0.0000
# 2 0.5866 40.8274 5.8473 0.0000 12.6134 0.0000
# 3 -1.3205 5.8473 108.0488 0.0000 3.3465 0.0000
# 4 0.0000 0.0000 0.0000 31.3596 0.0000 7.5787
# 5 4.0720 12.6134 3.3465 0.0000 39.6973 0.0000
# 6 0.0000 0.0000 0.0000 7.5787 0.0000 18.1725
#
#
#
# Elastic Compliance Matrix: (Units=1/GPa)
#
#
# Indices 1 2 3 4 5 6 
#
# 1 0.021798 0.000377 0.000320 0.000000 -0.002383 0.000000
# 2 0.000377 0.027323 -0.001207 0.000000 -0.008619 0.000000
# 3 0.000320 -0.001207 0.009338 0.000000 -0.000436 0.000000
# 4 0.000000 0.000000 0.000000 0.035462 0.000000 -0.014789
# 5 -0.002383 -0.008619 -0.000436 0.000000 0.028210 0.000000
# 6 0.000000 0.000000 0.000000 -0.014789 0.000000 0.061196
#
#
# Mechanical properties :
#
#
# Convention : Reuss Voigt Hill
#
# Bulk Modulus (GPa) = 17.40969 22.82583 20.11776
# Shear Modulus (GPa) = 24.57064 30.51869 27.54466
#
# Velocity S-wave (km/s) = 3.24643 3.61811 3.43730
# Velocity P-wave (km/s) = 4.63898 5.21969 4.93788
#
# Compressibility (1/GPa) = 0.05743928
#
# Stress axis : x y z
#
# Youngs Moduli (GPa) = 45.87503 36.59856 107.09125
#
# Poissons Ratio (x) = -0.01380 -0.03425
# Poissons Ratio (y) = -0.01730 0.12927
# Poissons Ratio (z) = -0.01467 0.04418
#
# Static dielectric constant tensor:
#      x y z
#    x 2.036710 0.000000 -0.023540 
#    y 0.000000 1.787540 0.000000 
#    z -0.023540 0.000000 1.917920 
# 
# From -- ./inp_files/244613.got.cif
#   From: 2010.05.17/outbox.cif.g08.bks.cpg/sg12_123_cif.got.tgz:244613.got - 2010.06.03 13:09:07.
