data_PCOD9215081
_publ_section_title
;
Structure prediction by ZEFSAII (Michael W. Deem and Ramdas Pophale) SiO2 
 PCOD9215081
Probable space group: C 2/M
;
_chemical_formula_sum "Si O2"
_cell_formula_units_Z 64
_cell_length_a 12.693665
_cell_length_b 12.948815
_cell_length_c 19.213203
_cell_angle_alpha 90.000000
_cell_angle_beta 104.420351
_cell_angle_gamma 90.000000
_cell_volume 3058.539607
_symmetry_space_group_name_H-M "C 2/M"
_symmetry_group_IT_number 12
_symmetry_cell_setting 'monoclinic'
loop_
_space_group_symop_operation_xyz
x,y,z
-x,y,-z
-x,-y,-z
x,-y,z
1/2+x,1/2+y,z
1/2-x,1/2+y,-z
1/2-x,1/2-y,-z
1/2+x,1/2-y,z
loop_
_atom_site_type_symbol
_atom_site_label
_atom_site_fract_x
_atom_site_fract_y
_atom_site_fract_z
Si Si1 0.807809 0.622221 0.435062
Si Si2 0.947101 0.118377 0.219124
Si Si3 0.628043 0.113592 0.327933
Si Si4 0.566892 0.791789 0.176265
Si Si5 0.408179 0.118315 0.045655
Si Si6 0.136082 0.801389 0.648130
Si Si7 0.414273 0.274461 0.564256
Si Si8 0.732351 0.119550 0.098570
O O1 0.829539 0.500000 0.437172
O O2 0.829649 0.683802 0.366385
O O3 0.684575 0.646727 0.439751
O O4 0.879787 0.689427 0.501240
O O5 0.894928 0.174016 0.277699
O O6 0.855631 0.118849 0.143799
O O7 0.050657 0.180793 0.208551
O O8 0.971410 0.000000 0.241536
O O9 0.590986 0.129516 0.242691
O O10 0.757811 0.131636 0.352584
O O11 0.576798 0.202772 0.365682
O O12 0.600174 0.000000 0.349063
O O13 0.455557 0.817904 0.117223
O O14 0.663656 0.806047 0.137383
O O15 0.401480 0.000000 0.067579
O O16 0.500000 0.125695 0.000000
O O17 0.297673 0.143827 0.986171
O O18 0.031800 0.827727 0.582916
O O19 0.692420 0.000000 0.102866
#
# Coordination Sequence:
#
# PCOD9215081 Si02
#       8
#     8   8   8   8   8   8   8   8
#     4  10  23  42  64  87 117 151 186 236 287 338
#     4  11  23  38  57  81 116 157 195 236 289 346
#     4  11  21  35  59  87 115 149 191 240 283 333
#     4  11  19  33  56  86 114 148 194 242 285 335
#     4   8  15  29  54  85 114 146 187 239 291 335
#     4  11  22  39  57  86 112 153 192 233 274 345
#     4  10  22  41  60  87 120 147 189 231 283 349
#     4   9  18  36  60  84 113 150 192 238 289 342
#
# _framework density 20.925018000000001
#
# number of rings (size 3 to 8) (size 9 to 14) (size 15 to 20)
#    0.000    1.875    2.500    3.000    0.000    3.000 
#    0.000    0.625    0.000   12.375    0.000    0.000 
#    0.000    0.000    0.000    0.000    0.000    0.000 
#
# Total GULP energy -178498.730854 kJ/mol
# GULP energy per Si atom -5578.085339 kJ/mol
# Density = 2.087739 g / cm^3
# Si number density = 20.925018 Si / 1000 Ang^3
#
#
#
# Elastic Constant Matrix: (Units=GPa)
#
#
# Indices 1 2 3 4 5 6 
#
# 1 48.8479 31.7869 1.0698 0.0000 6.1043 0.0000
# 2 31.7869 99.0213 31.1251 0.0000 -2.5268 0.0000
# 3 1.0698 31.1251 75.5410 0.0000 16.4950 0.0000
# 4 0.0000 0.0000 0.0000 18.8012 0.0000 2.0274
# 5 6.1043 -2.5268 16.4950 0.0000 22.5947 0.0000
# 6 0.0000 0.0000 0.0000 2.0274 0.0000 16.7462
#
#
#
# Elastic Compliance Matrix: (Units=1/GPa)
#
#
# Indices 1 2 3 4 5 6 
#
# 1 0.030614 -0.012838 0.008299 0.000000 -0.015765 0.000000
# 2 -0.012838 0.017636 -0.009841 0.000000 0.012625 0.000000
# 3 0.008299 -0.009841 0.021301 0.000000 -0.018893 0.000000
# 4 0.000000 0.000000 0.000000 0.053892 0.000000 -0.006525
# 5 -0.015765 0.012625 -0.018893 0.000000 0.063722 0.000000
# 6 0.000000 0.000000 0.000000 -0.006525 0.000000 0.060505
#
#
# Mechanical properties :
#
#
# Convention : Reuss Voigt Hill
#
# Bulk Modulus (GPa) = 24.51671 39.04152 31.77912
# Shear Modulus (GPa) = 17.23974 22.25698 19.74836
#
# Velocity S-wave (km/s) = 2.87345 3.26491 3.07541
# Velocity P-wave (km/s) = 4.76978 5.73683 5.27551
#
# Compressibility (1/GPa) = 0.04078850
#
# Stress axis : x y z
#
# Youngs Moduli (GPa) = 32.66436 56.70324 46.94681
#
# Poissons Ratio (x) = 0.72797 -0.38959
# Poissons Ratio (y) = 0.41936 0.46202
# Poissons Ratio (z) = -0.27107 0.55804
#
# Static dielectric constant tensor:
#      x y z
#    x 1.791430 0.000000 0.012770 
#    y 0.000000 1.739430 0.000000 
#    z 0.012770 0.000000 1.808840 
# 
# From -- ./inp_files/309943.got.cif
#   From: 2010.05.17/outbox.cif.g08.bks.cpg/sg12_155_cif.got.tgz:309943.got - 2010.06.03 13:09:07.
