data_PCOD9215179
_publ_section_title
;
Structure prediction by ZEFSAII (Michael W. Deem and Ramdas Pophale) SiO2 
 PCOD9215179
Probable space group: C 2/M
;
_chemical_formula_sum "Si O2"
_cell_formula_units_Z 32
_cell_length_a 7.280413
_cell_length_b 19.027030
_cell_length_c 9.497475
_cell_angle_alpha 90.000000
_cell_angle_beta 111.762663
_cell_angle_gamma 90.000000
_cell_volume 1221.865904
_symmetry_space_group_name_H-M "C 2/M"
_symmetry_group_IT_number 12
_symmetry_cell_setting 'monoclinic'
loop_
_space_group_symop_operation_xyz
x,y,z
-x,y,-z
-x,-y,-z
x,-y,z
1/2+x,1/2+y,z
1/2-x,1/2+y,-z
1/2-x,1/2-y,-z
1/2+x,1/2-y,z
loop_
_atom_site_type_symbol
_atom_site_label
_atom_site_fract_x
_atom_site_fract_y
_atom_site_fract_z
Si Si1 0.728956 0.000000 0.757239
Si Si2 0.686501 0.801520 0.141233
Si Si3 0.279832 0.000000 0.587248
Si Si4 0.633499 0.348482 0.209756
Si Si5 0.713440 0.655379 0.548046
O O1 0.495685 0.000000 0.717404
O O2 0.730768 0.000000 0.586073
O O3 0.824789 0.073065 0.832988
O O4 0.698132 0.716786 0.131637
O O5 0.645153 0.810876 0.297388
O O6 0.899130 0.836872 0.172780
O O7 0.500000 0.828381 0.000000
O O8 0.192105 0.075268 0.598354
O O9 0.752436 0.344959 0.393252
O O10 0.500000 0.691415 0.500000
#
# Coordination Sequence:
#
# PCOD9215179 Si02
#       5
#     4   8   4   8   8
#     4   9  20  38  61  89 120 154 195 257 293 350
#     4  11  23  39  62  88 124 160 198 245 300 354
#     4   9  17  34  62  90 122 150 201 243 306 345
#     4  10  22  41  63  88 121 156 203 246 299 349
#     4   9  19  36  61  94 118 155 198 252 293 353
#
# _framework density 26.189456
#
# number of rings (size 3 to 8) (size 9 to 14) (size 15 to 20)
#    0.000    2.250    0.000    1.875    3.500    3.000 
#    9.000    3.125    0.000    0.000    0.000    0.000 
#    0.000    0.000    0.000    0.000    0.000    0.000 
#
# Total GULP energy -89464.092477 kJ/mol
# GULP energy per Si atom -5591.505780 kJ/mol
# Density = 2.612985 g / cm^3
# Si number density = 26.189456 Si / 1000 Ang^3
#
#
#
# Elastic Constant Matrix: (Units=GPa)
#
#
# Indices 1 2 3 4 5 6 
#
# 1 91.0758 34.8114 31.1201 0.0000 41.1185 0.0000
# 2 34.8114 180.6119 33.3992 0.0000 28.9366 0.0000
# 3 31.1201 33.3992 184.4100 0.0000 29.4452 0.0000
# 4 0.0000 0.0000 0.0000 16.8393 0.0000 4.6400
# 5 41.1185 28.9366 29.4452 0.0000 42.0304 0.0000
# 6 0.0000 0.0000 0.0000 4.6400 0.0000 29.6367
#
#
#
# Elastic Compliance Matrix: (Units=1/GPa)
#
#
# Indices 1 2 3 4 5 6 
#
# 1 0.019776 -0.000783 -0.000217 0.000000 -0.018656 0.000000
# 2 -0.000783 0.006295 -0.000494 0.000000 -0.003223 0.000000
# 3 -0.000217 -0.000494 0.006148 0.000000 -0.003756 0.000000
# 4 0.000000 0.000000 0.000000 0.062062 0.000000 -0.009717
# 5 -0.018656 -0.003223 -0.003756 0.000000 0.046893 0.000000
# 6 0.000000 0.000000 0.000000 -0.009717 0.000000 0.035263
#
#
# Mechanical properties :
#
#
# Convention : Reuss Voigt Hill
#
# Bulk Modulus (GPa) = 34.20695 72.75102 53.47899
# Shear Modulus (GPa) = 26.43151 41.48577 33.95864
#
# Velocity S-wave (km/s) = 3.18030 3.98435 3.60481
# Velocity P-wave (km/s) = 5.15514 7.00041 6.14741
#
# Compressibility (1/GPa) = 0.02923382
#
# Stress axis : x y z
#
# Youngs Moduli (GPa) = 50.56679 158.85255 162.64636
#
# Poissons Ratio (x) = 0.12431 0.03524
# Poissons Ratio (y) = 0.03957 0.08027
# Poissons Ratio (z) = 0.01096 0.07839
#
# Static dielectric constant tensor:
#      x y z
#    x 2.082290 0.000000 -0.036620 
#    y 0.000000 2.050670 0.000000 
#    z -0.036620 0.000000 2.080670 
# 
# From -- ./inp_files/37604.got.cif
#   From: 2010.05.17/outbox.cif.g08.bks.cpg/sg12_19_cif.got.tgz:37604.got - 2010.06.03 13:09:07.
