data_PCOD9215455
_publ_section_title
;
Structure prediction by ZEFSAII (Michael W. Deem and Ramdas Pophale) SiO2 
 PCOD9215455
Probable space group: C 2/M
;
_chemical_formula_sum "Si O2"
_cell_formula_units_Z 56
_cell_length_a 24.890506
_cell_length_b 8.321504
_cell_length_c 15.686382
_cell_angle_alpha 90.000000
_cell_angle_beta 51.638140
_cell_angle_gamma 90.000000
_cell_volume 2547.613479
_symmetry_space_group_name_H-M "C 2/M"
_symmetry_group_IT_number 12
_symmetry_cell_setting 'monoclinic'
loop_
_space_group_symop_operation_xyz
x,y,z
-x,y,-z
-x,-y,-z
x,-y,z
1/2+x,1/2+y,z
1/2-x,1/2+y,-z
1/2-x,1/2-y,-z
1/2+x,1/2-y,z
loop_
_atom_site_type_symbol
_atom_site_label
_atom_site_fract_x
_atom_site_fract_y
_atom_site_fract_z
Si Si1 0.136578 0.688989 0.941508
Si Si2 0.910355 0.816138 0.693922
Si Si3 0.029639 0.807484 0.184981
Si Si4 0.380416 0.804448 0.361660
Si Si5 0.857825 0.309500 0.575734
Si Si6 0.793738 0.309344 0.293855
Si Si7 0.229917 0.684751 0.111273
O O1 0.151302 0.500000 0.942849
O O2 0.141817 0.711391 0.834411
O O3 0.199876 0.797348 0.908062
O O4 0.073216 0.735684 0.063655
O O5 0.946470 0.746595 0.743722
O O6 0.909414 0.746216 0.599343
O O7 0.830117 0.796754 0.795511
O O8 0.932073 0.000000 0.666519
O O9 0.950997 0.760240 0.254424
O O10 0.039605 0.000000 0.174330
O O11 0.375255 0.746999 0.464211
O O12 0.318017 0.751169 0.362559
O O13 0.381322 0.000000 0.360118
O O14 0.862315 0.500000 0.570300
O O15 0.777537 0.266257 0.667277
O O16 0.780590 0.500000 0.310618
O O17 0.206088 0.500000 0.134234
O O18 0.250000 0.750000 0.000000
#
# Coordination Sequence:
#
# PCOD9215455 Si02
#       7
#     8   8   8   8   8   8   8
#     4  11  22  37  62  92 125 163 202 252 309 367
#     4  11  23  39  60  89 126 163 204 254 311 371
#     4  11  25  42  62  89 124 167 209 253 306 371
#     4  10  24  45  64  87 123 166 210 256 310 371
#     4  11  23  39  65  96 123 157 205 263 316 364
#     4  10  22  41  66  93 123 161 205 254 313 373
#     4  12  22  34  57  90 126 162 203 252 309 367
#
# _framework density 21.981356999999999
#
# number of rings (size 3 to 8) (size 9 to 14) (size 15 to 20)
#    0.000    1.143    2.857    3.429    0.000    5.143 
#    0.000    5.714    0.000    0.000    0.000    0.000 
#    0.000    0.000    0.000    0.000    0.000    0.000 
#
# Total GULP energy -156299.854313 kJ/mol
# GULP energy per Si atom -5582.137654 kJ/mol
# Density = 2.193133 g / cm^3
# Si number density = 21.981357 Si / 1000 Ang^3
#
#
#
# Elastic Constant Matrix: (Units=GPa)
#
#
# Indices 1 2 3 4 5 6 
#
# 1 46.9000 3.7399 17.0360 0.0000 -2.7447 0.0000
# 2 3.7399 39.5865 6.4364 0.0006 13.2718 -0.0003
# 3 17.0360 6.4364 65.5614 0.0001 11.7496 -0.0001
# 4 0.0000 0.0006 0.0001 22.1481 0.0000 1.5061
# 5 -2.7447 13.2718 11.7496 0.0000 28.4174 0.0000
# 6 0.0000 -0.0003 -0.0001 1.5061 0.0000 23.3673
#
#
#
# Elastic Compliance Matrix: (Units=1/GPa)
#
#
# Indices 1 2 3 4 5 6 
#
# 1 0.024677 -0.003503 -0.007332 0.000000 0.007051 0.000000
# 2 -0.003503 0.030461 0.000572 -0.000001 -0.014801 0.000000
# 3 -0.007332 0.000572 0.018659 0.000000 -0.008691 0.000000
# 4 0.000000 -0.000001 0.000000 0.045349 0.000001 -0.002923
# 5 0.007051 -0.014801 -0.008691 0.000001 0.046377 0.000000
# 6 0.000000 0.000000 0.000000 -0.002923 0.000000 0.042983
#
#
# Mechanical properties :
#
#
# Convention : Reuss Voigt Hill
#
# Bulk Modulus (GPa) = 18.77149 22.94141 20.85645
# Shear Modulus (GPa) = 20.26011 23.10894 21.68453
#
# Velocity S-wave (km/s) = 3.03924 3.24589 3.14426
# Velocity P-wave (km/s) = 4.56883 4.95047 4.76347
#
# Compressibility (1/GPa) = 0.05327228
#
# Stress axis : x y z
#
# Youngs Moduli (GPa) = 40.52315 32.82849 53.59237
#
# Poissons Ratio (x) = 0.11501 0.39294
# Poissons Ratio (y) = 0.14196 -0.03068
# Poissons Ratio (z) = 0.29712 -0.01879
#
# Static dielectric constant tensor:
#      x y z
#    x 1.787750 0.000000 0.055400 
#    y 0.000000 1.773620 0.000000 
#    z 0.055400 0.000000 1.862230 
# 
# From -- ./inp_files/238320.got.cif
#   From: 2010.05.17/outbox.cif.g08.bks.cpg/sg12_120_cif.got.tgz:238320.got - 2010.06.03 13:09:07.
