data_PCOD9215217
_publ_section_title
;
Structure prediction by ZEFSAII (Michael W. Deem and Ramdas Pophale) SiO2 
 PCOD9215217
Probable space group: C 2/M
;
_chemical_formula_sum "Si O2"
_cell_formula_units_Z 56
_cell_length_a 15.778678
_cell_length_b 10.112529
_cell_length_c 23.213681
_cell_angle_alpha 90.000000
_cell_angle_beta 41.029040
_cell_angle_gamma 90.000000
_cell_volume 2431.478375
_symmetry_space_group_name_H-M "C 2/M"
_symmetry_group_IT_number 12
_symmetry_cell_setting 'monoclinic'
loop_
_space_group_symop_operation_xyz
x,y,z
-x,y,-z
-x,-y,-z
x,-y,z
1/2+x,1/2+y,z
1/2-x,1/2+y,-z
1/2-x,1/2-y,-z
1/2+x,1/2-y,z
loop_
_atom_site_type_symbol
_atom_site_label
_atom_site_fract_x
_atom_site_fract_y
_atom_site_fract_z
Si Si1 0.387513 0.346303 0.630269
Si Si2 0.259131 0.651556 0.374197
Si Si3 0.771089 0.735859 0.891638
Si Si4 0.093786 0.356699 0.563954
Si Si5 0.145745 0.349321 0.841670
Si Si6 0.956861 0.640887 0.277348
Si Si7 0.571882 0.355488 0.084769
O O1 0.409627 0.500000 0.604114
O O2 0.344114 0.251827 0.600364
O O3 0.509796 0.271755 0.593744
O O4 0.271257 0.341563 0.736200
O O5 0.253827 0.500000 0.356619
O O6 0.224448 0.648353 0.459928
O O7 0.392158 0.723590 0.289688
O O8 0.693314 0.806839 0.880697
O O9 0.843016 0.828256 0.901823
O O10 0.889783 0.655161 0.803008
O O11 0.672118 0.651619 0.980197
O O12 0.033032 0.500000 0.575850
O O13 0.097784 0.366764 0.630221
O O14 0.099187 0.500000 0.867222
O O15 0.033742 0.256154 0.874447
O O16 0.920484 0.500000 0.266742
O O17 0.510849 0.500000 0.118944
#
# Coordination Sequence:
#
# PCOD9215217 Si02
#       7
#     8   8   8   8   8   8   8
#     4  11  23  40  64  93 126 167 218 267 319 385
#     4  11  24  40  61  92 130 169 212 265 326 390
#     4  11  24  45  71  97 134 178 220 273 332 399
#     4  10  22  41  63  90 126 168 212 263 325 388
#     4  11  25  45  69  99 136 178 222 270 331 399
#     4  11  23  41  66  93 124 166 216 268 323 386
#     4  11  26  44  69 103 134 171 222 275 332 396
#
# _framework density 23.031255000000002
#
# number of rings (size 3 to 8) (size 9 to 14) (size 15 to 20)
#    0.000    1.143    1.429    3.857    0.000   13.714 
#    0.000    0.000    0.000    0.000    0.000    0.000 
#    0.000    0.000    0.000    0.000    0.000    0.000 
#
# Total GULP energy -156471.906070 kJ/mol
# GULP energy per Si atom -5588.282360 kJ/mol
# Density = 2.297883 g / cm^3
# Si number density = 23.031255 Si / 1000 Ang^3
#
#
#
# Elastic Constant Matrix: (Units=GPa)
#
#
# Indices 1 2 3 4 5 6 
#
# 1 90.9468 50.9572 20.4324 0.0000 11.7741 0.0000
# 2 50.9572 219.8632 33.3341 0.0000 -10.0252 0.0000
# 3 20.4324 33.3341 78.8595 0.0000 7.5160 0.0000
# 4 0.0000 0.0000 0.0000 11.4155 0.0000 -10.3117
# 5 11.7741 -10.0252 7.5160 0.0000 41.9596 0.0000
# 6 0.0000 0.0000 0.0000 -10.3117 0.0000 24.4309
#
#
#
# Elastic Compliance Matrix: (Units=1/GPa)
#
#
# Indices 1 2 3 4 5 6 
#
# 1 0.013688 -0.003088 -0.001836 0.000000 -0.004250 0.000000
# 2 -0.003088 0.005658 -0.001834 0.000000 0.002547 0.000000
# 3 -0.001836 -0.001834 0.014166 0.000000 -0.002461 0.000000
# 4 0.000000 0.000000 0.000000 0.141580 0.000000 0.059757
# 5 -0.004250 0.002547 -0.002461 0.000000 0.026074 0.000000
# 6 0.000000 0.000000 0.000000 0.059757 0.000000 0.066154
#
#
# Mechanical properties :
#
#
# Convention : Reuss Voigt Hill
#
# Bulk Modulus (GPa) = 50.01059 66.56854 58.28957
# Shear Modulus (GPa) = 17.39108 34.55757 25.97433
#
# Velocity S-wave (km/s) = 2.75090 3.87778 3.36190
# Velocity P-wave (km/s) = 5.64370 7.00114 6.35874
#
# Compressibility (1/GPa) = 0.01999576
#
# Stress axis : x y z
#
# Youngs Moduli (GPa) = 73.05499 176.73431 70.58912
#
# Poissons Ratio (x) = 0.54573 0.12962
# Poissons Ratio (y) = 0.22559 0.12949
# Poissons Ratio (z) = 0.13415 0.32420
#
# Static dielectric constant tensor:
#      x y z
#    x 1.870220 0.000000 0.022280 
#    y 0.000000 1.882220 0.000000 
#    z 0.022280 0.000000 1.855990 
# 
# From -- ./inp_files/362947.got.cif
#   From: 2010.05.17/outbox.cif.g08.bks.cpg/sg12_182_cif.got.tgz:362947.got - 2010.06.03 13:09:07.
