data_PCOD9215506
_publ_section_title
;
Structure prediction by ZEFSAII (Michael W. Deem and Ramdas Pophale) SiO2 
 PCOD9215506
Probable space group: C 2/M
;
_chemical_formula_sum "Si O2"
_cell_formula_units_Z 48
_cell_length_a 21.588641
_cell_length_b 19.001975
_cell_length_c 12.628365
_cell_angle_alpha 90.000000
_cell_angle_beta 20.846673
_cell_angle_gamma 90.000000
_cell_volume 1843.573848
_symmetry_space_group_name_H-M "C 2/M"
_symmetry_group_IT_number 12
_symmetry_cell_setting 'monoclinic'
loop_
_space_group_symop_operation_xyz
x,y,z
-x,y,-z
-x,-y,-z
x,-y,z
1/2+x,1/2+y,z
1/2-x,1/2+y,-z
1/2-x,1/2-y,-z
1/2+x,1/2-y,z
loop_
_atom_site_type_symbol
_atom_site_label
_atom_site_fract_x
_atom_site_fract_y
_atom_site_fract_z
Si Si1 0.493100 0.924876 0.671986
Si Si2 0.968679 0.076910 0.223928
Si Si3 0.902162 0.617823 0.269496
Si Si4 0.465700 0.738500 0.932659
Si Si5 0.325108 0.791258 0.728822
Si Si6 0.390591 0.615425 0.781301
O O1 0.508673 0.919758 0.773996
O O2 0.602598 0.861624 0.445063
O O3 0.564984 0.000000 0.521481
O O4 0.293950 0.919941 0.953590
O O5 0.780647 0.083933 0.469256
O O6 0.035985 0.155415 0.088934
O O7 0.994641 0.079173 0.309627
O O8 0.039415 0.000000 0.076000
O O9 0.900032 0.699635 0.314949
O O10 0.000000 0.616085 0.000000
O O11 0.500000 0.739483 0.000000
O O12 0.277748 0.760618 0.185773
O O13 0.500000 0.762092 0.500000
O O14 0.185417 0.813710 0.041182
O O15 0.500000 0.618010 0.500000
#
# Coordination Sequence:
#
# PCOD9215506 Si02
#       6
#     8   8   8   8   8   8
#     4  11  23  41  67  99 137 178 220 271 330 392
#     4  11  23  39  63  94 127 166 218 273 325 390
#     4  11  24  41  62  92 129 175 221 270 328 393
#     4  10  22  42  65  92 129 173 217 269 332 393
#     4   9  21  41  66  98 132 173 223 273 329 393
#     4  10  22  41  66  99 137 175 218 273 334 393
#
# _framework density 26.036384999999999
#
# number of rings (size 3 to 8) (size 9 to 14) (size 15 to 20)
#    0.000    1.667    0.000    3.500    0.000   11.333 
#    0.000   11.667    0.000    0.000    0.000    0.000 
#    0.000    0.000    0.000    0.000    0.000    0.000 
#
# Total GULP energy -133966.923755 kJ/mol
# GULP energy per Si atom -5581.955156 kJ/mol
# Density = 2.597713 g / cm^3
# Si number density = 26.036385 Si / 1000 Ang^3
#
#
#
# Elastic Constant Matrix: (Units=GPa)
#
#
# Indices 1 2 3 4 5 6 
#
# 1 206.7622 33.6877 54.2228 -0.0021 -36.0236 0.0002
# 2 33.6877 150.5266 28.9033 -0.0074 -12.7252 -0.0002
# 3 54.2228 28.9033 94.3554 -0.0133 -15.8337 0.0032
# 4 -0.0021 -0.0074 -0.0133 24.1031 0.0028 8.0708
# 5 -36.0236 -12.7252 -15.8337 0.0028 57.8437 0.0002
# 6 0.0002 -0.0002 0.0032 8.0708 0.0002 -20.7104
#
#
#
# Elastic Compliance Matrix: (Units=1/GPa)
#
#
# Indices 1 2 3 4 5 6 
#
# 1 0.006203 -0.000584 -0.002892 -0.000001 0.002943 -0.000001
# 2 -0.000584 0.007170 -0.001737 0.000001 0.000738 0.000000
# 3 -0.002892 -0.001737 0.013024 0.000005 0.001382 0.000004
# 4 -0.000001 0.000001 0.000005 0.036700 -0.000001 0.014302
# 5 0.002943 0.000738 0.001382 -0.000001 0.019661 0.000000
# 6 -0.000001 0.000000 0.000004 0.014302 0.000000 -0.042712
#
#
# Mechanical properties :
#
#
# Convention : Reuss Voigt Hill
#
# Bulk Modulus (GPa) = 62.61207 76.14130 69.37669
# Shear Modulus (GPa) = 89.61376 34.56933 62.09155
#
# Velocity S-wave (km/s) = 5.87311 3.64776 4.88874
# Velocity P-wave (km/s) = 8.37205 6.85924 7.65312
#
# Compressibility (1/GPa) = 0.01597136
#
# Stress axis : x y z
#
# Youngs Moduli (GPa) = 161.21984 139.47082 76.78170
#
# Poissons Ratio (x) = 0.08147 0.22203
# Poissons Ratio (y) = 0.09417 0.13335
# Poissons Ratio (z) = 0.46620 0.24223
#
# Static dielectric constant tensor:
#      x y z
#    x 2.091280 0.000000 -0.007360 
#    y 0.000000 2.136870 0.000000 
#    z -0.007360 0.000000 2.064090 
# 
# From -- ./inp_files/241831.got.cif
#   From: 2010.05.17/outbox.cif.g08.bks.cpg/sg12_121_cif.got.tgz:241831.got - 2010.06.03 13:09:07.
