data_PCOD9215691
_publ_section_title
;
Structure prediction by ZEFSAII (Michael W. Deem and Ramdas Pophale) SiO2 
 PCOD9215691
Probable space group: C 2/M
;
_chemical_formula_sum "Si O2"
_cell_formula_units_Z 56
_cell_length_a 29.591793
_cell_length_b 9.454999
_cell_length_c 11.250007
_cell_angle_alpha 90.000000
_cell_angle_beta 114.983493
_cell_angle_gamma 90.000000
_cell_volume 2853.117087
_symmetry_space_group_name_H-M "C 2/M"
_symmetry_group_IT_number 12
_symmetry_cell_setting 'monoclinic'
loop_
_space_group_symop_operation_xyz
x,y,z
-x,y,-z
-x,-y,-z
x,-y,z
1/2+x,1/2+y,z
1/2-x,1/2+y,-z
1/2-x,1/2-y,-z
1/2+x,1/2-y,z
loop_
_atom_site_type_symbol
_atom_site_label
_atom_site_fract_x
_atom_site_fract_y
_atom_site_fract_z
Si Si1 0.920378 0.665840 0.356270
Si Si2 0.640428 0.163579 0.143582
Si Si3 0.832806 0.165885 0.355504
Si Si4 0.480999 0.834226 0.671100
Si Si5 0.050028 0.838140 0.133036
Si Si6 0.801313 0.664470 0.541938
Si Si7 0.233086 0.665919 0.095431
O O1 0.906554 0.500000 0.328005
O O2 0.872600 0.765861 0.309623
O O3 0.948517 0.680877 0.514775
O O4 0.962031 0.699973 0.303521
O O5 0.592447 0.258650 0.106271
O O6 0.669327 0.165646 0.301631
O O7 0.680500 0.213685 0.091153
O O8 0.627013 0.000000 0.103440
O O9 0.833061 0.257214 0.475959
O O10 0.777061 0.178454 0.241307
O O11 0.843124 0.000000 0.387584
O O12 0.460426 0.741141 0.754814
O O13 0.479027 0.000000 0.702446
O O14 0.064683 0.000000 0.172414
O O15 0.000000 0.836022 0.000000
O O16 0.791996 0.500000 0.499659
O O17 0.750000 0.750000 0.500000
O O18 0.228308 0.500000 0.062110
O O19 0.250000 0.750000 0.000000
#
# Coordination Sequence:
#
# PCOD9215691 Si02
#       7
#     8   8   8   8   8   8   8
#     4   9  19  36  59  88 117 149 191 238 290 349
#     4  10  22  42  63  85 117 154 195 242 290 347
#     4  11  22  37  56  86 123 154 190 238 292 348
#     4   9  19  38  61  84 115 152 193 240 290 347
#     4  11  25  41  58  85 119 152 196 248 296 345
#     4  11  21  36  60  89 121 153 191 240 291 348
#     4  10  23  42  59  81 115 153 194 238 283 341
#
# _framework density 19.627656000000002
#
# number of rings (size 3 to 8) (size 9 to 14) (size 15 to 20)
#    0.000    1.857    1.429    3.000    0.000    9.714 
#    0.000    7.143    0.000    0.000    0.000    0.000 
#    0.000    0.000    0.000    0.000    0.000    0.000 
#
# Total GULP energy -156484.556106 kJ/mol
# GULP energy per Si atom -5588.734147 kJ/mol
# Density = 1.958298 g / cm^3
# Si number density = 19.627656 Si / 1000 Ang^3
#
#
#
# Elastic Constant Matrix: (Units=GPa)
#
#
# Indices 1 2 3 4 5 6 
#
# 1 169.3795 91.8484 22.1779 0.0000 -15.0916 0.0000
# 2 91.8484 107.2102 26.9230 0.0000 -10.7795 0.0000
# 3 22.1779 26.9230 26.0632 0.0000 -20.2992 0.0000
# 4 0.0000 0.0000 0.0000 27.2536 0.0000 -0.7105
# 5 -15.0916 -10.7795 -20.2992 0.0000 31.0795 0.0000
# 6 0.0000 0.0000 0.0000 -0.7105 0.0000 37.7002
#
#
#
# Elastic Compliance Matrix: (Units=1/GPa)
#
#
# Indices 1 2 3 4 5 6 
#
# 1 0.011433 -0.010627 0.005500 0.000000 0.005458 0.000000
# 2 -0.010627 0.023652 -0.026500 0.000000 -0.014265 0.000000
# 3 0.005500 -0.026500 0.113949 0.000000 0.067904 0.000000
# 4 0.000000 0.000000 0.000000 0.036710 0.000000 0.000692
# 5 0.005458 -0.014265 0.067904 0.000000 0.074229 0.000000
# 6 0.000000 0.000000 0.000000 0.000692 0.000000 0.026538
#
#
# Mechanical properties :
#
#
# Convention : Reuss Voigt Hill
#
# Bulk Modulus (GPa) = 11.65763 64.95018 38.30391
# Shear Modulus (GPa) = 13.21497 29.98691 21.60094
#
# Velocity S-wave (km/s) = 2.59758 3.91293 3.32103
# Velocity P-wave (km/s) = 3.86638 7.31968 5.85349
#
# Compressibility (1/GPa) = 0.08578070
#
# Stress axis : x y z
#
# Youngs Moduli (GPa) = 87.46885 42.27942 8.77583
#
# Poissons Ratio (x) = 0.44930 -0.04827
# Poissons Ratio (y) = 0.92952 0.23256
# Poissons Ratio (z) = -0.48109 1.12040
#
# Static dielectric constant tensor:
#      x y z
#    x 1.696030 0.000000 0.007080 
#    y 0.000000 1.616680 0.000000 
#    z 0.007080 0.000000 1.690940 
# 
# From -- ./inp_files/181029.got.cif
#   From: 2010.05.17/outbox.cif.g08.bks.cpg/sg12_91_cif.got.tgz:181029.got - 2010.06.03 13:09:07.
