data_PCOD9215589
_publ_section_title
;
Structure prediction by ZEFSAII (Michael W. Deem and Ramdas Pophale) SiO2 
 PCOD9215589
Probable space group: C 2/M
;
_chemical_formula_sum "Si O2"
_cell_formula_units_Z 58
_cell_length_a 25.584558
_cell_length_b 9.070393
_cell_length_c 27.112219
_cell_angle_alpha 90.000000
_cell_angle_beta 153.487265
_cell_angle_gamma 90.000000
_cell_volume 2808.601212
_symmetry_space_group_name_H-M "C 2/M"
_symmetry_group_IT_number 12
_symmetry_cell_setting 'monoclinic'
loop_
_space_group_symop_operation_xyz
x,y,z
-x,y,-z
-x,-y,-z
x,-y,z
1/2+x,1/2+y,z
1/2-x,1/2+y,-z
1/2-x,1/2-y,-z
1/2+x,1/2-y,z
loop_
_atom_site_type_symbol
_atom_site_label
_atom_site_fract_x
_atom_site_fract_y
_atom_site_fract_z
Si Si1 0.343260 0.672196 0.043621
Si Si2 0.921496 0.236312 0.005139
Si Si3 0.450011 0.671576 0.704598
Si Si4 0.745253 0.323654 0.587190
Si Si5 0.212311 0.333536 0.758927
Si Si6 0.818735 0.831249 0.748230
Si Si7 0.500000 0.000000 0.000000
Si Si8 0.000616 0.679032 0.647389
O O1 0.312916 0.500000 0.008034
O O2 0.359372 0.755260 0.005545
O O3 0.464641 0.673260 0.176265
O O4 0.250000 0.750000 0.000000
O O5 0.044750 0.160439 0.122048
O O6 0.826350 0.160243 0.889735
O O7 0.959205 0.375083 0.005395
O O8 0.424046 0.500000 0.670879
O O9 0.333948 0.760353 0.621094
O O10 0.512537 0.751437 0.711731
O O11 0.735446 0.500000 0.575746
O O12 0.796951 0.272530 0.683432
O O13 0.621219 0.243284 0.475555
O O14 0.175691 0.500000 0.716141
O O15 0.250076 0.268863 0.738168
O O16 0.106099 0.269109 0.700844
O O17 0.781413 0.000000 0.704978
O O18 0.999776 0.500000 0.649337
#
# Coordination Sequence:
#
# PCOD9215589 Si02
#       8
#     8   8   8   8   8   8   2   8
#     4  11  25  42  67 102 141 185 227 281 346 415
#     4  12  23  43  66  99 141 178 233 273 342 408
#     4  11  23  43  67  97 130 172 222 273 332 397
#     4  12  26  43  67  96 129 173 222 279 335 396
#     4  10  22  41  68  96 128 174 221 272 330 397
#     4  11  22  41  70  98 130 172 224 277 329 398
#     4  12  28  40  66 108 138 200 222 294 340 400
#     4  11  24  45  68  95 131 173 222 275 334 402
#
# _framework density 20.650849999999998
#
# number of rings (size 3 to 8) (size 9 to 14) (size 15 to 20)
#    0.000    0.828    2.759    4.552    1.931    3.862 
#    2.483    2.759    0.000    0.000    0.000    0.000 
#    0.000    0.000    0.000    0.000    0.000    0.000 
#
# Total GULP energy -161754.710190 kJ/mol
# GULP energy per Si atom -5577.748627 kJ/mol
# Density = 2.060385 g / cm^3
# Si number density = 20.650850 Si / 1000 Ang^3
#
#
#
# Elastic Constant Matrix: (Units=GPa)
#
#
# Indices 1 2 3 4 5 6 
#
# 1 177.5896 52.3867 6.2412 0.0000 9.4013 0.0000
# 2 52.3867 118.7315 17.5335 0.0000 1.3305 0.0000
# 3 6.2412 17.5335 27.9038 0.0001 1.5253 0.0000
# 4 0.0000 0.0000 0.0001 37.5432 0.0000 -2.9843
# 5 9.4013 1.3305 1.5253 0.0000 22.4865 0.0000
# 6 0.0000 0.0000 0.0000 -2.9843 0.0000 42.1575
#
#
#
# Elastic Compliance Matrix: (Units=1/GPa)
#
#
# Indices 1 2 3 4 5 6 
#
# 1 0.006629 -0.002973 0.000530 0.000000 -0.002631 0.000000
# 2 -0.002973 0.010618 -0.006063 0.000000 0.001026 0.000000
# 3 0.000530 -0.006063 0.039668 0.000000 -0.002553 0.000000
# 4 0.000000 0.000000 0.000000 0.026787 0.000000 0.001896
# 5 -0.002631 0.001026 -0.002553 0.000000 0.045684 0.000000
# 6 0.000000 0.000000 0.000000 0.001896 0.000000 0.023855
#
#
# Mechanical properties :
#
#
# Convention : Reuss Voigt Hill
#
# Bulk Modulus (GPa) = 25.06174 52.94975 39.00575
# Shear Modulus (GPa) = 27.23983 36.97502 32.10742
#
# Velocity S-wave (km/s) = 3.63583 4.23600 3.94734
# Velocity P-wave (km/s) = 5.45784 7.04422 6.30115
#
# Compressibility (1/GPa) = 0.03990146
#
# Stress axis : x y z
#
# Youngs Moduli (GPa) = 150.85718 94.17822 25.20906
#
# Poissons Ratio (x) = 0.28004 -0.01335
# Poissons Ratio (y) = 0.44857 0.15284
# Poissons Ratio (z) = -0.07989 0.57100
#
# Static dielectric constant tensor:
#      x y z
#    x 1.749880 0.000000 0.000260 
#    y 0.000000 1.740910 0.000000 
#    z 0.000260 0.000000 1.747070 
# 
# From -- ./inp_files/367616.got.cif
#   From: 2010.05.17/outbox.cif.g08.bks.cpg/sg12_184_cif.got.tgz:367616.got - 2010.06.03 13:09:07.
