data_PCOD9215106
_publ_section_title
;
Structure prediction by ZEFSAII (Michael W. Deem and Ramdas Pophale) SiO2 
 PCOD9215106
Probable space group: C 2/M
;
_chemical_formula_sum "Si O2"
_cell_formula_units_Z 48
_cell_length_a 21.658348
_cell_length_b 12.469540
_cell_length_c 11.661964
_cell_angle_alpha 90.000000
_cell_angle_beta 49.546925
_cell_angle_gamma 90.000000
_cell_volume 2396.605238
_symmetry_space_group_name_H-M "C 2/M"
_symmetry_group_IT_number 12
_symmetry_cell_setting 'monoclinic'
loop_
_space_group_symop_operation_xyz
x,y,z
-x,y,-z
-x,-y,-z
x,-y,z
1/2+x,1/2+y,z
1/2-x,1/2+y,-z
1/2-x,1/2-y,-z
1/2+x,1/2-y,z
loop_
_atom_site_type_symbol
_atom_site_label
_atom_site_fract_x
_atom_site_fract_y
_atom_site_fract_z
Si Si1 0.845745 0.826019 0.774035
Si Si2 0.214718 0.875660 0.647075
Si Si3 0.652823 0.288734 0.489806
Si Si4 0.581787 0.256730 0.963077
Si Si5 0.492458 0.617586 0.748213
Si Si6 0.665760 0.877584 0.063203
O O1 0.842739 0.836335 0.642081
O O2 0.924236 0.880333 0.733503
O O3 0.851396 0.702466 0.810546
O O4 0.762521 0.871179 0.926224
O O5 0.302585 0.825501 0.567354
O O6 0.199289 0.856883 0.530699
O O7 0.148274 0.803769 0.795174
O O8 0.207558 0.000000 0.686158
O O9 0.559650 0.293369 0.640625
O O10 0.500000 0.215098 0.000000
O O11 0.550809 0.353912 0.080818
O O12 0.623036 0.173483 0.001805
O O13 0.531239 0.500000 0.707172
O O14 0.641173 0.000000 0.111186
#
# Coordination Sequence:
#
# PCOD9215106 Si02
#       6
#     8   8   8   8   8   8
#     4  10  22  41  61  92 128 163 213 264 307 382
#     4  11  24  42  66  93 130 175 208 256 321 376
#     4  11  23  41  59  96 131 162 208 263 310 385
#     4  11  22  42  66  97 128 162 217 267 304 383
#     4  11  23  38  66  97 127 165 211 270 320 362
#     4  10  22  41  65  93 126 169 211 261 321 373
#
# _framework density 20.02833
#
# number of rings (size 3 to 8) (size 9 to 14) (size 15 to 20)
#    0.000    1.333    3.333    2.000    0.000    5.000 
#    0.000    3.333    0.000    5.000    0.000    0.000 
#    0.000    0.000    0.000    0.000    0.000    0.000 
#
# Total GULP energy -134035.692834 kJ/mol
# GULP energy per Si atom -5584.820535 kJ/mol
# Density = 1.998275 g / cm^3
# Si number density = 20.028330 Si / 1000 Ang^3
#
#
#
# Elastic Constant Matrix: (Units=GPa)
#
#
# Indices 1 2 3 4 5 6 
#
# 1 95.3258 6.4731 24.1200 0.0000 -16.9919 0.0000
# 2 6.4731 94.3148 26.5101 0.0000 -16.3291 0.0000
# 3 24.1200 26.5101 84.3392 0.0000 7.0600 0.0000
# 4 0.0000 0.0000 0.0000 -116.3118 0.0000 -69.1031
# 5 -16.9919 -16.3291 7.0600 0.0000 34.7489 0.0000
# 6 0.0000 0.0000 0.0000 -69.1031 0.0000 -20.0814
#
#
#
# Elastic Compliance Matrix: (Units=1/GPa)
#
#
# Indices 1 2 3 4 5 6 
#
# 1 0.013136 0.001978 -0.005081 0.000000 0.008385 0.000000
# 2 0.001978 0.013471 -0.005505 0.000000 0.008416 0.000000
# 3 -0.005081 -0.005505 0.015732 0.000000 -0.008267 0.000000
# 4 0.000000 0.000000 0.000000 0.008232 0.000000 -0.028326
# 5 0.008385 0.008416 -0.008267 0.000000 0.038513 0.000000
# 6 0.000000 0.000000 0.000000 -0.028326 0.000000 0.047678
#
#
# Mechanical properties :
#
#
# Convention : Reuss Voigt Hill
#
# Bulk Modulus (GPa) = 39.79966 43.13179 41.46572
# Shear Modulus (GPa) = 30.79730 -5.87043 12.46344
#
# Velocity S-wave (km/s) = 3.92559 -1.71389 2.49728
# Velocity P-wave (km/s) = 6.36096 4.20304 5.39108
#
# Compressibility (1/GPa) = 0.02512584
#
# Stress axis : x y z
#
# Youngs Moduli (GPa) = 76.12530 74.23120 63.56380
#
# Poissons Ratio (x) = -0.14685 0.32294
# Poissons Ratio (y) = -0.15060 0.34990
# Poissons Ratio (z) = 0.38676 0.40862
#
# Static dielectric constant tensor:
#      x y z
#    x 1.726760 0.000000 -0.005900 
#    y 0.000000 1.708960 0.000000 
#    z -0.005900 0.000000 1.686730 
# 
# From -- ./inp_files/164681.got.cif
#   From: 2010.05.17/outbox.cif.g08.bks.cpg/sg12_83_cif.got.tgz:164681.got - 2010.06.03 13:09:07.
