data_PCOD9215865
_publ_section_title
;
Structure prediction by ZEFSAII (Michael W. Deem and Ramdas Pophale) SiO2 
 PCOD9215865
Probable space group: C 2/M
;
_chemical_formula_sum "Si O2"
_cell_formula_units_Z 58
_cell_length_a 22.299926
_cell_length_b 9.754895
_cell_length_c 24.968403
_cell_angle_alpha 90.000000
_cell_angle_beta 30.470083
_cell_angle_gamma 90.000000
_cell_volume 2754.231602
_symmetry_space_group_name_H-M "C 2/M"
_symmetry_group_IT_number 12
_symmetry_cell_setting 'monoclinic'
loop_
_space_group_symop_operation_xyz
x,y,z
-x,y,-z
-x,-y,-z
x,-y,z
1/2+x,1/2+y,z
1/2-x,1/2+y,-z
1/2-x,1/2-y,-z
1/2+x,1/2-y,z
loop_
_atom_site_type_symbol
_atom_site_label
_atom_site_fract_x
_atom_site_fract_y
_atom_site_fract_z
Si Si1 0.760055 0.338600 0.547538
Si Si2 0.000000 0.000000 0.500000
Si Si3 0.995526 0.749307 0.587682
Si Si4 0.559762 0.845499 0.741372
Si Si5 0.633198 0.652878 0.944874
Si Si6 0.559571 0.154887 0.861003
Si Si7 0.754689 0.351815 0.733840
Si Si8 0.614462 0.839462 0.223059
O O1 0.749214 0.500000 0.544310
O O2 0.750000 0.250000 0.500000
O O3 0.880274 0.315147 0.489043
O O4 0.653871 0.274598 0.663079
O O5 0.986651 0.119207 0.463020
O O6 0.894723 0.664070 0.633287
O O7 0.930994 0.762311 0.695668
O O8 0.508966 0.843768 0.839983
O O9 0.463550 0.827243 0.769407
O O10 0.612992 0.000000 0.693236
O O11 0.585418 0.500000 0.991441
O O12 0.693530 0.651762 0.839883
O O13 0.747115 0.680149 0.894086
O O14 0.530702 0.759662 0.033846
O O15 0.688773 0.224762 0.757699
O O16 0.572767 0.000000 0.870114
O O17 0.728080 0.500000 0.729538
O O18 0.600839 0.000000 0.252610
#
# Coordination Sequence:
#
# PCOD9215865 Si02
#       8
#     8   2   8   8   8   8   8   8
#     4  12  25  42  70 101 131 173 227 278 332 403
#     4  12  32  44  66 100 146 184 210 290 358 394
#     4  11  25  44  67  93 131 172 223 265 338 399
#     4  10  23  41  64  92 132 176 217 276 336 393
#     4   9  19  38  65  90 120 167 221 273 327 400
#     4  11  24  38  58  95 136 168 212 273 344 399
#     4  10  22  42  67  90 122 174 228 274 325 399
#     4   9  18  42  70  92 120 171 228 273 324 398
#
# _framework density 21.058506999999999
#
# number of rings (size 3 to 8) (size 9 to 14) (size 15 to 20)
#    0.000    1.655    1.379    3.310    4.828    3.862 
#    3.724    2.414    0.000    0.000    0.000    0.000 
#    0.000    0.000    0.000    0.000    0.000    0.000 
#
# Total GULP energy -161538.285182 kJ/mol
# GULP energy per Si atom -5570.285696 kJ/mol
# Density = 2.101058 g / cm^3
# Si number density = 21.058507 Si / 1000 Ang^3
#
#
#
# Elastic Constant Matrix: (Units=GPa)
#
#
# Indices 1 2 3 4 5 6 
#
# 1 103.3562 61.0474 38.9551 0.0001 -9.7503 0.0000
# 2 61.0474 164.2211 50.6491 0.0003 -9.2944 -0.0001
# 3 38.9551 50.6491 59.4012 0.0005 -17.2154 -0.0001
# 4 0.0001 0.0003 0.0005 16.0354 -0.0001 7.0156
# 5 -9.7503 -9.2944 -17.2154 -0.0001 36.3514 0.0000
# 6 0.0000 -0.0001 -0.0001 7.0156 0.0000 28.7773
#
#
#
# Elastic Compliance Matrix: (Units=1/GPa)
#
#
# Indices 1 2 3 4 5 6 
#
# 1 0.014004 -0.003214 -0.006483 0.000000 -0.000136 0.000000
# 2 -0.003214 0.009063 -0.006025 0.000000 -0.001398 0.000000
# 3 -0.006483 -0.006025 0.029294 -0.000001 0.010594 0.000000
# 4 0.000000 0.000000 -0.000001 0.069808 0.000000 -0.017018
# 5 -0.000136 -0.001398 0.010594 0.000000 0.032132 0.000000
# 6 0.000000 0.000000 0.000000 -0.017018 0.000000 0.038898
#
#
# Mechanical properties :
#
#
# Convention : Reuss Voigt Hill
#
# Bulk Modulus (GPa) = 47.80795 69.80906 58.80851
# Shear Modulus (GPa) = 21.58738 27.98796 24.78767
#
# Velocity S-wave (km/s) = 3.20521 3.64958 3.43459
# Velocity P-wave (km/s) = 6.03735 7.14012 6.61176
#
# Compressibility (1/GPa) = 0.02091702
#
# Stress axis : x y z
#
# Youngs Moduli (GPa) = 71.40678 110.33349 34.13698
#
# Poissons Ratio (x) = 0.35464 0.22130
# Poissons Ratio (y) = 0.22952 0.20569
# Poissons Ratio (z) = 0.46290 0.66480
#
# Static dielectric constant tensor:
#      x y z
#    x 1.821750 0.000000 -0.000430 
#    y 0.000000 1.754180 0.000000 
#    z -0.000430 0.000000 1.790260 
# 
# From -- ./inp_files/367536.got.cif
#   From: 2010.05.17/outbox.cif.g08.bks.cpg/sg12_184_cif.got.tgz:367536.got - 2010.06.03 13:09:07.
