data_PCOD9215689
_publ_section_title
;
Structure prediction by ZEFSAII (Michael W. Deem and Ramdas Pophale) SiO2 
 PCOD9215689
Probable space group: C 2/M
;
_chemical_formula_sum "Si O2"
_cell_formula_units_Z 52
_cell_length_a 21.944897
_cell_length_b 23.425311
_cell_length_c 5.485461
_cell_angle_alpha 90.000000
_cell_angle_beta 58.617710
_cell_angle_gamma 90.000000
_cell_volume 2407.372681
_symmetry_space_group_name_H-M "C 2/M"
_symmetry_group_IT_number 12
_symmetry_cell_setting 'monoclinic'
loop_
_space_group_symop_operation_xyz
x,y,z
-x,y,-z
-x,-y,-z
x,-y,z
1/2+x,1/2+y,z
1/2-x,1/2+y,-z
1/2-x,1/2-y,-z
1/2+x,1/2-y,z
loop_
_atom_site_type_symbol
_atom_site_label
_atom_site_fract_x
_atom_site_fract_y
_atom_site_fract_z
Si Si1 0.842923 0.397906 0.006201
Si Si2 0.929083 0.234957 0.541767
Si Si3 0.810662 0.936891 0.806307
Si Si4 0.427776 0.620653 0.276867
Si Si5 0.454093 0.000000 0.842083
Si Si6 0.823213 0.823935 0.108286
Si Si7 0.161334 0.673930 0.493705
O O1 0.764382 0.427283 0.174687
O O2 0.847260 0.357232 0.231366
O O3 0.903315 0.444916 0.924088
O O4 0.849128 0.365787 0.729174
O O5 0.951328 0.172303 0.402970
O O6 0.894336 0.274935 0.412997
O O7 0.000000 0.263054 0.500000
O O8 0.867370 0.222647 0.866482
O O9 0.881201 0.928680 0.496265
O O10 0.809882 0.000000 0.920833
O O11 0.815002 0.882874 0.974553
O O12 0.370733 0.654786 0.231501
O O13 0.500000 0.599899 0.000000
O O14 0.500000 0.000000 0.500000
O O15 0.500000 0.000000 0.000000
O O16 0.742972 0.804127 0.321223
#
# Coordination Sequence:
#
# PCOD9215689 Si02
#       7
#     8   8   8   8   4   8   8
#     4  11  24  46  68 102 137 174 229 287 336 411
#     4  11  24  40  64  93 135 185 220 284 350 408
#     4  10  22  42  67  97 132 177 227 281 341 407
#     4  11  22  40  66  95 136 175 228 278 346 409
#     4  12  26  46  72 100 137 185 219 283 360 410
#     4  10  22  42  62  97 131 180 228 283 344 409
#     4  11  25  42  70 103 134 177 236 285 332 408
#
# _framework density 21.600313
#
# number of rings (size 3 to 8) (size 9 to 14) (size 15 to 20)
#    0.000    1.231    3.846    1.385    2.154    3.385 
#    1.385    0.769    0.000    0.000    0.000    0.000 
#    0.000    0.000    0.000    0.000    0.000    0.000 
#
# Total GULP energy -145228.290611 kJ/mol
# GULP energy per Si atom -5585.703485 kJ/mol
# Density = 2.155115 g / cm^3
# Si number density = 21.600313 Si / 1000 Ang^3
#
#
#
# Elastic Constant Matrix: (Units=GPa)
#
#
# Indices 1 2 3 4 5 6 
#
# 1 156.0646 35.1778 42.3562 0.0000 -3.8169 0.0000
# 2 35.1778 67.8761 27.6557 0.0000 -9.8498 0.0000
# 3 42.3562 27.6557 79.7150 0.0000 -4.3991 0.0000
# 4 0.0000 0.0000 0.0000 794.5033 0.0000-1058.8299
# 5 -3.8169 -9.8498 -4.3991 0.0000 40.1514 0.0000
# 6 0.0000 0.0000 0.0000-1058.8299 0.0000 1422.5323
#
#
#
# Elastic Compliance Matrix: (Units=1/GPa)
#
#
# Indices 1 2 3 4 5 6 
#
# 1 0.007917 -0.002825 -0.003243 0.000000 -0.000296 0.000000
# 2 -0.002825 0.018693 -0.004775 0.000000 0.003794 0.000000
# 3 -0.003243 -0.004775 0.015939 0.000000 0.000267 0.000000
# 4 0.000000 0.000000 0.000000 0.156563 0.000000 0.116534
# 5 -0.000296 0.003794 0.000267 0.000000 0.025838 0.000000
# 6 0.000000 0.000000 0.000000 0.116534 0.000000 0.087443
#
#
# Mechanical properties :
#
#
# Convention : Reuss Voigt Hill
#
# Bulk Modulus (GPa) = 47.92995 57.11501 52.52248
# Shear Modulus (GPa) = 14.66134 464.66848 239.66491
#
# Velocity S-wave (km/s) = 2.60812 14.68292 10.54492
# Velocity P-wave (km/s) = 5.59530 17.71864 13.13883
#
# Compressibility (1/GPa) = 0.02086378
#
# Stress axis : x y z
#
# Youngs Moduli (GPa) = 126.30601 53.49675 62.73859
#
# Poissons Ratio (x) = 0.15112 0.20347
# Poissons Ratio (y) = 0.35678 0.29956
# Poissons Ratio (z) = 0.40963 0.25544
#
# Static dielectric constant tensor:
#      x y z
#    x 1.848210 0.000000 0.036940 
#    y 0.000000 1.793990 0.000000 
#    z 0.036940 0.000000 1.843830 
# 
# From -- ./inp_files/21814.got.cif
#   From: 2010.05.17/outbox.cif.g08.bks.cpg/sg12_11_cif.got.tgz:21814.got - 2010.06.03 13:09:07.
