data_PCOD9215642
_publ_section_title
;
Structure prediction by ZEFSAII (Michael W. Deem and Ramdas Pophale) SiO2 
 PCOD9215642
Probable space group: C 2/M
;
_chemical_formula_sum "Si O2"
_cell_formula_units_Z 44
_cell_length_a 10.568613
_cell_length_b 10.124718
_cell_length_c 24.642173
_cell_angle_alpha 90.000000
_cell_angle_beta 53.468734
_cell_angle_gamma 90.000000
_cell_volume 2118.766955
_symmetry_space_group_name_H-M "C 2/M"
_symmetry_group_IT_number 12
_symmetry_cell_setting 'monoclinic'
loop_
_space_group_symop_operation_xyz
x,y,z
-x,y,-z
-x,-y,-z
x,-y,z
1/2+x,1/2+y,z
1/2-x,1/2+y,-z
1/2-x,1/2-y,-z
1/2+x,1/2-y,z
loop_
_atom_site_type_symbol
_atom_site_label
_atom_site_fract_x
_atom_site_fract_y
_atom_site_fract_z
Si Si1 0.373762 0.657409 0.580337
Si Si2 0.139275 0.500000 0.897346
Si Si3 0.043510 0.000000 0.253486
Si Si4 0.451533 0.500000 0.158176
Si Si5 0.020378 0.250867 0.655664
Si Si6 0.094193 0.500000 0.248443
Si Si7 0.288271 0.280550 0.928144
Si Si8 0.110882 0.500000 0.131027
O O1 0.500000 0.672487 0.500000
O O2 0.350886 0.500000 0.595875
O O3 0.206999 0.719883 0.605749
O O4 0.443144 0.723462 0.616990
O O5 0.283558 0.500000 0.817475
O O6 0.163152 0.372734 0.929105
O O7 0.986311 0.500000 0.900323
O O8 0.012188 0.126071 0.298008
O O9 0.935929 0.000000 0.227403
O O10 0.275004 0.500000 0.182844
O O11 0.552982 0.370716 0.116040
O O12 0.943454 0.374062 0.706064
O O13 0.006060 0.500000 0.212758
O O14 0.303268 0.141076 0.894147
O O15 0.250000 0.250000 0.000000
#
# Coordination Sequence:
#
# PCOD9215642 Si02
#       8
#     8   4   4   4   8   4   8   4
#     4  11  25  47  71 106 146 186 236 294 349 415
#     4  10  25  45  65 100 136 175 215 298 327 410
#     4  10  22  41  70  95 142 170 229 278 356 401
#     4  10  23  44  63 103 141 172 225 306 336 412
#     4  12  24  45  72 107 136 193 235 290 350 428
#     4  12  26  41  69 105 139 177 239 279 353 422
#     4  10  23  45  69  96 128 178 230 271 351 412
#     4  12  26  41  68  97 133 179 219 280 346 395
#
# _framework density 20.766794999999998
#
# number of rings (size 3 to 8) (size 9 to 14) (size 15 to 20)
#    0.000    1.273    1.818    4.909    7.636    1.455 
#    0.000    1.818    0.000    0.000    0.000    0.000 
#    0.000    0.000    0.000    0.000    0.000    0.000 
#
# Total GULP energy -123033.461140 kJ/mol
# GULP energy per Si atom -5592.430052 kJ/mol
# Density = 2.071953 g / cm^3
# Si number density = 20.766795 Si / 1000 Ang^3
#
#
#
# Elastic Constant Matrix: (Units=GPa)
#
#
# Indices 1 2 3 4 5 6 
#
# 1 90.6393 30.9466 20.8476 0.0000 4.8098 0.0000
# 2 30.9466 183.9559 58.7172 0.0000 6.8241 0.0000
# 3 20.8476 58.7172 100.0763 0.0000 10.4681 0.0000
# 4 0.0000 0.0000 0.0000 38.6742 0.0000 16.9809
# 5 4.8098 6.8241 10.4681 0.0000 43.5535 0.0000
# 6 0.0000 0.0000 0.0000 16.9809 0.0000 8.5094
#
#
#
# Elastic Compliance Matrix: (Units=1/GPa)
#
#
# Indices 1 2 3 4 5 6 
#
# 1 0.011933 -0.001490 -0.001537 0.000000 -0.000715 0.000000
# 2 -0.001490 0.006875 -0.003722 0.000000 -0.000018 0.000000
# 3 -0.001537 -0.003722 0.012737 0.000000 -0.002309 0.000000
# 4 0.000000 0.000000 0.000000 0.208868 0.000000 -0.416808
# 5 -0.000715 -0.000018 -0.002309 0.000000 0.023597 0.000000
# 6 0.000000 0.000000 0.000000 -0.416808 0.000000 0.949281
#
#
# Mechanical properties :
#
#
# Convention : Reuss Voigt Hill
#
# Bulk Modulus (GPa) = 55.40579 66.18825 60.79702
# Shear Modulus (GPa) = 4.05579 35.75808 19.90693
#
# Velocity S-wave (km/s) = 1.39902 4.15406 3.09948
# Velocity P-wave (km/s) = 5.41734 7.41281 6.49220
#
# Compressibility (1/GPa) = 0.01804866
#
# Stress axis : x y z
#
# Youngs Moduli (GPa) = 83.80133 145.44623 78.50844
#
# Poissons Ratio (x) = 0.21679 0.12063
# Poissons Ratio (y) = 0.12490 0.29217
# Poissons Ratio (z) = 0.12877 0.54129
#
# Static dielectric constant tensor:
#      x y z
#    x 1.800950 0.000000 -0.001770 
#    y 0.000000 1.726800 0.000000 
#    z -0.001770 0.000000 1.720250 
# 
# From -- ./inp_files/334767.got.cif
#   From: 2010.05.17/outbox.cif.g08.bks.cpg/sg12_168_cif.got.tgz:334767.got - 2010.06.03 13:09:07.
