data_PCOD9215013
_publ_section_title
;
Structure prediction by ZEFSAII (Michael W. Deem and Ramdas Pophale) SiO2 
 PCOD9215013
Probable space group: C 2/M
;
_chemical_formula_sum "Si O2"
_cell_formula_units_Z 32
_cell_length_a 19.110258
_cell_length_b 8.407178
_cell_length_c 11.586329
_cell_angle_alpha 90.000000
_cell_angle_beta 51.513855
_cell_angle_gamma 90.000000
_cell_volume 1457.103947
_symmetry_space_group_name_H-M "C 2/M"
_symmetry_group_IT_number 12
_symmetry_cell_setting 'monoclinic'
loop_
_space_group_symop_operation_xyz
x,y,z
-x,y,-z
-x,-y,-z
x,-y,z
1/2+x,1/2+y,z
1/2-x,1/2+y,-z
1/2-x,1/2-y,-z
1/2+x,1/2-y,z
loop_
_atom_site_type_symbol
_atom_site_label
_atom_site_fract_x
_atom_site_fract_y
_atom_site_fract_z
Si Si1 0.898193 0.326461 0.649944
Si Si2 0.947990 0.000000 0.677566
Si Si3 0.235048 0.816741 0.389254
Si Si4 0.099793 0.327968 0.950437
Si Si5 0.550935 0.500000 0.073205
O O1 0.877437 0.500000 0.722840
O O2 0.893007 0.164777 0.729258
O O3 0.834301 0.292605 0.607614
O O4 0.000000 0.333694 0.500000
O O5 0.998352 0.000000 0.750662
O O6 0.000000 0.000000 0.500000
O O7 0.250000 0.750000 0.500000
O O8 0.328270 0.815813 0.224994
O O9 0.203188 0.000000 0.423845
O O10 0.113911 0.500000 0.994943
O O11 0.105193 0.164561 0.014645
O O12 0.000000 0.332415 0.000000
O O13 0.500000 0.500000 0.000000
#
# Coordination Sequence:
#
# PCOD9215013 Si02
#       5
#     8   4   8   8   4
#     4  10  22  41  65  96 140 183 228 285 359 414
#     4  10  22  42  66 100 137 176 231 288 349 422
#     4  11  23  40  70 106 142 184 238 299 351 417
#     4   9  21  41  63  95 139 177 226 282 349 414
#     4  10  22  40  68 100 131 180 231 282 351 414
#
# _framework density 21.961371
#
# number of rings (size 3 to 8) (size 9 to 14) (size 15 to 20)
#    0.000    2.000    1.250    0.750    3.500    9.000 
#    0.000   11.250    0.000    0.000    0.000    0.000 
#    0.000    0.000    0.000    0.000    0.000    0.000 
#
# Total GULP energy -89150.457400 kJ/mol
# GULP energy per Si atom -5571.903588 kJ/mol
# Density = 2.191139 g / cm^3
# Si number density = 21.961371 Si / 1000 Ang^3
#
#
#
# Elastic Constant Matrix: (Units=GPa)
#
#
# Indices 1 2 3 4 5 6 
#
# 1 107.1709 23.7908 57.8236 0.0000 6.7429 0.0000
# 2 23.7908 252.2836 47.6056 0.0000 10.4016 0.0000
# 3 57.8236 47.6056 99.9502 0.0000 18.8349 0.0000
# 4 0.0000 0.0000 0.0000 22.9766 0.0000 -7.2896
# 5 6.7429 10.4016 18.8349 0.0000 42.4684 0.0000
# 6 0.0000 0.0000 0.0000 -7.2896 0.0000 15.7758
#
#
#
# Elastic Compliance Matrix: (Units=1/GPa)
#
#
# Indices 1 2 3 4 5 6 
#
# 1 0.013658 0.000214 -0.008276 0.000000 0.001450 0.000000
# 2 0.000214 0.004360 -0.002174 0.000000 -0.000137 0.000000
# 3 -0.008276 -0.002174 0.016893 0.000000 -0.005645 0.000000
# 4 0.000000 0.000000 0.000000 0.050999 0.000000 0.023566
# 5 0.001450 -0.000137 -0.005645 0.000000 0.025854 0.000000
# 6 0.000000 0.000000 0.000000 0.023566 0.000000 0.074277
#
#
# Mechanical properties :
#
#
# Convention : Reuss Voigt Hill
#
# Bulk Modulus (GPa) = 69.26991 79.76052 74.51521
# Shear Modulus (GPa) = 23.66014 38.25647 30.95830
#
# Velocity S-wave (km/s) = 3.28587 4.17824 3.75863
# Velocity P-wave (km/s) = 6.78278 7.72492 7.26913
#
# Compressibility (1/GPa) = 0.01443628
#
# Stress axis : x y z
#
# Youngs Moduli (GPa) = 73.21899 229.38020 59.19777
#
# Poissons Ratio (x) = -0.04909 0.48995
# Poissons Ratio (y) = -0.01567 0.12872
# Poissons Ratio (z) = 0.60599 0.49876
#
# Static dielectric constant tensor:
#      x y z
#    x 1.787510 0.000000 -0.000840 
#    y 0.000000 1.882850 0.000000 
#    z -0.000840 0.000000 1.781630 
# 
# From -- ./inp_files/151185.got.cif
#   From: 2010.05.17/outbox.cif.g08.bks.cpg/sg12_76_cif.got.tgz:151185.got - 2010.06.03 13:09:07.
