data_PCOD9215411
_publ_section_title
;
Structure prediction by ZEFSAII (Michael W. Deem and Ramdas Pophale) SiO2 
 PCOD9215411
Probable space group: C 2/M
;
_chemical_formula_sum "Si O2"
_cell_formula_units_Z 48
_cell_length_a 9.492934
_cell_length_b 21.894806
_cell_length_c 16.843684
_cell_angle_alpha 90.000000
_cell_angle_beta 141.908254
_cell_angle_gamma 90.000000
_cell_volume 2159.778732
_symmetry_space_group_name_H-M "C 2/M"
_symmetry_group_IT_number 12
_symmetry_cell_setting 'monoclinic'
loop_
_space_group_symop_operation_xyz
x,y,z
-x,y,-z
-x,-y,-z
x,-y,z
1/2+x,1/2+y,z
1/2-x,1/2+y,-z
1/2-x,1/2-y,-z
1/2+x,1/2-y,z
loop_
_atom_site_type_symbol
_atom_site_label
_atom_site_fract_x
_atom_site_fract_y
_atom_site_fract_z
Si Si1 0.143739 0.426464 0.759148
Si Si2 0.050191 0.216910 0.203999
Si Si3 0.219882 0.172368 0.054198
Si Si4 0.257549 0.071721 0.368222
Si Si5 0.512368 0.721292 0.368622
Si Si6 0.620001 0.403452 0.479048
O O1 0.149638 0.500000 0.775106
O O2 0.230343 0.389137 0.874401
O O3 0.288298 0.408934 0.743307
O O4 0.886844 0.405619 0.622351
O O5 0.305525 0.230661 0.285522
O O6 0.048372 0.198411 0.294708
O O7 0.937066 0.284462 0.154020
O O8 0.872185 0.175553 0.076002
O O9 0.000000 0.202614 0.000000
O O10 0.500000 0.101775 0.500000
O O11 0.111200 0.073142 0.384069
O O12 0.298984 0.000000 0.372964
O O13 0.750000 0.750000 0.500000
O O14 0.491522 0.661442 0.413063
O O15 0.500000 0.435352 0.500000
#
# Coordination Sequence:
#
# PCOD9215411 Si02
#       6
#     8   8   8   8   8   8
#     4  10  22  41  65  95 128 171 226 272 322 395
#     4  11  25  43  64 101 129 177 225 271 329 405
#     4  11  23  42  69  90 131 175 226 273 329 380
#     4   8  17  34  57  86 120 161 212 263 317 383
#     4  12  24  40  64  95 134 165 215 273 341 405
#     4  11  22  35  59  96 130 166 209 269 340 403
#
# _framework density 22.224499999999999
#
# number of rings (size 3 to 8) (size 9 to 14) (size 15 to 20)
#    0.000    1.500    1.667    5.000    2.333    4.333 
#    0.000    0.000    0.000    0.000    0.000    2.333 
#    0.000    0.000    0.000    0.000    0.000    0.000 
#
# Total GULP energy -133733.733207 kJ/mol
# GULP energy per Si atom -5572.238884 kJ/mol
# Density = 2.217392 g / cm^3
# Si number density = 22.224500 Si / 1000 Ang^3
#
#
#
# Elastic Constant Matrix: (Units=GPa)
#
#
# Indices 1 2 3 4 5 6 
#
# 1 125.9715 13.9751 49.4257 0.0028 -27.0506 0.0012
# 2 13.9751 83.9322 60.1798 0.0009 -18.8041 0.0003
# 3 49.4257 60.1798 129.4525 0.0181 -29.7621 0.0077
# 4 0.0028 0.0009 0.0181 9.1522 0.0054 -20.7623
# 5 -27.0506 -18.8041 -29.7621 0.0054 54.9003 0.0021
# 6 0.0012 0.0003 0.0077 -20.7623 0.0021 15.0953
#
#
#
# Elastic Compliance Matrix: (Units=1/GPa)
#
#
# Indices 1 2 3 4 5 6 
#
# 1 0.010006 0.001917 -0.003915 -0.000002 0.003464 -0.000002
# 2 0.001917 0.018404 -0.008706 -0.000010 0.002528 -0.000010
# 3 -0.003915 -0.008706 0.013866 0.000020 0.002606 0.000021
# 4 -0.000002 -0.000010 0.000020 -0.051534 0.000014 -0.070881
# 5 0.003464 0.002528 0.002606 0.000014 0.022200 0.000015
# 6 -0.000002 -0.000010 0.000021 -0.070881 0.000015 -0.031245
#
#
# Mechanical properties :
#
#
# Convention : Reuss Voigt Hill
#
# Bulk Modulus (GPa) = 47.92128 65.16860 56.54494
# Shear Modulus (GPa) = 496.92645 30.21461 263.57053
#
# Velocity S-wave (km/s) = 14.96928 3.69116 10.90193
# Velocity P-wave (km/s) = 17.89921 6.89585 13.56345
#
# Compressibility (1/GPa) = 0.02086756
#
# Stress axis : x y z
#
# Youngs Moduli (GPa) = 99.94405 54.33552 72.11795
#
# Poissons Ratio (x) = -0.10417 0.28234
# Poissons Ratio (y) = -0.19162 0.62789
# Poissons Ratio (z) = 0.39128 0.47307
#
# Static dielectric constant tensor:
#      x y z
#    x 1.869770 0.000000 -0.043130 
#    y 0.000000 1.933170 0.000000 
#    z -0.043130 0.000000 1.836420 
# 
# From -- ./inp_files/200203.got.cif
#   From: 2010.05.17/outbox.cif.g08.bks.cpg/sg12_101_cif.got.tgz:200203.got - 2010.06.03 13:09:07.
