data_PCOD9215636
_publ_section_title
;
Structure prediction by ZEFSAII (Michael W. Deem and Ramdas Pophale) SiO2 
 PCOD9215636
Probable space group: C 2/M
;
_chemical_formula_sum "Si O2"
_cell_formula_units_Z 48
_cell_length_a 23.537648
_cell_length_b 18.991194
_cell_length_c 7.174433
_cell_angle_alpha 90.000000
_cell_angle_beta 41.063958
_cell_angle_gamma 90.000000
_cell_volume 2106.700982
_symmetry_space_group_name_H-M "C 2/M"
_symmetry_group_IT_number 12
_symmetry_cell_setting 'monoclinic'
loop_
_space_group_symop_operation_xyz
x,y,z
-x,y,-z
-x,-y,-z
x,-y,z
1/2+x,1/2+y,z
1/2-x,1/2+y,-z
1/2-x,1/2-y,-z
1/2+x,1/2-y,z
loop_
_atom_site_type_symbol
_atom_site_label
_atom_site_fract_x
_atom_site_fract_y
_atom_site_fract_z
Si Si1 0.357288 0.080769 0.842667
Si Si2 0.907664 0.916998 0.628503
Si Si3 0.820214 0.918086 0.481871
Si Si4 0.441614 0.808365 0.889940
Si Si5 0.375094 0.178079 0.460783
Si Si6 0.187692 0.817943 0.858549
O O1 0.355832 0.110971 0.637232
O O2 0.382740 0.000000 0.779440
O O3 0.265351 0.086723 0.177160
O O4 0.422111 0.129086 0.798251
O O5 0.899370 0.901831 0.428085
O O6 0.000000 0.906981 0.500000
O O7 0.885051 0.000000 0.703473
O O8 0.841717 0.868153 0.901989
O O9 0.811863 0.865574 0.329351
O O10 0.828292 0.000000 0.398699
O O11 0.409280 0.836685 0.169965
O O12 0.958150 0.714857 0.348923
O O13 0.381559 0.743139 0.990138
O O14 0.282341 0.214542 0.666138
#
# Coordination Sequence:
#
# PCOD9215636 Si02
#       6
#     8   8   8   8   8   8
#     4  11  24  45  71  98 135 180 227 280 338 401
#     4  10  23  43  68 105 142 179 231 283 336 404
#     4  10  22  41  70 105 135 176 228 274 334 410
#     4  11  27  45  65 104 138 175 233 283 336 411
#     4  11  25  45  69  97 137 179 229 279 339 409
#     4  12  24  45  74  97 141 185 221 282 352 397
#
# _framework density 22.784438999999999
#
# number of rings (size 3 to 8) (size 9 to 14) (size 15 to 20)
#    0.000    1.167    3.333    1.500    0.000    9.333 
#    0.000    4.167    0.000    0.000    0.000    0.000 
#    0.000    0.000    0.000    0.000    0.000    0.000 
#
# Total GULP energy -134267.072330 kJ/mol
# GULP energy per Si atom -5594.461347 kJ/mol
# Density = 2.273258 g / cm^3
# Si number density = 22.784439 Si / 1000 Ang^3
#
#
#
# Elastic Constant Matrix: (Units=GPa)
#
#
# Indices 1 2 3 4 5 6 
#
# 1 166.1682 67.5744 29.1058 0.0000 -26.1642 0.0000
# 2 67.5744 99.0381 45.2689 0.0000 -10.7200 0.0000
# 3 29.1058 45.2689 63.1458 0.0000 -5.6130 0.0000
# 4 0.0000 0.0000 0.0000 -2.3191 0.0000 7.9594
# 5 -26.1642 -10.7200 -5.6130 0.0000 35.0166 0.0000
# 6 0.0000 0.0000 0.0000 7.9594 0.0000 2.4590
#
#
#
# Elastic Compliance Matrix: (Units=1/GPa)
#
#
# Indices 1 2 3 4 5 6 
#
# 1 0.009136 -0.005896 0.000469 0.000000 0.005097 0.000000
# 2 -0.005896 0.019123 -0.011019 0.000000 -0.000318 0.000000
# 3 0.000469 -0.011019 0.023587 0.000000 0.000758 0.000000
# 4 0.000000 0.000000 0.000000 -0.035610 0.000000 0.115263
# 5 0.005097 -0.000318 0.000758 0.000000 0.032390 0.000000
# 6 0.000000 0.000000 0.000000 0.115263 0.000000 0.033584
#
#
# Mechanical properties :
#
#
# Convention : Reuss Voigt Hill
#
# Bulk Modulus (GPa) = 52.76323 68.02779 60.39551
# Shear Modulus (GPa) = 41.17898 19.45817 30.31857
#
# Velocity S-wave (km/s) = 4.25588 2.92552 3.65179
# Velocity P-wave (km/s) = 6.88171 6.42911 6.65926
#
# Compressibility (1/GPa) = 0.01895259
#
# Stress axis : x y z
#
# Youngs Moduli (GPa) = 109.45504 52.29402 42.39572
#
# Poissons Ratio (x) = 0.30835 -0.01988
# Poissons Ratio (y) = 0.64539 0.46717
# Poissons Ratio (z) = -0.05133 0.57625
#
# Static dielectric constant tensor:
#      x y z
#    x 1.922740 0.000000 -0.031750 
#    y 0.000000 1.787910 0.000000 
#    z -0.031750 0.000000 1.837900 
# 
# From -- ./inp_files/25514.got.cif
#   From: 2010.05.17/outbox.cif.g08.bks.cpg/sg12_13_cif.got.tgz:25514.got - 2010.06.03 13:09:07.
