data_PCOD9215284
_publ_section_title
;
Structure prediction by ZEFSAII (Michael W. Deem and Ramdas Pophale) SiO2 
 PCOD9215284
Probable space group: C 2/M
;
_chemical_formula_sum "Si O2"
_cell_formula_units_Z 32
_cell_length_a 8.808625
_cell_length_b 10.117031
_cell_length_c 22.147229
_cell_angle_alpha 90.000000
_cell_angle_beta 47.056448
_cell_angle_gamma 90.000000
_cell_volume 1444.796438
_symmetry_space_group_name_H-M "C 2/M"
_symmetry_group_IT_number 12
_symmetry_cell_setting 'monoclinic'
loop_
_space_group_symop_operation_xyz
x,y,z
-x,y,-z
-x,-y,-z
x,-y,z
1/2+x,1/2+y,z
1/2-x,1/2+y,-z
1/2-x,1/2-y,-z
1/2+x,1/2-y,z
loop_
_atom_site_type_symbol
_atom_site_label
_atom_site_fract_x
_atom_site_fract_y
_atom_site_fract_z
Si Si1 0.263417 0.352246 0.085220
Si Si2 0.774712 0.706534 0.562128
Si Si3 0.313159 0.645070 0.674247
Si Si4 0.409910 0.652019 0.178248
O O1 0.195760 0.500000 0.083363
O O2 0.270043 0.349880 0.156229
O O3 0.116438 0.233515 0.105524
O O4 0.500000 0.336214 0.000000
O O5 0.750000 0.750000 0.500000
O O6 0.551214 0.641431 0.632973
O O7 0.799323 0.819097 0.606868
O O8 0.000000 0.637581 0.500000
O O9 0.220602 0.500000 0.710091
O O10 0.201874 0.762929 0.739996
O O11 0.451431 0.500000 0.184469
#
# Coordination Sequence:
#
# PCOD9215284 Si02
#       4
#     8   8   8   8
#     4  10  22  41  64  91 124 161 203 253 306 361
#     4   9  21  40  61  90 121 153 198 253 305 358
#     4  11  23  40  63  90 123 163 203 249 307 366
#     4  11  24  40  61  91 124 161 206 252 301 362
#
# _framework density 22.148448999999999
#
# number of rings (size 3 to 8) (size 9 to 14) (size 15 to 20)
#    0.000    1.750    0.000    3.000    0.000   13.500 
#    0.000    7.500    0.000    0.000    0.000    0.000 
#    0.000    0.000    0.000    0.000    0.000    0.000 
#
# Total GULP energy -89254.490177 kJ/mol
# GULP energy per Si atom -5578.405636 kJ/mol
# Density = 2.209804 g / cm^3
# Si number density = 22.148449 Si / 1000 Ang^3
#
#
#
# Elastic Constant Matrix: (Units=GPa)
#
#
# Indices 1 2 3 4 5 6 
#
# 1 105.4267 51.7438 20.2361 0.0000 -6.8792 0.0000
# 2 51.7438 191.1438 44.0402 0.0000 -17.7992 0.0000
# 3 20.2361 44.0402 85.0988 0.0000 -6.4218 0.0000
# 4 0.0000 0.0000 0.0000 46.5050 0.0000 -22.1347
# 5 -6.8792 -17.7992 -6.4218 0.0000 42.9765 0.0000
# 6 0.0000 0.0000 0.0000 -22.1347 0.0000 26.9656
#
#
#
# Elastic Compliance Matrix: (Units=1/GPa)
#
#
# Indices 1 2 3 4 5 6 
#
# 1 0.011060 -0.002670 -0.001212 0.000000 0.000484 0.000000
# 2 -0.002670 0.006764 -0.002717 0.000000 0.001968 0.000000
# 3 -0.001212 -0.002717 0.013498 0.000000 0.000698 0.000000
# 4 0.000000 0.000000 0.000000 0.035291 0.000000 0.028969
# 5 0.000484 0.001968 0.000698 0.000000 0.024265 0.000000
# 6 0.000000 0.000000 0.000000 0.028969 0.000000 0.060863
#
#
# Mechanical properties :
#
#
# Convention : Reuss Voigt Hill
#
# Bulk Modulus (GPa) = 55.17457 68.18995 61.68226
# Shear Modulus (GPa) = 29.24337 40.99937 35.12137
#
# Velocity S-wave (km/s) = 3.63758 4.30713 3.98644
# Velocity P-wave (km/s) = 6.52748 7.45585 7.00706
#
# Compressibility (1/GPa) = 0.01812429
#
# Stress axis : x y z
#
# Youngs Moduli (GPa) = 90.41822 147.84996 74.08537
#
# Poissons Ratio (x) = 0.39471 0.08978
# Poissons Ratio (y) = 0.24139 0.20129
# Poissons Ratio (z) = 0.10957 0.40170
#
# Static dielectric constant tensor:
#      x y z
#    x 1.823440 0.000000 -0.039120 
#    y 0.000000 1.788380 0.000000 
#    z -0.039120 0.000000 1.862230 
# 
# From -- ./inp_files/298653.got.cif
#   From: 2010.05.17/outbox.cif.g08.bks.cpg/sg12_150_cif.got.tgz:298653.got - 2010.06.03 13:09:07.
