data_PCOD9215250
_publ_section_title
;
Structure prediction by ZEFSAII (Michael W. Deem and Ramdas Pophale) SiO2 
 PCOD9215250
Probable space group: C 2/M
;
_chemical_formula_sum "Si O2"
_cell_formula_units_Z 64
_cell_length_a 10.048291
_cell_length_b 14.266477
_cell_length_c 24.591437
_cell_angle_alpha 90.000000
_cell_angle_beta 92.793827
_cell_angle_gamma 90.000000
_cell_volume 3521.083629
_symmetry_space_group_name_H-M "C 2/M"
_symmetry_group_IT_number 12
_symmetry_cell_setting 'monoclinic'
loop_
_space_group_symop_operation_xyz
x,y,z
-x,y,-z
-x,-y,-z
x,-y,z
1/2+x,1/2+y,z
1/2-x,1/2+y,-z
1/2-x,1/2-y,-z
1/2+x,1/2-y,z
loop_
_atom_site_type_symbol
_atom_site_label
_atom_site_fract_x
_atom_site_fract_y
_atom_site_fract_z
Si Si1 0.093449 0.753306 0.777626
Si Si2 0.704613 0.390710 0.869689
Si Si3 0.163433 0.771776 0.296576
Si Si4 0.523384 0.889597 0.871414
Si Si5 0.619968 0.744888 0.960731
Si Si6 0.276604 0.887878 0.394016
Si Si7 0.151789 0.386026 0.489497
Si Si8 0.911077 0.611252 0.628628
O O1 0.962429 0.789913 0.744366
O O2 0.058132 0.667042 0.817096
O O3 0.155931 0.834360 0.816118
O O4 0.203112 0.723259 0.735993
O O5 0.672910 0.500000 0.865638
O O6 0.864508 0.380454 0.877655
O O7 0.635526 0.341251 0.919551
O O8 0.181244 0.838448 0.349084
O O9 0.139235 0.668953 0.321268
O O10 0.596688 0.836274 0.922346
O O11 0.555943 0.000000 0.868820
O O12 0.500000 0.734161 0.000000
O O13 0.750000 0.750000 0.000000
O O14 0.261202 0.856348 0.456888
O O15 0.431792 0.870005 0.380233
O O16 0.258203 0.000000 0.391605
O O17 0.153194 0.500000 0.490401
O O18 0.172542 0.360563 0.427173
O O19 0.000000 0.357876 0.500000
O O20 0.898319 0.500000 0.636117
#
# Coordination Sequence:
#
# PCOD9215250 Si02
#       8
#     8   8   8   8   8   8   8   8
#     4  11  24  40  57  84 117 150 192 252 290 323
#     4  10  22  41  64  88 118 161 201 232 281 338
#     4  12  22  36  57  84 113 145 191 243 295 343
#     4  10  22  41  66  88 114 163 206 228 275 345
#     4  11  22  39  63  98 133 153 183 240 283 322
#     4   9  18  33  54  80 110 145 186 234 289 350
#     4   7  12  27  50  76 106 139 181 231 280 344
#     4   9  18  33  55  80 107 146 190 230 285 358
#
# _framework density 18.176221999999999
#
# number of rings (size 3 to 8) (size 9 to 14) (size 15 to 20)
#    0.000    2.125    3.750    1.500    0.000    3.500 
#    0.000    1.250    0.000    0.000    0.000    2.625 
#    0.000    0.000    0.000    0.000    0.000    0.000 
#
# Total GULP energy -178452.532939 kJ/mol
# GULP energy per Si atom -5576.641654 kJ/mol
# Density = 1.813485 g / cm^3
# Si number density = 18.176222 Si / 1000 Ang^3
#
#
#
# Elastic Constant Matrix: (Units=GPa)
#
#
# Indices 1 2 3 4 5 6 
#
# 1 65.5153 22.5810 28.9116 0.0000 17.4631 0.0000
# 2 22.5810 89.0916 35.7215 0.0000 18.5278 0.0000
# 3 28.9116 35.7215 102.6295 0.0000 26.3465 0.0000
# 4 0.0000 0.0000 0.0000 14.3604 0.0000 -0.4366
# 5 17.4631 18.5278 26.3465 0.0000 36.3533 0.0000
# 6 0.0000 0.0000 0.0000 -0.4366 0.0000 13.7936
#
#
#
# Elastic Compliance Matrix: (Units=1/GPa)
#
#
# Indices 1 2 3 4 5 6 
#
# 1 0.018947 -0.002402 -0.003046 0.000000 -0.005670 0.000000
# 2 -0.002402 0.013873 -0.003235 0.000000 -0.003572 0.000000
# 3 -0.003046 -0.003235 0.013427 0.000000 -0.006619 0.000000
# 4 0.000000 0.000000 0.000000 0.069703 0.000000 0.002206
# 5 -0.005670 -0.003572 -0.006619 0.000000 0.036849 0.000000
# 6 0.000000 0.000000 0.000000 0.002206 0.000000 0.072567
#
#
# Mechanical properties :
#
#
# Convention : Reuss Voigt Hill
#
# Bulk Modulus (GPa) = 34.62424 47.96272 41.29348
# Shear Modulus (GPa) = 19.81297 24.23625 22.02461
#
# Velocity S-wave (km/s) = 3.30517 3.65554 3.48476
# Velocity P-wave (km/s) = 5.80139 6.65299 6.24173
#
# Compressibility (1/GPa) = 0.02888150
#
# Stress axis : x y z
#
# Youngs Moduli (GPa) = 52.77892 72.08151 74.47630
#
# Poissons Ratio (x) = 0.17313 0.22685
# Poissons Ratio (y) = 0.12677 0.24094
# Poissons Ratio (z) = 0.16076 0.23319
#
# Static dielectric constant tensor:
#      x y z
#    x 1.604830 0.000000 0.014160 
#    y 0.000000 1.610300 0.000000 
#    z 0.014160 0.000000 1.642630 
# 
# From -- ./inp_files/332917.got.cif
#   From: 2010.05.17/outbox.cif.g08.bks.cpg/sg12_167_cif.got.tgz:332917.got - 2010.06.03 13:09:07.
