data_PCOD9215654
_publ_section_title
;
Structure prediction by ZEFSAII (Michael W. Deem and Ramdas Pophale) SiO2 
 PCOD9215654
Probable space group: C 2/M
;
_chemical_formula_sum "Si O2"
_cell_formula_units_Z 56
_cell_length_a 11.494424
_cell_length_b 16.151743
_cell_length_c 15.541074
_cell_angle_alpha 90.000000
_cell_angle_beta 58.967147
_cell_angle_gamma 90.000000
_cell_volume 2472.313316
_symmetry_space_group_name_H-M "C 2/M"
_symmetry_group_IT_number 12
_symmetry_cell_setting 'monoclinic'
loop_
_space_group_symop_operation_xyz
x,y,z
-x,y,-z
-x,-y,-z
x,-y,z
1/2+x,1/2+y,z
1/2-x,1/2+y,-z
1/2-x,1/2-y,-z
1/2+x,1/2-y,z
loop_
_atom_site_type_symbol
_atom_site_label
_atom_site_fract_x
_atom_site_fract_y
_atom_site_fract_z
Si Si1 0.399427 0.360298 0.458753
Si Si2 0.859370 0.403308 0.789785
Si Si3 0.059854 0.144095 0.883312
Si Si4 0.381335 0.817262 0.388082
Si Si5 0.580135 0.593418 0.235923
Si Si6 0.179647 0.688726 0.778560
Si Si7 0.456352 0.093664 0.923660
O O1 0.500000 0.381749 0.500000
O O2 0.403384 0.260854 0.441335
O O3 0.239416 0.377344 0.533994
O O4 0.456599 0.401084 0.350443
O O5 0.895004 0.500000 0.781019
O O6 0.708056 0.395293 0.813284
O O7 0.973771 0.356944 0.690969
O O8 0.855290 0.369016 0.890860
O O9 0.092491 0.241161 0.858581
O O10 0.963290 0.113221 0.844269
O O11 0.000000 0.126188 0.000000
O O12 0.317201 0.785652 0.321703
O O13 0.636740 0.500000 0.218013
O O14 0.680637 0.665701 0.230239
O O15 0.095003 0.603515 0.816909
O O16 0.411026 0.000000 0.957461
O O17 0.500000 0.126614 0.000000
#
# Coordination Sequence:
#
# PCOD9215654 Si02
#       7
#     8   8   8   8   8   8   8
#     4  11  22  42  70 107 139 182 226 286 349 420
#     4  10  23  42  64  93 134 180 229 281 340 417
#     4  12  28  46  71  98 139 187 240 286 349 414
#     4  10  22  41  72 101 136 179 227 282 353 415
#     4  12  27  45  69 104 145 183 232 291 349 417
#     4  11  22  42  67  97 133 175 228 286 339 408
#     4   9  19  36  60  92 128 167 216 277 343 403
#
# _framework density 22.650849999999998
#
# number of rings (size 3 to 8) (size 9 to 14) (size 15 to 20)
#    0.000    1.286    2.857    2.143    4.000    3.143 
#    0.000    0.000    0.000    2.143    0.000    0.000 
#    0.000    0.000    0.000    0.000    0.000    0.000 
#
# Total GULP energy -156214.731543 kJ/mol
# GULP energy per Si atom -5579.097555 kJ/mol
# Density = 2.259930 g / cm^3
# Si number density = 22.650850 Si / 1000 Ang^3
#
#
#
# Elastic Constant Matrix: (Units=GPa)
#
#
# Indices 1 2 3 4 5 6 
#
# 1 74.2870 3.8971 17.4773 0.0000 1.1868 0.0000
# 2 3.8971 68.0918 7.6533 0.0000 -3.4100 0.0000
# 3 17.4773 7.6533 91.1578 0.0000 11.3835 0.0000
# 4 0.0000 0.0000 0.0000 6.4944 0.0000 -7.2646
# 5 1.1868 -3.4100 11.3835 0.0000 30.5818 0.0000
# 6 0.0000 0.0000 0.0000 -7.2646 0.0000 12.3166
#
#
#
# Elastic Compliance Matrix: (Units=1/GPa)
#
#
# Indices 1 2 3 4 5 6 
#
# 1 0.014119 -0.000482 -0.002718 0.000000 0.000410 0.000000
# 2 -0.000482 0.014987 -0.001444 0.000000 0.002227 0.000000
# 3 -0.002718 -0.001444 0.012186 0.000000 -0.004591 0.000000
# 4 0.000000 0.000000 0.000000 0.452581 0.000000 0.266943
# 5 0.000410 0.002227 -0.004591 0.000000 0.034641 0.000000
# 6 0.000000 0.000000 0.000000 0.266943 0.000000 0.238640
#
#
# Mechanical properties :
#
#
# Convention : Reuss Voigt Hill
#
# Bulk Modulus (GPa) = 31.24532 32.39912 31.82222
# Shear Modulus (GPa) = 6.35235 23.51248 14.93242
#
# Velocity S-wave (km/s) = 1.67647 3.22536 2.57036
# Velocity P-wave (km/s) = 4.19186 5.31087 4.78419
#
# Compressibility (1/GPa) = 0.03200479
#
# Stress axis : x y z
#
# Youngs Moduli (GPa) = 70.82427 66.72231 82.06364
#
# Poissons Ratio (x) = 0.03217 0.22303
# Poissons Ratio (y) = 0.03414 0.11850
# Poissons Ratio (z) = 0.19249 0.09635
#
# Static dielectric constant tensor:
#      x y z
#    x 1.917370 0.000000 0.004430 
#    y 0.000000 1.917320 0.000000 
#    z 0.004430 0.000000 1.906250 
# 
# From -- ./inp_files/206561.got.cif
#   From: 2010.05.17/outbox.cif.g08.bks.cpg/sg12_104_cif.got.tgz:206561.got - 2010.06.03 13:09:07.
