data_PCOD9215474
_publ_section_title
;
Structure prediction by ZEFSAII (Michael W. Deem and Ramdas Pophale) SiO2 
 PCOD9215474
Probable space group: C 2/M
;
_chemical_formula_sum "Si O2"
_cell_formula_units_Z 64
_cell_length_a 19.408506
_cell_length_b 8.717973
_cell_length_c 29.555612
_cell_angle_alpha 90.000000
_cell_angle_beta 145.660273
_cell_angle_gamma 90.000000
_cell_volume 2820.997384
_symmetry_space_group_name_H-M "C 2/M"
_symmetry_group_IT_number 12
_symmetry_cell_setting 'monoclinic'
loop_
_space_group_symop_operation_xyz
x,y,z
-x,y,-z
-x,-y,-z
x,-y,z
1/2+x,1/2+y,z
1/2-x,1/2+y,-z
1/2-x,1/2-y,-z
1/2+x,1/2-y,z
loop_
_atom_site_type_symbol
_atom_site_label
_atom_site_fract_x
_atom_site_fract_y
_atom_site_fract_z
Si Si1 0.285906 0.175528 0.950094
Si Si2 0.212523 0.816594 0.380010
Si Si3 0.436288 0.174945 0.124886
Si Si4 0.139045 0.822129 0.622265
Si Si5 0.800808 0.819615 0.868203
Si Si6 0.032890 0.817102 0.707814
Si Si7 0.335295 0.678162 0.786731
Si Si8 0.070860 0.680457 0.440094
O O1 0.166679 0.277576 0.895416
O O2 0.346884 0.230431 0.936991
O O3 0.246103 0.000000 0.923863
O O4 0.370250 0.185376 0.040027
O O5 0.280278 0.731327 0.376271
O O6 0.072521 0.773599 0.313283
O O7 0.293026 0.786081 0.468653
O O8 0.218085 0.000000 0.374702
O O9 0.550115 0.287930 0.183049
O O10 0.477139 0.000000 0.154025
O O11 0.226476 0.787494 0.712349
O O12 0.018598 0.723636 0.566740
O O13 0.107299 0.000000 0.601647
O O14 0.659772 0.769698 0.784135
O O15 0.865612 0.789435 0.855454
O O16 0.808514 0.000000 0.881394
O O17 0.975452 0.774925 0.627981
O O18 0.053037 0.000000 0.721281
O O19 0.297398 0.500000 0.762716
O O20 0.060322 0.500000 0.424243
#
# Coordination Sequence:
#
# PCOD9215474 Si02
#       8
#     8   8   8   8   8   8   8   8
#     4  10  22  41  66  95 129 166 202 251 305 359
#     4  10  24  42  62  89 122 162 205 253 312 374
#     4  10  22  41  66  96 128 163 206 251 302 361
#     4  12  25  40  62  91 123 160 207 260 308 364
#     4  11  24  41  63  90 124 166 208 254 306 366
#     4  11  23  40  63  91 123 160 205 257 310 367
#     4  11  24  42  64  89 124 166 206 253 309 366
#     4  11  22  41  65  88 122 163 203 252 312 373
#
# _framework density 22.687011999999999
#
# number of rings (size 3 to 8) (size 9 to 14) (size 15 to 20)
#    0.000    1.250    1.250    4.125    1.750    7.000 
#    0.000    2.500    0.000    0.000    0.000    0.000 
#    0.000    0.000    0.000    0.000    0.000    0.000 
#
# Total GULP energy -179127.514921 kJ/mol
# GULP energy per Si atom -5597.734841 kJ/mol
# Density = 2.263537 g / cm^3
# Si number density = 22.687012 Si / 1000 Ang^3
#
#
#
# Elastic Constant Matrix: (Units=GPa)
#
#
# Indices 1 2 3 4 5 6 
#
# 1 75.1616 -0.7534 -1.2392 0.0000 -3.5804 -0.0001
# 2 -0.7534 28.6062 7.2482 0.0001 -6.5003 -0.0002
# 3 -1.2392 7.2482 27.1103 0.0000 -5.8948 0.0000
# 4 0.0000 0.0001 0.0000 24.8738 0.0000 -5.8469
# 5 -3.5804 -6.5003 -5.8948 0.0000 38.1252 0.0000
# 6 -0.0001 -0.0002 0.0000 -5.8469 0.0000 33.1139
#
#
#
# Elastic Compliance Matrix: (Units=1/GPa)
#
#
# Indices 1 2 3 4 5 6 
#
# 1 0.013392 0.000482 0.000802 0.000000 0.001464 0.000000
# 2 0.000482 0.038464 -0.009133 0.000000 0.005191 0.000000
# 3 0.000802 -0.009133 0.040401 0.000000 0.004765 0.000000
# 4 0.000000 0.000000 0.000000 0.041944 0.000000 0.007406
# 5 0.001464 0.005191 0.004765 0.000000 0.027989 0.000000
# 6 0.000000 0.000000 0.000000 0.007406 0.000000 0.031506
#
#
# Mechanical properties :
#
#
# Convention : Reuss Voigt Hill
#
# Bulk Modulus (GPa) = 13.06181 15.70991 14.38586
# Shear Modulus (GPa) = 21.28440 27.59742 24.44091
#
# Velocity S-wave (km/s) = 3.06629 3.49154 3.28580
# Velocity P-wave (km/s) = 4.27856 4.81602 4.55522
#
# Compressibility (1/GPa) = 0.07655906
#
# Stress axis : x y z
#
# Youngs Moduli (GPa) = 74.66893 25.99841 24.75198
#
# Poissons Ratio (x) = -0.01254 -0.01984
# Poissons Ratio (y) = -0.03601 0.22606
# Poissons Ratio (z) = -0.05985 0.23744
#
# Static dielectric constant tensor:
#      x y z
#    x 1.842650 0.000000 -0.025490 
#    y 0.000000 1.754990 0.000000 
#    z -0.025490 0.000000 1.869570 
# 
# From -- ./inp_files/378457.got.cif
#   From: 2010.05.17/outbox.cif.g08.bks.cpg/sg12_190_cif.got.tgz:378457.got - 2010.06.03 13:09:07.
