data_PCOD9215961
_publ_section_title
;
Structure prediction by ZEFSAII (Michael W. Deem and Ramdas Pophale) SiO2 
 PCOD9215961
Probable space group: C 2/M
;
_chemical_formula_sum "Si O2"
_cell_formula_units_Z 48
_cell_length_a 28.793460
_cell_length_b 13.711937
_cell_length_c 5.753761
_cell_angle_alpha 90.000000
_cell_angle_beta 114.852818
_cell_angle_gamma 90.000000
_cell_volume 2061.287993
_symmetry_space_group_name_H-M "C 2/M"
_symmetry_group_IT_number 12
_symmetry_cell_setting 'monoclinic'
loop_
_space_group_symop_operation_xyz
x,y,z
-x,y,-z
-x,-y,-z
x,-y,z
1/2+x,1/2+y,z
1/2-x,1/2+y,-z
1/2-x,1/2-y,-z
1/2+x,1/2-y,z
loop_
_atom_site_type_symbol
_atom_site_label
_atom_site_fract_x
_atom_site_fract_y
_atom_site_fract_z
Si Si1 0.484135 0.889589 0.716529
Si Si2 0.274747 0.612864 0.361524
Si Si3 0.634019 0.307369 0.687332
Si Si4 0.637197 0.106899 0.486235
Si Si5 0.177648 0.732529 0.179944
Si Si6 0.471826 0.384862 0.692871
O O1 0.500000 0.845614 0.500000
O O2 0.423177 0.897044 0.594825
O O3 0.506975 0.000000 0.763575
O O4 0.500000 0.846472 0.000000
O O5 0.263225 0.500000 0.394483
O O6 0.321607 0.617227 0.279193
O O7 0.225893 0.674178 0.173016
O O8 0.296093 0.680003 0.616951
O O9 0.655508 0.200428 0.665700
O O10 0.581868 0.328621 0.446926
O O11 0.632115 0.291294 0.956152
O O12 0.649926 0.143942 0.256455
O O13 0.658980 0.000000 0.581498
O O14 0.500000 0.370316 0.500000
O O15 0.460106 0.500000 0.676689
O O16 0.500000 0.364045 0.000000
#
# Coordination Sequence:
#
# PCOD9215961 Si02
#       6
#     8   8   8   8   8   8
#     4   9  19  35  56  84 119 165 224 278 331 400
#     4  10  22  42  68  98 139 180 230 292 361 436
#     4  11  24  41  67 100 137 182 234 298 356 428
#     4  10  23  39  60  90 130 179 229 286 350 421
#     4  10  23  42  65 101 136 181 231 292 356 434
#     4  10  24  45  73 108 144 186 238 297 363 431
#
# _framework density 23.286413
#
# number of rings (size 3 to 8) (size 9 to 14) (size 15 to 20)
#    0.000    2.000    0.000    1.500    7.000    4.000 
#    0.000    0.000    0.000    0.000    0.000    0.000 
#    0.000    0.000    0.000    0.000    0.000    0.000 
#
# Total GULP energy -133608.810574 kJ/mol
# GULP energy per Si atom -5567.033774 kJ/mol
# Density = 2.323341 g / cm^3
# Si number density = 23.286413 Si / 1000 Ang^3
#
#
#
# Elastic Constant Matrix: (Units=GPa)
#
#
# Indices 1 2 3 4 5 6 
#
# 1 97.8315 19.7202 46.1762 0.0000 1.8458 0.0000
# 2 19.7202 182.0541 39.2417 0.0000 2.9676 0.0000
# 3 46.1762 39.2417 144.4296 0.0000 5.8152 0.0000
# 4 0.0000 0.0000 0.0000 14.4853 0.0000 4.0793
# 5 1.8458 2.9676 5.8152 0.0000 13.0158 0.0000
# 6 0.0000 0.0000 0.0000 4.0793 0.0000 25.6300
#
#
#
# Elastic Compliance Matrix: (Units=1/GPa)
#
#
# Indices 1 2 3 4 5 6 
#
# 1 0.012082 -0.000506 -0.003728 0.000000 0.000068 0.000000
# 2 -0.000506 0.005861 -0.001405 0.000000 -0.000637 0.000000
# 3 -0.003728 -0.001405 0.008618 0.000000 -0.003001 0.000000
# 4 0.000000 0.000000 0.000000 0.072275 0.000000 -0.011503
# 5 0.000068 -0.000637 -0.003001 0.000000 0.078307 0.000000
# 6 0.000000 0.000000 0.000000 -0.011503 0.000000 0.040848
#
#
# Mechanical properties :
#
#
# Convention : Reuss Voigt Hill
#
# Bulk Modulus (GPa) = 65.43270 70.51015 67.97143
# Shear Modulus (GPa) = 21.33443 31.90469 26.61956
#
# Velocity S-wave (km/s) = 3.03012 3.70550 3.38470
# Velocity P-wave (km/s) = 6.35628 6.97516 6.67290
#
# Compressibility (1/GPa) = 0.01528288
#
# Stress axis : x y z
#
# Youngs Moduli (GPa) = 82.76762 170.62161 116.03306
#
# Poissons Ratio (x) = 0.08638 0.43257
# Poissons Ratio (y) = 0.04190 0.16302
# Poissons Ratio (z) = 0.30855 0.23971
#
# Static dielectric constant tensor:
#      x y z
#    x 1.916690 0.000000 -0.163370 
#    y 0.000000 1.893460 0.000000 
#    z -0.163370 0.000000 2.187730 
# 
# From -- ./inp_files/31598.got.cif
#   From: 2010.05.17/outbox.cif.g08.bks.cpg/sg12_16_cif.got.tgz:31598.got - 2010.06.03 13:09:07.
