data_PCOD9215301
_publ_section_title
;
Structure prediction by ZEFSAII (Michael W. Deem and Ramdas Pophale) SiO2 
 PCOD9215301
Probable space group: C 2/M
;
_chemical_formula_sum "Si O2"
_cell_formula_units_Z 42
_cell_length_a 19.295235
_cell_length_b 7.318583
_cell_length_c 12.366092
_cell_angle_alpha 90.000000
_cell_angle_beta 115.493616
_cell_angle_gamma 90.000000
_cell_volume 1576.234664
_symmetry_space_group_name_H-M "C 2/M"
_symmetry_group_IT_number 12
_symmetry_cell_setting 'monoclinic'
loop_
_space_group_symop_operation_xyz
x,y,z
-x,y,-z
-x,-y,-z
x,-y,z
1/2+x,1/2+y,z
1/2-x,1/2+y,-z
1/2-x,1/2-y,-z
1/2+x,1/2-y,z
loop_
_atom_site_type_symbol
_atom_site_label
_atom_site_fract_x
_atom_site_fract_y
_atom_site_fract_z
Si Si1 0.706302 0.217599 0.807723
Si Si2 0.138511 0.217510 0.544203
Si Si3 0.000000 0.500000 0.500000
Si Si4 0.951320 0.292864 0.200550
Si Si5 0.378262 0.295928 0.695634
Si Si6 0.873222 0.777465 0.934517
O O1 0.703861 0.257085 0.678359
O O2 0.626370 0.289481 0.801943
O O3 0.787000 0.279322 0.910500
O O4 0.703941 0.000000 0.822068
O O5 0.159428 0.282625 0.437135
O O6 0.067326 0.339811 0.535015
O O7 0.121524 0.000000 0.527630
O O8 0.961703 0.500000 0.251488
O O9 0.031233 0.197749 0.275232
O O10 0.933690 0.294158 0.061122
O O11 0.347652 0.500000 0.690426
O O12 0.380382 0.212133 0.816141
O O13 0.880270 0.000000 0.940999
#
# Coordination Sequence:
#
# PCOD9215301 Si02
#       6
#     8   8   2   8   8   8
#     4  10  22  41  64  92 129 172 212 267 326 383
#     4  11  24  40  65  99 131 169 214 264 321 385
#     4  12  22  40  64  94 134 168 208 262 316 374
#     4  11  23  37  60  93 124 163 217 272 321 377
#     4  10  23  41  62  92 126 166 215 268 320 386
#     4  10  22  42  64  87 126 173 216 260 323 387
#
# _framework density 26.645779000000001
#
# number of rings (size 3 to 8) (size 9 to 14) (size 15 to 20)
#    0.000    1.524    0.952    3.143    4.000    7.619 
#    0.000    0.000    0.000    0.000    0.000    0.000 
#    0.000    0.000    0.000    0.000    0.000    0.000 
#
# Total GULP energy -117339.331721 kJ/mol
# GULP energy per Si atom -5587.587225 kJ/mol
# Density = 2.658513 g / cm^3
# Si number density = 26.645779 Si / 1000 Ang^3
#
#
#
# Elastic Constant Matrix: (Units=GPa)
#
#
# Indices 1 2 3 4 5 6 
#
# 1 79.6163 7.0477 15.6718 0.0000 12.8548 0.0000
# 2 7.0477 148.8483 -16.4766 0.0000 -1.5666 0.0000
# 3 15.6718 -16.4766 115.0752 0.0000 -3.7485 0.0000
# 4 0.0000 0.0000 0.0000 29.1147 0.0000 -2.0133
# 5 12.8548 -1.5666 -3.7485 0.0000 43.4947 0.0000
# 6 0.0000 0.0000 0.0000 -2.0133 0.0000 7.7188
#
#
#
# Elastic Compliance Matrix: (Units=1/GPa)
#
#
# Indices 1 2 3 4 5 6 
#
# 1 0.013757 -0.000934 -0.002147 0.000000 -0.004285 0.000000
# 2 -0.000934 0.006895 0.001135 0.000000 0.000622 0.000000
# 3 -0.002147 0.001135 0.009193 0.000000 0.001468 0.000000
# 4 0.000000 0.000000 0.000000 0.034978 0.000000 0.009123
# 5 -0.004285 0.000622 0.001468 0.000000 0.024406 0.000000
# 6 0.000000 0.000000 0.000000 0.009123 0.000000 0.131934
#
#
# Mechanical properties :
#
#
# Convention : Reuss Voigt Hill
#
# Bulk Modulus (GPa) = 38.53289 39.55841 39.04565
# Shear Modulus (GPa) = 21.39439 38.55210 29.97325
#
# Velocity S-wave (km/s) = 2.83666 3.80786 3.35756
# Velocity P-wave (km/s) = 5.02209 5.84904 5.45127
#
# Compressibility (1/GPa) = 0.02595185
#
# Stress axis : x y z
#
# Youngs Moduli (GPa) = 72.68849 145.04042 108.78292
#
# Poissons Ratio (x) = 0.13549 0.23355
# Poissons Ratio (y) = 0.06790 -0.12343
# Poissons Ratio (z) = 0.15605 -0.16457
#
# Static dielectric constant tensor:
#      x y z
#    x 2.087890 0.000000 -0.126110 
#    y 0.000000 2.007410 0.000000 
#    z -0.126110 0.000000 2.141060 
# 
# From -- ./inp_files/162994.got.cif
#   From: 2010.05.17/outbox.cif.g08.bks.cpg/sg12_82_cif.got.tgz:162994.got - 2010.06.03 13:09:07.
