data_PCOD9215261
_publ_section_title
;
Structure prediction by ZEFSAII (Michael W. Deem and Ramdas Pophale) SiO2 
 PCOD9215261
Probable space group: C 2/M
;
_chemical_formula_sum "Si O2"
_cell_formula_units_Z 56
_cell_length_a 14.620893
_cell_length_b 17.653141
_cell_length_c 22.271810
_cell_angle_alpha 90.000000
_cell_angle_beta 28.909608
_cell_angle_gamma 90.000000
_cell_volume 2778.972612
_symmetry_space_group_name_H-M "C 2/M"
_symmetry_group_IT_number 12
_symmetry_cell_setting 'monoclinic'
loop_
_space_group_symop_operation_xyz
x,y,z
-x,y,-z
-x,-y,-z
x,-y,z
1/2+x,1/2+y,z
1/2-x,1/2+y,-z
1/2-x,1/2-y,-z
1/2+x,1/2-y,z
loop_
_atom_site_type_symbol
_atom_site_label
_atom_site_fract_x
_atom_site_fract_y
_atom_site_fract_z
Si Si1 0.619231 0.138676 0.797312
Si Si2 0.080947 0.192253 0.597423
Si Si3 0.644823 0.586778 0.222918
Si Si4 0.768140 0.916507 0.957038
Si Si5 0.696744 0.907385 0.622503
Si Si6 0.463318 0.301355 0.929253
Si Si7 0.817216 0.319400 0.799990
O O1 0.746359 0.111377 0.779748
O O2 0.436592 0.085577 0.895969
O O3 0.719196 0.128308 0.676118
O O4 0.534746 0.221064 0.862563
O O5 0.250000 0.250000 0.500000
O O6 0.139133 0.133096 0.511540
O O7 0.044250 0.136283 0.674034
O O8 0.907975 0.251072 0.708483
O O9 0.596179 0.500000 0.256228
O O10 0.765449 0.598093 0.094063
O O11 0.853772 0.000000 0.913920
O O12 0.892089 0.852976 0.916339
O O13 0.489766 0.876722 0.716929
O O14 0.706639 0.000000 0.616321
O O15 0.637462 0.343248 0.862915
O O16 0.289730 0.292951 0.077012
#
# Coordination Sequence:
#
# PCOD9215261 Si02
#       7
#     8   8   8   8   8   8   8
#     4  12  23  37  63  93 131 164 208 254 315 380
#     4  10  22  41  64  89 124 164 215 257 309 372
#     4  11  23  40  62  88 127 166 209 260 312 376
#     4  11  24  39  61  93 129 168 207 256 318 376
#     4  11  24  41  65  94 129 167 209 261 317 372
#     4  11  23  38  68  94 127 166 208 263 318 375
#     4  10  22  42  64  95 123 167 212 260 313 376
#
# _framework density 20.151332
#
# number of rings (size 3 to 8) (size 9 to 14) (size 15 to 20)
#    0.000    1.143    2.857    3.429    6.000    2.286 
#    0.000    2.857    0.000    0.000    0.000    5.000 
#    0.000    0.000    0.000    0.000    0.000    0.000 
#
# Total GULP energy -155913.371133 kJ/mol
# GULP energy per Si atom -5568.334683 kJ/mol
# Density = 2.010547 g / cm^3
# Si number density = 20.151332 Si / 1000 Ang^3
#
#
#
# Elastic Constant Matrix: (Units=GPa)
#
#
# Indices 1 2 3 4 5 6 
#
# 1 74.4253 35.3407 20.1353 -0.0033 -7.3527 0.0023
# 2 35.3407 117.0825 36.3183 -0.0049 -5.8865 0.0026
# 3 20.1353 36.3183 106.7023 -0.0176 6.5143 0.0101
# 4 -0.0033 -0.0049 -0.0176 33.1848 0.0029 4.7009
# 5 -7.3527 -5.8865 6.5143 0.0029 26.2821 -0.0016
# 6 0.0023 0.0026 0.0101 4.7009 -0.0016 15.6352
#
#
#
# Elastic Compliance Matrix: (Units=1/GPa)
#
#
# Indices 1 2 3 4 5 6 
#
# 1 0.016322 -0.004121 -0.001929 0.000000 0.004121 0.000000
# 2 -0.004121 0.010827 -0.003031 -0.000001 0.002023 0.000001
# 3 -0.001929 -0.003031 0.011009 0.000007 -0.003947 -0.000009
# 4 0.000000 -0.000001 0.000007 0.031475 -0.000006 -0.009463
# 5 0.004121 0.002023 -0.003947 -0.000006 0.040633 0.000008
# 6 0.000000 0.000001 -0.000009 -0.009463 0.000008 0.066804
#
#
# Mechanical properties :
#
#
# Convention : Reuss Voigt Hill
#
# Bulk Modulus (GPa) = 50.01171 53.53319 51.77245
# Shear Modulus (GPa) = 24.76512 28.78146 26.77329
#
# Velocity S-wave (km/s) = 3.50945 3.78334 3.64897
# Velocity P-wave (km/s) = 6.42601 6.76078 6.59552
#
# Compressibility (1/GPa) = 0.01999532
#
# Stress axis : x y z
#
# Youngs Moduli (GPa) = 61.26592 92.36290 90.83888
#
# Poissons Ratio (x) = 0.38065 0.17523
# Poissons Ratio (y) = 0.25249 0.27533
# Poissons Ratio (z) = 0.11818 0.27995
#
# Static dielectric constant tensor:
#      x y z
#    x 1.777850 0.000010 -0.000290 
#    y 0.000010 1.756510 0.000010 
#    z -0.000290 0.000010 1.775680 
# 
# From -- ./inp_files/177062.got.cif
#   From: 2010.05.17/outbox.cif.g08.bks.cpg/sg12_89_cif.got.tgz:177062.got - 2010.06.03 13:09:07.
