data_PCOD9215349
_publ_section_title
;
Structure prediction by ZEFSAII (Michael W. Deem and Ramdas Pophale) SiO2 
 PCOD9215349
Probable space group: C 2/M
;
_chemical_formula_sum "Si O2"
_cell_formula_units_Z 48
_cell_length_a 24.634253
_cell_length_b 11.165802
_cell_length_c 15.709821
_cell_angle_alpha 90.000000
_cell_angle_beta 143.803115
_cell_angle_gamma 90.000000
_cell_volume 2551.913234
_symmetry_space_group_name_H-M "C 2/M"
_symmetry_group_IT_number 12
_symmetry_cell_setting 'monoclinic'
loop_
_space_group_symop_operation_xyz
x,y,z
-x,y,-z
-x,-y,-z
x,-y,z
1/2+x,1/2+y,z
1/2-x,1/2+y,-z
1/2-x,1/2-y,-z
1/2+x,1/2-y,z
loop_
_atom_site_type_symbol
_atom_site_label
_atom_site_fract_x
_atom_site_fract_y
_atom_site_fract_z
Si Si1 0.733539 0.859587 0.852729
Si Si2 0.712953 0.249541 0.645236
Si Si3 0.906786 0.000000 0.272889
Si Si4 0.116289 0.249381 0.850252
Si Si5 0.625192 0.500000 0.575873
Si Si6 0.098792 0.358096 0.166823
Si Si7 0.923696 0.359626 0.660081
O O1 0.697227 0.817139 0.715119
O O2 0.660823 0.838439 0.837192
O O3 0.758680 0.000000 0.880690
O O4 0.817645 0.771743 0.985321
O O5 0.666530 0.380011 0.589939
O O6 0.820465 0.274790 0.766653
O O7 0.663179 0.179424 0.506265
O O8 0.882996 0.880207 0.193153
O O9 0.857012 0.000000 0.300594
O O10 0.016003 0.000000 0.425418
O O11 0.014619 0.288699 0.746421
O O12 0.118765 0.500000 0.175559
O O13 0.093537 0.340980 0.261701
O O14 0.000000 0.332389 0.000000
O O15 0.941573 0.500000 0.669578
#
# Coordination Sequence:
#
# PCOD9215349 Si02
#       7
#     8   8   4   8   4   8   8
#     4  11  24  38  60  91 126 164 199 247 305 362
#     4  12  22  40  63  90 123 160 201 254 302 360
#     4  11  20  40  60  90 124 158 209 251 292 357
#     4  11  22  40  62  87 125 163 204 247 299 360
#     4  11  22  36  63  92 118 161 209 249 303 347
#     4  10  22  41  65  90 118 156 204 253 301 358
#     4  11  24  41  62  91 122 159 201 252 306 360
#
# _framework density 18.809417
#
# number of rings (size 3 to 8) (size 9 to 14) (size 15 to 20)
#    0.000    1.000    5.000    2.500    0.000    0.667 
#    1.500    1.667    1.833    3.000    0.000    0.000 
#    0.000    0.000    0.000    0.000    0.000    0.000 
#
# Total GULP energy -134090.056642 kJ/mol
# GULP energy per Si atom -5587.085693 kJ/mol
# Density = 1.876661 g / cm^3
# Si number density = 18.809417 Si / 1000 Ang^3
#
#
#
# Elastic Constant Matrix: (Units=GPa)
#
#
# Indices 1 2 3 4 5 6 
#
# 1 38.1578 14.2120 20.0673 0.0000 -5.0209 0.0000
# 2 14.2120 61.8372 7.7928 0.0000 -11.9041 0.0000
# 3 20.0673 7.7928 86.0579 0.0000 -15.7177 0.0000
# 4 0.0000 0.0000 0.0000 7.9556 0.0000 -6.7045
# 5 -5.0209 -11.9041 -15.7177 0.0000 38.8338 0.0000
# 6 0.0000 0.0000 0.0000 -6.7045 0.0000 15.8391
#
#
#
# Elastic Compliance Matrix: (Units=1/GPa)
#
#
# Indices 1 2 3 4 5 6 
#
# 1 0.032312 -0.006676 -0.007063 0.000000 -0.000728 0.000000
# 2 -0.006676 0.018598 0.000817 0.000000 0.005168 0.000000
# 3 -0.007063 0.000817 0.014115 0.000000 0.005050 0.000000
# 4 0.000000 0.000000 0.000000 0.195403 0.000000 0.082712
# 5 -0.000728 0.005168 0.005050 0.000000 0.029285 0.000000
# 6 0.000000 0.000000 0.000000 0.082712 0.000000 0.098146
#
#
# Mechanical properties :
#
#
# Convention : Reuss Voigt Hill
#
# Bulk Modulus (GPa) = 25.52293 30.02189 27.77241
# Shear Modulus (GPa) = 11.71603 22.12440 16.92021
#
# Velocity S-wave (km/s) = 2.49847 3.43336 3.00252
# Velocity P-wave (km/s) = 4.68207 5.63143 5.17855
#
# Compressibility (1/GPa) = 0.03918046
#
# Stress axis : x y z
#
# Youngs Moduli (GPa) = 30.94793 53.76935 70.84413
#
# Poissons Ratio (x) = 0.35898 0.50037
# Poissons Ratio (y) = 0.20662 -0.05786
# Poissons Ratio (z) = 0.21859 -0.04391
#
# Static dielectric constant tensor:
#      x y z
#    x 1.630300 0.000000 -0.004280 
#    y 0.000000 1.618050 0.000000 
#    z -0.004280 0.000000 1.663320 
# 
# From -- ./inp_files/232877.got.cif
#   From: 2010.05.17/outbox.cif.g08.bks.cpg/sg12_117_cif.got.tgz:232877.got - 2010.06.03 13:09:07.
