data_PCOD9215728
_publ_section_title
;
Structure prediction by ZEFSAII (Michael W. Deem and Ramdas Pophale) SiO2 
 PCOD9215728
Probable space group: C 2/M
;
_chemical_formula_sum "Si O2"
_cell_formula_units_Z 56
_cell_length_a 8.956353
_cell_length_b 16.785709
_cell_length_c 17.115006
_cell_angle_alpha 90.000000
_cell_angle_beta 119.417362
_cell_angle_gamma 90.000000
_cell_volume 2241.292405
_symmetry_space_group_name_H-M "C 2/M"
_symmetry_group_IT_number 12
_symmetry_cell_setting 'monoclinic'
loop_
_space_group_symop_operation_xyz
x,y,z
-x,y,-z
-x,-y,-z
x,-y,z
1/2+x,1/2+y,z
1/2-x,1/2+y,-z
1/2-x,1/2-y,-z
1/2+x,1/2-y,z
loop_
_atom_site_type_symbol
_atom_site_label
_atom_site_fract_x
_atom_site_fract_y
_atom_site_fract_z
Si Si1 0.679424 0.162147 0.503786
Si Si2 0.311246 0.116310 0.842810
Si Si3 0.662032 0.410187 0.958260
Si Si4 0.488198 0.351477 0.687254
Si Si5 0.641150 0.912050 0.829310
Si Si6 0.126795 0.795455 0.184907
Si Si7 0.330399 0.590822 0.402434
O O1 0.500000 0.167505 0.500000
O O2 0.750000 0.250000 0.500000
O O3 0.816579 0.122876 0.599011
O O4 0.679711 0.114724 0.422266
O O5 0.313617 0.091642 0.933135
O O6 0.450639 0.088544 0.816172
O O7 0.334727 0.211452 0.844036
O O8 0.115975 0.092645 0.769445
O O9 0.588383 0.500000 0.939122
O O10 0.526790 0.342672 0.898483
O O11 0.743419 0.395948 0.063748
O O12 0.428068 0.290072 0.738263
O O13 0.621491 0.341448 0.648993
O O14 0.703378 0.848687 0.782281
O O15 0.675844 0.000000 0.807713
O O16 0.500000 0.589628 0.500000
O O17 0.309784 0.500000 0.367737
#
# Coordination Sequence:
#
# PCOD9215728 Si02
#       7
#     8   8   8   8   8   8   8
#     4  11  24  42  70 102 127 172 219 272 328 406
#     4  11  24  40  62  93 130 175 219 281 339 408
#     4  10  22  42  64  89 130 179 226 279 340 406
#     4  10  24  42  62  91 135 171 211 272 342 397
#     4  11  23  40  64  95 129 173 233 281 331 408
#     4  11  24  39  62  96 132 177 217 286 341 398
#     4   9  20  41  66  95 128 171 218 264 323 400
#
# _framework density 24.985582999999998
#
# number of rings (size 3 to 8) (size 9 to 14) (size 15 to 20)
#    0.000    1.571    0.000    4.714    4.000   10.571 
#    0.000    0.000    0.000    0.000    0.000    0.000 
#    0.000    0.000    0.000    0.000    0.000    0.000 
#
# Total GULP energy -156312.502910 kJ/mol
# GULP energy per Si atom -5582.589390 kJ/mol
# Density = 2.492871 g / cm^3
# Si number density = 24.985583 Si / 1000 Ang^3
#
#
#
# Elastic Constant Matrix: (Units=GPa)
#
#
# Indices 1 2 3 4 5 6 
#
# 1 185.5327 49.4983 32.9179 0.0000 -17.3880 0.0000
# 2 49.4983 124.3225 22.2434 0.0000 -14.5060 0.0000
# 3 32.9179 22.2434 58.4931 0.0000 -2.5164 0.0000
# 4 0.0000 0.0000 0.0000 22.9189 0.0000 -7.9793
# 5 -17.3880 -14.5060 -2.5164 0.0000 48.4469 0.0000
# 6 0.0000 0.0000 0.0000 -7.9793 0.0000 21.2793
#
#
#
# Elastic Compliance Matrix: (Units=1/GPa)
#
#
# Indices 1 2 3 4 5 6 
#
# 1 0.006566 -0.001904 -0.002900 0.000000 0.001636 0.000000
# 2 -0.001904 0.009476 -0.002444 0.000000 0.002027 0.000000
# 3 -0.002900 -0.002444 0.019625 0.000000 -0.000754 0.000000
# 4 0.000000 0.000000 0.000000 0.050184 0.000000 0.018818
# 5 0.001636 0.002027 -0.000754 0.000000 0.021796 0.000000
# 6 0.000000 0.000000 0.000000 0.018818 0.000000 0.054050
#
#
# Mechanical properties :
#
#
# Convention : Reuss Voigt Hill
#
# Bulk Modulus (GPa) = 47.24028 64.18527 55.71278
# Shear Modulus (GPa) = 27.28493 36.10827 31.69660
#
# Velocity S-wave (km/s) = 3.30817 3.80566 3.56560
# Velocity P-wave (km/s) = 5.79138 6.71233 6.26879
#
# Compressibility (1/GPa) = 0.02116838
#
# Stress axis : x y z
#
# Youngs Moduli (GPa) = 152.30294 105.53378 50.95422
#
# Poissons Ratio (x) = 0.20097 0.14779
# Poissons Ratio (y) = 0.29004 0.12455
# Poissons Ratio (z) = 0.44175 0.25797
#
# Static dielectric constant tensor:
#      x y z
#    x 2.010810 0.000000 0.022670 
#    y 0.000000 1.974690 0.000000 
#    z 0.022670 0.000000 2.076030 
# 
# From -- ./inp_files/257139.got.cif
#   From: 2010.05.17/outbox.cif.g08.bks.cpg/sg12_129_cif.got.tgz:257139.got - 2010.06.03 13:09:07.
