data_PCOD9215114
_publ_section_title
;
Structure prediction by ZEFSAII (Michael W. Deem and Ramdas Pophale) SiO2 
 PCOD9215114
Probable space group: C 2/M
;
_chemical_formula_sum "Si O2"
_cell_formula_units_Z 56
_cell_length_a 13.180565
_cell_length_b 20.480006
_cell_length_c 13.353221
_cell_angle_alpha 90.000000
_cell_angle_beta 54.311285
_cell_angle_gamma 90.000000
_cell_volume 2927.603768
_symmetry_space_group_name_H-M "C 2/M"
_symmetry_group_IT_number 12
_symmetry_cell_setting 'monoclinic'
loop_
_space_group_symop_operation_xyz
x,y,z
-x,y,-z
-x,-y,-z
x,-y,z
1/2+x,1/2+y,z
1/2-x,1/2+y,-z
1/2-x,1/2-y,-z
1/2+x,1/2-y,z
loop_
_atom_site_type_symbol
_atom_site_label
_atom_site_fract_x
_atom_site_fract_y
_atom_site_fract_z
Si Si1 0.324628 0.425267 0.838909
Si Si2 0.378432 0.337896 0.999083
Si Si3 0.201821 0.292314 0.259051
Si Si4 0.069499 0.924110 0.560908
Si Si5 0.511793 0.240004 0.213216
Si Si6 0.784544 0.814961 0.418325
Si Si7 0.880517 0.664660 0.142526
O O1 0.288791 0.500000 0.875399
O O2 0.349017 0.389026 0.929169
O O3 0.456842 0.423529 0.705399
O O4 0.216426 0.390439 0.835579
O O5 0.398247 0.269778 0.925074
O O6 0.500000 0.347046 0.000000
O O7 0.263541 0.339510 0.141843
O O8 0.073802 0.269864 0.284156
O O9 0.192896 0.320154 0.375850
O O10 0.294859 0.229897 0.195177
O O11 0.180653 0.876522 0.532859
O O12 0.000000 0.900841 0.500000
O O13 0.109508 0.000000 0.523469
O O14 0.412140 0.297047 0.286752
O O15 0.447127 0.173552 0.212112
O O16 0.750000 0.750000 0.500000
O O17 0.000000 0.664517 0.000000
#
# Coordination Sequence:
#
# PCOD9215114 Si02
#       7
#     8   8   8   8   8   8   8
#     4  11  24  38  56  83 120 159 192 235 280 347
#     4  12  18  34  59  86 112 144 193 228 296 342
#     4  11  20  35  56  86 115 151 185 238 305 345
#     4  10  22  41  62  83 115 161 199 236 292 353
#     4  11  20  33  55  88 112 146 184 238 297 345
#     4  11  24  35  57  88 118 147 192 258 291 334
#     4  11  19  33  55  82 114 152 186 234 281 347
#
# _framework density 19.128273
#
# number of rings (size 3 to 8) (size 9 to 14) (size 15 to 20)
#    0.000    1.000    7.143    1.286    6.000    0.571 
#    0.000    0.714    0.000    0.857    0.000    1.000 
#    0.000    0.000    0.000    0.000    0.000    0.000 
#
# Total GULP energy -155975.955887 kJ/mol
# GULP energy per Si atom -5570.569853 kJ/mol
# Density = 1.908474 g / cm^3
# Si number density = 19.128273 Si / 1000 Ang^3
#
#
#
# Elastic Constant Matrix: (Units=GPa)
#
#
# Indices 1 2 3 4 5 6 
#
# 1 98.2834 46.0241 6.4620 0.0000 32.4288 0.0000
# 2 46.0241 98.7177 19.7979 0.0000 21.2524 0.0000
# 3 6.4620 19.7979 47.5223 0.0000 28.1084 0.0000
# 4 0.0000 0.0000 0.0000 14.0607 0.0000 -3.7293
# 5 32.4288 21.2524 28.1084 0.0000 36.8490 0.0000
# 6 0.0000 0.0000 0.0000 -3.7293 0.0000 28.2954
#
#
#
# Elastic Compliance Matrix: (Units=1/GPa)
#
#
# Indices 1 2 3 4 5 6 
#
# 1 0.021466 -0.007449 0.016065 0.000000 -0.026849 0.000000
# 2 -0.007449 0.014218 -0.007175 0.000000 0.003829 0.000000
# 3 0.016065 -0.007175 0.050585 0.000000 -0.048586 0.000000
# 4 0.000000 0.000000 0.000000 0.073696 0.000000 0.009713
# 5 -0.026849 0.003829 -0.048586 0.000000 0.085619 0.000000
# 6 0.000000 0.000000 0.000000 0.009713 0.000000 0.036622
#
#
# Mechanical properties :
#
#
# Convention : Reuss Voigt Hill
#
# Bulk Modulus (GPa) = 11.21708 43.23237 27.22472
# Shear Modulus (GPa) = 16.17912 27.32365 21.75139
#
# Velocity S-wave (km/s) = 2.91146 3.78358 3.37580
# Velocity P-wave (km/s) = 4.14475 6.46047 5.42755
#
# Compressibility (1/GPa) = 0.08914979
#
# Stress axis : x y z
#
# Youngs Moduli (GPa) = 46.58613 70.33554 19.76875
#
# Poissons Ratio (x) = 0.52396 -0.31759
# Poissons Ratio (y) = 0.34704 0.14184
# Poissons Ratio (z) = -0.74841 0.50464
#
# Static dielectric constant tensor:
#      x y z
#    x 1.780810 0.000000 0.011990 
#    y 0.000000 1.674190 0.000000 
#    z 0.011990 0.000000 1.736510 
# 
# From -- ./inp_files/133883.got.cif
#   From: 2010.05.17/outbox.cif.g08.bks.cpg/sg12_67_cif.got.tgz:133883.got - 2010.06.03 13:09:07.
