data_PCOD9215806
_publ_section_title
;
Structure prediction by ZEFSAII (Michael W. Deem and Ramdas Pophale) SiO2 
 PCOD9215806
Probable space group: C 2/M
;
_chemical_formula_sum "Si O2"
_cell_formula_units_Z 56
_cell_length_a 10.604128
_cell_length_b 15.181938
_cell_length_c 16.171537
_cell_angle_alpha 90.000000
_cell_angle_beta 98.350852
_cell_angle_gamma 90.000000
_cell_volume 2575.871446
_symmetry_space_group_name_H-M "C 2/M"
_symmetry_group_IT_number 12
_symmetry_cell_setting 'monoclinic'
loop_
_space_group_symop_operation_xyz
x,y,z
-x,y,-z
-x,-y,-z
x,-y,z
1/2+x,1/2+y,z
1/2-x,1/2+y,-z
1/2-x,1/2-y,-z
1/2+x,1/2-y,z
loop_
_atom_site_type_symbol
_atom_site_label
_atom_site_fract_x
_atom_site_fract_y
_atom_site_fract_z
Si Si1 0.077207 0.779167 0.423579
Si Si2 0.082742 0.101711 0.717516
Si Si3 0.274110 0.899390 0.379696
Si Si4 0.136322 0.757304 0.054971
Si Si5 0.636808 0.898579 0.184853
Si Si6 0.942013 0.598100 0.646270
Si Si7 0.346115 0.398546 0.805287
O O1 0.201341 0.840697 0.438398
O O2 0.000000 0.769021 0.500000
O O3 0.979042 0.829294 0.351756
O O4 0.123042 0.686317 0.390900
O O5 0.226987 0.118840 0.757804
O O6 0.993350 0.105274 0.790151
O O7 0.074809 0.000000 0.685500
O O8 0.425175 0.899733 0.390562
O O9 0.229311 0.869395 0.284147
O O10 0.230183 0.000000 0.384817
O O11 0.119906 0.670126 0.110080
O O12 0.173423 0.835530 0.120529
O O13 0.250000 0.750000 0.000000
O O14 0.000000 0.775581 0.000000
O O15 0.539140 0.892243 0.252864
O O16 0.636377 0.000000 0.155722
O O17 0.884413 0.500000 0.628093
O O18 0.312002 0.500000 0.819092
#
# Coordination Sequence:
#
# PCOD9215806 Si02
#       7
#     8   8   8   8   8   8   8
#     4  11  23  36  63  94 130 162 203 258 323 368
#     4   9  19  38  65  94 117 155 214 261 303 365
#     4   9  20  40  64  91 117 160 215 258 302 365
#     4  12  27  40  59  95 130 159 198 259 325 384
#     4  10  22  42  66  87 119 166 210 253 304 375
#     4  10  23  41  62  87 121 167 214 252 302 370
#     4   9  19  38  64  85 114 158 204 251 302 367
#
# _framework density 21.740214999999999
#
# number of rings (size 3 to 8) (size 9 to 14) (size 15 to 20)
#    0.000    2.000    0.000    3.857    6.000    3.143 
#    0.000    0.000    0.000    0.000    0.000    0.000 
#    0.000    0.000    0.000    0.000    0.000    0.000 
#
# Total GULP energy -156487.989529 kJ/mol
# GULP energy per Si atom -5588.856769 kJ/mol
# Density = 2.169073 g / cm^3
# Si number density = 21.740215 Si / 1000 Ang^3
#
#
#
# Elastic Constant Matrix: (Units=GPa)
#
#
# Indices 1 2 3 4 5 6 
#
# 1 39.6867 0.6335 0.2718 0.0000 -13.0154 0.0000
# 2 0.6335 110.5518 70.8932 0.0000 -7.9748 0.0000
# 3 0.2718 70.8932 93.6605 0.0000 -18.2992 0.0000
# 4 0.0000 0.0000 0.0000 -1.6355 0.0000 -14.5576
# 5 -13.0154 -7.9748 -18.2992 0.0000 32.8805 0.0000
# 6 0.0000 0.0000 0.0000 -14.5576 0.0000 19.2161
#
#
#
# Elastic Compliance Matrix: (Units=1/GPa)
#
#
# Indices 1 2 3 4 5 6 
#
# 1 0.029596 -0.001608 0.003752 0.000000 0.013414 0.000000
# 2 -0.001608 0.018036 -0.014493 0.000000 -0.004328 0.000000
# 3 0.003752 -0.014493 0.023831 0.000000 0.011233 0.000000
# 4 0.000000 0.000000 0.000000 -0.078964 0.000000 -0.059821
# 5 0.013414 -0.004328 0.011233 0.000000 0.040925 0.000000
# 6 0.000000 0.000000 0.000000 -0.059821 0.000000 0.006721
#
#
# Mechanical properties :
#
#
# Convention : Reuss Voigt Hill
#
# Bulk Modulus (GPa) = 21.38340 43.05512 32.21926
# Shear Modulus (GPa) = 62.16480 21.56557 41.86518
#
# Velocity S-wave (km/s) = 5.35317 3.15297 4.39304
# Velocity P-wave (km/s) = 6.93295 5.75346 6.37056
#
# Compressibility (1/GPa) = 0.04676526
#
# Stress axis : x y z
#
# Youngs Moduli (GPa) = 33.78798 55.44343 41.96296
#
# Poissons Ratio (x) = 0.08915 -0.15744
# Poissons Ratio (y) = 0.05433 0.60817
# Poissons Ratio (z) = -0.12677 0.80354
#
# Static dielectric constant tensor:
#      x y z
#    x 1.820160 0.000000 0.005260 
#    y 0.000000 1.811010 0.000000 
#    z 0.005260 0.000000 1.777060 
# 
# From -- ./inp_files/204999.got.cif
#   From: 2010.05.17/outbox.cif.g08.bks.cpg/sg12_103_cif.got.tgz:204999.got - 2010.06.03 13:09:07.
