data_PCOD9215515
_publ_section_title
;
Structure prediction by ZEFSAII (Michael W. Deem and Ramdas Pophale) SiO2 
 PCOD9215515
Probable space group: C 2/M
;
_chemical_formula_sum "Si O2"
_cell_formula_units_Z 60
_cell_length_a 11.141929
_cell_length_b 16.497135
_cell_length_c 19.080295
_cell_angle_alpha 90.000000
_cell_angle_beta 136.793625
_cell_angle_gamma 90.000000
_cell_volume 2401.091943
_symmetry_space_group_name_H-M "C 2/M"
_symmetry_group_IT_number 12
_symmetry_cell_setting 'monoclinic'
loop_
_space_group_symop_operation_xyz
x,y,z
-x,y,-z
-x,-y,-z
x,-y,z
1/2+x,1/2+y,z
1/2-x,1/2+y,-z
1/2-x,1/2-y,-z
1/2+x,1/2-y,z
loop_
_atom_site_type_symbol
_atom_site_label
_atom_site_fract_x
_atom_site_fract_y
_atom_site_fract_z
Si Si1 0.935805 0.212831 0.103128
Si Si2 0.922771 0.904851 0.619882
Si Si3 0.500000 0.193598 0.000000
Si Si4 0.691687 0.653983 0.567308
Si Si5 0.517869 0.862532 0.794657
Si Si6 0.207741 0.593609 0.172762
Si Si7 0.212925 0.905647 0.200578
Si Si8 0.331248 0.162134 0.387287
O O1 0.976948 0.265223 0.189654
O O2 0.012916 0.123426 0.130080
O O3 0.750000 0.250000 0.000000
O O4 0.044554 0.250851 0.084352
O O5 0.809101 0.852747 0.516617
O O6 0.832116 0.889776 0.655148
O O7 0.122596 0.874646 0.713290
O O8 0.918620 0.000000 0.599371
O O9 0.665847 0.133892 0.079845
O O10 0.500000 0.614795 0.500000
O O11 0.683552 0.744571 0.594833
O O12 0.859685 0.614467 0.674947
O O13 0.458563 0.897059 0.845293
O O14 0.700405 0.890979 0.839205
O O15 0.242145 0.500000 0.175473
O O16 0.329226 0.850642 0.303338
O O17 0.232914 0.000000 0.224796
O O18 0.500000 0.129117 0.500000
#
# Coordination Sequence:
#
# PCOD9215515 Si02
#       8
#     8   8   4   8   8   8   8   8
#     4  11  25  48  72 106 138 196 242 301 370 453
#     4  11  24  40  67 100 144 192 242 304 370 443
#     4  10  23  40  71  96 136 178 244 296 361 428
#     4  11  22  41  67 104 141 198 250 300 360 441
#     4  11  23  44  74 107 149 193 251 303 371 446
#     4  10  22  41  67 104 143 187 244 308 373 436
#     4  12  27  48  77 113 152 193 245 315 382 439
#     4  11  25  43  67 103 148 201 251 302 368 448
#
# _framework density 24.988631000000002
#
# number of rings (size 3 to 8) (size 9 to 14) (size 15 to 20)
#    0.000    1.067    2.667    3.000    1.867    6.667 
#    0.000    5.667    0.000    0.000    0.000    0.933 
#    0.000    0.000    0.000    0.000    0.000    0.000 
#
# Total GULP energy -167409.051797 kJ/mol
# GULP energy per Si atom -5580.301727 kJ/mol
# Density = 2.493176 g / cm^3
# Si number density = 24.988631 Si / 1000 Ang^3
#
#
#
# Elastic Constant Matrix: (Units=GPa)
#
#
# Indices 1 2 3 4 5 6 
#
# 1 78.9862 4.4945 5.1723 0.0000 8.3454 0.0000
# 2 4.4945 93.5470 16.8481 0.0000 -4.6635 0.0000
# 3 5.1723 16.8481 110.9777 0.0000 2.5232 0.0000
# 4 0.0000 0.0000 0.0000 22.2775 0.0000 0.0988
# 5 8.3454 -4.6635 2.5232 0.0000 44.5841 0.0000
# 6 0.0000 0.0000 0.0000 0.0988 0.0000 19.1545
#
#
#
# Elastic Compliance Matrix: (Units=1/GPa)
#
#
# Indices 1 2 3 4 5 6 
#
# 1 0.012989 -0.000667 -0.000448 0.000000 -0.002476 0.000000
# 2 -0.000667 0.011094 -0.001685 0.000000 0.001381 0.000000
# 3 -0.000448 -0.001685 0.009301 0.000000 -0.000619 0.000000
# 4 0.000000 0.000000 0.000000 0.044889 0.000000 -0.000232
# 5 -0.002476 0.001381 -0.000619 0.000000 0.023072 0.000000
# 6 0.000000 0.000000 0.000000 -0.000232 0.000000 0.052208
#
#
# Mechanical properties :
#
#
# Convention : Reuss Voigt Hill
#
# Bulk Modulus (GPa) = 35.98888 37.39340 36.69114
# Shear Modulus (GPa) = 29.68847 34.33629 32.01238
#
# Velocity S-wave (km/s) = 3.45059 3.71088 3.58310
# Velocity P-wave (km/s) = 5.50534 5.77559 5.64209
#
# Compressibility (1/GPa) = 0.02778636
#
# Stress axis : x y z
#
# Youngs Moduli (GPa) = 76.98644 90.13827 107.50956
#
# Poissons Ratio (x) = 0.06011 0.04815
# Poissons Ratio (y) = 0.05134 0.18111
# Poissons Ratio (z) = 0.03448 0.15184
#
# Static dielectric constant tensor:
#      x y z
#    x 2.312830 0.000000 -0.032880 
#    y 0.000000 1.980950 0.000000 
#    z -0.032880 0.000000 2.029410 
# 
# From -- ./inp_files/306390.got.cif
#   From: 2010.05.17/outbox.cif.g08.bks.cpg/sg12_154_cif.got.tgz:306390.got - 2010.06.03 13:09:07.
