data_PCOD9215639
_publ_section_title
;
Structure prediction by ZEFSAII (Michael W. Deem and Ramdas Pophale) SiO2 
 PCOD9215639
Probable space group: C 2/M
;
_chemical_formula_sum "Si O2"
_cell_formula_units_Z 32
_cell_length_a 14.284758
_cell_length_b 26.624606
_cell_length_c 11.266811
_cell_angle_alpha 90.000000
_cell_angle_beta 161.197358
_cell_angle_gamma 90.000000
_cell_volume 1381.115456
_symmetry_space_group_name_H-M "C 2/M"
_symmetry_group_IT_number 12
_symmetry_cell_setting 'monoclinic'
loop_
_space_group_symop_operation_xyz
x,y,z
-x,y,-z
-x,-y,-z
x,-y,z
1/2+x,1/2+y,z
1/2-x,1/2+y,-z
1/2-x,1/2-y,-z
1/2+x,1/2-y,z
loop_
_atom_site_type_symbol
_atom_site_label
_atom_site_fract_x
_atom_site_fract_y
_atom_site_fract_z
Si Si1 0.850550 0.700572 0.191558
Si Si2 0.937324 0.442423 0.552301
Si Si3 0.212874 0.134223 0.442461
Si Si4 0.442045 0.443412 0.569684
O O1 0.000000 0.711040 0.500000
O O2 0.047175 0.668833 0.334339
O O3 0.750000 0.750000 0.000000
O O4 0.567721 0.668039 0.881183
O O5 0.852541 0.500000 0.435623
O O6 0.696975 0.412767 0.335041
O O7 0.000000 0.419131 0.500000
O O8 0.240028 0.440636 0.987685
O O9 0.245276 0.102818 0.603801
O O10 0.500000 0.439127 0.500000
O O11 0.322772 0.500000 0.452148
#
# Coordination Sequence:
#
# PCOD9215639 Si02
#       4
#     8   8   8   8
#     4  12  29  52  78 106 141 182 240 311 373 432
#     4  10  22  41  70 108 151 193 236 286 348 430
#     4  12  24  47  76 107 143 191 238 291 358 431
#     4  10  23  43  68 108 156 197 240 290 347 419
#
# _framework density 23.169678999999999
#
# number of rings (size 3 to 8) (size 9 to 14) (size 15 to 20)
#    0.000    1.000    2.500    3.000    3.500    2.000 
#    4.500    7.500    0.000    2.250    0.000    0.000 
#    0.000    0.000    0.000    0.000    0.000    0.000 
#
# Total GULP energy -89503.688637 kJ/mol
# GULP energy per Si atom -5593.980540 kJ/mol
# Density = 2.311694 g / cm^3
# Si number density = 23.169679 Si / 1000 Ang^3
#
#
#
# Elastic Constant Matrix: (Units=GPa)
#
#
# Indices 1 2 3 4 5 6 
#
# 1 175.8794 89.9805 77.2189 -0.0007 5.3988 0.0026
# 2 89.9805 169.9825 49.2029 -0.0009 14.1024 0.0013
# 3 77.2189 49.2029 101.7795 0.0044 8.9326 0.0032
# 4 -0.0007 -0.0009 0.0044 -27.3957 0.0040 15.4070
# 5 5.3988 14.1024 8.9326 0.0040 55.7965 -0.0025
# 6 0.0026 0.0013 0.0032 15.4070 -0.0025 43.9923
#
#
#
# Elastic Compliance Matrix: (Units=1/GPa)
#
#
# Indices 1 2 3 4 5 6 
#
# 1 0.010215 -0.003741 -0.006023 -0.000001 0.000921 0.000000
# 2 -0.003741 0.008292 -0.001033 0.000000 -0.001569 0.000000
# 3 -0.006023 -0.001033 0.015031 0.000002 -0.001563 -0.000001
# 4 -0.000001 0.000000 0.000002 -0.030496 0.000003 0.010680
# 5 0.000921 -0.001569 -0.001563 0.000003 0.018480 0.000000
# 6 0.000000 0.000000 -0.000001 0.010680 0.000000 0.018991
#
#
# Mechanical properties :
#
#
# Convention : Reuss Voigt Hill
#
# Bulk Modulus (GPa) = 83.71178 97.82735 90.76956
# Shear Modulus (GPa) = 75.65583 29.89457 52.77520
#
# Velocity S-wave (km/s) = 5.72048 3.59590 4.77778
# Velocity P-wave (km/s) = 8.93533 7.71715 8.34849
#
# Compressibility (1/GPa) = 0.01194575
#
# Stress axis : x y z
#
# Youngs Moduli (GPa) = 97.89078 120.59496 66.52834
#
# Poissons Ratio (x) = 0.45110 0.40069
# Poissons Ratio (y) = 0.36617 0.06873
# Poissons Ratio (z) = 0.58958 0.12458
#
# Static dielectric constant tensor:
#      x y z
#    x 1.883670 0.000000 -0.003420 
#    y 0.000000 1.879640 -0.000010 
#    z -0.003420 -0.000010 1.911220 
# 
# From -- ./inp_files/149595.got.cif
#   From: 2010.05.17/outbox.cif.g08.bks.cpg/sg12_75_cif.got.tgz:149595.got - 2010.06.03 13:09:07.
