data_PCOD9215518
_publ_section_title
;
Structure prediction by ZEFSAII (Michael W. Deem and Ramdas Pophale) SiO2 
 PCOD9215518
Probable space group: C 2/M
;
_chemical_formula_sum "Si O2"
_cell_formula_units_Z 48
_cell_length_a 18.670977
_cell_length_b 29.265595
_cell_length_c 9.330756
_cell_angle_alpha 90.000000
_cell_angle_beta 30.591803
_cell_angle_gamma 90.000000
_cell_volume 2594.712691
_symmetry_space_group_name_H-M "C 2/M"
_symmetry_group_IT_number 12
_symmetry_cell_setting 'monoclinic'
loop_
_space_group_symop_operation_xyz
x,y,z
-x,y,-z
-x,-y,-z
x,-y,z
1/2+x,1/2+y,z
1/2-x,1/2+y,-z
1/2-x,1/2-y,-z
1/2+x,1/2-y,z
loop_
_atom_site_type_symbol
_atom_site_label
_atom_site_fract_x
_atom_site_fract_y
_atom_site_fract_z
Si Si1 0.086779 0.500000 0.205846
Si Si2 0.553892 0.926361 0.746648
Si Si3 0.903341 0.244705 0.802057
Si Si4 0.052966 0.317582 0.746868
Si Si5 0.874043 0.068975 0.107128
Si Si6 0.890249 0.000000 0.818846
Si Si7 0.372565 0.321784 0.114390
O O1 0.000000 0.500000 0.500000
O O2 0.042170 0.455850 0.192523
O O3 0.244926 0.500000 0.984350
O O4 0.538527 0.872087 0.745966
O O5 0.717263 0.940588 0.439936
O O6 0.500000 0.935070 0.000000
O O7 0.000000 0.235572 0.500000
O O8 0.963871 0.288046 0.786908
O O9 0.750000 0.250000 0.000000
O O10 0.897912 0.203562 0.922847
O O11 0.219719 0.307998 0.440351
O O12 0.000000 0.308214 0.000000
O O13 0.877142 0.123704 0.084678
O O14 0.000000 0.056559 0.000000
O O15 0.895797 0.042754 0.919918
O O16 0.000000 0.000000 0.500000
O O17 0.500000 0.309285 0.000000
#
# Coordination Sequence:
#
# PCOD9215518 Si02
#       7
#     4   8   8   8   8   4   8
#     4  12  23  40  62  92 123 160 200 248 300 362
#     4  10  22  41  67  91 117 160 208 252 297 355
#     4  12  25  40  60  90 123 162 200 248 309 362
#     4  10  23  42  64  90 121 160 205 253 301 356
#     4  10  22  43  64  89 122 161 205 250 299 356
#     4  12  27  40  60  92 129 164 196 245 310 362
#     4  10  23  42  65  89 120 161 207 252 297 360
#
# _framework density 18.499158000000001
#
# number of rings (size 3 to 8) (size 9 to 14) (size 15 to 20)
#    0.000    1.333    3.333    1.000    4.667    4.000 
#    0.000    0.000    0.000    0.000    0.000    0.000 
#    0.000    0.000    0.000    0.000    0.000    0.000 
#
# Total GULP energy -134052.935046 kJ/mol
# GULP energy per Si atom -5585.538960 kJ/mol
# Density = 1.845705 g / cm^3
# Si number density = 18.499158 Si / 1000 Ang^3
#
#
#
# Elastic Constant Matrix: (Units=GPa)
#
#
# Indices 1 2 3 4 5 6 
#
# 1 191.2537 75.8538 114.1424 0.0000 -10.6656 -0.0001
# 2 75.8538 77.4177 61.7422 0.0000 2.5679 0.0000
# 3 114.1424 61.7422 199.0595 -0.0001 5.5696 -0.0004
# 4 0.0000 0.0000 -0.0001 57.2569 0.0000 136.1318
# 5 -10.6656 2.5679 5.5696 0.0000 46.0357 0.0002
# 6 -0.0001 0.0000 -0.0004 136.1318 0.0002 479.5703
#
#
#
# Elastic Compliance Matrix: (Units=1/GPa)
#
#
# Indices 1 2 3 4 5 6 
#
# 1 0.010733 -0.007500 -0.003923 0.000000 0.003379 0.000000
# 2 -0.007500 0.022407 -0.002575 0.000000 -0.002676 0.000000
# 3 -0.003923 -0.002575 0.008120 0.000000 -0.001748 0.000000
# 4 0.000000 0.000000 0.000000 0.053722 0.000000 -0.015250
# 5 0.003379 -0.002676 -0.001748 0.000000 0.022866 0.000000
# 6 0.000000 0.000000 0.000000 -0.015250 0.000000 0.006414
#
#
# Mechanical properties :
#
#
# Convention : Reuss Voigt Hill
#
# Bulk Modulus (GPa) = 75.37920 107.91195 91.64558
# Shear Modulus (GPa) = 31.91250 130.97207 81.44228
#
# Velocity S-wave (km/s) = 4.15791 8.42334 6.64232
# Velocity P-wave (km/s) = 7.99292 12.37189 10.41514
#
# Compressibility (1/GPa) = 0.01326626
#
# Stress axis : x y z
#
# Youngs Moduli (GPa) = 93.17437 44.62841 123.14646
#
# Poissons Ratio (x) = 0.33469 0.48305
# Poissons Ratio (y) = 0.69876 0.31709
# Poissons Ratio (z) = 0.36548 0.11491
#
# Static dielectric constant tensor:
#      x y z
#    x 1.543610 0.000000 0.050660 
#    y 0.000000 1.647060 0.000000 
#    z 0.050660 0.000000 1.573550 
# 
# From -- ./inp_files/80661.got.cif
#   From: 2010.05.17/outbox.cif.g08.bks.cpg/sg12_41_cif.got.tgz:80661.got - 2010.06.03 13:09:07.
