data_PCOD9215330
_publ_section_title
;
Structure prediction by ZEFSAII (Michael W. Deem and Ramdas Pophale) SiO2 
 PCOD9215330
Probable space group: C 2/M
;
_chemical_formula_sum "Si O2"
_cell_formula_units_Z 40
_cell_length_a 9.558343
_cell_length_b 13.204114
_cell_length_c 16.284424
_cell_angle_alpha 90.000000
_cell_angle_beta 128.695748
_cell_angle_gamma 90.000000
_cell_volume 1604.073555
_symmetry_space_group_name_H-M "C 2/M"
_symmetry_group_IT_number 12
_symmetry_cell_setting 'monoclinic'
loop_
_space_group_symop_operation_xyz
x,y,z
-x,y,-z
-x,-y,-z
x,-y,z
1/2+x,1/2+y,z
1/2-x,1/2+y,-z
1/2-x,1/2-y,-z
1/2+x,1/2-y,z
loop_
_atom_site_type_symbol
_atom_site_label
_atom_site_fract_x
_atom_site_fract_y
_atom_site_fract_z
Si Si1 0.519449 0.693132 0.099612
Si Si2 0.826166 0.343524 0.334980
Si Si3 0.110671 0.107542 0.640637
Si Si4 0.255263 0.882289 0.869081
Si Si5 0.283557 0.132829 0.504116
O O1 0.680357 0.642329 0.211088
O O2 0.585660 0.810294 0.108698
O O3 0.344180 0.672852 0.091253
O O4 0.500000 0.651668 0.000000
O O5 0.797206 0.391998 0.413113
O O6 0.825120 0.221640 0.354870
O O7 0.024854 0.381048 0.383033
O O8 0.907155 0.096098 0.536131
O O9 0.114588 0.114288 0.742049
O O10 0.209690 0.000000 0.660565
O O11 0.300609 0.000000 0.904230
O O12 0.250000 0.250000 0.500000
#
# Coordination Sequence:
#
# PCOD9215330 Si02
#       5
#     8   8   8   8   8
#     4  11  22  40  65  95 124 169 215 254 317 380
#     4   9  18  32  53  80 111 150 196 243 300 362
#     4   9  17  32  55  80 111 150 191 242 304 362
#     4  10  22  41  64  94 130 165 209 263 313 372
#     4   9  16  31  52  77 106 150 185 235 301 355
#
# _framework density 24.936512
#
# number of rings (size 3 to 8) (size 9 to 14) (size 15 to 20)
#    0.000    2.400    2.000    0.600    0.000    0.800 
#    0.000   12.000    0.000    0.000    0.000    0.000 
#    0.000    0.000    0.000    0.000    0.000    0.000 
#
# Total GULP energy -111453.712440 kJ/mol
# GULP energy per Si atom -5572.685622 kJ/mol
# Density = 2.487976 g / cm^3
# Si number density = 24.936512 Si / 1000 Ang^3
#
#
#
# Elastic Constant Matrix: (Units=GPa)
#
#
# Indices 1 2 3 4 5 6 
#
# 1 146.7416 54.7623 42.4016 0.0000 -12.9536 0.0000
# 2 54.7623 172.4569 26.4233 0.0000 -12.6609 0.0000
# 3 42.4016 26.4233 144.7050 0.0000 -0.4262 0.0000
# 4 0.0000 0.0000 0.0000 -18.1719 0.0000 25.5753
# 5 -12.9536 -12.6609 -0.4262 0.0000 43.6193 0.0000
# 6 0.0000 0.0000 0.0000 25.5753 0.0000 -30.7391
#
#
#
# Elastic Compliance Matrix: (Units=1/GPa)
#
#
# Indices 1 2 3 4 5 6 
#
# 1 0.008396 -0.002218 -0.002050 0.000000 0.001830 0.000000
# 2 -0.002218 0.006683 -0.000567 0.000000 0.001276 0.000000
# 3 -0.002050 -0.000567 0.007613 0.000000 -0.000699 0.000000
# 4 0.000000 0.000000 0.000000 0.321848 0.000000 0.267781
# 5 0.001830 0.001276 -0.000699 0.000000 0.023832 0.000000
# 6 0.000000 0.000000 0.000000 0.267781 0.000000 0.190266
#
#
# Mechanical properties :
#
#
# Convention : Reuss Voigt Hill
#
# Bulk Modulus (GPa) = 76.78527 79.00866 77.89696
# Shear Modulus (GPa) = 8.73137 21.62943 15.18040
#
# Velocity S-wave (km/s) = 1.87324 2.94833 2.46999
# Velocity P-wave (km/s) = 5.96137 6.58353 6.28016
#
# Compressibility (1/GPa) = 0.01302333
#
# Stress axis : x y z
#
# Youngs Moduli (GPa) = 119.10192 149.62736 131.35922
#
# Poissons Ratio (x) = 0.33183 0.26927
# Poissons Ratio (y) = 0.26414 0.07445
# Poissons Ratio (z) = 0.24415 0.08480
#
# Static dielectric constant tensor:
#      x y z
#    x 2.052500 0.000000 -0.001770 
#    y 0.000000 2.132160 0.000000 
#    z -0.001770 0.000000 2.000270 
# 
# From -- ./inp_files/262567.got.cif
#   From: 2010.05.17/outbox.cif.g08.bks.cpg/sg12_132_cif.got.tgz:262567.got - 2010.06.03 13:09:07.
