data_PCOD9215998
_publ_section_title
;
Structure prediction by ZEFSAII (Michael W. Deem and Ramdas Pophale) SiO2 
 PCOD9215998
Probable space group: C 2/M
;
_chemical_formula_sum "Si O2"
_cell_formula_units_Z 48
_cell_length_a 11.398114
_cell_length_b 23.256849
_cell_length_c 9.165225
_cell_angle_alpha 90.000000
_cell_angle_beta 67.888511
_cell_angle_gamma 90.000000
_cell_volume 2250.870311
_symmetry_space_group_name_H-M "C 2/M"
_symmetry_group_IT_number 12
_symmetry_cell_setting 'monoclinic'
loop_
_space_group_symop_operation_xyz
x,y,z
-x,y,-z
-x,-y,-z
x,-y,z
1/2+x,1/2+y,z
1/2-x,1/2+y,-z
1/2-x,1/2-y,-z
1/2+x,1/2-y,z
loop_
_atom_site_type_symbol
_atom_site_label
_atom_site_fract_x
_atom_site_fract_y
_atom_site_fract_z
Si Si1 0.188539 0.433803 0.678584
Si Si2 0.193938 0.852515 0.859213
Si Si3 0.150181 0.144419 0.214684
Si Si4 0.990093 0.652001 0.676816
Si Si5 0.092063 0.932121 0.666904
Si Si6 0.698141 0.762651 0.685249
O O1 0.177668 0.500000 0.717549
O O2 0.236102 0.398756 0.795875
O O3 0.061004 0.407660 0.674216
O O4 0.296095 0.425425 0.503635
O O5 0.346072 0.851866 0.791442
O O6 0.144364 0.908484 0.796566
O O7 0.161702 0.796209 0.780260
O O8 0.142886 0.847096 0.045697
O O9 0.192192 0.202571 0.278170
O O10 0.023645 0.110118 0.318742
O O11 0.073967 0.698304 0.724275
O O12 0.000000 0.665385 0.500000
O O13 0.055867 0.000000 0.687284
O O14 0.750000 0.750000 0.500000
#
# Coordination Sequence:
#
# PCOD9215998 Si02
#       6
#     8   8   8   8   8   8
#     4  10  22  42  69  97 128 177 224 267 320 385
#     4  12  25  43  66  99 134 173 213 275 338 388
#     4  11  25  43  64  98 136 169 217 275 332 390
#     4  11  22  43  67  95 129 168 225 269 323 395
#     4  11  24  44  71  99 134 179 224 269 325 395
#     4  11  24  43  68  94 126 179 223 270 322 395
#
# _framework density 21.325085000000001
#
# number of rings (size 3 to 8) (size 9 to 14) (size 15 to 20)
#    0.000    1.000    3.333    3.000    2.333    7.000 
#    6.000    0.833    0.000    0.000    0.000    0.000 
#    0.000    0.000    0.000    0.000    0.000    0.000 
#
# Total GULP energy -134294.199128 kJ/mol
# GULP energy per Si atom -5595.591630 kJ/mol
# Density = 2.127655 g / cm^3
# Si number density = 21.325085 Si / 1000 Ang^3
#
#
#
# Elastic Constant Matrix: (Units=GPa)
#
#
# Indices 1 2 3 4 5 6 
#
# 1 71.9466 7.0474 -2.0840 0.0000 -0.2904 0.0000
# 2 7.0474 89.1524 33.2701 0.0000 9.0208 0.0000
# 3 -2.0840 33.2701 88.1586 0.0000 23.6658 0.0000
# 4 0.0000 0.0000 0.0000 20.1410 0.0000 4.2866
# 5 -0.2904 9.0208 23.6658 0.0000 36.6585 0.0000
# 6 0.0000 0.0000 0.0000 4.2866 0.0000 16.6650
#
#
#
# Elastic Compliance Matrix: (Units=1/GPa)
#
#
# Indices 1 2 3 4 5 6 
#
# 1 0.014066 -0.001438 0.000908 0.000000 -0.000121 0.000000
# 2 -0.001438 0.013203 -0.005009 0.000000 -0.000026 0.000000
# 3 0.000908 -0.005009 0.015631 0.000000 -0.008851 0.000000
# 4 0.000000 0.000000 0.000000 0.052526 0.000000 -0.013511
# 5 -0.000121 -0.000026 -0.008851 0.000000 0.032998 0.000000
# 6 0.000000 0.000000 0.000000 -0.013511 0.000000 0.063481
#
#
# Mechanical properties :
#
#
# Convention : Reuss Voigt Hill
#
# Bulk Modulus (GPa) = 31.42737 36.19162 33.80950
# Shear Modulus (GPa) = 23.40915 28.76116 26.08516
#
# Velocity S-wave (km/s) = 3.31679 3.67645 3.50124
# Velocity P-wave (km/s) = 5.42563 5.91861 5.67747
#
# Compressibility (1/GPa) = 0.03181939
#
# Stress axis : x y z
#
# Youngs Moduli (GPa) = 71.09392 75.74289 63.97444
#
# Poissons Ratio (x) = 0.10895 -0.05807
# Poissons Ratio (y) = 0.10226 0.32048
# Poissons Ratio (z) = -0.06454 0.37943
#
# Static dielectric constant tensor:
#      x y z
#    x 1.788740 0.000000 0.004230 
#    y 0.000000 1.763360 0.000000 
#    z 0.004230 0.000000 1.751760 
# 
# From -- ./inp_files/51336.got.cif
#   From: 2010.05.17/outbox.cif.g08.bks.cpg/sg12_26_cif.got.tgz:51336.got - 2010.06.03 13:09:07.
