data_PCOD9215905
_publ_section_title
;
Structure prediction by ZEFSAII (Michael W. Deem and Ramdas Pophale) SiO2 
 PCOD9215905
Probable space group: C 2/M
;
_chemical_formula_sum "Si O2"
_cell_formula_units_Z 32
_cell_length_a 10.019909
_cell_length_b 18.864960
_cell_length_c 17.286054
_cell_angle_alpha 90.000000
_cell_angle_beta 155.760361
_cell_angle_gamma 90.000000
_cell_volume 1341.484892
_symmetry_space_group_name_H-M "C 2/M"
_symmetry_group_IT_number 12
_symmetry_cell_setting 'monoclinic'
loop_
_space_group_symop_operation_xyz
x,y,z
-x,y,-z
-x,-y,-z
x,-y,z
1/2+x,1/2+y,z
1/2-x,1/2+y,-z
1/2-x,1/2-y,-z
1/2+x,1/2-y,z
loop_
_atom_site_type_symbol
_atom_site_label
_atom_site_fract_x
_atom_site_fract_y
_atom_site_fract_z
Si Si1 0.764936 0.827179 0.044227
Si Si2 0.148474 0.416904 0.719239
Si Si3 0.341418 0.916558 0.719237
Si Si4 0.726317 0.692242 0.419784
O O1 0.451897 0.870386 0.849845
O O2 0.750000 0.750000 0.000000
O O3 0.055921 0.872969 0.159511
O O4 0.885360 0.813763 0.195145
O O5 0.183768 0.500000 0.722299
O O6 0.096914 0.407672 0.783661
O O7 0.834144 0.383430 0.511281
O O8 0.000000 0.896052 0.500000
O O9 0.325660 0.000000 0.730587
O O10 0.750000 0.750000 0.500000
O O11 0.000000 0.711652 0.500000
#
# Coordination Sequence:
#
# PCOD9215905 Si02
#       4
#     8   8   8   8
#     4  11  23  38  63  97 132 174 226 280 341 412
#     4  10  22  42  68  97 133 179 230 285 346 413
#     4  10  22  42  67  97 138 183 228 283 345 411
#     4  10  23  42  66  97 136 178 227 289 348 411
#
# _framework density 23.854163
#
# number of rings (size 3 to 8) (size 9 to 14) (size 15 to 20)
#    0.000    1.750    0.000    3.000    0.000   17.500 
#    0.000    6.250    0.000    4.500    0.000    0.000 
#    0.000    0.000    0.000    0.000    0.000    0.000 
#
# Total GULP energy -89608.862941 kJ/mol
# GULP energy per Si atom -5600.553934 kJ/mol
# Density = 2.379987 g / cm^3
# Si number density = 23.854163 Si / 1000 Ang^3
#
#
#
# Elastic Constant Matrix: (Units=GPa)
#
#
# Indices 1 2 3 4 5 6 
#
# 1 129.9151 73.4142 54.0256 -0.0201 -20.2047 0.0178
# 2 73.4142 160.7248 76.0834 -0.0083 -29.7407 0.0203
# 3 54.0256 76.0834 188.1740 0.0818 -54.1039 0.0462
# 4 -0.0201 -0.0083 0.0818 45.4715 -0.0058 -22.6816
# 5 -20.2047 -29.7407 -54.1039 -0.0058 45.9753 0.0027
# 6 0.0178 0.0203 0.0462 -22.6816 0.0027 -12.1294
#
#
#
# Elastic Compliance Matrix: (Units=1/GPa)
#
#
# Indices 1 2 3 4 5 6 
#
# 1 0.010654 -0.004194 -0.001204 0.000004 0.000552 -0.000004
# 2 -0.004194 0.009468 -0.002105 0.000003 0.001804 -0.000003
# 3 -0.001204 -0.002105 0.009019 0.000000 0.008723 0.000032
# 4 0.000004 0.000003 0.000000 0.011378 0.000006 -0.021277
# 5 0.000552 0.001804 0.008723 0.000006 0.033425 0.000033
# 6 -0.000004 -0.000003 0.000032 -0.021277 0.000033 -0.042656
#
#
# Mechanical properties :
#
#
# Convention : Reuss Voigt Hill
#
# Bulk Modulus (GPa) = 70.75445 98.42890 84.59167
# Shear Modulus (GPa) = 98.02484 34.21622 66.12053
#
# Velocity S-wave (km/s) = 6.41737 3.79145 5.27056
# Velocity P-wave (km/s) = 9.19977 7.77940 8.51924
#
# Compressibility (1/GPa) = 0.01413339
#
# Stress axis : x y z
#
# Youngs Moduli (GPa) = 93.86025 105.61855 110.87519
#
# Poissons Ratio (x) = 0.44299 0.13354
# Poissons Ratio (y) = 0.39368 0.23342
# Poissons Ratio (z) = 0.11305 0.22236
#
# Static dielectric constant tensor:
#      x y z
#    x 1.969240 0.000000 0.054350 
#    y 0.000000 1.816420 -0.000040 
#    z 0.054350 -0.000040 2.013100 
# 
# From -- ./inp_files/306871.got.cif
#   From: 2010.05.17/outbox.cif.g08.bks.cpg/sg12_154_cif.got.tgz:306871.got - 2010.06.03 13:09:07.
