data_PCOD9215902
_publ_section_title
;
Structure prediction by ZEFSAII (Michael W. Deem and Ramdas Pophale) SiO2 
 PCOD9215902
Probable space group: C 2/M
;
_chemical_formula_sum "Si O2"
_cell_formula_units_Z 44
_cell_length_a 23.919761
_cell_length_b 14.885166
_cell_length_c 18.223575
_cell_angle_alpha 90.000000
_cell_angle_beta 19.848870
_cell_angle_gamma 90.000000
_cell_volume 2203.106251
_symmetry_space_group_name_H-M "C 2/M"
_symmetry_group_IT_number 12
_symmetry_cell_setting 'monoclinic'
loop_
_space_group_symop_operation_xyz
x,y,z
-x,y,-z
-x,-y,-z
x,-y,z
1/2+x,1/2+y,z
1/2-x,1/2+y,-z
1/2-x,1/2-y,-z
1/2+x,1/2-y,z
loop_
_atom_site_type_symbol
_atom_site_label
_atom_site_fract_x
_atom_site_fract_y
_atom_site_fract_z
Si Si1 0.200205 0.182086 0.889861
Si Si2 0.625959 0.668937 0.409374
Si Si3 0.915271 0.718115 0.758145
Si Si4 0.586087 0.190099 0.690157
Si Si5 0.482907 0.500000 0.930801
Si Si6 0.304553 0.000000 0.243788
Si Si7 0.776011 0.500000 0.444529
O O1 0.281244 0.238617 0.724166
O O2 0.346488 0.170196 0.769704
O O3 0.061134 0.250244 0.093586
O O4 0.117456 0.089819 0.967432
O O5 0.500000 0.647314 0.500000
O O6 0.513334 0.691765 0.617051
O O7 0.746325 0.588585 0.274427
O O8 0.032174 0.671011 0.672543
O O9 0.750000 0.750000 0.000000
O O10 0.750000 0.250000 0.500000
O O11 0.619452 0.091851 0.681003
O O12 0.643594 0.500000 0.676187
O O13 0.500000 0.500000 0.000000
O O14 0.218283 0.000000 0.430785
O O15 0.500000 0.000000 0.000000
#
# Coordination Sequence:
#
# PCOD9215902 Si02
#       7
#     8   8   8   8   4   4   4
#     4  10  23  44  66  94 131 174 227 274 340 406
#     4  10  22  42  67  97 132 174 218 277 338 397
#     4   9  21  40  66  94 127 175 217 271 338 398
#     4  11  21  40  65  94 134 168 220 276 331 404
#     4  12  28  43  64  98 134 182 230 278 338 404
#     4  12  25  41  69 105 140 171 219 278 343 409
#     4  12  26  40  64 103 128 173 226 266 343 398
#
# _framework density 19.971800000000002
#
# number of rings (size 3 to 8) (size 9 to 14) (size 15 to 20)
#    0.000    1.455    1.818    2.455    5.091    2.909 
#    0.000    9.545    0.000    0.000    0.000    0.000 
#    0.000    0.000    0.000    0.000    0.000    0.000 
#
# Total GULP energy -122611.250256 kJ/mol
# GULP energy per Si atom -5573.238648 kJ/mol
# Density = 1.992634 g / cm^3
# Si number density = 19.971800 Si / 1000 Ang^3
#
#
#
# Elastic Constant Matrix: (Units=GPa)
#
#
# Indices 1 2 3 4 5 6 
#
# 1 59.7558 57.7865 16.6606 -0.0010 -8.5250 -0.0053
# 2 57.7865 157.4470 40.2668 -0.0002 -17.9976 -0.0035
# 3 16.6606 40.2668 105.1788 -0.0007 -6.7350 -0.0054
# 4 -0.0010 -0.0002 -0.0007 209.1659 0.0004 548.5825
# 5 -8.5250 -17.9976 -6.7350 0.0004 32.2426 0.0042
# 6 -0.0053 -0.0035 -0.0054 548.5825 0.0042 1743.1832
#
#
#
# Elastic Compliance Matrix: (Units=1/GPa)
#
#
# Indices 1 2 3 4 5 6 
#
# 1 0.026047 -0.009251 -0.000480 0.000000 0.001622 0.000000
# 2 -0.009251 0.010718 -0.002444 0.000000 0.003026 0.000000
# 3 -0.000480 -0.002444 0.010565 0.000000 0.000716 0.000000
# 4 0.000000 0.000000 0.000000 0.027378 0.000001 -0.008616
# 5 0.001622 0.003026 0.000716 0.000001 0.033282 0.000000
# 6 0.000000 0.000000 0.000000 -0.008616 0.000000 0.003285
#
#
# Mechanical properties :
#
#
# Convention : Reuss Voigt Hill
#
# Bulk Modulus (GPa) = 43.51905 61.31216 52.41560
# Shear Modulus (GPa) = 34.89543 410.76286 222.82915
#
# Velocity S-wave (km/s) = 4.18453 14.35681 10.57422
# Velocity P-wave (km/s) = 6.72195 17.48113 13.24339
#
# Compressibility (1/GPa) = 0.02297844
#
# Stress axis : x y z
#
# Youngs Moduli (GPa) = 38.39270 93.30313 94.65062
#
# Poissons Ratio (x) = 0.86319 0.04545
# Poissons Ratio (y) = 0.35519 0.23132
# Poissons Ratio (z) = 0.01843 0.22803
#
# Static dielectric constant tensor:
#      x y z
#    x 1.462190 0.000000 0.054680 
#    y 0.000000 1.651130 0.000000 
#    z 0.054680 0.000000 1.747460 
# 
# From -- ./inp_files/290023.got.cif
#   From: 2010.05.17/outbox.cif.g08.bks.cpg/sg12_146_cif.got.tgz:290023.got - 2010.06.03 13:09:07.
