data_PCOD9215112
_publ_section_title
;
Structure prediction by ZEFSAII (Michael W. Deem and Ramdas Pophale) SiO2 
 PCOD9215112
Probable space group: C 2/M
;
_chemical_formula_sum "Si O2"
_cell_formula_units_Z 64
_cell_length_a 18.206619
_cell_length_b 17.550116
_cell_length_c 8.929266
_cell_angle_alpha 90.000000
_cell_angle_beta 102.621584
_cell_angle_gamma 90.000000
_cell_volume 2784.205142
_symmetry_space_group_name_H-M "C 2/M"
_symmetry_group_IT_number 12
_symmetry_cell_setting 'monoclinic'
loop_
_space_group_symop_operation_xyz
x,y,z
-x,y,-z
-x,-y,-z
x,-y,z
1/2+x,1/2+y,z
1/2-x,1/2+y,-z
1/2-x,1/2-y,-z
1/2+x,1/2-y,z
loop_
_atom_site_type_symbol
_atom_site_label
_atom_site_fract_x
_atom_site_fract_y
_atom_site_fract_z
Si Si1 0.967872 0.322799 0.644208
Si Si2 0.416763 0.915881 0.886521
Si Si3 0.636128 0.352262 0.047711
Si Si4 0.217625 0.407787 0.710369
Si Si5 0.438167 0.338108 0.676586
Si Si6 0.878236 0.304236 0.119295
Si Si7 0.095688 0.086667 0.734003
Si Si8 0.699806 0.411539 0.537687
O O1 0.035742 0.296315 0.785562
O O2 0.000000 0.349925 0.500000
O O3 0.925347 0.385801 0.722077
O O4 0.921898 0.245015 0.600440
O O5 0.383600 0.000000 0.876016
O O6 0.500000 0.919603 0.000000
O O7 0.372819 0.857827 0.971180
O O8 0.708185 0.388088 0.160059
O O9 0.577264 0.332538 0.152793
O O10 0.650846 0.276848 0.953070
O O11 0.605155 0.411637 0.915309
O O12 0.201986 0.500000 0.709431
O O13 0.157856 0.352424 0.761517
O O14 0.236416 0.382589 0.547613
O O15 0.521601 0.364234 0.671790
O O16 0.378032 0.398155 0.587620
O O17 0.171959 0.116927 0.687100
O O18 0.083610 0.000000 0.677761
O O19 0.718037 0.500000 0.563054
#
# Coordination Sequence:
#
# PCOD9215112 Si02
#       8
#     8   8   8   8   8   8   8   8
#     4  11  22  36  59  90 124 152 190 247 301 355
#     4   9  19  36  59  84 112 150 195 243 295 349
#     4  11  22  36  58  87 119 152 196 250 290 347
#     4  10  22  41  62  82 113 159 208 247 287 347
#     4  11  20  34  57  84 121 158 194 235 294 361
#     4  11  21  39  62  86 116 160 200 241 297 352
#     4  11  21  33  55  87 121 156 193 243 299 351
#     4   9  20  37  56  83 120 162 200 236 288 354
#
# _framework density 22.986813000000001
#
# number of rings (size 3 to 8) (size 9 to 14) (size 15 to 20)
#    0.000    1.625    2.500    3.000    0.000    3.750 
#    0.000    1.875    0.000    1.500    0.000    0.000 
#    0.000    0.000    0.000    0.000    0.000    0.000 
#
# Total GULP energy -178586.098276 kJ/mol
# GULP energy per Si atom -5580.815571 kJ/mol
# Density = 2.293449 g / cm^3
# Si number density = 22.986813 Si / 1000 Ang^3
#
#
#
# Elastic Constant Matrix: (Units=GPa)
#
#
# Indices 1 2 3 4 5 6 
#
# 1 30.7783 14.2158 16.8484 0.0000 -17.9433 0.0000
# 2 14.2158 112.8889 28.5126 0.0000 -22.2659 0.0000
# 3 16.8484 28.5126 102.7561 0.0000 -34.8334 0.0000
# 4 0.0000 0.0000 0.0000 26.0054 0.0000 -11.4765
# 5 -17.9433 -22.2659 -34.8334 0.0000 47.6947 0.0000
# 6 0.0000 0.0000 0.0000 -11.4765 0.0000 17.1928
#
#
#
# Elastic Compliance Matrix: (Units=1/GPa)
#
#
# Indices 1 2 3 4 5 6 
#
# 1 0.042422 -0.002213 -0.001703 0.000000 0.013682 0.000000
# 2 -0.002213 0.010060 -0.001487 0.000000 0.002778 0.000000
# 3 -0.001703 -0.001487 0.013252 0.000000 0.008344 0.000000
# 4 0.000000 0.000000 0.000000 0.054512 0.000000 0.036387
# 5 0.013682 0.002778 0.008344 0.000000 0.033505 0.000000
# 6 0.000000 0.000000 0.000000 0.036387 0.000000 0.082453
#
#
# Mechanical properties :
#
#
# Convention : Reuss Voigt Hill
#
# Bulk Modulus (GPa) = 18.20596 40.61967 29.41282
# Shear Modulus (GPa) = 18.84520 30.63500 24.74010
#
# Velocity S-wave (km/s) = 2.86637 3.65461 3.28422
# Velocity P-wave (km/s) = 4.34651 5.95965 5.21582
#
# Compressibility (1/GPa) = 0.05492708
#
# Stress axis : x y z
#
# Youngs Moduli (GPa) = 23.57289 99.39905 75.45993
#
# Poissons Ratio (x) = 0.21999 0.12854
# Poissons Ratio (y) = 0.05217 0.11220
# Poissons Ratio (z) = 0.04015 0.14780
#
# Static dielectric constant tensor:
#      x y z
#    x 1.898840 0.000000 -0.020790 
#    y 0.000000 1.822830 0.000000 
#    z -0.020790 0.000000 1.881930 
# 
# From -- ./inp_files/87941.got.cif
#   From: 2010.05.17/outbox.cif.g08.bks.cpg/sg12_44_cif.got.tgz:87941.got - 2010.06.03 13:09:07.
