data_PCOD9215687
_publ_section_title
;
Structure prediction by ZEFSAII (Michael W. Deem and Ramdas Pophale) SiO2 
 PCOD9215687
Probable space group: C 2/M
;
_chemical_formula_sum "Si O2"
_cell_formula_units_Z 30
_cell_length_a 13.644309
_cell_length_b 15.098961
_cell_length_c 8.824457
_cell_angle_alpha 90.000000
_cell_angle_beta 59.343136
_cell_angle_gamma 90.000000
_cell_volume 1563.883563
_symmetry_space_group_name_H-M "C 2/M"
_symmetry_group_IT_number 12
_symmetry_cell_setting 'monoclinic'
loop_
_space_group_symop_operation_xyz
x,y,z
-x,y,-z
-x,-y,-z
x,-y,z
1/2+x,1/2+y,z
1/2-x,1/2+y,-z
1/2-x,1/2-y,-z
1/2+x,1/2-y,z
loop_
_atom_site_type_symbol
_atom_site_label
_atom_site_fract_x
_atom_site_fract_y
_atom_site_fract_z
Si Si1 0.868618 0.323975 0.561111
Si Si2 0.580927 0.500000 0.584115
Si Si3 0.244845 0.647038 0.656403
Si Si4 0.131154 0.500000 0.946812
Si Si5 0.000000 0.000000 0.000000
Si Si6 0.775919 0.500000 0.791491
O O1 0.848641 0.327665 0.396026
O O2 0.802591 0.236604 0.668918
O O3 0.815282 0.412608 0.671661
O O4 0.000000 0.318607 0.500000
O O5 0.500000 0.500000 0.500000
O O6 0.660371 0.586708 0.502173
O O7 0.521251 0.500000 0.794354
O O8 0.190420 0.586030 0.826970
O O9 0.156257 0.500000 0.103960
O O10 0.000000 0.500000 0.000000
O O11 0.139738 0.000000 0.915460
#
# Coordination Sequence:
#
# PCOD9215687 Si02
#       6
#     8   4   8   4   2   4
#     4  11  22  41  67  90 123 173 222 269 322 399
#     4  11  21  41  67  93 131 177 212 276 332 397
#     4  10  22  42  62  94 126 167 223 256 337 395
#     4  11  23  43  65  96 135 170 212 278 334 400
#     4  12  22  40  62  98 136 162 224 266 328 404
#     4  12  24  40  63  97 128 172 220 271 333 392
#
# _framework density 19.183014
#
# number of rings (size 3 to 8) (size 9 to 14) (size 15 to 20)
#    0.000    1.067    2.667    5.200    0.000    1.067 
#    2.400    0.000    0.000    0.000    0.000    0.000 
#    0.000    0.000    0.000    0.000    0.000    0.000 
#
# Total GULP energy -83567.019608 kJ/mol
# GULP energy per Si atom -5571.134641 kJ/mol
# Density = 1.913935 g / cm^3
# Si number density = 19.183014 Si / 1000 Ang^3
#
#
#
# Elastic Constant Matrix: (Units=GPa)
#
#
# Indices 1 2 3 4 5 6 
#
# 1 180.4981 46.6443 39.0725 0.0000 -1.2387 0.0000
# 2 46.6443 169.2481 43.2362 0.0000 -18.4945 0.0000
# 3 39.0725 43.2362 86.6611 0.0000 0.6279 0.0000
# 4 0.0000 0.0000 0.0000 5.7453 0.0000 2.4133
# 5 -1.2387 -18.4945 0.6279 0.0000 28.7967 0.0000
# 6 0.0000 0.0000 0.0000 2.4133 0.0000 19.1452
#
#
#
# Elastic Compliance Matrix: (Units=1/GPa)
#
#
# Indices 1 2 3 4 5 6 
#
# 1 0.006339 -0.001225 -0.002244 0.000000 -0.000465 0.000000
# 2 -0.001225 0.007623 -0.003286 0.000000 0.004915 0.000000
# 3 -0.002244 -0.003286 0.014209 0.000000 -0.002517 0.000000
# 4 0.000000 0.000000 0.000000 0.183787 0.000000 -0.023167
# 5 -0.000465 0.004915 -0.002517 0.000000 0.037917 0.000000
# 6 0.000000 0.000000 0.000000 -0.023167 0.000000 0.055153
#
#
# Mechanical properties :
#
#
# Convention : Reuss Voigt Hill
#
# Bulk Modulus (GPa) = 68.20928 77.14595 72.67761
# Shear Modulus (GPa) = 15.45954 31.23439 23.34697
#
# Velocity S-wave (km/s) = 2.84191 4.03951 3.49243
# Velocity P-wave (km/s) = 6.81197 7.87781 7.36420
#
# Compressibility (1/GPa) = 0.01466076
#
# Stress axis : x y z
#
# Youngs Moduli (GPa) = 157.74799 131.18897 70.37935
#
# Poissons Ratio (x) = 0.16067 0.15791
# Poissons Ratio (y) = 0.19319 0.23130
# Poissons Ratio (z) = 0.35395 0.43114
#
# Static dielectric constant tensor:
#      x y z
#    x 1.676530 0.000000 0.015890 
#    y 0.000000 1.660740 0.000000 
#    z 0.015890 0.000000 1.650330 
# 
# From -- ./inp_files/45081.got.cif
#   From: 2010.05.17/outbox.cif.g08.bks.cpg/sg12_23_cif.got.tgz:45081.got - 2010.06.03 13:09:07.
