data_PCOD9215917
_publ_section_title
;
Structure prediction by ZEFSAII (Michael W. Deem and Ramdas Pophale) SiO2 
 PCOD9215917
Probable space group: C 2/M
;
_chemical_formula_sum "Si O2"
_cell_formula_units_Z 64
_cell_length_a 16.273419
_cell_length_b 28.488639
_cell_length_c 9.038281
_cell_angle_alpha 90.000000
_cell_angle_beta 42.573776
_cell_angle_gamma 90.000000
_cell_volume 2834.844093
_symmetry_space_group_name_H-M "C 2/M"
_symmetry_group_IT_number 12
_symmetry_cell_setting 'monoclinic'
loop_
_space_group_symop_operation_xyz
x,y,z
-x,y,-z
-x,-y,-z
x,-y,z
1/2+x,1/2+y,z
1/2-x,1/2+y,-z
1/2-x,1/2-y,-z
1/2+x,1/2-y,z
loop_
_atom_site_type_symbol
_atom_site_label
_atom_site_fract_x
_atom_site_fract_y
_atom_site_fract_z
Si Si1 0.288546 0.857587 0.937700
Si Si2 0.646198 0.877654 0.814931
Si Si3 0.296209 0.555921 0.429124
Si Si4 0.522928 0.444866 0.306637
Si Si5 0.399470 0.680277 0.007487
Si Si6 0.297195 0.199711 0.489641
Si Si7 0.954796 0.267934 0.721305
Si Si8 0.221434 0.446036 0.195595
O O1 0.151186 0.853328 0.055198
O O2 0.346640 0.805505 0.846746
O O3 0.351905 0.900852 0.765971
O O4 0.304081 0.871633 0.086722
O O5 0.694646 0.924706 0.674187
O O6 0.707223 0.836685 0.637103
O O7 0.500000 0.874517 0.000000
O O8 0.296541 0.500000 0.428620
O O9 0.426607 0.574239 0.314054
O O10 0.265836 0.567803 0.300586
O O11 0.500000 0.423991 0.500000
O O12 0.487227 0.500000 0.366940
O O13 0.660429 0.447216 0.067501
O O14 0.282647 0.685936 0.265754
O O15 0.500000 0.668994 0.000000
O O16 0.431933 0.727422 0.872665
O O17 0.250000 0.250000 0.500000
O O18 0.434886 0.202507 0.358576
O O19 0.000000 0.249945 0.500000
O O20 0.171712 0.500000 0.262947
#
# Coordination Sequence:
#
# PCOD9215917 Si02
#       8
#     8   8   8   8   8   8   8   8
#     4  12  26  43  70 106 144 186 246 295 354 429
#     4  12  27  46  72 100 139 189 245 300 361 425
#     4  10  22  42  69 100 139 190 244 297 361 428
#     4   9  17  34  63  97 134 177 224 284 356 419
#     4  12  27  46  73 110 146 187 235 292 357 433
#     4  12  25  46  73  99 142 187 228 292 359 431
#     4  12  26  46  75 104 145 189 235 293 362 430
#     4  10  22  42  68 101 147 193 238 295 359 425
#
# _framework density 22.576198000000002
#
# number of rings (size 3 to 8) (size 9 to 14) (size 15 to 20)
#    0.000    0.875    3.750    3.000    1.750    5.250 
#    0.000    1.875    0.000    1.875    0.000    0.000 
#    0.000    0.000    0.000    0.000    0.000    0.000 
#
# Total GULP energy -178710.137116 kJ/mol
# GULP energy per Si atom -5584.691785 kJ/mol
# Density = 2.252481 g / cm^3
# Si number density = 22.576198 Si / 1000 Ang^3
#
#
#
# Elastic Constant Matrix: (Units=GPa)
#
#
# Indices 1 2 3 4 5 6 
#
# 1 145.5903 32.5765 37.7382 0.0000 34.0298 0.0000
# 2 32.5765 30.7279 2.1738 0.0000 16.1905 0.0000
# 3 37.7382 2.1738 75.2743 0.0000 20.0934 0.0000
# 4 0.0000 0.0000 0.0000 16.8066 0.0000 8.3515
# 5 34.0298 16.1905 20.0934 0.0000 36.4488 0.0000
# 6 0.0000 0.0000 0.0000 8.3515 0.0000 19.6180
#
#
#
# Elastic Compliance Matrix: (Units=1/GPa)
#
#
# Indices 1 2 3 4 5 6 
#
# 1 0.010914 -0.009303 -0.004205 0.000000 -0.003739 0.000000
# 2 -0.009303 0.051739 0.008192 0.000000 -0.018813 0.000000
# 3 -0.004205 0.008192 0.017682 0.000000 -0.009460 0.000000
# 4 0.000000 0.000000 0.000000 0.075464 0.000000 -0.032126
# 5 -0.003739 -0.018813 -0.009460 0.000000 0.044499 0.000000
# 6 0.000000 0.000000 0.000000 -0.032126 0.000000 0.064650
#
#
# Mechanical properties :
#
#
# Convention : Reuss Voigt Hill
#
# Bulk Modulus (GPa) = 14.34667 44.06329 29.20498
# Shear Modulus (GPa) = 16.73279 26.51496 21.62387
#
# Velocity S-wave (km/s) = 2.72540 3.43076 3.09822
# Velocity P-wave (km/s) = 4.03389 5.93746 5.07572
#
# Compressibility (1/GPa) = 0.06970257
#
# Stress axis : x y z
#
# Youngs Moduli (GPa) = 91.62412 19.32765 56.55599
#
# Poissons Ratio (x) = 0.17981 0.23781
# Poissons Ratio (y) = 0.85238 -0.46329
# Poissons Ratio (z) = 0.38527 -0.15833
#
# Static dielectric constant tensor:
#      x y z
#    x 1.873700 0.000000 -0.081930 
#    y 0.000000 1.932380 0.000000 
#    z -0.081930 0.000000 1.467350 
# 
# From -- ./inp_files/68597.got.cif
#   From: 2010.05.17/outbox.cif.g08.bks.cpg/sg12_35_cif.got.tgz:68597.got - 2010.06.03 13:09:07.
