data_PCOD9215357
_publ_section_title
;
Structure prediction by ZEFSAII (Michael W. Deem and Ramdas Pophale) SiO2 
 PCOD9215357
Probable space group: C 2/M
;
_chemical_formula_sum "Si O2"
_cell_formula_units_Z 48
_cell_length_a 19.867429
_cell_length_b 12.084721
_cell_length_c 25.489552
_cell_angle_alpha 90.000000
_cell_angle_beta 22.928565
_cell_angle_gamma 90.000000
_cell_volume 2384.188991
_symmetry_space_group_name_H-M "C 2/M"
_symmetry_group_IT_number 12
_symmetry_cell_setting 'monoclinic'
loop_
_space_group_symop_operation_xyz
x,y,z
-x,y,-z
-x,-y,-z
x,-y,z
1/2+x,1/2+y,z
1/2-x,1/2+y,-z
1/2-x,1/2-y,-z
1/2+x,1/2-y,z
loop_
_atom_site_type_symbol
_atom_site_label
_atom_site_fract_x
_atom_site_fract_y
_atom_site_fract_z
Si Si1 0.104982 0.759894 0.813903
Si Si2 0.784165 0.129458 0.505713
Si Si3 0.395346 0.731538 0.687620
Si Si4 0.279733 0.632898 0.093225
Si Si5 0.516410 0.128113 0.193397
Si Si6 0.857531 0.619132 0.556991
O O1 0.254538 0.707742 0.743288
O O2 0.001397 0.675783 0.851778
O O3 0.195121 0.834230 0.704526
O O4 0.976016 0.831385 0.941835
O O5 0.750000 0.250000 0.500000
O O6 0.660703 0.138829 0.645650
O O7 0.988825 0.133805 0.371788
O O8 0.746924 0.000000 0.512992
O O9 0.299889 0.802929 0.800381
O O10 0.546102 0.805995 0.553790
O O11 0.265092 0.500000 0.110557
O O12 0.167521 0.670304 0.123122
O O13 0.553077 0.000000 0.161024
O O14 0.816337 0.500000 0.563713
O O15 0.000000 0.608791 0.500000
#
# Coordination Sequence:
#
# PCOD9215357 Si02
#       6
#     8   8   8   8   8   8
#     4  11  22  38  60  92 129 167 219 270 332 393
#     4  11  23  43  69 100 133 173 223 275 333 399
#     4  11  22  38  62  93 128 167 215 276 333 390
#     4  11  23  40  63  92 131 179 224 272 331 396
#     4  10  22  41  65  90 126 172 220 273 329 394
#     4   9  18  32  52  83 123 162 206 261 319 379
#
# _framework density 20.132632000000001
#
# number of rings (size 3 to 8) (size 9 to 14) (size 15 to 20)
#    0.000    1.500    3.333    2.000    0.000    4.000 
#    0.000    2.500    0.000    2.000    0.000    0.000 
#    0.000    0.000    0.000    0.000    0.000    0.000 
#
# Total GULP energy -133628.037106 kJ/mol
# GULP energy per Si atom -5567.834879 kJ/mol
# Density = 2.008681 g / cm^3
# Si number density = 20.132632 Si / 1000 Ang^3
#
#
#
# Elastic Constant Matrix: (Units=GPa)
#
#
# Indices 1 2 3 4 5 6 
#
# 1 97.2634 33.1179 11.6923 -0.0026 -10.8507 -0.0010
# 2 33.1179 77.8789 18.1423 -0.0112 7.8749 -0.0054
# 3 11.6923 18.1423 102.7910 -0.0285 5.3444 -0.0094
# 4 -0.0026 -0.0112 -0.0285 23.6096 -0.0031 -10.0155
# 5 -10.8507 7.8749 5.3444 -0.0031 30.4093 0.0003
# 6 -0.0010 -0.0054 -0.0094 -10.0155 0.0003 18.7337
#
#
#
# Elastic Compliance Matrix: (Units=1/GPa)
#
#
# Indices 1 2 3 4 5 6 
#
# 1 0.013150 -0.006062 -0.000758 -0.000003 0.006395 -0.000003
# 2 -0.006062 0.016478 -0.001902 0.000007 -0.006096 0.000007
# 3 -0.000758 -0.001902 0.010232 0.000017 -0.001576 0.000014
# 4 -0.000003 0.000007 0.000017 0.054779 -0.000001 0.029286
# 5 0.006395 -0.006096 -0.001576 -0.000001 0.037022 -0.000003
# 6 -0.000003 0.000007 0.000014 0.029286 -0.000003 0.069037
#
#
# Mechanical properties :
#
#
# Convention : Reuss Voigt Hill
#
# Bulk Modulus (GPa) = 44.61140 44.87091 44.74116
# Shear Modulus (GPa) = 22.16161 28.88258 25.52209
#
# Velocity S-wave (km/s) = 3.32140 3.79174 3.56434
# Velocity P-wave (km/s) = 6.07584 6.44250 6.26185
#
# Compressibility (1/GPa) = 0.02241579
#
# Stress axis : x y z
#
# Youngs Moduli (GPa) = 76.04492 60.68773 97.72912
#
# Poissons Ratio (x) = 0.36789 0.07412
# Poissons Ratio (y) = 0.46099 0.18586
# Poissons Ratio (z) = 0.05767 0.11541
#
# Static dielectric constant tensor:
#      x y z
#    x 1.872710 0.000030 -0.082320 
#    y 0.000030 1.779700 0.000000 
#    z -0.082320 0.000000 1.730590 
# 
# From -- ./inp_files/366150.got.cif
#   From: 2010.05.17/outbox.cif.g08.bks.cpg/sg12_184_cif.got.tgz:366150.got - 2010.06.03 13:09:07.
