data_PCOD9215828
_publ_section_title
;
Structure prediction by ZEFSAII (Michael W. Deem and Ramdas Pophale) SiO2 
 PCOD9215828
Probable space group: C 2/M
;
_chemical_formula_sum "Si O2"
_cell_formula_units_Z 30
_cell_length_a 23.067864
_cell_length_b 10.525939
_cell_length_c 5.073155
_cell_angle_alpha 90.000000
_cell_angle_beta 98.575725
_cell_angle_gamma 90.000000
_cell_volume 1218.045326
_symmetry_space_group_name_H-M "C 2/M"
_symmetry_group_IT_number 12
_symmetry_cell_setting 'monoclinic'
loop_
_space_group_symop_operation_xyz
x,y,z
-x,y,-z
-x,-y,-z
x,-y,z
1/2+x,1/2+y,z
1/2-x,1/2+y,-z
1/2-x,1/2-y,-z
1/2+x,1/2-y,z
loop_
_atom_site_type_symbol
_atom_site_label
_atom_site_fract_x
_atom_site_fract_y
_atom_site_fract_z
Si Si1 0.000000 0.000000 0.000000
Si Si2 0.325316 0.285305 0.251111
Si Si3 0.559949 0.290105 0.370619
Si Si4 0.458009 0.000000 0.723285
Si Si5 0.696733 0.863872 0.260812
O O1 0.046241 0.112291 0.129495
O O2 0.385746 0.334879 0.411987
O O3 0.310382 0.166850 0.436444
O O4 0.266266 0.364950 0.245825
O O5 0.329230 0.242084 0.951915
O O6 0.500000 0.295492 0.500000
O O7 0.570452 0.141546 0.303222
O O8 0.500000 0.000000 0.500000
O O9 0.500000 0.000000 0.000000
O O10 0.671298 0.000000 0.173708
#
# Coordination Sequence:
#
# PCOD9215828 Si02
#       5
#     2   8   8   4   8
#     4  12  26  46  68  98 152 186 234 272 364 430
#     4  10  24  42  67  98 133 176 230 279 347 406
#     4  11  26  46  68 104 139 186 230 289 345 424
#     4  10  22  42  66  92 132 174 228 272 323 393
#     4  10  22  43  67  99 130 176 228 286 342 405
#
# _framework density 24.629622999999999
#
# number of rings (size 3 to 8) (size 9 to 14) (size 15 to 20)
#    0.000    1.600    1.333    1.200    9.333    0.000 
#    0.000    0.000    0.000    0.000    0.000    0.000 
#    0.000    0.000    0.000    0.000    0.000    0.000 
#
# Total GULP energy -83549.738135 kJ/mol
# GULP energy per Si atom -5569.982542 kJ/mol
# Density = 2.457356 g / cm^3
# Si number density = 24.629623 Si / 1000 Ang^3
#
#
#
# Elastic Constant Matrix: (Units=GPa)
#
#
# Indices 1 2 3 4 5 6 
#
# 1 105.2240 17.8974 26.4244 0.0000 26.9114 0.0000
# 2 17.8974 142.8820 23.0569 0.0000 10.7503 0.0000
# 3 26.4244 23.0569 113.1255 0.0000 27.2251 0.0000
# 4 0.0000 0.0000 0.0000 -2.6526 0.0000 20.2393
# 5 26.9114 10.7503 27.2251 0.0000 60.4538 0.0000
# 6 0.0000 0.0000 0.0000 20.2393 0.0000 15.4125
#
#
#
# Elastic Compliance Matrix: (Units=1/GPa)
#
#
# Indices 1 2 3 4 5 6 
#
# 1 0.011061 -0.000846 -0.001416 0.000000 -0.004136 0.000000
# 2 -0.000846 0.007328 -0.001203 0.000000 -0.000385 0.000000
# 3 -0.001416 -0.001203 0.010332 0.000000 -0.003809 0.000000
# 4 0.000000 0.000000 0.000000 -0.034211 0.000000 0.044925
# 5 -0.004136 -0.000385 -0.003809 0.000000 0.020166 0.000000
# 6 0.000000 0.000000 0.000000 0.044925 0.000000 0.005888
#
#
# Mechanical properties :
#
#
# Convention : Reuss Voigt Hill
#
# Bulk Modulus (GPa) = 45.89117 55.10987 50.50052
# Shear Modulus (GPa) = 143.85099 34.23292 89.04195
#
# Velocity S-wave (km/s) = 7.65065 3.73219 6.01921
# Velocity P-wave (km/s) = 9.83444 6.40284 8.29797
#
# Compressibility (1/GPa) = 0.02179068
#
# Stress axis : x y z
#
# Youngs Moduli (GPa) = 90.41029 136.46551 96.78295
#
# Poissons Ratio (x) = 0.11542 0.13704
# Poissons Ratio (y) = 0.07647 0.11647
# Poissons Ratio (z) = 0.12801 0.16422
#
# Static dielectric constant tensor:
#      x y z
#    x 2.025140 0.000000 -0.017470 
#    y 0.000000 1.940990 0.000000 
#    z -0.017470 0.000000 1.861920 
# 
# From -- ./inp_files/23457.got.cif
#   From: 2010.05.17/outbox.cif.g08.bks.cpg/sg12_12_cif.got.tgz:23457.got - 2010.06.03 13:09:07.
