data_PCOD9215947
_publ_section_title
;
Structure prediction by ZEFSAII (Michael W. Deem and Ramdas Pophale) SiO2 
 PCOD9215947
Probable space group: C 2/M
;
_chemical_formula_sum "Si O2"
_cell_formula_units_Z 48
_cell_length_a 8.576786
_cell_length_b 27.647803
_cell_length_c 9.910073
_cell_angle_alpha 90.000000
_cell_angle_beta 89.040174
_cell_angle_gamma 90.000000
_cell_volume 2349.638839
_symmetry_space_group_name_H-M "C 2/M"
_symmetry_group_IT_number 12
_symmetry_cell_setting 'monoclinic'
loop_
_space_group_symop_operation_xyz
x,y,z
-x,y,-z
-x,-y,-z
x,-y,z
1/2+x,1/2+y,z
1/2-x,1/2+y,-z
1/2-x,1/2-y,-z
1/2+x,1/2-y,z
loop_
_atom_site_type_symbol
_atom_site_label
_atom_site_fract_x
_atom_site_fract_y
_atom_site_fract_z
Si Si1 0.327256 0.206592 0.210356
Si Si2 0.820387 0.152304 0.537968
Si Si3 0.651629 0.944112 0.905905
Si Si4 0.181699 0.854315 0.984702
Si Si5 0.689148 0.810834 0.266625
Si Si6 0.347274 0.055715 0.410789
O O1 0.225454 0.177337 0.321342
O O2 0.280645 0.185397 0.066108
O O3 0.508019 0.197288 0.238267
O O4 0.283645 0.262401 0.227827
O O5 0.717497 0.175945 0.421086
O O6 0.778595 0.095818 0.548820
O O7 0.000000 0.160179 0.500000
O O8 0.780323 0.905794 0.949078
O O9 0.613904 0.937536 0.748281
O O10 0.698798 0.000000 0.924814
O O11 0.500000 0.934974 0.000000
O O12 0.240321 0.852226 0.830505
O O13 0.000000 0.842977 0.000000
O O14 0.500000 0.063427 0.500000
O O15 0.296411 0.000000 0.429983
#
# Coordination Sequence:
#
# PCOD9215947 Si02
#       6
#     8   8   8   8   8   8
#     4  12  24  46  65  94 129 170 218 263 319 383
#     4  12  25  42  65  97 132 169 213 266 322 380
#     4  10  22  42  68  97 130 169 214 264 321 386
#     4  12  25  42  65  97 132 169 213 266 322 380
#     4  12  26  42  69  94 129 172 214 265 319 381
#     4  10  22  42  68  97 130 169 214 264 321 386
#
# _framework density 20.428673
#
# number of rings (size 3 to 8) (size 9 to 14) (size 15 to 20)
#    0.000    0.667    1.667    7.000    2.333    0.667 
#    0.000    0.000    0.000    0.000    0.000    0.000 
#    0.000    0.000    0.000    0.000    0.000    0.000 
#
# Total GULP energy -134360.256826 kJ/mol
# GULP energy per Si atom -5598.344034 kJ/mol
# Density = 2.038218 g / cm^3
# Si number density = 20.428673 Si / 1000 Ang^3
#
#
#
# Elastic Constant Matrix: (Units=GPa)
#
#
# Indices 1 2 3 4 5 6 
#
# 1 107.2156 14.3036 -5.1627 0.0000 -1.3976 0.0000
# 2 14.3036 64.2582 4.6220 0.0000 9.0954 0.0000
# 3 -5.1627 4.6220 38.0731 0.0000 0.0718 0.0000
# 4 0.0000 0.0000 0.0000 25.5210 0.0000 -4.4617
# 5 -1.3976 9.0954 0.0718 0.0000 26.7347 0.0000
# 6 0.0000 0.0000 0.0000 -4.4617 0.0000 24.1949
#
#
#
# Elastic Compliance Matrix: (Units=1/GPa)
#
#
# Indices 1 2 3 4 5 6 
#
# 1 0.009753 -0.002479 0.001621 0.000000 0.001349 0.000000
# 2 -0.002479 0.017129 -0.002404 0.000000 -0.005951 0.000000
# 3 0.001621 -0.002404 0.026775 0.000000 0.000831 0.000000
# 4 0.000000 0.000000 0.000000 0.040489 0.000000 0.007466
# 5 0.001349 -0.005951 0.000831 0.000000 0.039497 0.000000
# 6 0.000000 0.000000 0.000000 0.007466 0.000000 0.042708
#
#
# Mechanical properties :
#
#
# Convention : Reuss Voigt Hill
#
# Bulk Modulus (GPa) = 21.21616 26.34143 23.77879
# Shear Modulus (GPa) = 25.17789 28.34239 26.76014
#
# Velocity S-wave (km/s) = 3.51448 3.72880 3.62322
# Velocity P-wave (km/s) = 5.18428 5.60900 5.40082
#
# Compressibility (1/GPa) = 0.04713389
#
# Stress axis : x y z
#
# Youngs Moduli (GPa) = 102.52942 58.38002 37.34771
#
# Poissons Ratio (x) = 0.14470 -0.06054
# Poissons Ratio (y) = 0.25412 0.08980
# Poissons Ratio (z) = -0.16619 0.14037
#
# Static dielectric constant tensor:
#      x y z
#    x 1.677730 0.000000 0.003780 
#    y 0.000000 1.727370 0.000000 
#    z 0.003780 0.000000 1.698130 
# 
# From -- ./inp_files/42177.got.cif
#   From: 2010.05.17/outbox.cif.g08.bks.cpg/sg12_22_cif.got.tgz:42177.got - 2010.06.03 13:09:07.
