data_PCOD9215869
_publ_section_title
;
Structure prediction by ZEFSAII (Michael W. Deem and Ramdas Pophale) SiO2 
 PCOD9215869
Probable space group: C 2/M
;
_chemical_formula_sum "Si O2"
_cell_formula_units_Z 36
_cell_length_a 9.657207
_cell_length_b 22.050950
_cell_length_c 10.962664
_cell_angle_alpha 90.000000
_cell_angle_beta 48.665442
_cell_angle_gamma 90.000000
_cell_volume 1752.900801
_symmetry_space_group_name_H-M "C 2/M"
_symmetry_group_IT_number 12
_symmetry_cell_setting 'monoclinic'
loop_
_space_group_symop_operation_xyz
x,y,z
-x,y,-z
-x,-y,-z
x,-y,z
1/2+x,1/2+y,z
1/2-x,1/2+y,-z
1/2-x,1/2-y,-z
1/2+x,1/2-y,z
loop_
_atom_site_type_symbol
_atom_site_label
_atom_site_fract_x
_atom_site_fract_y
_atom_site_fract_z
Si Si1 0.500000 0.154929 0.500000
Si Si2 0.675177 0.745292 0.763369
Si Si3 0.538855 0.134734 0.740554
Si Si4 0.646587 0.429886 0.306192
Si Si5 0.179829 0.172567 0.098141
O O1 0.333629 0.199738 0.631344
O O2 0.533903 0.116865 0.602575
O O3 0.645975 0.800824 0.686368
O O4 0.731528 0.780878 0.854276
O O5 0.488551 0.706233 0.868256
O O6 0.653330 0.088421 0.756647
O O7 0.339825 0.149138 0.915104
O O8 0.500000 0.419873 0.500000
O O9 0.640937 0.500000 0.273522
O O10 0.608339 0.384259 0.218140
#
# Coordination Sequence:
#
# PCOD9215869 Si02
#       5
#     4   8   8   8   8
#     4  12  24  34  59  86 135 168 206 252 306 378
#     4  11  22  38  56  92 126 167 203 254 308 370
#     4  11  24  37  58  92 124 167 205 253 306 367
#     4  10  22  42  67  92 120 158 211 262 306 368
#     4  11  24  38  64  91 130 163 209 252 312 369
#
# _framework density 20.537386999999999
#
# number of rings (size 3 to 8) (size 9 to 14) (size 15 to 20)
#    0.000    1.111    2.222    5.333    9.333    1.778 
#    0.000    0.556    0.000    1.333    0.000    6.222 
#    0.000    0.000    0.000    0.000    0.000    0.000 
#
# Total GULP energy -100675.895700 kJ/mol
# GULP energy per Si atom -5593.105317 kJ/mol
# Density = 2.049064 g / cm^3
# Si number density = 20.537387 Si / 1000 Ang^3
#
#
#
# Elastic Constant Matrix: (Units=GPa)
#
#
# Indices 1 2 3 4 5 6 
#
# 1 94.0636 22.9873 40.4295 0.0000 1.6080 0.0000
# 2 22.9873 98.7143 32.9661 0.0000 1.9819 0.0000
# 3 40.4295 32.9661 80.6184 0.0000 4.8876 0.0000
# 4 0.0000 0.0000 0.0000 24.5679 0.0000 -0.1629
# 5 1.6080 1.9819 4.8876 0.0000 39.4846 0.0000
# 6 0.0000 0.0000 0.0000 -0.1629 0.0000 20.1253
#
#
#
# Elastic Compliance Matrix: (Units=1/GPa)
#
#
# Indices 1 2 3 4 5 6 
#
# 1 0.013646 -0.001033 -0.006439 0.000000 0.000293 0.000000
# 2 -0.001033 0.011811 -0.004310 0.000000 -0.000017 0.000000
# 3 -0.006439 -0.004310 0.017498 0.000000 -0.001687 0.000000
# 4 0.000000 0.000000 0.000000 0.040706 0.000000 0.000330
# 5 0.000293 -0.000017 -0.001687 0.000000 0.025524 0.000000
# 6 0.000000 0.000000 0.000000 0.000330 0.000000 0.049691
#
#
# Mechanical properties :
#
#
# Convention : Reuss Voigt Hill
#
# Bulk Modulus (GPa) = 51.57290 51.79581 51.68435
# Shear Modulus (GPa) = 26.46854 28.63646 27.55250
#
# Velocity S-wave (km/s) = 3.59388 3.73816 3.66673
# Velocity P-wave (km/s) = 6.51057 6.62622 6.56865
#
# Compressibility (1/GPa) = 0.01939003
#
# Stress axis : x y z
#
# Youngs Moduli (GPa) = 73.28159 84.66923 57.14990
#
# Poissons Ratio (x) = 0.08750 0.36796
# Poissons Ratio (y) = 0.07573 0.24633
# Poissons Ratio (z) = 0.47183 0.36495
#
# Static dielectric constant tensor:
#      x y z
#    x 1.772870 0.000000 0.018780 
#    y 0.000000 1.688830 0.000000 
#    z 0.018780 0.000000 1.766240 
# 
# From -- ./inp_files/121619.got.cif
#   From: 2010.05.17/outbox.cif.g08.bks.cpg/sg12_61_cif.got.tgz:121619.got - 2010.06.03 13:09:07.
