data_PCOD9215041
_publ_section_title
;
Structure prediction by ZEFSAII (Michael W. Deem and Ramdas Pophale) SiO2 
 PCOD9215041
Probable space group: C 2/M
;
_chemical_formula_sum "Si O2"
_cell_formula_units_Z 48
_cell_length_a 18.171790
_cell_length_b 13.008642
_cell_length_c 14.807284
_cell_angle_alpha 90.000000
_cell_angle_beta 33.929162
_cell_angle_gamma 90.000000
_cell_volume 1953.752810
_symmetry_space_group_name_H-M "C 2/M"
_symmetry_group_IT_number 12
_symmetry_cell_setting 'monoclinic'
loop_
_space_group_symop_operation_xyz
x,y,z
-x,y,-z
-x,-y,-z
x,-y,z
1/2+x,1/2+y,z
1/2-x,1/2+y,-z
1/2-x,1/2-y,-z
1/2+x,1/2-y,z
loop_
_atom_site_type_symbol
_atom_site_label
_atom_site_fract_x
_atom_site_fract_y
_atom_site_fract_z
Si Si1 0.645294 0.214463 0.254383
Si Si2 0.067473 0.834573 0.025254
Si Si3 0.043083 0.111815 0.246924
Si Si4 0.882002 0.384953 0.460392
Si Si5 0.970014 0.387812 0.161649
Si Si6 0.802737 0.182009 0.613175
O O1 0.635853 0.293105 0.179815
O O2 0.515524 0.144662 0.378203
O O3 0.647407 0.289395 0.338663
O O4 0.776025 0.146738 0.129446
O O5 0.008420 0.880650 0.176815
O O6 0.053457 0.710888 0.049715
O O7 0.000000 0.865316 0.000000
O O8 0.913094 0.127129 0.440425
O O9 0.102118 0.000000 0.205088
O O10 0.836723 0.500000 0.526780
O O11 0.924704 0.379410 0.312347
O O12 0.781816 0.293975 0.587162
O O13 0.031070 0.500000 0.085955
O O14 0.832601 0.378307 0.248257
#
# Coordination Sequence:
#
# PCOD9215041 Si02
#       6
#     8   8   8   8   8   8
#     4  11  24  42  68  95 135 173 215 281 330 392
#     4  12  25  46  66  94 133 178 222 275 334 391
#     4  11  25  43  67  96 132 175 221 272 336 401
#     4  10  22  40  69  99 126 173 222 267 329 392
#     4  11  23  41  68  95 130 172 221 274 327 393
#     4  11  22  43  67  99 136 171 217 279 332 388
#
# _framework density 24.568103000000001
#
# number of rings (size 3 to 8) (size 9 to 14) (size 15 to 20)
#    0.000    1.000    5.000    3.500    0.000    5.333 
#    0.000    0.000    0.000    0.000    0.000    0.000 
#    0.000    0.000    0.000    0.000    0.000    0.000 
#
# Total GULP energy -134360.158637 kJ/mol
# GULP energy per Si atom -5598.339943 kJ/mol
# Density = 2.451219 g / cm^3
# Si number density = 24.568103 Si / 1000 Ang^3
#
#
#
# Elastic Constant Matrix: (Units=GPa)
#
#
# Indices 1 2 3 4 5 6 
#
# 1 107.1189 0.6571 10.4263 0.0000 26.7102 0.0000
# 2 0.6571 111.0522 -7.3663 0.0000 10.3137 0.0000
# 3 10.4263 -7.3663 40.6970 0.0000 15.2894 0.0000
# 4 0.0000 0.0000 0.0000 3.9042 0.0000 -9.3385
# 5 26.7102 10.3137 15.2894 0.0000 48.0142 0.0000
# 6 0.0000 0.0000 0.0000 -9.3385 0.0000 0.1744
#
#
#
# Elastic Compliance Matrix: (Units=1/GPa)
#
#
# Indices 1 2 3 4 5 6 
#
# 1 0.010874 0.000464 -0.000445 0.000000 -0.006007 0.000000
# 2 0.000464 0.009483 0.002794 0.000000 -0.003185 0.000000
# 3 -0.000445 0.002794 0.028765 0.000000 -0.009513 0.000000
# 4 0.000000 0.000000 0.000000 -0.002015 0.000000 -0.107927
# 5 -0.006007 -0.003185 -0.009513 0.000000 0.027882 0.000000
# 6 0.000000 0.000000 0.000000 -0.107927 0.000000 -0.045122
#
#
# Mechanical properties :
#
#
# Convention : Reuss Voigt Hill
#
# Bulk Modulus (GPa) = 18.26532 29.58914 23.92723
# Shear Modulus (GPa) = 117.67431 27.42863 72.55147
#
# Velocity S-wave (km/s) = 6.92829 3.34493 5.44012
# Velocity P-wave (km/s) = 8.45294 5.19499 7.01570
#
# Compressibility (1/GPa) = 0.05474855
#
# Stress axis : x y z
#
# Youngs Moduli (GPa) = 91.96471 105.45005 34.76406
#
# Poissons Ratio (x) = -0.04893 0.01547
# Poissons Ratio (y) = -0.04267 -0.09714
# Poissons Ratio (z) = 0.04093 -0.29464
#
# Static dielectric constant tensor:
#      x y z
#    x 1.946460 0.000000 0.021480 
#    y 0.000000 1.921000 0.000000 
#    z 0.021480 0.000000 1.971070 
# 
# From -- ./inp_files/225100.got.cif
#   From: 2010.05.17/outbox.cif.g08.bks.cpg/sg12_113_cif.got.tgz:225100.got - 2010.06.03 13:09:07.
