data_PCOD9215771
_publ_section_title
;
Structure prediction by ZEFSAII (Michael W. Deem and Ramdas Pophale) SiO2 
 PCOD9215771
Probable space group: C 2/M
;
_chemical_formula_sum "Si O2"
_cell_formula_units_Z 64
_cell_length_a 15.793554
_cell_length_b 8.687691
_cell_length_c 33.829236
_cell_angle_alpha 90.000000
_cell_angle_beta 45.943288
_cell_angle_gamma 90.000000
_cell_volume 3335.761436
_symmetry_space_group_name_H-M "C 2/M"
_symmetry_group_IT_number 12
_symmetry_cell_setting 'monoclinic'
loop_
_space_group_symop_operation_xyz
x,y,z
-x,y,-z
-x,-y,-z
x,-y,z
1/2+x,1/2+y,z
1/2-x,1/2+y,-z
1/2-x,1/2-y,-z
1/2+x,1/2-y,z
loop_
_atom_site_type_symbol
_atom_site_label
_atom_site_fract_x
_atom_site_fract_y
_atom_site_fract_z
Si Si1 0.875824 0.684264 0.062452
Si Si2 0.192433 0.315281 0.058940
Si Si3 0.552669 0.181841 0.439352
Si Si4 0.635299 0.681168 0.558112
Si Si5 0.474311 0.184791 0.328524
Si Si6 0.715029 0.815960 0.669182
Si Si7 0.260798 0.185717 0.740733
Si Si8 0.932395 0.814924 0.130449
O O1 0.860628 0.500000 0.069440
O O2 0.770092 0.755072 0.070658
O O3 0.889930 0.752816 0.101696
O O4 0.000000 0.715500 0.000000
O O5 0.195136 0.500000 0.057330
O O6 0.057865 0.256833 0.101989
O O7 0.250000 0.250000 0.000000
O O8 0.500000 0.205670 0.500000
O O9 0.474556 0.276005 0.433890
O O10 0.685329 0.238277 0.390475
O O11 0.544806 0.000000 0.432728
O O12 0.650208 0.500000 0.557041
O O13 0.750000 0.750000 0.500000
O O14 0.605448 0.751916 0.610171
O O15 0.411695 0.224838 0.307847
O O16 0.608229 0.238415 0.289531
O O17 0.475195 0.000000 0.331547
O O18 0.730316 0.757270 0.708473
O O19 0.729977 0.000000 0.662866
O O20 0.165114 0.224015 0.804971
O O21 0.263037 0.000000 0.735939
O O22 0.944434 0.000000 0.124328
#
# Coordination Sequence:
#
# PCOD9215771 Si02
#       8
#     8   8   8   8   8   8   8   8
#     4  11  23  40  65  97 133 173 216 267 325 385
#     4  12  24  40  65  96 132 174 217 269 326 387
#     4  11  23  39  60  88 124 164 206 258 319 381
#     4  12  24  38  60  91 124 161 206 258 317 381
#     4  10  22  42  65  90 126 166 207 259 317 376
#     4  11  23  39  64  95 125 165 212 262 316 377
#     4  10  23  44  67  91 128 174 215 262 316 377
#     4  11  24  42  66  98 133 174 221 267 321 384
#
# _framework density 19.186025000000001
#
# number of rings (size 3 to 8) (size 9 to 14) (size 15 to 20)
#    0.000    1.000    2.500    4.500    0.000    6.500 
#    0.000    1.250    0.000    0.000    0.000    0.000 
#    0.000    0.000    0.000    0.000    0.000    0.000 
#
# Total GULP energy -178963.976678 kJ/mol
# GULP energy per Si atom -5592.624271 kJ/mol
# Density = 1.914236 g / cm^3
# Si number density = 19.186025 Si / 1000 Ang^3
#
#
#
# Elastic Constant Matrix: (Units=GPa)
#
#
# Indices 1 2 3 4 5 6 
#
# 1 185.0686 53.2048 83.5804 0.0004 -8.8077 -0.0006
# 2 53.2048 54.7666 51.6016 0.0027 -6.7204 -0.0015
# 3 83.5804 51.6016 142.0613 0.0002 -8.6566 -0.0003
# 4 0.0004 0.0027 0.0002 20.1366 0.0004 -0.4291
# 5 -8.8077 -6.7204 -8.6566 0.0004 21.0970 0.0001
# 6 -0.0006 -0.0015 -0.0003 -0.4291 0.0001 33.2330
#
#
#
# Elastic Compliance Matrix: (Units=1/GPa)
#
#
# Indices 1 2 3 4 5 6 
#
# 1 0.008244 -0.005170 -0.002936 0.000001 0.000590 0.000000
# 2 -0.005170 0.031489 -0.008120 -0.000004 0.004541 0.000001
# 3 -0.002936 -0.008120 0.011778 0.000001 0.001021 0.000000
# 4 0.000001 -0.000004 0.000001 0.049675 -0.000002 0.000641
# 5 0.000590 0.004541 0.001021 -0.000002 0.049512 0.000000
# 6 0.000000 0.000001 0.000000 0.000641 0.000000 0.030099
#
#
# Mechanical properties :
#
#
# Convention : Reuss Voigt Hill
#
# Bulk Modulus (GPa) = 52.46649 84.29667 68.38158
# Shear Modulus (GPa) = 22.76853 27.79396 25.28124
#
# Velocity S-wave (km/s) = 3.44862 3.81025 3.63394
# Velocity P-wave (km/s) = 6.57746 7.96174 7.30247
#
# Compressibility (1/GPa) = 0.01905978
#
# Stress axis : x y z
#
# Youngs Moduli (GPa) = 121.30290 31.75696 84.90099
#
# Poissons Ratio (x) = 0.16417 0.24931
# Poissons Ratio (y) = 0.62708 0.68938
# Poissons Ratio (z) = 0.35620 0.25786
#
# Static dielectric constant tensor:
#      x y z
#    x 1.676370 0.000000 -0.015160 
#    y 0.000000 1.647560 0.000000 
#    z -0.015160 0.000000 1.651370 
# 
# From -- ./inp_files/375514.got.cif
#   From: 2010.05.17/outbox.cif.g08.bks.cpg/sg12_188_cif.got.tgz:375514.got - 2010.06.03 13:09:07.
