data_PCOD9215374
_publ_section_title
;
Structure prediction by ZEFSAII (Michael W. Deem and Ramdas Pophale) SiO2 
 PCOD9215374
Probable space group: C 2/M
;
_chemical_formula_sum "Si O2"
_cell_formula_units_Z 64
_cell_length_a 14.329197
_cell_length_b 17.804460
_cell_length_c 17.670923
_cell_angle_alpha 90.000000
_cell_angle_beta 132.196090
_cell_angle_gamma 90.000000
_cell_volume 3339.953605
_symmetry_space_group_name_H-M "C 2/M"
_symmetry_group_IT_number 12
_symmetry_cell_setting 'monoclinic'
loop_
_space_group_symop_operation_xyz
x,y,z
-x,y,-z
-x,-y,-z
x,-y,z
1/2+x,1/2+y,z
1/2-x,1/2+y,-z
1/2-x,1/2-y,-z
1/2+x,1/2-y,z
loop_
_atom_site_type_symbol
_atom_site_label
_atom_site_fract_x
_atom_site_fract_y
_atom_site_fract_z
Si Si1 0.022291 0.414563 0.761999
Si Si2 0.267940 0.588917 0.420789
Si Si3 0.814359 0.829392 0.296056
Si Si4 0.628270 0.278466 0.979495
Si Si5 0.539905 0.413301 0.343534
Si Si6 0.742423 0.826349 0.799018
Si Si7 0.042729 0.913256 0.166605
Si Si8 0.534188 0.869448 0.103144
O O1 0.046804 0.500000 0.752175
O O2 0.124172 0.362063 0.778038
O O3 0.021555 0.410750 0.853319
O O4 0.880565 0.393583 0.659522
O O5 0.279746 0.500000 0.407195
O O6 0.329358 0.639442 0.388955
O O7 0.338189 0.600488 0.538148
O O8 0.798781 0.740151 0.279604
O O9 0.684248 0.865977 0.194863
O O10 0.929593 0.858129 0.308883
O O11 0.672905 0.289664 0.089196
O O12 0.750000 0.250000 0.000000
O O13 0.568348 0.355908 0.917112
O O14 0.524032 0.213726 0.919230
O O15 0.499998 0.500000 0.336535
O O16 0.563923 0.406167 0.267868
O O17 0.830649 0.887001 0.806465
O O18 0.012130 0.000000 0.132093
O O19 0.500000 0.896827 0.000000
#
# Coordination Sequence:
#
# PCOD9215374 Si02
#       8
#     8   8   8   8   8   8   8   8
#     4  10  23  40  62  89 120 164 207 253 312 371
#     4   9  20  42  66  90 124 163 205 259 324 377
#     4  11  21  35  64  92 119 160 208 249 309 379
#     4  12  22  41  64  86 124 173 202 250 319 363
#     4  10  22  41  65  92 125 163 206 262 319 371
#     4  12  23  40  63  86 127 167 208 254 305 367
#     4  11  25  42  63  92 124 166 218 258 297 368
#     4  11  21  38  60  89 122 160 200 250 311 372
#
# _framework density 19.161942
#
# number of rings (size 3 to 8) (size 9 to 14) (size 15 to 20)
#    0.000    1.250    3.750    2.250    0.000    3.250 
#    0.000    4.375    0.000    3.000    0.000    0.000 
#    0.000    0.000    0.000    0.000    0.000    0.000 
#
# Total GULP energy -178782.833006 kJ/mol
# GULP energy per Si atom -5586.963531 kJ/mol
# Density = 1.911833 g / cm^3
# Si number density = 19.161942 Si / 1000 Ang^3
#
#
#
# Elastic Constant Matrix: (Units=GPa)
#
#
# Indices 1 2 3 4 5 6 
#
# 1 103.0606 42.9032 31.6689 0.0000 3.9611 0.0000
# 2 42.9032 78.9818 33.7782 0.0000 2.3281 0.0000
# 3 31.6689 33.7782 57.1047 0.0000 3.4863 0.0000
# 4 0.0000 0.0000 0.0000 23.3994 0.0000 2.7506
# 5 3.9611 2.3281 3.4863 0.0000 17.7085 0.0000
# 6 0.0000 0.0000 0.0000 2.7506 0.0000 34.3729
#
#
#
# Elastic Compliance Matrix: (Units=1/GPa)
#
#
# Indices 1 2 3 4 5 6 
#
# 1 0.013265 -0.005428 -0.004057 0.000000 -0.001455 0.000000
# 2 -0.005428 0.019171 -0.008350 0.000000 0.000338 0.000000
# 3 -0.004057 -0.008350 0.024878 0.000000 -0.002892 0.000000
# 4 0.000000 0.000000 0.000000 0.043142 0.000000 -0.003452
# 5 -0.001455 0.000338 -0.002892 0.000000 0.057321 0.000000
# 6 0.000000 0.000000 0.000000 -0.003452 0.000000 0.029369
#
#
# Mechanical properties :
#
#
# Convention : Reuss Voigt Hill
#
# Bulk Modulus (GPa) = 46.20392 50.64974 48.42683
# Shear Modulus (GPa) = 21.73633 23.81595 22.77614
#
# Velocity S-wave (km/s) = 3.37166 3.52927 3.45137
# Velocity P-wave (km/s) = 6.27074 6.56487 6.41949
#
# Compressibility (1/GPa) = 0.02164318
#
# Stress axis : x y z
#
# Youngs Moduli (GPa) = 75.38563 52.16295 40.19676
#
# Poissons Ratio (x) = 0.28312 0.16309
# Poissons Ratio (y) = 0.40917 0.33566
# Poissons Ratio (z) = 0.30585 0.43558
#
# Static dielectric constant tensor:
#      x y z
#    x 1.672350 0.000000 -0.001450 
#    y 0.000000 1.677330 0.000000 
#    z -0.001450 0.000000 1.652860 
# 
# From -- ./inp_files/270707.got.cif
#   From: 2010.05.17/outbox.cif.g08.bks.cpg/sg12_136_cif.got.tgz:270707.got - 2010.06.03 13:09:07.
