data_PCOD9215352
_publ_section_title
;
Structure prediction by ZEFSAII (Michael W. Deem and Ramdas Pophale) SiO2 
 PCOD9215352
Probable space group: C 2/M
;
_chemical_formula_sum "Si O2"
_cell_formula_units_Z 48
_cell_length_a 12.103995
_cell_length_b 18.323132
_cell_length_c 11.526722
_cell_angle_alpha 90.000000
_cell_angle_beta 82.298381
_cell_angle_gamma 90.000000
_cell_volume 2533.371599
_symmetry_space_group_name_H-M "C 2/M"
_symmetry_group_IT_number 12
_symmetry_cell_setting 'monoclinic'
loop_
_space_group_symop_operation_xyz
x,y,z
-x,y,-z
-x,-y,-z
x,-y,z
1/2+x,1/2+y,z
1/2-x,1/2+y,-z
1/2-x,1/2-y,-z
1/2+x,1/2-y,z
loop_
_atom_site_type_symbol
_atom_site_label
_atom_site_fract_x
_atom_site_fract_y
_atom_site_fract_z
Si Si1 0.486473 0.305849 0.698272
Si Si2 0.658006 0.087539 0.996928
Si Si3 0.914177 0.916651 0.906495
Si Si4 0.013598 0.355261 0.806856
Si Si5 0.319358 0.677355 0.506357
Si Si6 0.101064 0.584146 0.561125
O O1 0.451450 0.361061 0.803299
O O2 0.502403 0.225723 0.753885
O O3 0.598330 0.329748 0.614646
O O4 0.392158 0.311381 0.612038
O O5 0.789677 0.098723 0.969340
O O6 0.598708 0.133205 0.902243
O O7 0.635679 0.000000 0.987269
O O8 0.602825 0.115919 0.123752
O O9 0.914450 0.000000 0.861391
O O10 0.000000 0.912141 0.000000
O O11 0.061073 0.405278 0.697989
O O12 0.250000 0.750000 0.500000
O O13 0.223715 0.616843 0.529065
O O14 0.107890 0.500000 0.527486
O O15 0.000000 0.619516 0.500000
#
# Coordination Sequence:
#
# PCOD9215352 Si02
#       6
#     8   8   8   8   8   8
#     4  11  25  39  65  92 125 170 210 254 319 382
#     4  10  22  41  65  90 122 162 206 262 317 363
#     4  10  24  44  62  88 128 168 211 259 309 375
#     4  11  21  38  62  95 124 155 204 263 307 376
#     4  11  23  43  61  90 132 166 203 262 319 370
#     4  11  23  40  66  95 123 163 210 257 312 370
#
# _framework density 18.947082999999999
#
# number of rings (size 3 to 8) (size 9 to 14) (size 15 to 20)
#    0.000    1.333    1.667    4.000    2.333    6.000 
#    0.000    5.000    0.000    0.000    0.000    0.000 
#    0.000    0.000    0.000    0.000    0.000    0.000 
#
# Total GULP energy -133979.677001 kJ/mol
# GULP energy per Si atom -5582.486542 kJ/mol
# Density = 1.890396 g / cm^3
# Si number density = 18.947083 Si / 1000 Ang^3
#
#
#
# Elastic Constant Matrix: (Units=GPa)
#
#
# Indices 1 2 3 4 5 6 
#
# 1 148.9240 57.9934 63.4384 0.0000 -25.5742 0.0000
# 2 57.9934 91.8743 45.5216 0.0000 -10.4990 0.0000
# 3 63.4384 45.5216 107.0463 0.0000 -23.5995 0.0000
# 4 0.0000 0.0000 0.0000 1.3972 0.0000 -15.2263
# 5 -25.5742 -10.4990 -23.5995 0.0000 19.8601 0.0000
# 6 0.0000 0.0000 0.0000 -15.2263 0.0000 30.9142
#
#
#
# Elastic Compliance Matrix: (Units=1/GPa)
#
#
# Indices 1 2 3 4 5 6 
#
# 1 0.011210 -0.004739 -0.002707 0.000000 0.008713 0.000000
# 2 -0.004739 0.015796 -0.004625 0.000000 -0.003247 0.000000
# 3 -0.002707 -0.004625 0.015725 0.000000 0.012755 0.000000
# 4 0.000000 0.000000 0.000000 -0.163875 0.000000 -0.080714
# 5 0.008713 -0.003247 0.012755 0.000000 0.075012 0.000000
# 6 0.000000 0.000000 0.000000 -0.080714 0.000000 -0.007407
#
#
# Mechanical properties :
#
#
# Convention : Reuss Voigt Hill
#
# Bulk Modulus (GPa) = 53.79582 75.75016 64.77299
# Shear Modulus (GPa) = -215.50233 22.49370 -96.50431
#
# Velocity S-wave (km/s) = -10.67642 3.44929 -7.14452
# Velocity P-wave (km/s) = 11.11427 7.47865 5.81364
#
# Compressibility (1/GPa) = 0.01858881
#
# Stress axis : x y z
#
# Youngs Moduli (GPa) = 89.20924 63.30656 63.59447
#
# Poissons Ratio (x) = 0.30000 0.17215
# Poissons Ratio (y) = 0.42275 0.29412
# Poissons Ratio (z) = 0.24149 0.29279
#
# Static dielectric constant tensor:
#      x y z
#    x 1.715400 0.000000 -0.020980 
#    y 0.000000 1.661140 0.000000 
#    z -0.020980 0.000000 1.649160 
# 
# From -- ./inp_files/131643.got.cif
#   From: 2010.05.17/outbox.cif.g08.bks.cpg/sg12_66_cif.got.tgz:131643.got - 2010.06.03 13:09:07.
