data_PCOD9215428
_publ_section_title
;
Structure prediction by ZEFSAII (Michael W. Deem and Ramdas Pophale) SiO2 
 PCOD9215428
Probable space group: C 2/M
;
_chemical_formula_sum "Si O2"
_cell_formula_units_Z 42
_cell_length_a 27.647673
_cell_length_b 11.236895
_cell_length_c 6.237538
_cell_angle_alpha 90.000000
_cell_angle_beta 106.949475
_cell_angle_gamma 90.000000
_cell_volume 1853.665338
_symmetry_space_group_name_H-M "C 2/M"
_symmetry_group_IT_number 12
_symmetry_cell_setting 'monoclinic'
loop_
_space_group_symop_operation_xyz
x,y,z
-x,y,-z
-x,-y,-z
x,-y,z
1/2+x,1/2+y,z
1/2-x,1/2+y,-z
1/2-x,1/2-y,-z
1/2+x,1/2-y,z
loop_
_atom_site_type_symbol
_atom_site_label
_atom_site_fract_x
_atom_site_fract_y
_atom_site_fract_z
Si Si1 0.041674 0.204609 0.232038
Si Si2 0.605732 0.631721 0.933811
Si Si3 0.310466 0.127739 0.527938
Si Si4 0.592064 0.139518 0.626522
Si Si5 0.500000 0.500000 0.500000
Si Si6 0.284006 0.692011 0.858701
O O1 0.055824 0.321382 0.385087
O O2 0.021464 0.104445 0.363552
O O3 0.088794 0.150931 0.157312
O O4 0.000000 0.230354 0.000000
O O5 0.584507 0.500000 0.830927
O O6 0.587801 0.751835 0.790138
O O7 0.666386 0.627304 0.989374
O O8 0.351811 0.154860 0.401152
O O9 0.307333 0.213114 0.724488
O O10 0.256315 0.124883 0.341822
O O11 0.324585 0.000000 0.635746
O O12 0.585771 0.000000 0.682814
O O13 0.250000 0.750000 0.000000
#
# Coordination Sequence:
#
# PCOD9215428 Si02
#       6
#     8   8   8   8   2   8
#     4  12  27  48  75 111 146 192 243 313 384 440
#     4  12  26  45  74 114 148 193 250 311 374 442
#     4  10  22  41  65  97 145 195 244 297 361 435
#     4  11  26  48  74 107 149 197 248 303 367 451
#     4  12  26  52  82 110 148 184 244 312 388 450
#     4  11  22  42  64 104 147 194 244 298 363 439
#
# _framework density 22.657810999999999
#
# number of rings (size 3 to 8) (size 9 to 14) (size 15 to 20)
#    0.000    0.762    4.762    2.000    4.000    3.429 
#    0.000    3.333    0.000    0.000    0.000    0.000 
#    0.000    0.000    0.000    0.000    0.000    0.000 
#
# Total GULP energy -117079.176525 kJ/mol
# GULP energy per Si atom -5575.198882 kJ/mol
# Density = 2.260624 g / cm^3
# Si number density = 22.657811 Si / 1000 Ang^3
#
#
#
# Elastic Constant Matrix: (Units=GPa)
#
#
# Indices 1 2 3 4 5 6 
#
# 1 108.7347 39.2854 27.6605 0.0000 -15.5290 0.0000
# 2 39.2854 185.8913 71.6081 0.0000 -28.8994 0.0000
# 3 27.6605 71.6081 86.5425 0.0000 -11.6308 0.0000
# 4 0.0000 0.0000 0.0000 136.5027 0.0000 19.8121
# 5 -15.5290 -28.8994 -11.6308 0.0000 36.3076 0.0000
# 6 0.0000 0.0000 0.0000 19.8121 0.0000 27.6653
#
#
#
# Elastic Compliance Matrix: (Units=1/GPa)
#
#
# Indices 1 2 3 4 5 6 
#
# 1 0.010522 -0.000893 -0.002210 0.000000 0.003081 0.000000
# 2 -0.000893 0.008701 -0.006306 0.000000 0.004523 0.000000
# 3 -0.002210 -0.006306 0.017427 0.000000 -0.000381 0.000000
# 4 0.000000 0.000000 0.000000 0.008176 0.000000 -0.005855
# 5 0.003081 0.004523 -0.000381 0.000000 0.032338 0.000000
# 6 0.000000 0.000000 0.000000 -0.005855 0.000000 0.040339
#
#
# Mechanical properties :
#
#
# Convention : Reuss Voigt Hill
#
# Bulk Modulus (GPa) = 56.07783 73.14185 64.60984
# Shear Modulus (GPa) = 35.14586 56.26944 45.70765
#
# Velocity S-wave (km/s) = 3.94275 4.98882 4.49631
# Velocity P-wave (km/s) = 6.74764 8.09541 7.45206
#
# Compressibility (1/GPa) = 0.01783236
#
# Stress axis : x y z
#
# Youngs Moduli (GPa) = 95.04244 114.93561 57.38064
#
# Poissons Ratio (x) = 0.10268 0.12679
# Poissons Ratio (y) = 0.08491 0.36182
# Poissons Ratio (z) = 0.21000 0.72475
#
# Static dielectric constant tensor:
#      x y z
#    x 1.757090 0.000000 -0.076330 
#    y 0.000000 1.841030 0.000000 
#    z -0.076330 0.000000 1.827000 
# 
# From -- ./inp_files/30897.got.cif
#   From: 2010.05.17/outbox.cif.g08.bks.cpg/sg12_16_cif.got.tgz:30897.got - 2010.06.03 13:09:07.
