data_PCOD9215925
_publ_section_title
;
Structure prediction by ZEFSAII (Michael W. Deem and Ramdas Pophale) SiO2 
 PCOD9215925
Probable space group: C 2/M
;
_chemical_formula_sum "Si O2"
_cell_formula_units_Z 40
_cell_length_a 12.932301
_cell_length_b 18.092976
_cell_length_c 7.781733
_cell_angle_alpha 90.000000
_cell_angle_beta 47.973842
_cell_angle_gamma 90.000000
_cell_volume 1352.561391
_symmetry_space_group_name_H-M "C 2/M"
_symmetry_group_IT_number 12
_symmetry_cell_setting 'monoclinic'
loop_
_space_group_symop_operation_xyz
x,y,z
-x,y,-z
-x,-y,-z
x,-y,z
1/2+x,1/2+y,z
1/2-x,1/2+y,-z
1/2-x,1/2-y,-z
1/2+x,1/2-y,z
loop_
_atom_site_type_symbol
_atom_site_label
_atom_site_fract_x
_atom_site_fract_y
_atom_site_fract_z
Si Si1 0.218319 0.774725 0.316545
Si Si2 0.169487 0.500000 0.714407
Si Si3 0.000000 0.632795 0.000000
Si Si4 0.836920 0.904992 0.811268
Si Si5 0.406835 0.618779 0.275060
Si Si6 0.161126 0.398289 0.338731
O O1 0.145477 0.817821 0.240886
O O2 0.150050 0.808137 0.566559
O O3 0.183455 0.689578 0.334443
O O4 0.373560 0.808400 0.120386
O O5 0.053302 0.430735 0.805252
O O6 0.264375 0.438300 0.724541
O O7 0.988609 0.923488 0.714318
O O8 0.733275 0.919417 0.081203
O O9 0.270124 0.572857 0.364735
O O10 0.500000 0.632935 0.000000
O O11 0.000000 0.415937 0.500000
#
# Coordination Sequence:
#
# PCOD9215925 Si02
#       6
#     8   4   4   8   8   8
#     4  11  22  38  69 100 137 168 221 275 341 403
#     4   9  20  44  65  96 136 174 235 270 326 394
#     4   9  22  38  70 104 132 175 222 282 330 393
#     4  10  22  42  68  92 136 172 229 278 329 394
#     4  10  23  41  62  95 140 174 217 267 342 401
#     4  11  24  39  63 101 140 174 217 271 343 408
#
# _framework density 29.573521
#
# number of rings (size 3 to 8) (size 9 to 14) (size 15 to 20)
#    0.000    1.800    0.000    3.000    9.800    1.600 
#    0.000   14.000    0.000    0.000    0.000    0.000 
#    0.000    0.000    0.000    0.000    0.000    0.000 
#
# Total GULP energy -111357.481106 kJ/mol
# GULP energy per Si atom -5567.874055 kJ/mol
# Density = 2.950621 g / cm^3
# Si number density = 29.573521 Si / 1000 Ang^3
#
#
#
# Elastic Constant Matrix: (Units=GPa)
#
#
# Indices 1 2 3 4 5 6 
#
# 1 262.6587 26.7351 69.1282 0.0000 -35.5361 0.0000
# 2 26.7351 243.1573 -13.2116 0.0000 -21.8567 0.0000
# 3 69.1282 -13.2116 167.9493 0.0000 -49.1426 0.0000
# 4 0.0000 0.0000 0.0000 70.8596 0.0000 1.0718
# 5 -35.5361 -21.8567 -49.1426 0.0000 70.9478 0.0000
# 6 0.0000 0.0000 0.0000 1.0718 0.0000 -4.8214
#
#
#
# Elastic Compliance Matrix: (Units=1/GPa)
#
#
# Indices 1 2 3 4 5 6 
#
# 1 0.004399 -0.000481 -0.001564 0.000000 0.000972 0.000000
# 2 -0.000481 0.004393 0.001090 0.000000 0.001867 0.000000
# 3 -0.001564 0.001090 0.008218 0.000000 0.005245 0.000000
# 4 0.000000 0.000000 0.000000 0.014065 0.000000 0.003127
# 5 0.000972 0.001867 0.005245 0.000000 0.018790 0.000000
# 6 0.000000 0.000000 0.000000 0.003127 0.000000 -0.206712
#
#
# Mechanical properties :
#
#
# Convention : Reuss Voigt Hill
#
# Bulk Modulus (GPa) = 66.22976 93.22985 79.72980
# Shear Modulus (GPa) = -33.35493 66.80479 16.72493
#
# Velocity S-wave (km/s) = -3.36201 4.75799 2.38068
# Velocity P-wave (km/s) = 2.71528 7.85988 5.88007
#
# Compressibility (1/GPa) = 0.01509895
#
# Stress axis : x y z
#
# Youngs Moduli (GPa) = 227.30386 227.65875 121.67727
#
# Poissons Ratio (x) = 0.10959 0.19034
# Poissons Ratio (y) = 0.10942 -0.13263
# Poissons Ratio (z) = 0.35558 -0.24814
#
# Static dielectric constant tensor:
#      x y z
#    x 2.492620 0.000000 0.220440 
#    y 0.000000 2.176080 0.000000 
#    z 0.220440 0.000000 2.772630 
# 
# From -- ./inp_files/65107.got.cif
#   From: 2010.05.17/outbox.cif.g08.bks.cpg/sg12_33_cif.got.tgz:65107.got - 2010.06.03 13:09:07.
