data_PCOD9215723
_publ_section_title
;
Structure prediction by ZEFSAII (Michael W. Deem and Ramdas Pophale) SiO2 
 PCOD9215723
Probable space group: C 2/M
;
_chemical_formula_sum "Si O2"
_cell_formula_units_Z 56
_cell_length_a 11.920078
_cell_length_b 13.601828
_cell_length_c 16.209483
_cell_angle_alpha 90.000000
_cell_angle_beta 114.304779
_cell_angle_gamma 90.000000
_cell_volume 2395.188883
_symmetry_space_group_name_H-M "C 2/M"
_symmetry_group_IT_number 12
_symmetry_cell_setting 'monoclinic'
loop_
_space_group_symop_operation_xyz
x,y,z
-x,y,-z
-x,-y,-z
x,-y,z
1/2+x,1/2+y,z
1/2-x,1/2+y,-z
1/2-x,1/2-y,-z
1/2+x,1/2-y,z
loop_
_atom_site_type_symbol
_atom_site_label
_atom_site_fract_x
_atom_site_fract_y
_atom_site_fract_z
Si Si1 0.981543 0.113242 0.281125
Si Si2 0.636239 0.810001 0.568260
Si Si3 0.730196 0.116903 0.913437
Si Si4 0.807946 0.808107 0.763054
Si Si5 0.734893 0.384271 0.894207
Si Si6 0.851141 0.114695 0.521330
Si Si7 0.563554 0.112664 0.170247
O O1 0.089008 0.121337 0.245736
O O2 0.040480 0.151468 0.383603
O O3 0.860349 0.157398 0.202223
O O4 0.954675 0.000000 0.292416
O O5 0.500000 0.837313 0.500000
O O6 0.681849 0.825623 0.675142
O O7 0.729268 0.871576 0.539029
O O8 0.655716 0.694628 0.552260
O O9 0.790874 0.169697 0.854053
O O10 0.582044 0.129275 0.871593
O O11 0.751689 0.000000 0.911027
O O12 0.781489 0.150104 0.017725
O O13 0.865297 0.700099 0.762016
O O14 0.705864 0.500000 0.889585
O O15 0.873206 0.379716 0.901077
O O16 0.866997 0.000000 0.503402
O O17 0.587958 0.000000 0.206089
#
# Coordination Sequence:
#
# PCOD9215723 Si02
#       7
#     8   8   8   8   8   8   8
#     4   9  19  38  64  94 126 158 201 256 308 360
#     4  10  23  40  61  89 123 156 198 258 307 358
#     4  10  22  42  64  89 125 165 205 251 303 362
#     4  11  24  38  62  91 127 160 205 252 311 367
#     4   9  19  38  64  90 122 163 206 253 301 355
#     4   9  20  40  64  89 120 160 202 247 303 364
#     4  10  23  41  61  87 125 167 208 253 299 355
#
# _framework density 23.380202000000001
#
# number of rings (size 3 to 8) (size 9 to 14) (size 15 to 20)
#    0.000    2.286    0.000    0.857    4.000    6.857 
#    2.571    3.571    0.000    0.000    0.000    0.000 
#    0.000    0.000    0.000    0.000    0.000    0.000 
#
# Total GULP energy -156418.146091 kJ/mol
# GULP energy per Si atom -5586.362360 kJ/mol
# Density = 2.332699 g / cm^3
# Si number density = 23.380202 Si / 1000 Ang^3
#
#
#
# Elastic Constant Matrix: (Units=GPa)
#
#
# Indices 1 2 3 4 5 6 
#
# 1 48.0813 3.9872 8.8941 0.0000 3.5935 0.0000
# 2 3.9872 86.1089 -2.7834 0.0000 10.4771 0.0000
# 3 8.8941 -2.7834 50.2505 0.0000 13.3670 0.0000
# 4 0.0000 0.0000 0.0000 14.9523 0.0000 -2.9031
# 5 3.5935 10.4771 13.3670 0.0000 33.9342 0.0000
# 6 0.0000 0.0000 0.0000 -2.9031 0.0000 11.1152
#
#
#
# Elastic Compliance Matrix: (Units=1/GPa)
#
#
# Indices 1 2 3 4 5 6 
#
# 1 0.021617 -0.001064 -0.003757 0.000000 -0.000481 0.000000
# 2 -0.001064 0.012275 0.002063 0.000000 -0.004490 0.000000
# 3 -0.003757 0.002063 0.023171 0.000000 -0.009366 0.000000
# 4 0.000000 0.000000 0.000000 0.070452 0.000000 0.018401
# 5 -0.000481 -0.004490 -0.009366 0.000000 0.034595 0.000000
# 6 0.000000 0.000000 0.000000 0.018401 0.000000 0.094773
#
#
# Mechanical properties :
#
#
# Convention : Reuss Voigt Hill
#
# Bulk Modulus (GPa) = 19.39991 22.73740 21.06866
# Shear Modulus (GPa) = 17.88375 23.62318 20.75347
#
# Velocity S-wave (km/s) = 2.76870 3.18212 2.98258
# Velocity P-wave (km/s) = 4.30541 4.82155 4.57077
#
# Compressibility (1/GPa) = 0.05154662
#
# Stress axis : x y z
#
# Youngs Moduli (GPa) = 46.25932 81.46361 43.15728
#
# Poissons Ratio (x) = 0.08667 0.16215
# Poissons Ratio (y) = 0.04922 -0.08902
# Poissons Ratio (z) = 0.17381 -0.16802
#
# Static dielectric constant tensor:
#      x y z
#    x 1.866270 0.000000 0.004230 
#    y 0.000000 1.924290 0.000000 
#    z 0.004230 0.000000 1.868750 
# 
# From -- ./inp_files/263398.got.cif
#   From: 2010.05.17/outbox.cif.g08.bks.cpg/sg12_132_cif.got.tgz:263398.got - 2010.06.03 13:09:07.
