data_PCOD9215049
_publ_section_title
;
Structure prediction by ZEFSAII (Michael W. Deem and Ramdas Pophale) SiO2 
 PCOD9215049
Probable space group: C 2/M
;
_chemical_formula_sum "Si O2"
_cell_formula_units_Z 58
_cell_length_a 11.580296
_cell_length_b 16.726471
_cell_length_c 14.615447
_cell_angle_alpha 90.000000
_cell_angle_beta 78.029402
_cell_angle_gamma 90.000000
_cell_volume 2769.413405
_symmetry_space_group_name_H-M "C 2/M"
_symmetry_group_IT_number 12
_symmetry_cell_setting 'monoclinic'
loop_
_space_group_symop_operation_xyz
x,y,z
-x,y,-z
-x,-y,-z
x,-y,z
1/2+x,1/2+y,z
1/2-x,1/2+y,-z
1/2-x,1/2-y,-z
1/2+x,1/2-y,z
loop_
_atom_site_type_symbol
_atom_site_label
_atom_site_fract_x
_atom_site_fract_y
_atom_site_fract_z
Si Si1 0.662563 0.406056 0.160749
Si Si2 0.500000 0.500000 0.500000
Si Si3 0.792708 0.677952 0.295541
Si Si4 0.586129 0.409498 0.861401
Si Si5 0.226330 0.341839 0.028020
Si Si6 0.256253 0.587021 0.515639
Si Si7 0.963951 0.596404 0.801562
Si Si8 0.736468 0.135420 0.311247
O O1 0.647781 0.500000 0.180383
O O2 0.693045 0.363564 0.249688
O O3 0.541739 0.373760 0.136292
O O4 0.761262 0.390578 0.068125
O O5 0.604061 0.568295 0.499096
O O6 0.781948 0.648941 0.401248
O O7 0.771477 0.772022 0.292897
O O8 0.571704 0.500000 0.897244
O O9 0.668612 0.365975 0.919986
O O10 0.655605 0.410724 0.754363
O O11 0.107675 0.365864 0.101068
O O12 0.250000 0.250000 0.000000
O O13 0.198472 0.500000 0.544880
O O14 0.225848 0.614042 0.418743
O O15 0.084782 0.643877 0.764652
O O16 0.980217 0.500000 0.809789
O O17 0.878774 0.612174 0.728135
#
# Coordination Sequence:
#
# PCOD9215049 Si02
#       8
#     8   2   8   8   8   8   8   8
#     4  11  23  40  66  94 131 175 222 284 342 399
#     4   8  24  36  76  94 136 160 226 290 320 404
#     4  12  27  42  66 103 142 177 230 288 340 413
#     4  10  22  40  70  98 129 171 230 282 336 412
#     4  11  23  42  65  98 135 174 228 283 345 406
#     4  10  22  43  67 103 132 180 222 279 342 406
#     4  11  25  48  70  96 138 189 233 278 341 433
#     4  11  24  41  69  98 137 182 225 280 346 402
#
# _framework density 20.943065000000001
#
# number of rings (size 3 to 8) (size 9 to 14) (size 15 to 20)
#    0.414    0.828    0.000    7.034    5.793    2.207 
#    2.483    2.759    0.000    0.000    0.000    0.000 
#    0.000    0.000    0.000    0.000    0.000    0.000 
#
# Total GULP energy -161830.656439 kJ/mol
# GULP energy per Si atom -5580.367463 kJ/mol
# Density = 2.089540 g / cm^3
# Si number density = 20.943065 Si / 1000 Ang^3
#
#
#
# Elastic Constant Matrix: (Units=GPa)
#
#
# Indices 1 2 3 4 5 6 
#
# 1 36.5616 7.1600 -6.1141 0.0000 -9.4802 0.0000
# 2 7.1600 111.9533 1.1825 0.0000 1.8894 0.0000
# 3 -6.1141 1.1825 77.8060 0.0000 19.4039 0.0000
# 4 0.0000 0.0000 0.0000 39.0582 0.0000 3.2526
# 5 -9.4802 1.8894 19.4039 0.0000 15.1031 0.0000
# 6 0.0000 0.0000 0.0000 3.2526 0.0000 13.0713
#
#
#
# Elastic Compliance Matrix: (Units=1/GPa)
#
#
# Indices 1 2 3 4 5 6 
#
# 1 0.034165 -0.002597 -0.003980 0.000000 0.026884 0.000000
# 2 -0.002597 0.009151 0.000513 0.000000 -0.003434 0.000000
# 3 -0.003980 0.000513 0.019381 0.000000 -0.027463 0.000000
# 4 0.000000 0.000000 0.000000 0.026145 0.000000 -0.006506
# 5 0.026884 -0.003434 -0.027463 0.000000 0.118799 0.000000
# 6 0.000000 0.000000 0.000000 -0.006506 0.000000 0.078122
#
#
# Mechanical properties :
#
#
# Convention : Reuss Voigt Hill
#
# Bulk Modulus (GPa) = 19.77497 25.64198 22.70847
# Shear Modulus (GPa) = 15.88579 28.38601 22.13590
#
# Velocity S-wave (km/s) = 2.75712 3.68556 3.25461
# Velocity P-wave (km/s) = 4.42700 5.51193 4.99898
#
# Compressibility (1/GPa) = 0.05056897
#
# Stress axis : x y z
#
# Youngs Moduli (GPa) = 29.26990 109.27885 51.59759
#
# Poissons Ratio (x) = 0.28376 0.20538
# Poissons Ratio (y) = 0.07600 -0.02649
# Poissons Ratio (z) = 0.11651 -0.05610
#
# Static dielectric constant tensor:
#      x y z
#    x 1.748660 0.000000 -0.015900 
#    y 0.000000 1.718060 0.000000 
#    z -0.015900 0.000000 1.764320 
# 
# From -- ./inp_files/215197.got.cif
#   From: 2010.05.17/outbox.cif.g08.bks.cpg/sg12_108_cif.got.tgz:215197.got - 2010.06.03 13:09:07.
