data_PCOD9215203
_publ_section_title
;
Structure prediction by ZEFSAII (Michael W. Deem and Ramdas Pophale) SiO2 
 PCOD9215203
Probable space group: C 2/M
;
_chemical_formula_sum "Si O2"
_cell_formula_units_Z 56
_cell_length_a 15.403265
_cell_length_b 8.772591
_cell_length_c 23.598947
_cell_angle_alpha 90.000000
_cell_angle_beta 115.862945
_cell_angle_gamma 90.000000
_cell_volume 2869.449787
_symmetry_space_group_name_H-M "C 2/M"
_symmetry_group_IT_number 12
_symmetry_cell_setting 'monoclinic'
loop_
_space_group_symop_operation_xyz
x,y,z
-x,y,-z
-x,-y,-z
x,-y,z
1/2+x,1/2+y,z
1/2-x,1/2+y,-z
1/2-x,1/2-y,-z
1/2+x,1/2-y,z
loop_
_atom_site_type_symbol
_atom_site_label
_atom_site_fract_x
_atom_site_fract_y
_atom_site_fract_z
Si Si1 0.100806 0.317221 0.784384
Si Si2 0.736804 0.817469 0.433106
Si Si3 0.984975 0.680560 0.117788
Si Si4 0.529617 0.680989 0.349274
Si Si5 0.422902 0.179855 0.427013
Si Si6 0.320693 0.683428 0.854276
Si Si7 0.839958 0.817868 0.991338
O O1 0.090109 0.500000 0.772900
O O2 0.212323 0.276714 0.805208
O O3 0.075335 0.285673 0.842618
O O4 0.028895 0.229509 0.722998
O O5 0.750000 0.750000 0.500000
O O6 0.633299 0.762280 0.381334
O O7 0.823283 0.753695 0.419231
O O8 0.740366 0.000000 0.436769
O O9 0.982167 0.500000 0.107668
O O10 0.094030 0.737378 0.155576
O O11 0.935599 0.762937 0.050545
O O12 0.542911 0.500000 0.355961
O O13 0.467779 0.738702 0.385342
O O14 0.500000 0.194313 0.500000
O O15 0.409518 0.000000 0.411647
O O16 0.330504 0.500000 0.853449
O O17 0.334024 0.728315 0.924044
O O18 0.834445 0.000000 0.991516
O O19 0.750000 0.750000 0.000000
#
# Coordination Sequence:
#
# PCOD9215203 Si02
#       7
#     8   8   8   8   8   8   8
#     4  10  23  45  64  84 126 172 212 260 316 375
#     4  12  24  41  67  98 131 167 208 258 314 374
#     4  11  23  40  63  93 125 164 211 262 315 372
#     4  12  26  43  66  97 131 169 214 261 317 380
#     4  11  23  41  68  98 129 167 207 255 315 375
#     4  10  22  41  63  89 124 167 208 258 319 375
#     4  11  21  37  62  92 125 163 207 260 319 377
#
# _framework density 19.515934999999999
#
# number of rings (size 3 to 8) (size 9 to 14) (size 15 to 20)
#    0.000    1.000    2.857    4.286    0.000    6.286 
#    0.000    2.857    0.000    0.000    0.000    0.000 
#    0.000    0.000    0.000    0.000    0.000    0.000 
#
# Total GULP energy -156664.712443 kJ/mol
# GULP energy per Si atom -5595.168302 kJ/mol
# Density = 1.947152 g / cm^3
# Si number density = 19.515935 Si / 1000 Ang^3
#
#
#
# Elastic Constant Matrix: (Units=GPa)
#
#
# Indices 1 2 3 4 5 6 
#
# 1 115.6656 31.7135 6.6234 0.0000 27.5050 0.0000
# 2 31.7135 83.8877 29.1145 0.0000 9.7819 0.0000
# 3 6.6234 29.1145 61.5991 0.0000 22.4040 0.0000
# 4 0.0000 0.0000 0.0000 32.4266 0.0000 2.0377
# 5 27.5050 9.7819 22.4040 0.0000 27.7767 0.0000
# 6 0.0000 0.0000 0.0000 2.0377 0.0000 38.2552
#
#
#
# Elastic Compliance Matrix: (Units=1/GPa)
#
#
# Indices 1 2 3 4 5 6 
#
# 1 0.014214 -0.006005 0.008010 0.000000 -0.018420 0.000000
# 2 -0.006005 0.016804 -0.010341 0.000000 0.008370 0.000000
# 3 0.008010 -0.010341 0.030879 0.000000 -0.029196 0.000000
# 4 0.000000 0.000000 0.000000 0.030942 0.000000 -0.001648
# 5 -0.018420 0.008370 -0.029196 0.000000 0.074843 0.000000
# 6 0.000000 0.000000 0.000000 -0.001648 0.000000 0.026228
#
#
# Mechanical properties :
#
#
# Convention : Reuss Voigt Hill
#
# Bulk Modulus (GPa) = 22.11212 44.00615 33.05914
# Shear Modulus (GPa) = 22.15746 32.60510 27.38128
#
# Velocity S-wave (km/s) = 3.37315 4.09184 3.74976
# Velocity P-wave (km/s) = 5.15032 6.70239 5.97695
#
# Compressibility (1/GPa) = 0.04522406
#
# Stress axis : x y z
#
# Youngs Moduli (GPa) = 70.35392 59.50970 32.38445
#
# Poissons Ratio (x) = 0.35738 -0.25939
# Poissons Ratio (y) = 0.42251 0.33488
# Poissons Ratio (z) = -0.56352 0.61537
#
# Static dielectric constant tensor:
#      x y z
#    x 1.669590 0.000000 0.005630 
#    y 0.000000 1.651780 0.000000 
#    z 0.005630 0.000000 1.667240 
# 
# From -- ./inp_files/339014.got.cif
#   From: 2010.05.17/outbox.cif.g08.bks.cpg/sg12_170_cif.got.tgz:339014.got - 2010.06.03 13:09:07.
