data_PCOD9215897
_publ_section_title
;
Structure prediction by ZEFSAII (Michael W. Deem and Ramdas Pophale) SiO2 
 PCOD9215897
Probable space group: C 2/M
;
_chemical_formula_sum "Si O2"
_cell_formula_units_Z 64
_cell_length_a 8.946660
_cell_length_b 16.029450
_cell_length_c 26.032088
_cell_angle_alpha 90.000000
_cell_angle_beta 55.521680
_cell_angle_gamma 90.000000
_cell_volume 3077.479505
_symmetry_space_group_name_H-M "C 2/M"
_symmetry_group_IT_number 12
_symmetry_cell_setting 'monoclinic'
loop_
_space_group_symop_operation_xyz
x,y,z
-x,y,-z
-x,-y,-z
x,-y,z
1/2+x,1/2+y,z
1/2-x,1/2+y,-z
1/2-x,1/2-y,-z
1/2+x,1/2-y,z
loop_
_atom_site_type_symbol
_atom_site_label
_atom_site_fract_x
_atom_site_fract_y
_atom_site_fract_z
Si Si1 0.298646 0.848649 0.248644
Si Si2 0.490679 0.597638 0.118163
Si Si3 0.477781 0.405644 0.614611
Si Si4 0.031538 0.170835 0.765239
Si Si5 0.833876 0.340092 0.993147
Si Si6 0.799712 0.595111 0.635539
Si Si7 0.539452 0.764121 0.548664
Si Si8 0.147014 0.404382 0.122969
O O1 0.191849 0.896986 0.313813
O O2 0.377361 0.761604 0.254026
O O3 0.469722 0.896175 0.192082
O O4 0.151011 0.831721 0.232776
O O5 0.458430 0.500000 0.136155
O O6 0.506423 0.645932 0.168784
O O7 0.320843 0.633500 0.118539
O O8 0.671734 0.606119 0.049341
O O9 0.484566 0.500000 0.591771
O O10 0.657531 0.393457 0.615550
O O11 0.464249 0.327336 0.578698
O O12 0.176252 0.109601 0.709875
O O13 0.891214 0.369032 0.925601
O O14 0.750000 0.250000 0.000000
O O15 0.000000 0.338864 0.000000
O O16 0.868352 0.500000 0.620444
O O17 0.954857 0.665861 0.602367
O O18 0.500000 0.796907 0.500000
O O19 0.750000 0.750000 0.500000
O O20 0.196469 0.500000 0.105239
#
# Coordination Sequence:
#
# PCOD9215897 Si02
#       8
#     8   8   8   8   8   8   8   8
#     4  11  22  39  66  93 128 170 216 268 326 385
#     4  11  24  42  63  92 129 167 211 268 326 385
#     4  10  22  42  67  96 132 173 220 271 327 391
#     4  11  22  39  66  94 128 168 217 270 323 388
#     4  12  25  42  65  91 125 167 217 265 319 388
#     4  10  22  42  68  96 129 176 222 267 325 397
#     4  12  24  42  69  97 134 171 215 270 326 390
#     4  11  24  42  63  92 129 168 211 266 328 384
#
# _framework density 20.796239
#
# number of rings (size 3 to 8) (size 9 to 14) (size 15 to 20)
#    0.000    1.000    2.500    4.500    0.000    5.500 
#    2.250    0.000    0.000    0.000    0.000    0.000 
#    0.000    0.000    0.000    0.000    0.000    0.000 
#
# Total GULP energy -178749.427275 kJ/mol
# GULP energy per Si atom -5585.919602 kJ/mol
# Density = 2.074891 g / cm^3
# Si number density = 20.796239 Si / 1000 Ang^3
#
#
#
# Elastic Constant Matrix: (Units=GPa)
#
#
# Indices 1 2 3 4 5 6 
#
# 1 69.7581 -18.0633 10.8396 0.0000 -20.7778 0.0001
# 2 -18.0633 79.3595 1.1638 -0.0001 -4.0179 0.0000
# 3 10.8396 1.1638 90.8625 -0.0002 -14.3161 0.0001
# 4 0.0000 -0.0001 -0.0002 20.0878 0.0001 2.5752
# 5 -20.7778 -4.0179 -14.3161 0.0001 33.1126 -0.0001
# 6 0.0001 0.0000 0.0001 2.5752 -0.0001 18.9491
#
#
#
# Elastic Compliance Matrix: (Units=1/GPa)
#
#
# Indices 1 2 3 4 5 6 
#
# 1 0.019488 0.005083 -0.000393 0.000000 0.012675 0.000000
# 2 0.005083 0.014005 -0.000017 0.000000 0.004882 0.000000
# 3 -0.000393 -0.000017 0.011819 0.000000 0.004861 0.000000
# 4 0.000000 0.000000 0.000000 0.050664 0.000000 -0.006885
# 5 0.012675 0.004882 0.004861 0.000000 0.040848 0.000000
# 6 0.000000 0.000000 0.000000 -0.006885 0.000000 0.053709
#
#
# Mechanical properties :
#
#
# Convention : Reuss Voigt Hill
#
# Bulk Modulus (GPa) = 18.29506 25.31781 21.80643
# Shear Modulus (GPa) = 25.07461 30.83257 27.95359
#
# Velocity S-wave (km/s) = 3.47613 3.85464 3.67026
# Velocity P-wave (km/s) = 4.99276 5.65788 5.33569
#
# Compressibility (1/GPa) = 0.05465956
#
# Stress axis : x y z
#
# Youngs Moduli (GPa) = 51.31355 71.40145 84.61211
#
# Poissons Ratio (x) = -0.36295 0.03324
# Poissons Ratio (y) = -0.26084 0.00141
# Poissons Ratio (z) = 0.02016 0.00119
#
# Static dielectric constant tensor:
#      x y z
#    x 1.748690 0.000000 0.010650 
#    y 0.000000 1.835880 0.000000 
#    z 0.010650 0.000000 1.714540 
# 
# From -- ./inp_files/372573.got.cif
#   From: 2010.05.17/outbox.cif.g08.bks.cpg/sg12_187_cif.got.tgz:372573.got - 2010.06.03 13:09:07.
