data_PCOD9215396
_publ_section_title
;
Structure prediction by ZEFSAII (Michael W. Deem and Ramdas Pophale) SiO2 
 PCOD9215396
Probable space group: C 2/M
;
_chemical_formula_sum "Si O2"
_cell_formula_units_Z 40
_cell_length_a 14.411424
_cell_length_b 9.519810
_cell_length_c 29.486650
_cell_angle_alpha 90.000000
_cell_angle_beta 28.183057
_cell_angle_gamma 90.000000
_cell_volume 1910.598726
_symmetry_space_group_name_H-M "C 2/M"
_symmetry_group_IT_number 12
_symmetry_cell_setting 'monoclinic'
loop_
_space_group_symop_operation_xyz
x,y,z
-x,y,-z
-x,-y,-z
x,-y,z
1/2+x,1/2+y,z
1/2-x,1/2+y,-z
1/2-x,1/2-y,-z
1/2+x,1/2-y,z
loop_
_atom_site_type_symbol
_atom_site_label
_atom_site_fract_x
_atom_site_fract_y
_atom_site_fract_z
Si Si1 0.895402 0.162095 0.755367
Si Si2 0.189788 0.834666 0.709295
Si Si3 0.547621 0.664852 0.587340
Si Si4 0.510773 0.228133 0.045715
Si Si5 0.088981 0.647995 0.112663
O O1 0.714497 0.262888 0.845561
O O2 0.076846 0.183542 0.710556
O O3 0.959885 0.173113 0.675991
O O4 0.825599 0.000000 0.793078
O O5 0.387389 0.744569 0.625942
O O6 0.037939 0.774299 0.812223
O O7 0.227625 0.000000 0.700355
O O8 0.573122 0.500000 0.564987
O O9 0.750000 0.750000 0.500000
O O10 0.579369 0.149890 0.062169
O O11 0.500000 0.162246 0.000000
O O12 0.686743 0.340079 0.967383
O O13 0.000456 0.500000 0.166577
#
# Coordination Sequence:
#
# PCOD9215396 Si02
#       5
#     8   8   8   8   8
#     4  10  22  41  65  93 129 172 214 256 309 383
#     4  11  23  42  67  96 126 168 215 260 314 382
#     4  11  24  47  71  96 126 163 209 265 325 378
#     4  11  22  40  60  94 129 178 215 254 308 379
#     4  11  24  40  60  93 132 171 216 269 312 363
#
# _framework density 20.935846000000002
#
# number of rings (size 3 to 8) (size 9 to 14) (size 15 to 20)
#    0.000    1.200    4.000    1.800    0.000    6.800 
#    0.000    8.000    0.000    0.000    0.000    0.000 
#    0.000    0.000    0.000    0.000    0.000    0.000 
#
# Total GULP energy -111571.039224 kJ/mol
# GULP energy per Si atom -5578.551961 kJ/mol
# Density = 2.088819 g / cm^3
# Si number density = 20.935846 Si / 1000 Ang^3
#
#
#
# Elastic Constant Matrix: (Units=GPa)
#
#
# Indices 1 2 3 4 5 6 
#
# 1 124.4234 36.8946 19.8621 -0.0002 -28.7237 0.0000
# 2 36.8946 112.4367 28.8825 -0.0002 -33.1364 0.0001
# 3 19.8621 28.8825 67.2970 -0.0008 -43.7778 0.0001
# 4 -0.0002 -0.0002 -0.0008 19.5202 0.0000 -3.4603
# 5 -28.7237 -33.1364 -43.7778 0.0000 38.6567 0.0000
# 6 0.0000 0.0001 0.0001 -3.4603 0.0000 15.7251
#
#
#
# Elastic Compliance Matrix: (Units=1/GPa)
#
#
# Indices 1 2 3 4 5 6 
#
# 1 0.010688 -0.000816 0.007242 0.000000 0.015444 0.000000
# 2 -0.000816 0.012591 0.005559 0.000000 0.016482 0.000000
# 3 0.007242 0.005559 0.064323 0.000003 0.082990 0.000000
# 4 0.000000 0.000000 0.000003 0.053308 0.000004 0.011730
# 5 0.015444 0.016482 0.082990 0.000004 0.145457 0.000000
# 6 0.000000 0.000000 0.000000 0.011730 0.000000 0.066174
#
#
# Mechanical properties :
#
#
# Convention : Reuss Voigt Hill
#
# Bulk Modulus (GPa) = 8.96280 52.82615 30.89448
# Shear Modulus (GPa) = 13.67007 29.34825 21.50916
#
# Velocity S-wave (km/s) = 2.55806 3.74815 3.20876
# Velocity P-wave (km/s) = 3.60767 6.63466 5.34013
#
# Compressibility (1/GPa) = 0.11157224
#
# Stress axis : x y z
#
# Youngs Moduli (GPa) = 93.56018 79.42090 15.54658
#
# Poissons Ratio (x) = 0.06481 -0.11259
# Poissons Ratio (y) = 0.07635 -0.08642
# Poissons Ratio (z) = -0.67760 -0.44147
#
# Static dielectric constant tensor:
#      x y z
#    x 1.755780 0.000000 -0.015230 
#    y 0.000000 1.758690 0.000000 
#    z -0.015230 0.000000 1.742830 
# 
# From -- ./inp_files/211353.got.cif
#   From: 2010.05.17/outbox.cif.g08.bks.cpg/sg12_106_cif.got.tgz:211353.got - 2010.06.03 13:09:07.
