data_PCOD9215879
_publ_section_title
;
Structure prediction by ZEFSAII (Michael W. Deem and Ramdas Pophale) SiO2 
 PCOD9215879
Probable space group: C 2/M
;
_chemical_formula_sum "Si O2"
_cell_formula_units_Z 40
_cell_length_a 19.946953
_cell_length_b 19.133903
_cell_length_c 14.251369
_cell_angle_alpha 90.000000
_cell_angle_beta 156.534283
_cell_angle_gamma 90.000000
_cell_volume 2165.899352
_symmetry_space_group_name_H-M "C 2/M"
_symmetry_group_IT_number 12
_symmetry_cell_setting 'monoclinic'
loop_
_space_group_symop_operation_xyz
x,y,z
-x,y,-z
-x,-y,-z
x,-y,z
1/2+x,1/2+y,z
1/2-x,1/2+y,-z
1/2-x,1/2-y,-z
1/2+x,1/2-y,z
loop_
_atom_site_type_symbol
_atom_site_label
_atom_site_fract_x
_atom_site_fract_y
_atom_site_fract_z
Si Si1 0.315168 0.700110 0.499892
Si Si2 0.994480 0.416075 0.303873
Si Si3 0.696722 0.679713 0.221970
Si Si4 0.292241 0.683526 0.988459
Si Si5 0.068960 0.581710 0.190287
O O1 0.250000 0.750000 0.500000
O O2 0.247749 0.743931 0.325634
O O3 0.233412 0.626271 0.412976
O O4 0.508893 0.682282 0.740411
O O5 0.006134 0.500000 0.336482
O O6 0.833235 0.378975 0.143308
O O7 0.165176 0.375600 0.558178
O O8 0.969614 0.405529 0.159420
O O9 0.719675 0.685591 0.139829
O O10 0.500000 0.665266 0.000000
O O11 0.250000 0.750000 0.000000
O O12 0.101752 0.500000 0.227858
O O13 0.000000 0.603028 0.000000
#
# Coordination Sequence:
#
# PCOD9215879 Si02
#       5
#     8   8   8   8   8
#     4  12  22  40  67  97 127 167 222 269 316 386
#     4  11  25  45  65  97 136 171 216 269 328 391
#     4  12  24  41  68  95 129 172 221 267 318 391
#     4  12  25  41  62  96 132 170 211 268 331 376
#     4  10  22  42  67  93 129 172 215 265 320 383
#
# _framework density 18.46808
#
# number of rings (size 3 to 8) (size 9 to 14) (size 15 to 20)
#    0.000    0.600    6.000    1.200    2.800    2.800 
#    0.000    0.000    0.000    3.600    0.000    0.000 
#    0.000    0.000    0.000    0.000    0.000    0.000 
#
# Total GULP energy -111360.516206 kJ/mol
# GULP energy per Si atom -5568.025810 kJ/mol
# Density = 1.842605 g / cm^3
# Si number density = 18.468080 Si / 1000 Ang^3
#
#
#
# Elastic Constant Matrix: (Units=GPa)
#
#
# Indices 1 2 3 4 5 6 
#
# 1 168.9795 54.5431 63.9654 0.0000 -0.5933 0.0000
# 2 54.5431 -7.3816 32.9497 0.0000 -2.7121 0.0000
# 3 63.9654 32.9497 99.4656 0.0000 26.7769 0.0000
# 4 0.0000 0.0000 0.0000 25.8178 0.0000 0.9608
# 5 -0.5933 -2.7121 26.7769 0.0000 27.7474 0.0000
# 6 0.0000 0.0000 0.0000 0.9608 0.0000 32.6269
#
#
#
# Elastic Compliance Matrix: (Units=1/GPa)
#
#
# Indices 1 2 3 4 5 6 
#
# 1 0.007447 0.006991 -0.009906 0.000000 0.010402 0.000000
# 2 0.006991 -0.033713 0.010158 0.000000 -0.012948 0.000000
# 3 -0.009906 0.010158 0.017358 0.000000 -0.015970 0.000000
# 4 0.000000 0.000000 0.000000 0.038776 0.000000 -0.001142
# 5 0.010402 -0.012948 -0.015970 0.000000 0.050408 0.000000
# 6 0.000000 0.000000 0.000000 -0.001142 0.000000 0.030683
#
#
# Mechanical properties :
#
#
# Convention : Reuss Voigt Hill
#
# Bulk Modulus (GPa) = 179.22787 62.66445 120.94616
# Shear Modulus (GPa) = 50.84829 24.54542 37.69686
#
# Velocity S-wave (km/s) = 5.25289 3.64960 4.52285
# Velocity P-wave (km/s) = 11.57793 7.19474 9.63880
#
# Compressibility (1/GPa) = 0.00557949
#
# Stress axis : x y z
#
# Youngs Moduli (GPa) = 134.27542 -29.66189 57.60939
#
# Poissons Ratio (x) = 0.20738 0.57065
# Poissons Ratio (y) = -0.93877 -0.58518
# Poissons Ratio (z) = 1.33008 0.30130
#
# Static dielectric constant tensor:
#      x y z
#    x 2.278950 0.000000 0.020860 
#    y 0.000000 1.612140 0.000000 
#    z 0.020860 0.000000 1.589720 
# 
# From -- ./inp_files/47161.got.cif
#   From: 2010.05.17/outbox.cif.g08.bks.cpg/sg12_24_cif.got.tgz:47161.got - 2010.06.03 13:09:07.
