data_PCOD9215008
_publ_section_title
;
Structure prediction by ZEFSAII (Michael W. Deem and Ramdas Pophale) SiO2 
 PCOD9215008
Probable space group: C 2/M
;
_chemical_formula_sum "Si O2"
_cell_formula_units_Z 52
_cell_length_a 16.716801
_cell_length_b 13.624590
_cell_length_c 16.189577
_cell_angle_alpha 90.000000
_cell_angle_beta 142.399841
_cell_angle_gamma 90.000000
_cell_volume 2249.815242
_symmetry_space_group_name_H-M "C 2/M"
_symmetry_group_IT_number 12
_symmetry_cell_setting 'monoclinic'
loop_
_space_group_symop_operation_xyz
x,y,z
-x,y,-z
-x,-y,-z
x,-y,z
1/2+x,1/2+y,z
1/2-x,1/2+y,-z
1/2-x,1/2-y,-z
1/2+x,1/2-y,z
loop_
_atom_site_type_symbol
_atom_site_label
_atom_site_fract_x
_atom_site_fract_y
_atom_site_fract_z
Si Si1 0.000000 0.748157 0.500000
Si Si2 0.010826 0.381304 0.246280
Si Si3 0.387884 0.183509 0.847587
Si Si4 0.365521 0.613616 0.271858
Si Si5 0.823830 0.385494 0.457351
Si Si6 0.213507 0.117774 0.979846
Si Si7 0.939023 0.885093 0.834602
O O1 0.973906 0.816552 0.399736
O O2 0.881495 0.677913 0.429611
O O3 0.010423 0.500000 0.240538
O O4 0.073283 0.340296 0.213971
O O5 0.101180 0.355203 0.398193
O O6 0.857974 0.348764 0.125958
O O7 0.255443 0.131488 0.765441
O O8 0.386712 0.302247 0.853945
O O9 0.500000 0.145152 0.000000
O O10 0.406333 0.500000 0.304148
O O11 0.314805 0.640197 0.139216
O O12 0.855669 0.500000 0.469059
O O13 0.666001 0.378918 0.326763
O O14 0.085154 0.144816 0.927106
O O15 0.217304 0.000000 0.988293
O O16 0.936935 0.000000 0.859642
#
# Coordination Sequence:
#
# PCOD9215008 Si02
#       7
#     4   8   8   8   8   8   8
#     4  12  24  42  66  98 130 176 220 272 330 390
#     4  10  22  40  67  98 129 172 222 273 326 388
#     4  12  24  40  67  99 131 174 220 268 328 395
#     4  11  24  42  65  99 135 170 214 272 335 393
#     4  10  23  44  68  95 131 176 226 272 322 389
#     4   9  20  41  67  94 129 169 216 273 329 387
#     4  10  23  44  66  95 134 176 220 273 329 385
#
# _framework density 23.113009999999999
#
# number of rings (size 3 to 8) (size 9 to 14) (size 15 to 20)
#    0.000    1.538    3.077    0.923    2.154    4.615 
#    0.000    3.077    0.000    0.000    0.000    0.000 
#    0.000    0.000    0.000    0.000    0.000    0.000 
#
# Total GULP energy -145354.892712 kJ/mol
# GULP energy per Si atom -5590.572797 kJ/mol
# Density = 2.306040 g / cm^3
# Si number density = 23.113010 Si / 1000 Ang^3
#
#
#
# Elastic Constant Matrix: (Units=GPa)
#
#
# Indices 1 2 3 4 5 6 
#
# 1 62.4460 16.9343 24.3900 0.0000 6.3707 0.0000
# 2 16.9343 90.8073 16.6406 0.0000 -9.8482 0.0000
# 3 24.3900 16.6406 129.6546 0.0000 0.6086 0.0000
# 4 0.0000 0.0000 0.0000 -41.5664 0.0000 2.4771
# 5 6.3707 -9.8482 0.6086 0.0000 27.0620 0.0000
# 6 0.0000 0.0000 0.0000 2.4771 0.0000 27.1454
#
#
#
# Elastic Compliance Matrix: (Units=1/GPa)
#
#
# Indices 1 2 3 4 5 6 
#
# 1 0.018739 -0.003548 -0.003043 0.000000 -0.005634 0.000000
# 2 -0.003548 0.012432 -0.000953 0.000000 0.005381 0.000000
# 3 -0.003043 -0.000953 0.008407 0.000000 0.000180 0.000000
# 4 0.000000 0.000000 0.000000 -0.023928 0.000000 0.002183
# 5 -0.005634 0.005381 0.000180 0.000000 0.040233 0.000000
# 6 0.000000 0.000000 0.000000 0.002183 0.000000 0.036639
#
#
# Mechanical properties :
#
#
# Convention : Reuss Voigt Hill
#
# Bulk Modulus (GPa) = 40.83477 44.31533 42.57505
# Shear Modulus (GPa) = 43.18709 17.52442 30.35575
#
# Velocity S-wave (km/s) = 4.32733 2.75654 3.62797
# Velocity P-wave (km/s) = 6.53249 5.41722 6.00082
#
# Compressibility (1/GPa) = 0.02448894
#
# Stress axis : x y z
#
# Youngs Moduli (GPa) = 53.36335 80.43580 118.95095
#
# Poissons Ratio (x) = 0.28539 0.36201
# Poissons Ratio (y) = 0.18933 0.11341
# Poissons Ratio (z) = 0.16240 0.07669
#
# Static dielectric constant tensor:
#      x y z
#    x 1.828120 0.000000 0.033570 
#    y 0.000000 1.869950 0.000000 
#    z 0.033570 0.000000 1.896520 
# 
# From -- ./inp_files/225789.got.cif
#   From: 2010.05.17/outbox.cif.g08.bks.cpg/sg12_113_cif.got.tgz:225789.got - 2010.06.03 13:09:07.
