data_PCOD9215242
_publ_section_title
;
Structure prediction by ZEFSAII (Michael W. Deem and Ramdas Pophale) SiO2 
 PCOD9215242
Probable space group: C 2/M
;
_chemical_formula_sum "Si O2"
_cell_formula_units_Z 60
_cell_length_a 14.315627
_cell_length_b 12.352953
_cell_length_c 21.135841
_cell_angle_alpha 90.000000
_cell_angle_beta 130.129790
_cell_angle_gamma 90.000000
_cell_volume 2857.769935
_symmetry_space_group_name_H-M "C 2/M"
_symmetry_group_IT_number 12
_symmetry_cell_setting 'monoclinic'
loop_
_space_group_symop_operation_xyz
x,y,z
-x,y,-z
-x,-y,-z
x,-y,z
1/2+x,1/2+y,z
1/2-x,1/2+y,-z
1/2-x,1/2-y,-z
1/2+x,1/2-y,z
loop_
_atom_site_type_symbol
_atom_site_label
_atom_site_fract_x
_atom_site_fract_y
_atom_site_fract_z
Si Si1 0.767489 0.740779 0.163604
Si Si2 0.178416 0.747405 0.403464
Si Si3 0.566664 0.301352 0.180482
Si Si4 0.242435 0.000000 0.297160
Si Si5 0.051910 0.876076 0.685874
Si Si6 0.113857 0.123529 0.000155
Si Si7 0.609425 0.790589 0.597949
Si Si8 0.499899 0.120302 0.744851
O O1 0.660060 0.745117 0.168152
O O2 0.857654 0.840761 0.217642
O O3 0.860011 0.639585 0.214304
O O4 0.706460 0.711388 0.070048
O O5 0.250000 0.750000 0.500000
O O6 0.277392 0.743230 0.392081
O O7 0.086775 0.647660 0.352320
O O8 0.089297 0.851397 0.359074
O O9 0.638291 0.404748 0.238251
O O10 0.445066 0.340239 0.091250
O O11 0.533644 0.209101 0.216719
O O12 0.344584 0.904511 0.355977
O O13 0.078479 0.794677 0.639585
O O14 0.069614 0.000000 0.676841
O O15 0.163625 0.000000 0.019105
O O16 0.000000 0.119267 0.000000
O O17 0.500000 0.802037 0.500000
O O18 0.481034 0.000000 0.759807
#
# Coordination Sequence:
#
# PCOD9215242 Si02
#       8
#     8   8   8   4   8   8   8   8
#     4  10  22  41  63  97 129 168 223 264 321 391
#     4  11  24  44  63  94 128 165 224 270 325 389
#     4  11  22  40  68  97 131 171 219 273 328 384
#     4  12  23  42  67  96 132 171 220 277 324 398
#     4  11  25  44  70  95 134 178 220 271 332 397
#     4   9  18  33  64  99 129 168 218 272 324 383
#     4  12  25  44  66  96 129 174 220 271 331 390
#     4  11  25  43  67  94 131 176 215 266 335 401
#
# _framework density 20.995391999999999
#
# number of rings (size 3 to 8) (size 9 to 14) (size 15 to 20)
#    0.000    1.200    4.667    0.600    2.800    3.467 
#    0.000    0.667    0.000    2.400    0.000    0.000 
#    0.000    0.000    0.000    0.000    0.000    0.000 
#
# Total GULP energy -167026.199030 kJ/mol
# GULP energy per Si atom -5567.539968 kJ/mol
# Density = 2.094761 g / cm^3
# Si number density = 20.995392 Si / 1000 Ang^3
#
#
#
# Elastic Constant Matrix: (Units=GPa)
#
#
# Indices 1 2 3 4 5 6 
#
# 1 79.3712 18.8023 29.8640 0.0000 1.6234 0.0000
# 2 18.8023 142.0232 57.9219 0.0000 -10.2509 0.0000
# 3 29.8640 57.9219 163.6540 0.0000 7.5917 0.0000
# 4 0.0000 0.0000 0.0000 15.1608 0.0000 1.5811
# 5 1.6234 -10.2509 7.5917 0.0000 27.1912 0.0000
# 6 0.0000 0.0000 0.0000 1.5811 0.0000 9.1537
#
#
#
# Elastic Compliance Matrix: (Units=1/GPa)
#
#
# Indices 1 2 3 4 5 6 
#
# 1 0.013640 -0.000988 -0.002112 0.000000 -0.000597 0.000000
# 2 -0.000988 0.008746 -0.003111 0.000000 0.004225 0.000000
# 3 -0.002112 -0.003111 0.007746 0.000000 -0.003209 0.000000
# 4 0.000000 0.000000 0.000000 0.067170 0.000000 -0.011602
# 5 -0.000597 0.004225 -0.003209 0.000000 0.039301 0.000000
# 6 0.000000 0.000000 0.000000 -0.011602 0.000000 0.111250
#
#
# Mechanical properties :
#
#
# Convention : Reuss Voigt Hill
#
# Bulk Modulus (GPa) = 56.46450 66.46943 61.46697
# Shear Modulus (GPa) = 18.78457 28.86514 23.82486
#
# Velocity S-wave (km/s) = 2.99440 3.71190 3.37228
# Velocity P-wave (km/s) = 6.23758 7.07804 6.67106
#
# Compressibility (1/GPa) = 0.01771024
#
# Stress axis : x y z
#
# Youngs Moduli (GPa) = 73.31504 114.34362 129.10236
#
# Poissons Ratio (x) = 0.11292 0.27264
# Poissons Ratio (y) = 0.07241 0.40165
# Poissons Ratio (z) = 0.15483 0.35573
#
# Static dielectric constant tensor:
#      x y z
#    x 1.808520 0.000000 -0.013020 
#    y 0.000000 1.704010 0.000000 
#    z -0.013020 0.000000 1.797350 
# 
# From -- ./inp_files/339606.got.cif
#   From: 2010.05.17/outbox.cif.g08.bks.cpg/sg12_170_cif.got.tgz:339606.got - 2010.06.03 13:09:07.
