data_PCOD9215410
_publ_section_title
;
Structure prediction by ZEFSAII (Michael W. Deem and Ramdas Pophale) SiO2 
 PCOD9215410
Probable space group: C 2/M
;
_chemical_formula_sum "Si O2"
_cell_formula_units_Z 56
_cell_length_a 9.464475
_cell_length_b 18.004607
_cell_length_c 22.142031
_cell_angle_alpha 90.000000
_cell_angle_beta 49.770999
_cell_angle_gamma 90.000000
_cell_volume 2880.641175
_symmetry_space_group_name_H-M "C 2/M"
_symmetry_group_IT_number 12
_symmetry_cell_setting 'monoclinic'
loop_
_space_group_symop_operation_xyz
x,y,z
-x,y,-z
-x,-y,-z
x,-y,z
1/2+x,1/2+y,z
1/2-x,1/2+y,-z
1/2-x,1/2-y,-z
1/2+x,1/2-y,z
loop_
_atom_site_type_symbol
_atom_site_label
_atom_site_fract_x
_atom_site_fract_y
_atom_site_fract_z
Si Si1 0.452886 0.912030 0.361714
Si Si2 0.799243 0.585227 0.926111
Si Si3 0.808130 0.673143 0.514446
Si Si4 0.621633 0.088478 0.755277
Si Si5 0.455460 0.677620 0.695676
Si Si6 0.501000 0.413273 0.098228
Si Si7 0.806291 0.820560 0.255074
O O1 0.335351 0.881364 0.450110
O O2 0.397933 0.884624 0.309017
O O3 0.661434 0.884389 0.314331
O O4 0.441770 0.000000 0.364276
O O5 0.849553 0.500000 0.927693
O O6 0.645808 0.582514 0.915857
O O7 0.973247 0.621171 0.844050
O O8 0.694431 0.613330 0.014778
O O9 0.750000 0.750000 0.500000
O O10 0.632861 0.659507 0.605445
O O11 0.000000 0.676798 0.500000
O O12 0.819951 0.108163 0.726627
O O13 0.589179 0.000000 0.761361
O O14 0.325597 0.748282 0.714814
O O15 0.540315 0.693388 0.737180
O O16 0.518450 0.500000 0.115590
O O17 0.413893 0.355018 0.168463
#
# Coordination Sequence:
#
# PCOD9215410 Si02
#       7
#     8   8   8   8   8   8   8
#     4  11  23  40  66  94 123 160 205 257 307 362
#     4   8  15  32  62  95 123 160 202 248 303 364
#     4  12  25  44  64  89 118 165 210 257 307 369
#     4  10  22  41  65  95 128 161 203 255 307 366
#     4  12  26  42  64  89 123 165 209 254 315 374
#     4   9  17  33  64  96 122 159 207 251 301 363
#     4  12  23  41  62  90 123 165 207 255 307 372
#
# _framework density 19.440117000000001
#
# number of rings (size 3 to 8) (size 9 to 14) (size 15 to 20)
#    0.000    1.429    4.286    2.143    2.000    2.000 
#    0.000    2.857    0.000    2.571    0.000    0.000 
#    0.000    0.000    0.000    0.000    0.000    0.000 
#
# Total GULP energy -155999.236824 kJ/mol
# GULP energy per Si atom -5571.401315 kJ/mol
# Density = 1.939587 g / cm^3
# Si number density = 19.440117 Si / 1000 Ang^3
#
#
#
# Elastic Constant Matrix: (Units=GPa)
#
#
# Indices 1 2 3 4 5 6 
#
# 1 80.1743 8.2275 31.2825 -0.0001 -13.6071 0.0000
# 2 8.2275 39.1817 30.6630 0.0001 4.3120 0.0000
# 3 31.2825 30.6630 162.3477 0.0001 -11.4561 -0.0001
# 4 -0.0001 0.0001 0.0001 19.7306 -0.0002 -9.8302
# 5 -13.6071 4.3120 -11.4561 -0.0002 19.6837 -0.0002
# 6 0.0000 0.0000 -0.0001 -9.8302 -0.0002 20.9916
#
#
#
# Elastic Compliance Matrix: (Units=1/GPa)
#
#
# Indices 1 2 3 4 5 6 
#
# 1 0.015148 -0.003028 -0.001628 0.000000 0.010187 0.000000
# 2 -0.003028 0.032689 -0.006511 0.000000 -0.013043 0.000000
# 3 -0.001628 -0.006511 0.008055 0.000000 0.004989 0.000000
# 4 0.000000 0.000000 0.000000 0.066106 0.000001 0.030957
# 5 0.010187 -0.013043 0.004989 0.000001 0.063607 0.000001
# 6 0.000000 0.000000 0.000000 0.030957 0.000001 0.062135
#
#
# Mechanical properties :
#
#
# Convention : Reuss Voigt Hill
#
# Bulk Modulus (GPa) = 29.79924 46.89442 38.34683
# Shear Modulus (GPa) = 17.77721 26.18322 21.98021
#
# Velocity S-wave (km/s) = 3.02728 3.67395 3.36618
# Velocity P-wave (km/s) = 5.25179 6.49400 5.90565
#
# Compressibility (1/GPa) = 0.03355790
#
# Stress axis : x y z
#
# Youngs Moduli (GPa) = 66.01647 30.59162 124.14470
#
# Poissons Ratio (x) = 0.09262 0.20212
# Poissons Ratio (y) = 0.19988 0.80830
# Poissons Ratio (z) = 0.10748 0.19918
#
# Static dielectric constant tensor:
#      x y z
#    x 1.663990 0.000000 0.019990 
#    y 0.000000 1.740430 0.000000 
#    z 0.019990 0.000000 1.362970 
# 
# From -- ./inp_files/301655.got.cif
#   From: 2010.05.17/outbox.cif.g08.bks.cpg/sg12_151_cif.got.tgz:301655.got - 2010.06.03 13:09:07.
