data_PCOD9215946
_publ_section_title
;
Structure prediction by ZEFSAII (Michael W. Deem and Ramdas Pophale) SiO2 
 PCOD9215946
Probable space group: C 2/M
;
_chemical_formula_sum "Si O2"
_cell_formula_units_Z 56
_cell_length_a 8.404476
_cell_length_b 21.991927
_cell_length_c 14.487011
_cell_angle_alpha 90.000000
_cell_angle_beta 89.999984
_cell_angle_gamma 90.000000
_cell_volume 2677.643264
_symmetry_space_group_name_H-M "C 2/M"
_symmetry_group_IT_number 12
_symmetry_cell_setting 'monoclinic'
loop_
_space_group_symop_operation_xyz
x,y,z
-x,y,-z
-x,-y,-z
x,-y,z
1/2+x,1/2+y,z
1/2-x,1/2+y,-z
1/2-x,1/2-y,-z
1/2+x,1/2-y,z
loop_
_atom_site_type_symbol
_atom_site_label
_atom_site_fract_x
_atom_site_fract_y
_atom_site_fract_z
Si Si1 0.559057 0.933055 0.394466
Si Si2 0.940943 0.066945 0.394466
Si Si3 0.442263 0.633761 0.895742
Si Si4 0.557737 0.133761 0.895742
Si Si5 0.939837 0.313747 0.290029
Si Si6 0.441510 0.500000 0.894507
Si Si7 0.560163 0.686253 0.290029
Si Si8 0.058490 0.500000 0.894507
O O1 0.500000 0.930492 0.500000
O O2 0.750000 0.931437 0.392644
O O3 0.494504 0.874080 0.342757
O O4 0.507231 0.000000 0.357061
O O5 0.000000 0.069508 0.500000
O O6 0.005496 0.125920 0.342757
O O7 0.992769 0.000000 0.357061
O O8 0.250000 0.634059 0.899029
O O9 0.495435 0.566187 0.861271
O O10 0.496974 0.679248 0.816322
O O11 0.500000 0.644563 0.000000
O O12 0.503026 0.179248 0.816322
O O13 0.504565 0.066187 0.861271
O O14 0.500000 0.144563 0.000000
O O15 0.750000 0.312920 0.290233
O O16 1.000000 0.250000 0.329635
O O17 0.250000 0.500000 0.889818
O O18 0.500000 0.500000 0.000000
O O19 0.000000 0.500000 0.000000
#
# Coordination Sequence:
#
# PCOD9215946 Si02
#       8
#     8   8   8   8   8   4   8   4
#     4  10  22  42  68  97 125 155 195 245 302 365
#     4  10  22  42  68  97 125 155 195 245 302 365
#     4   9  19  34  55  81 114 157 202 250 300 354
#     4   9  19  34  55  81 114 157 202 250 300 354
#     4  11  24  40  60  88 124 165 207 253 303 360
#     4   8  14  28  48  74 103 136 185 238 291 344
#     4  11  24  40  60  88 124 165 207 253 303 360
#     4   8  14  28  48  74 103 136 185 238 291 344
#
# _framework density 20.913913999999998
#
# number of rings (size 3 to 8) (size 9 to 14) (size 15 to 20)
#    0.000    2.286    0.000    1.714    2.000    5.143 
#    0.000    5.714    0.000    0.000    0.000    0.000 
#    0.000    0.000    0.000    0.000    0.000    0.000 
#
# Total GULP energy -156186.414795 kJ/mol
# GULP energy per Si atom -5578.086243 kJ/mol
# Density = 2.086631 g / cm^3
# Si number density = 20.913914 Si / 1000 Ang^3
#
#
#
# Elastic Constant Matrix: (Units=GPa)
#
#
# Indices 1 2 3 4 5 6 
#
# 1 41.2917 38.6086 13.2786 0.0000 0.0000 0.0000
# 2 38.6086 189.5324 67.7316 0.0000 0.0000 0.0000
# 3 13.2786 67.7316 72.5234 0.0000 0.0000 0.0000
# 4 0.0000 0.0000 0.0000 23.5953 0.0000 0.0000
# 5 0.0000 0.0000 0.0000 0.0000 24.2167 0.0000
# 6 0.0000 0.0000 0.0000 0.0000 0.0000 24.3496
#
#
#
# Elastic Compliance Matrix: (Units=1/GPa)
#
#
# Indices 1 2 3 4 5 6 
#
# 1 0.029921 -0.006210 0.000321 0.000000 0.000000 0.000000
# 2 -0.006210 0.009208 -0.007463 0.000000 0.000000 0.000000
# 3 0.000321 -0.007463 0.020699 0.000000 0.000000 0.000000
# 4 0.000000 0.000000 0.000000 0.042381 0.000000 0.000000
# 5 0.000000 0.000000 0.000000 0.000000 0.041294 0.000000
# 6 0.000000 0.000000 0.000000 0.000000 0.000000 0.041068
#
#
# Mechanical properties :
#
#
# Convention : Reuss Voigt Hill
#
# Bulk Modulus (GPa) = 30.18797 60.28722 45.23760
# Shear Modulus (GPa) = 22.49051 26.68092 24.58572
#
# Velocity S-wave (km/s) = 3.28286 3.57564 3.43237
# Velocity P-wave (km/s) = 5.36985 6.77760 6.11438
#
# Compressibility (1/GPa) = 0.03312578
#
# Stress axis : x y z
#
# Youngs Moduli (GPa) = 33.42143 108.60202 48.31073
#
# Poissons Ratio (x) = 0.67439 -0.01551
# Poissons Ratio (y) = 0.20754 0.36052
# Poissons Ratio (z) = -0.01073 0.81045
#
# Static dielectric constant tensor:
#      x y z
#    x 1.737590 0.000000 0.000000 
#    y 0.000000 1.794880 0.000000 
#    z 0.000000 0.000000 1.739070 
# 
# From -- ./inp_files/197575.got.cif
#   From: 2010.05.17/outbox.cif.g08.bks.cpg/sg12_99_cif.got.tgz:197575.got - 2010.06.03 13:09:07.
