data_PCOD9215975
_publ_section_title
;
Structure prediction by ZEFSAII (Michael W. Deem and Ramdas Pophale) SiO2 
 PCOD9215975
Probable space group: C 2/M
;
_chemical_formula_sum "Si O2"
_cell_formula_units_Z 48
_cell_length_a 24.254111
_cell_length_b 16.634487
_cell_length_c 5.303642
_cell_angle_alpha 90.000000
_cell_angle_beta 122.859733
_cell_angle_gamma 90.000000
_cell_volume 1797.417566
_symmetry_space_group_name_H-M "C 2/M"
_symmetry_group_IT_number 12
_symmetry_cell_setting 'monoclinic'
loop_
_space_group_symop_operation_xyz
x,y,z
-x,y,-z
-x,-y,-z
x,-y,z
1/2+x,1/2+y,z
1/2-x,1/2+y,-z
1/2-x,1/2-y,-z
1/2+x,1/2-y,z
loop_
_atom_site_type_symbol
_atom_site_label
_atom_site_fract_x
_atom_site_fract_y
_atom_site_fract_z
Si Si1 0.875335 0.595899 0.659963
Si Si2 0.208660 0.407524 0.067352
Si Si3 0.950944 0.268713 0.589045
Si Si4 0.810735 0.193761 0.104641
Si Si5 0.051605 0.089660 0.385325
Si Si6 0.140259 0.914287 0.114767
O O1 0.895093 0.500000 0.738610
O O2 0.835099 0.624918 0.808231
O O3 0.932571 0.661917 0.745652
O O4 0.829751 0.598227 0.295441
O O5 0.213180 0.500000 0.141852
O O6 0.283271 0.378770 0.209121
O O7 0.877718 0.239343 0.329354
O O8 0.981484 0.178348 0.709277
O O9 0.000000 0.303846 0.500000
O O10 0.814217 0.160888 0.829307
O O11 0.750000 0.250000 0.000000
O O12 0.094008 0.088337 0.748152
O O13 0.019481 0.000000 0.299909
O O14 0.095948 0.090603 0.247480
O O15 0.175359 0.000000 0.194187
#
# Coordination Sequence:
#
# PCOD9215975 Si02
#       6
#     8   8   8   8   8   8
#     4  10  23  44  70 101 136 179 232 288 347 407
#     4  10  22  42  69 101 136 176 229 290 347 407
#     4  11  25  44  70 101 142 185 230 283 345 414
#     4  11  22  39  67  99 134 176 225 285 340 408
#     4   9  20  39  63  91 131 176 222 269 327 400
#     4   9  19  37  60  91 128 170 216 270 330 395
#
# _framework density 26.704978000000001
#
# number of rings (size 3 to 8) (size 9 to 14) (size 15 to 20)
#    0.000    2.000    1.667    0.500    2.333    4.667 
#    0.000   15.833    0.000   12.000    0.000    0.000 
#    0.000    0.000    0.000    0.000    0.000    0.000 
#
# Total GULP energy -133928.827789 kJ/mol
# GULP energy per Si atom -5580.367825 kJ/mol
# Density = 2.664420 g / cm^3
# Si number density = 26.704978 Si / 1000 Ang^3
#
#
#
# Elastic Constant Matrix: (Units=GPa)
#
#
# Indices 1 2 3 4 5 6 
#
# 1 201.1331 43.5355 61.1856 0.0000 -47.6242 0.0000
# 2 43.5355 132.9376 -9.8317 0.0000 -18.6476 0.0000
# 3 61.1856 -9.8317 137.3650 0.0000 -27.0035 0.0000
# 4 0.0000 0.0000 0.0000 -1.5089 0.0000 -39.7766
# 5 -47.6242 -18.6476 -27.0035 0.0000 61.2540 0.0000
# 6 0.0000 0.0000 0.0000 -39.7766 0.0000 32.4097
#
#
#
# Elastic Compliance Matrix: (Units=1/GPa)
#
#
# Indices 1 2 3 4 5 6 
#
# 1 0.007067 -0.001974 -0.002548 0.000000 0.003770 0.000000
# 2 -0.001974 0.008573 0.001866 0.000000 0.001898 0.000000
# 3 -0.002548 0.001866 0.009055 0.000000 0.002579 0.000000
# 4 0.000000 0.000000 0.000000 -0.019870 0.000000 -0.024387
# 5 0.003770 0.001898 0.002579 0.000000 0.020972 0.000000
# 6 0.000000 0.000000 0.000000 -0.024387 0.000000 0.000925
#
#
# Mechanical properties :
#
#
# Convention : Reuss Voigt Hill
#
# Bulk Modulus (GPa) = 51.59055 73.46827 62.52941
# Shear Modulus (GPa) = 129.88886 43.53405 86.71146
#
# Velocity S-wave (km/s) = 6.98169 4.04194 5.70444
# Velocity P-wave (km/s) = 9.18437 7.02523 8.17638
#
# Compressibility (1/GPa) = 0.01938339
#
# Stress axis : x y z
#
# Youngs Moduli (GPa) = 141.50512 116.64600 110.43253
#
# Poissons Ratio (x) = 0.23025 0.28137
# Poissons Ratio (y) = 0.27931 -0.20605
# Poissons Ratio (z) = 0.36054 -0.21765
#
# Static dielectric constant tensor:
#      x y z
#    x 3.365130 0.000000 -1.017320 
#    y 0.000000 2.359960 0.000000 
#    z -1.017320 0.000000 3.153400 
# 
# From -- ./inp_files/24832.got.cif
#   From: 2010.05.17/outbox.cif.g08.bks.cpg/sg12_13_cif.got.tgz:24832.got - 2010.06.03 13:09:07.
