data_PCOD9215045
_publ_section_title
;
Structure prediction by ZEFSAII (Michael W. Deem and Ramdas Pophale) SiO2 
 PCOD9215045
Probable space group: C 2/M
;
_chemical_formula_sum "Si O2"
_cell_formula_units_Z 48
_cell_length_a 10.828842
_cell_length_b 24.901307
_cell_length_c 9.585998
_cell_angle_alpha 90.000000
_cell_angle_beta 109.899103
_cell_angle_gamma 90.000000
_cell_volume 2430.551946
_symmetry_space_group_name_H-M "C 2/M"
_symmetry_group_IT_number 12
_symmetry_cell_setting 'monoclinic'
loop_
_space_group_symop_operation_xyz
x,y,z
-x,y,-z
-x,-y,-z
x,-y,z
1/2+x,1/2+y,z
1/2-x,1/2+y,-z
1/2-x,1/2-y,-z
1/2+x,1/2-y,z
loop_
_atom_site_type_symbol
_atom_site_label
_atom_site_fract_x
_atom_site_fract_y
_atom_site_fract_z
Si Si1 0.408961 0.812866 0.600152
Si Si2 0.550471 0.413620 0.230983
Si Si3 0.555638 0.000000 0.360904
Si Si4 0.967378 0.603228 0.149320
Si Si5 0.602505 0.314546 0.415412
Si Si6 0.199503 0.060883 0.007914
Si Si7 0.638783 0.500000 0.474590
O O1 0.500000 0.826504 0.500000
O O2 0.464933 0.845798 0.752594
O O3 0.415717 0.748549 0.621590
O O4 0.254635 0.824788 0.515180
O O5 0.569348 0.351457 0.270711
O O6 0.396238 0.427168 0.158299
O O7 0.624959 0.446468 0.377726
O O8 0.614104 0.435112 0.114456
O O9 0.500000 0.000000 0.500000
O O10 0.505195 0.052724 0.261069
O O11 0.714369 0.000000 0.410057
O O12 0.810529 0.604310 0.079466
O O13 0.000000 0.594517 0.000000
O O14 0.500000 0.328890 0.500000
O O15 0.251544 0.000000 0.012622
O O16 0.500000 0.500000 0.500000
#
# Coordination Sequence:
#
# PCOD9215045 Si02
#       7
#     8   8   4   8   8   8   4
#     4  10  22  45  67  93 128 171 214 269 323 385
#     4  11  21  39  61  92 122 165 213 257 318 383
#     4  12  25  42  64  91 123 171 216 253 316 389
#     4  12  26  40  64  94 133 167 211 267 326 379
#     4  10  22  40  70  92 125 164 220 271 317 370
#     4  11  22  41  62  85 132 175 203 255 325 400
#     4  12  24  33  62  91 122 152 210 269 299 370
#
# _framework density 19.7486
#
# number of rings (size 3 to 8) (size 9 to 14) (size 15 to 20)
#    0.000    1.000    2.500    4.750    4.667    0.000 
#    3.000    0.833    0.000    0.000    0.000    0.000 
#    0.000    0.000    0.000    0.000    0.000    0.000 
#
# Total GULP energy -133910.126792 kJ/mol
# GULP energy per Si atom -5579.588616 kJ/mol
# Density = 1.970365 g / cm^3
# Si number density = 19.748600 Si / 1000 Ang^3
#
#
#
# Elastic Constant Matrix: (Units=GPa)
#
#
# Indices 1 2 3 4 5 6 
#
# 1 96.8764 12.6959 14.0345 0.0000 12.7684 0.0000
# 2 12.6959 70.6994 34.1138 0.0000 8.1770 0.0000
# 3 14.0345 34.1138 64.3427 0.0000 3.4874 0.0000
# 4 0.0000 0.0000 0.0000 39.9916 0.0000 5.3704
# 5 12.7684 8.1770 3.4874 0.0000 40.1965 0.0000
# 6 0.0000 0.0000 0.0000 5.3704 0.0000 20.3578
#
#
#
# Elastic Compliance Matrix: (Units=1/GPa)
#
#
# Indices 1 2 3 4 5 6 
#
# 1 0.011112 -0.000722 -0.001866 0.000000 -0.003221 0.000000
# 2 -0.000722 0.019422 -0.009985 0.000000 -0.002855 0.000000
# 3 -0.001866 -0.009985 0.021200 0.000000 0.000785 0.000000
# 4 0.000000 0.000000 0.000000 0.025924 0.000000 -0.006839
# 5 -0.003221 -0.002855 0.000785 0.000000 0.026414 0.000000
# 6 0.000000 0.000000 0.000000 -0.006839 0.000000 0.050925
#
#
# Mechanical properties :
#
#
# Convention : Reuss Voigt Hill
#
# Bulk Modulus (GPa) = 37.61226 39.28966 38.45096
# Shear Modulus (GPa) = 26.45403 31.51416 28.98409
#
# Velocity S-wave (km/s) = 3.66394 3.99904 3.83515
# Velocity P-wave (km/s) = 6.08163 6.42349 6.25489
#
# Compressibility (1/GPa) = 0.02658708
#
# Stress axis : x y z
#
# Youngs Moduli (GPa) = 89.99309 51.48692 47.16902
#
# Poissons Ratio (x) = 0.03720 0.08802
# Poissons Ratio (y) = 0.06502 0.47099
# Poissons Ratio (z) = 0.16794 0.51411
#
# Static dielectric constant tensor:
#      x y z
#    x 1.618140 0.000000 0.056670 
#    y 0.000000 1.685840 0.000000 
#    z 0.056670 0.000000 1.665070 
# 
# From -- ./inp_files/51496.got.cif
#   From: 2010.05.17/outbox.cif.g08.bks.cpg/sg12_26_cif.got.tgz:51496.got - 2010.06.03 13:09:07.
