data_PCOD9215656
_publ_section_title
;
Structure prediction by ZEFSAII (Michael W. Deem and Ramdas Pophale) SiO2 
 PCOD9215656
Probable space group: C 2/M
;
_chemical_formula_sum "Si O2"
_cell_formula_units_Z 36
_cell_length_a 9.729808
_cell_length_b 17.091384
_cell_length_c 10.427673
_cell_angle_alpha 90.000000
_cell_angle_beta 67.934932
_cell_angle_gamma 90.000000
_cell_volume 1607.071399
_symmetry_space_group_name_H-M "C 2/M"
_symmetry_group_IT_number 12
_symmetry_cell_setting 'monoclinic'
loop_
_space_group_symop_operation_xyz
x,y,z
-x,y,-z
-x,-y,-z
x,-y,z
1/2+x,1/2+y,z
1/2-x,1/2+y,-z
1/2-x,1/2-y,-z
1/2+x,1/2-y,z
loop_
_atom_site_type_symbol
_atom_site_label
_atom_site_fract_x
_atom_site_fract_y
_atom_site_fract_z
Si Si1 0.645875 0.500000 0.864655
Si Si2 0.000000 0.861661 0.500000
Si Si3 0.481763 0.172201 0.159626
Si Si4 0.755599 0.084219 0.402059
Si Si5 0.022912 0.500000 0.144350
Si Si6 0.183096 0.734411 0.297802
O O1 0.652590 0.572754 0.763642
O O2 0.801018 0.500000 0.886848
O O3 0.500000 0.500000 0.000000
O O4 0.870339 0.908778 0.476854
O O5 0.925550 0.804825 0.629209
O O6 0.345928 0.228574 0.240329
O O7 0.628450 0.200547 0.181623
O O8 0.456535 0.082305 0.215110
O O9 0.500000 0.171569 0.000000
O O10 0.672199 0.165170 0.407594
O O11 0.674311 0.000000 0.439379
O O12 0.000000 0.500000 0.000000
#
# Coordination Sequence:
#
# PCOD9215656 Si02
#       6
#     4   4   8   8   4   8
#     4  10  22  41  72 102 135 175 221 279 342 403
#     4  12  25  46  67  98 134 184 238 277 334 397
#     4  11  24  44  68 100 136 177 227 283 349 409
#     4  10  23  43  66  94 136 175 224 279 326 405
#     4  10  22  44  64  97 139 172 219 272 338 415
#     4  12  24  45  69  97 138 179 226 285 339 402
#
# _framework density 22.400995000000002
#
# number of rings (size 3 to 8) (size 9 to 14) (size 15 to 20)
#    0.667    0.444    4.444    1.667    0.000    4.444 
#    4.000    0.556    0.000    0.000    0.000    0.000 
#    0.000    0.000    0.000    0.000    0.000    0.000 
#
# Total GULP energy -100516.541364 kJ/mol
# GULP energy per Si atom -5584.252298 kJ/mol
# Density = 2.235001 g / cm^3
# Si number density = 22.400995 Si / 1000 Ang^3
#
#
#
# Elastic Constant Matrix: (Units=GPa)
#
#
# Indices 1 2 3 4 5 6 
#
# 1 132.3727 59.8256 33.3162 0.0000 24.1095 0.0000
# 2 59.8256 160.5466 14.4295 0.0000 -0.1114 0.0000
# 3 33.3162 14.4295 32.9792 0.0000 15.1880 0.0000
# 4 0.0000 0.0000 0.0000 20.2300 0.0000 25.9943
# 5 24.1095 -0.1114 15.1880 0.0000 37.7084 0.0000
# 6 0.0000 0.0000 0.0000 25.9943 0.0000 -30.7425
#
#
#
# Elastic Compliance Matrix: (Units=1/GPa)
#
#
# Indices 1 2 3 4 5 6 
#
# 1 0.012248 -0.003783 -0.008725 0.000000 -0.004328 0.000000
# 2 -0.003783 0.007715 -0.000833 0.000000 0.002777 0.000000
# 3 -0.008725 -0.000833 0.045344 0.000000 -0.012687 0.000000
# 4 0.000000 0.000000 0.000000 0.023691 0.000000 0.020032
# 5 -0.004328 0.002777 -0.012687 0.000000 0.034405 0.000000
# 6 0.000000 0.000000 0.000000 0.020032 0.000000 -0.015590
#
#
# Mechanical properties :
#
#
# Convention : Reuss Voigt Hill
#
# Bulk Modulus (GPa) = 25.88974 60.11567 43.00270
# Shear Modulus (GPa) = 33.92799 19.99433 26.96116
#
# Velocity S-wave (km/s) = 3.89598 2.99082 3.47301
# Velocity P-wave (km/s) = 5.64098 6.23066 5.94314
#
# Compressibility (1/GPa) = 0.03862535
#
# Stress axis : x y z
#
# Youngs Moduli (GPa) = 81.64302 129.61433 22.05372
#
# Poissons Ratio (x) = 0.49033 0.19242
# Poissons Ratio (y) = 0.30886 0.01837
# Poissons Ratio (z) = 0.71235 0.10795
#
# Static dielectric constant tensor:
#      x y z
#    x 1.790980 0.000000 -0.000620 
#    y 0.000000 1.881620 0.000000 
#    z -0.000620 0.000000 1.813020 
# 
# From -- ./inp_files/118819.got.cif
#   From: 2010.05.17/outbox.cif.g08.bks.cpg/sg12_60_cif.got.tgz:118819.got - 2010.06.03 13:09:07.
