data_PCOD9215772
_publ_section_title
;
Structure prediction by ZEFSAII (Michael W. Deem and Ramdas Pophale) SiO2 
 PCOD9215772
Probable space group: C 2/M
;
_chemical_formula_sum "Si O2"
_cell_formula_units_Z 32
_cell_length_a 16.563720
_cell_length_b 18.549263
_cell_length_c 10.370895
_cell_angle_alpha 90.000000
_cell_angle_beta 154.040459
_cell_angle_gamma 90.000000
_cell_volume 1394.804691
_symmetry_space_group_name_H-M "C 2/M"
_symmetry_group_IT_number 12
_symmetry_cell_setting 'monoclinic'
loop_
_space_group_symop_operation_xyz
x,y,z
-x,y,-z
-x,-y,-z
x,-y,z
1/2+x,1/2+y,z
1/2-x,1/2+y,-z
1/2-x,1/2-y,-z
1/2+x,1/2-y,z
loop_
_atom_site_type_symbol
_atom_site_label
_atom_site_fract_x
_atom_site_fract_y
_atom_site_fract_z
Si Si1 0.905762 0.584810 0.698804
Si Si2 0.804062 0.325431 0.805981
Si Si3 0.705772 0.915672 0.746605
Si Si4 0.586238 0.287209 0.845513
O O1 0.894558 0.500000 0.713508
O O2 0.831222 0.635911 0.705694
O O3 0.799534 0.597591 0.414129
O O4 0.120763 0.609615 0.994445
O O5 0.600132 0.293376 0.503437
O O6 0.924610 0.259773 0.038734
O O7 0.500000 0.897979 0.500000
O O8 0.737853 0.000000 0.815240
O O9 0.852030 0.866530 0.026446
O O10 0.750000 0.250000 0.000000
#
# Coordination Sequence:
#
# PCOD9215772 Si02
#       4
#     8   8   8   8
#     4  10  23  43  66  96 131 168 216 271 327 393
#     4  11  23  39  63  90 128 169 208 267 328 377
#     4  10  22  42  65  90 127 172 216 267 327 388
#     4  12  25  41  63  95 129 169 222 271 322 392
#
# _framework density 22.942281000000001
#
# number of rings (size 3 to 8) (size 9 to 14) (size 15 to 20)
#    0.000    1.250    0.000    6.750    0.000   12.000 
#    0.000    3.750    0.000   12.000    0.000    0.000 
#    0.000    0.000    0.000    0.000    0.000    0.000 
#
# Total GULP energy -89304.462274 kJ/mol
# GULP energy per Si atom -5581.528892 kJ/mol
# Density = 2.289006 g / cm^3
# Si number density = 22.942281 Si / 1000 Ang^3
#
#
#
# Elastic Constant Matrix: (Units=GPa)
#
#
# Indices 1 2 3 4 5 6 
#
# 1 61.5048 21.7899 0.4310 0.0000 -4.9305 0.0000
# 2 21.7899 64.9724 35.6659 0.0000 11.0194 0.0000
# 3 0.4310 35.6659 117.3721 0.0000 -4.7260 0.0000
# 4 0.0000 0.0000 0.0000 44.8368 0.0000 -1.1318
# 5 -4.9305 11.0194 -4.7260 0.0000 17.3788 0.0000
# 6 0.0000 0.0000 0.0000 -1.1318 0.0000 37.2666
#
#
#
# Elastic Compliance Matrix: (Units=1/GPa)
#
#
# Indices 1 2 3 4 5 6 
#
# 1 0.021739 -0.012154 0.004218 0.000000 0.015021 0.000000
# 2 -0.012154 0.028964 -0.009742 0.000000 -0.024462 0.000000
# 3 0.004218 -0.009742 0.011892 0.000000 0.010607 0.000000
# 4 0.000000 0.000000 0.000000 0.022320 0.000000 0.000678
# 5 0.015021 -0.024462 0.010607 0.000000 0.080198 0.000000
# 6 0.000000 0.000000 0.000000 0.000678 0.000000 0.026854
#
#
# Mechanical properties :
#
#
# Convention : Reuss Voigt Hill
#
# Bulk Modulus (GPa) = 36.71046 39.95810 38.33428
# Shear Modulus (GPa) = 21.15041 32.29395 26.72218
#
# Velocity S-wave (km/s) = 3.03957 3.75589 3.41656
# Velocity P-wave (km/s) = 5.32490 6.02192 5.68411
#
# Compressibility (1/GPa) = 0.02724019
#
# Stress axis : x y z
#
# Youngs Moduli (GPa) = 45.99936 34.52613 84.09237
#
# Poissons Ratio (x) = 0.41963 -0.35472
# Poissons Ratio (y) = 0.55907 0.81919
# Poissons Ratio (z) = -0.19404 0.33634
#
# Static dielectric constant tensor:
#      x y z
#    x 2.017530 0.000000 0.091910 
#    y 0.000000 1.824830 0.000000 
#    z 0.091910 0.000000 1.888310 
# 
# From -- ./inp_files/156397.got.cif
#   From: 2010.05.17/outbox.cif.g08.bks.cpg/sg12_79_cif.got.tgz:156397.got - 2010.06.03 13:09:07.
