data_PCOD9215853
_publ_section_title
;
Structure prediction by ZEFSAII (Michael W. Deem and Ramdas Pophale) SiO2 
 PCOD9215853
Probable space group: C 2/M
;
_chemical_formula_sum "Si O2"
_cell_formula_units_Z 48
_cell_length_a 14.315365
_cell_length_b 26.162379
_cell_length_c 8.922037
_cell_angle_alpha 90.000000
_cell_angle_beta 42.671789
_cell_angle_gamma 90.000000
_cell_volume 2264.872670
_symmetry_space_group_name_H-M "C 2/M"
_symmetry_group_IT_number 12
_symmetry_cell_setting 'monoclinic'
loop_
_space_group_symop_operation_xyz
x,y,z
-x,y,-z
-x,-y,-z
x,-y,z
1/2+x,1/2+y,z
1/2-x,1/2+y,-z
1/2-x,1/2-y,-z
1/2+x,1/2-y,z
loop_
_atom_site_type_symbol
_atom_site_label
_atom_site_fract_x
_atom_site_fract_y
_atom_site_fract_z
Si Si1 0.104776 0.713235 0.254758
Si Si2 0.375355 0.589689 0.046372
Si Si3 0.600170 0.941314 0.525299
Si Si4 0.349409 0.558691 0.738592
Si Si5 0.586933 0.125007 0.037229
Si Si6 0.910842 0.209303 0.962892
O O1 0.126280 0.670210 0.103880
O O2 0.250188 0.724931 0.160630
O O3 0.000000 0.692665 0.500000
O O4 0.043578 0.762809 0.243259
O O5 0.238201 0.587160 0.308844
O O6 0.412393 0.647974 0.958644
O O7 0.500000 0.568801 0.000000
O O8 0.350788 0.561468 0.918381
O O9 0.500000 0.942377 0.500000
O O10 0.515429 0.913487 0.754889
O O11 0.633954 0.000000 0.525524
O O12 0.500000 0.573994 0.500000
O O13 0.324639 0.500000 0.721623
O O14 0.225727 0.594832 0.830811
O O15 0.500000 0.145016 0.000000
O O16 0.000000 0.225691 0.000000
#
# Coordination Sequence:
#
# PCOD9215853 Si02
#       6
#     8   8   8   8   8   8
#     4  11  23  44  68  96 133 168 215 273 327 390
#     4  11  23  42  66  96 133 168 221 267 321 393
#     4  11  22  40  68  94 126 175 223 275 327 381
#     4  11  25  44  63  91 133 175 217 271 331 390
#     4  12  25  43  65  95 134 173 224 274 331 393
#     4  10  22  42  66  97 128 166 212 262 325 390
#
# _framework density 21.193245999999998
#
# number of rings (size 3 to 8) (size 9 to 14) (size 15 to 20)
#    0.000    1.000    3.333    3.000    2.333    4.000 
#    0.000    0.000    0.000    0.000    0.000    0.000 
#    0.000    0.000    0.000    0.000    0.000    0.000 
#
# Total GULP energy -134198.197109 kJ/mol
# GULP energy per Si atom -5591.591546 kJ/mol
# Density = 2.114501 g / cm^3
# Si number density = 21.193246 Si / 1000 Ang^3
#
#
#
# Elastic Constant Matrix: (Units=GPa)
#
#
# Indices 1 2 3 4 5 6 
#
# 1 139.5938 17.5499 21.8509 0.0000 -19.2066 0.0000
# 2 17.5499 94.0239 22.0026 0.0000 -6.9976 0.0000
# 3 21.8509 22.0026 95.3022 0.0000 -23.1449 0.0000
# 4 0.0000 0.0000 0.0000 11.9605 0.0000 -8.0603
# 5 -19.2066 -6.9976 -23.1449 0.0000 24.1814 0.0000
# 6 0.0000 0.0000 0.0000 -8.0603 0.0000 1.0925
#
#
#
# Elastic Compliance Matrix: (Units=1/GPa)
#
#
# Indices 1 2 3 4 5 6 
#
# 1 0.008147 -0.001034 -0.000170 0.000000 0.006009 0.000000
# 2 -0.001034 0.011393 -0.002335 0.000000 0.000241 0.000000
# 3 -0.000170 -0.002335 0.014167 0.000000 0.012749 0.000000
# 4 0.000000 0.000000 0.000000 -0.021050 0.000000 -0.155301
# 5 0.006009 0.000241 0.012749 0.000000 0.058400 0.000000
# 6 0.000000 0.000000 0.000000 -0.155301 0.000000 -0.230448
#
#
# Mechanical properties :
#
#
# Convention : Reuss Voigt Hill
#
# Bulk Modulus (GPa) = 37.55103 50.19186 43.87144
# Shear Modulus (GPa) = -34.85832 25.28132 -4.78850
#
# Velocity S-wave (km/s) = -4.05999 3.45758 -1.50478
# Velocity P-wave (km/s) = 2.05456 6.29874 4.21028
#
# Compressibility (1/GPa) = 0.02663043
#
# Stress axis : x y z
#
# Youngs Moduli (GPa) = 122.74469 87.77447 70.58549
#
# Poissons Ratio (x) = 0.09073 0.01199
# Poissons Ratio (y) = 0.12688 0.16480
# Poissons Ratio (z) = 0.02086 0.20493
#
# Static dielectric constant tensor:
#      x y z
#    x 1.757470 0.000000 0.009650 
#    y 0.000000 1.781210 0.000000 
#    z 0.009650 0.000000 1.738480 
# 
# From -- ./inp_files/67349.got.cif
#   From: 2010.05.17/outbox.cif.g08.bks.cpg/sg12_34_cif.got.tgz:67349.got - 2010.06.03 13:09:07.
