data_PCOD9215487
_publ_section_title
;
Structure prediction by ZEFSAII (Michael W. Deem and Ramdas Pophale) SiO2 
 PCOD9215487
Probable space group: C 2/M
;
_chemical_formula_sum "Si O2"
_cell_formula_units_Z 48
_cell_length_a 18.717768
_cell_length_b 14.960674
_cell_length_c 18.428792
_cell_angle_alpha 90.000000
_cell_angle_beta 154.342756
_cell_angle_gamma 90.000000
_cell_volume 2234.480116
_symmetry_space_group_name_H-M "C 2/M"
_symmetry_group_IT_number 12
_symmetry_cell_setting 'monoclinic'
loop_
_space_group_symop_operation_xyz
x,y,z
-x,y,-z
-x,-y,-z
x,-y,z
1/2+x,1/2+y,z
1/2-x,1/2+y,-z
1/2-x,1/2-y,-z
1/2+x,1/2-y,z
loop_
_atom_site_type_symbol
_atom_site_label
_atom_site_fract_x
_atom_site_fract_y
_atom_site_fract_z
Si Si1 0.569952 0.102721 0.644996
Si Si2 0.223706 0.749334 0.888485
Si Si3 0.134698 0.828659 0.430147
Si Si4 0.818608 0.895067 0.367079
Si Si5 0.797001 0.904925 0.650870
Si Si6 0.444680 0.753926 0.877855
O O1 0.500000 0.133467 0.500000
O O2 0.692369 0.161895 0.807158
O O3 0.400117 0.100086 0.534810
O O4 0.628316 0.000000 0.688645
O O5 0.049183 0.797428 0.719831
O O6 0.250000 0.750000 0.000000
O O7 0.394884 0.790049 0.016477
O O8 0.250000 0.750000 0.500000
O O9 0.196758 0.870751 0.561681
O O10 0.127290 0.899647 0.359231
O O11 0.679235 0.830294 0.208228
O O12 0.000000 0.874409 0.500000
O O13 0.789571 0.000000 0.328598
O O14 0.856204 0.818319 0.747216
O O15 0.839182 0.000000 0.724733
O O16 0.500000 0.702903 0.000000
#
# Coordination Sequence:
#
# PCOD9215487 Si02
#       6
#     8   8   8   8   8   8
#     4  10  22  41  66  96 132 181 235 283 336 416
#     4  12  23  40  64  98 140 178 222 279 360 417
#     4  12  21  44  70  95 131 181 233 280 337 411
#     4  11  25  47  74 101 131 181 240 285 333 407
#     4  11  23  41  67  96 132 179 230 278 331 410
#     4  12  25  42  67 101 138 177 218 283 353 417
#
# _framework density 21.481507000000001
#
# number of rings (size 3 to 8) (size 9 to 14) (size 15 to 20)
#    0.000    0.667    5.000    2.500    0.000    2.667 
#    0.000    1.667    0.000    0.000    0.000    0.000 
#    0.000    0.000    0.000    0.000    0.000    0.000 
#
# Total GULP energy -133780.451893 kJ/mol
# GULP energy per Si atom -5574.185496 kJ/mol
# Density = 2.143261 g / cm^3
# Si number density = 21.481507 Si / 1000 Ang^3
#
#
#
# Elastic Constant Matrix: (Units=GPa)
#
#
# Indices 1 2 3 4 5 6 
#
# 1 112.1532 43.5904 25.2741 -0.0016 7.9135 -0.0001
# 2 43.5904 107.6848 45.8173 -0.0055 8.6766 -0.0027
# 3 25.2741 45.8173 73.8493 -0.0072 2.3509 -0.0055
# 4 -0.0016 -0.0055 -0.0072 7.3441 -0.0039 7.3410
# 5 7.9135 8.6766 2.3509 -0.0039 62.2610 -0.0019
# 6 -0.0001 -0.0027 -0.0055 7.3410 -0.0019 23.3682
#
#
#
# Elastic Compliance Matrix: (Units=1/GPa)
#
#
# Indices 1 2 3 4 5 6 
#
# 1 0.010714 -0.003700 -0.001346 -0.000002 -0.000795 0.000000
# 2 -0.003700 0.014030 -0.007399 0.000003 -0.001205 -0.000001
# 3 -0.001346 -0.007399 0.018576 0.000013 0.000501 -0.000001
# 4 -0.000002 0.000003 0.000013 0.198495 0.000010 -0.062356
# 5 -0.000795 -0.001205 0.000501 0.000010 0.016312 -0.000002
# 6 0.000000 -0.000001 -0.000001 -0.062356 -0.000002 0.062382
#
#
# Mechanical properties :
#
#
# Convention : Reuss Voigt Hill
#
# Bulk Modulus (GPa) = 54.26193 58.11675 56.18934
# Shear Modulus (GPa) = 14.22301 30.52835 22.37568
#
# Velocity S-wave (km/s) = 2.57593 3.77390 3.23092
# Velocity P-wave (km/s) = 5.84482 6.78990 6.33501
#
# Compressibility (1/GPa) = 0.01842913
#
# Stress axis : x y z
#
# Youngs Moduli (GPa) = 93.33630 71.27760 53.83164
#
# Poissons Ratio (x) = 0.26375 0.07244
# Poissons Ratio (y) = 0.34538 0.39832
# Poissons Ratio (z) = 0.12560 0.52741
#
# Static dielectric constant tensor:
#      x y z
#    x 1.822120 0.000000 -0.063550 
#    y 0.000000 1.837750 0.000000 
#    z -0.063550 0.000000 1.994030 
# 
# From -- ./inp_files/278236.got.cif
#   From: 2010.05.17/outbox.cif.g08.bks.cpg/sg12_140_cif.got.tgz:278236.got - 2010.06.03 13:09:07.
