data_PCOD9215564
_publ_section_title
;
Structure prediction by ZEFSAII (Michael W. Deem and Ramdas Pophale) SiO2 
 PCOD9215564
Probable space group: C 2/M
;
_chemical_formula_sum "Si O2"
_cell_formula_units_Z 44
_cell_length_a 28.564092
_cell_length_b 8.774288
_cell_length_c 24.740305
_cell_angle_alpha 90.000000
_cell_angle_beta 18.128005
_cell_angle_gamma 90.000000
_cell_volume 1929.276970
_symmetry_space_group_name_H-M "C 2/M"
_symmetry_group_IT_number 12
_symmetry_cell_setting 'monoclinic'
loop_
_space_group_symop_operation_xyz
x,y,z
-x,y,-z
-x,-y,-z
x,-y,z
1/2+x,1/2+y,z
1/2-x,1/2+y,-z
1/2-x,1/2-y,-z
1/2+x,1/2-y,z
loop_
_atom_site_type_symbol
_atom_site_label
_atom_site_fract_x
_atom_site_fract_y
_atom_site_fract_z
Si Si1 0.224206 0.833958 0.731796
Si Si2 0.972985 0.744149 0.655859
Si Si3 0.590602 0.825107 0.782476
Si Si4 0.261602 0.500000 0.048720
Si Si5 0.475527 0.500000 0.318193
Si Si6 0.743374 0.165179 0.819177
Si Si7 0.585345 0.500000 0.734953
O O1 0.388412 0.837456 0.524692
O O2 0.133408 0.707958 0.797817
O O3 0.241062 0.791896 0.775703
O O4 0.152795 0.000000 0.802948
O O5 0.848681 0.640765 0.821245
O O6 0.882653 0.823787 0.706650
O O7 0.042775 0.855159 0.623855
O O8 0.638309 0.664568 0.700596
O O9 0.638616 0.000000 0.714877
O O10 0.409689 0.826695 0.978615
O O11 0.350706 0.500000 0.894440
O O12 0.401167 0.500000 0.938052
O O13 0.383929 0.500000 0.363061
O O14 0.747639 0.000000 0.786736
#
# Coordination Sequence:
#
# PCOD9215564 Si02
#       7
#     8   8   8   4   4   8   4
#     4  12  27  40  66  98 140 181 221 274 345 401
#     4  12  23  43  66 100 137 171 217 288 332 404
#     4  11  24  45  71  98 138 179 228 278 330 404
#     4  10  22  41  68 100 129 166 227 276 335 404
#     4  10  24  42  71  98 132 174 226 278 345 391
#     4  11  24  41  66  99 132 180 231 269 332 407
#     4  10  22  45  72 102 129 172 235 280 334 393
#
# _framework density 22.806470000000001
#
# number of rings (size 3 to 8) (size 9 to 14) (size 15 to 20)
#    0.545    0.364    4.545    2.182    5.091    3.636 
#    1.636    0.909    0.000    0.000    0.000    0.000 
#    0.000    0.000    0.000    0.000    0.000    0.000 
#
# Total GULP energy -122814.344225 kJ/mol
# GULP energy per Si atom -5582.470192 kJ/mol
# Density = 2.275456 g / cm^3
# Si number density = 22.806470 Si / 1000 Ang^3
#
#
#
# Elastic Constant Matrix: (Units=GPa)
#
#
# Indices 1 2 3 4 5 6 
#
# 1 105.6586 54.8112 -2.4236 -0.0011 -2.4301 0.0006
# 2 54.8112 173.4075 16.4932 -0.0019 7.5788 0.0013
# 3 -2.4236 16.4932 68.2718 -0.0027 2.6801 0.0019
# 4 -0.0011 -0.0019 -0.0027 22.5583 0.0014 -10.1184
# 5 -2.4301 7.5788 2.6801 0.0014 35.4524 -0.0005
# 6 0.0006 0.0013 0.0019 -10.1184 -0.0005 18.4736
#
#
#
# Elastic Compliance Matrix: (Units=1/GPa)
#
#
# Indices 1 2 3 4 5 6 
#
# 1 0.011513 -0.003826 0.001274 0.000000 0.001511 0.000000
# 2 -0.003826 0.007222 -0.001815 0.000000 -0.001669 0.000000
# 3 0.001274 -0.001815 0.015157 0.000001 -0.000671 -0.000001
# 4 0.000000 0.000000 0.000001 0.058768 -0.000002 0.032188
# 5 0.001511 -0.001669 -0.000671 -0.000002 0.028718 0.000000
# 6 0.000000 0.000000 -0.000001 0.032188 0.000000 0.071762
#
#
# Mechanical properties :
#
#
# Convention : Reuss Voigt Hill
#
# Bulk Modulus (GPa) = 39.74977 53.89995 46.82486
# Shear Modulus (GPa) = 23.78000 33.86065 28.82032
#
# Velocity S-wave (km/s) = 3.23257 3.85735 3.55870
# Velocity P-wave (km/s) = 5.60354 6.59726 6.12060
#
# Compressibility (1/GPa) = 0.02515738
#
# Stress axis : x y z
#
# Youngs Moduli (GPa) = 86.85558 138.47005 65.97463
#
# Poissons Ratio (x) = 0.52984 -0.08404
# Poissons Ratio (y) = 0.33234 0.11974
# Poissons Ratio (z) = -0.11063 0.25132
#
# Static dielectric constant tensor:
#      x y z
#    x 1.784170 0.000000 -0.004790 
#    y 0.000000 1.878590 0.000000 
#    z -0.004790 0.000000 1.842510 
# 
# From -- ./inp_files/370553.got.cif
#   From: 2010.05.17/outbox.cif.g08.bks.cpg/sg12_186_cif.got.tgz:370553.got - 2010.06.03 13:09:07.
