data_PCOD9215369
_publ_section_title
;
Structure prediction by ZEFSAII (Michael W. Deem and Ramdas Pophale) SiO2 
 PCOD9215369
Probable space group: C 2/M
;
_chemical_formula_sum "Si O2"
_cell_formula_units_Z 42
_cell_length_a 17.313650
_cell_length_b 14.681528
_cell_length_c 7.666191
_cell_angle_alpha 90.000000
_cell_angle_beta 71.392523
_cell_angle_gamma 90.000000
_cell_volume 1846.811962
_symmetry_space_group_name_H-M "C 2/M"
_symmetry_group_IT_number 12
_symmetry_cell_setting 'monoclinic'
loop_
_space_group_symop_operation_xyz
x,y,z
-x,y,-z
-x,-y,-z
x,-y,z
1/2+x,1/2+y,z
1/2-x,1/2+y,-z
1/2-x,1/2-y,-z
1/2+x,1/2-y,z
loop_
_atom_site_type_symbol
_atom_site_label
_atom_site_fract_x
_atom_site_fract_y
_atom_site_fract_z
Si Si1 0.085365 0.349032 0.414274
Si Si2 0.616170 0.336226 0.540443
Si Si3 0.731169 0.394133 0.756731
Si Si4 0.239188 0.891136 0.156934
Si Si5 0.915594 0.392215 0.964309
Si Si6 0.500000 0.500000 0.500000
O O1 0.076586 0.261621 0.543016
O O2 0.175663 0.388738 0.380194
O O3 0.088216 0.331852 0.205004
O O4 0.000000 0.401857 0.500000
O O5 0.668768 0.342790 0.677649
O O6 0.679672 0.343413 0.333180
O O7 0.553539 0.419173 0.561850
O O8 0.707788 0.500000 0.769704
O O9 0.727960 0.364936 0.961914
O O10 0.222638 0.000000 0.181740
O O11 0.333950 0.875812 0.132790
O O12 0.909290 0.500000 0.914328
O O13 0.000000 0.380010 0.000000
#
# Coordination Sequence:
#
# PCOD9215369 Si02
#       6
#     8   8   8   8   8   2
#     4  11  24  39  59  97 132 160 212 269 316 376
#     4  12  23  44  65  88 129 171 215 269 318 369
#     4  10  22  41  65  92 123 165 213 259 320 392
#     4   9  19  38  64  91 118 165 213 255 313 378
#     4   9  20  39  62  94 132 165 208 254 315 394
#     4  12  24  44  66  92 122 170 228 264 302 384
#
# _framework density 22.741893999999998
#
# number of rings (size 3 to 8) (size 9 to 14) (size 15 to 20)
#    0.000    1.714    2.857    2.286    2.667    4.571 
#    3.429    1.905    0.000    0.000    0.000    0.000 
#    0.000    0.000    0.000    0.000    0.000    0.000 
#
# Total GULP energy -117074.708833 kJ/mol
# GULP energy per Si atom -5574.986135 kJ/mol
# Density = 2.269013 g / cm^3
# Si number density = 22.741894 Si / 1000 Ang^3
#
#
#
# Elastic Constant Matrix: (Units=GPa)
#
#
# Indices 1 2 3 4 5 6 
#
# 1 127.4561 26.3409 10.2899 0.0000 20.4305 0.0000
# 2 26.3409 81.8948 8.4884 0.0000 15.1777 0.0000
# 3 10.2899 8.4884 46.0774 0.0000 2.0430 0.0000
# 4 0.0000 0.0000 0.0000 24.4431 0.0000 7.5998
# 5 20.4305 15.1777 2.0430 0.0000 24.8940 0.0000
# 6 0.0000 0.0000 0.0000 7.5998 0.0000 30.6056
#
#
#
# Elastic Compliance Matrix: (Units=1/GPa)
#
#
# Indices 1 2 3 4 5 6 
#
# 1 0.009356 -0.001639 -0.001497 0.000000 -0.006557 0.000000
# 2 -0.001639 0.014273 -0.001944 0.000000 -0.007198 0.000000
# 3 -0.001497 -0.001944 0.022369 0.000000 0.000578 0.000000
# 4 0.000000 0.000000 0.000000 0.044334 0.000000 -0.011009
# 5 -0.006557 -0.007198 0.000578 0.000000 0.049892 0.000000
# 6 0.000000 0.000000 0.000000 -0.011009 0.000000 0.035407
#
#
# Mechanical properties :
#
#
# Convention : Reuss Voigt Hill
#
# Bulk Modulus (GPa) = 27.90261 38.40740 33.15501
# Shear Modulus (GPa) = 25.28576 30.00915 27.64745
#
# Velocity S-wave (km/s) = 3.33807 3.63651 3.49048
# Velocity P-wave (km/s) = 5.21084 5.87855 5.55473
#
# Compressibility (1/GPa) = 0.03583894
#
# Stress axis : x y z
#
# Youngs Moduli (GPa) = 106.87851 70.06003 44.70388
#
# Poissons Ratio (x) = 0.11484 0.06691
# Poissons Ratio (y) = 0.17519 0.08692
# Poissons Ratio (z) = 0.15997 0.13622
#
# Static dielectric constant tensor:
#      x y z
#    x 1.856270 0.000000 -0.030180 
#    y 0.000000 1.853000 0.000000 
#    z -0.030180 0.000000 1.834940 
# 
# From -- ./inp_files/60960.got.cif
#   From: 2010.05.17/outbox.cif.g08.bks.cpg/sg12_31_cif.got.tgz:60960.got - 2010.06.03 13:09:07.
