data_PCOD9215683
_publ_section_title
;
Structure prediction by ZEFSAII (Michael W. Deem and Ramdas Pophale) SiO2 
 PCOD9215683
Probable space group: C 2/M
;
_chemical_formula_sum "Si O2"
_cell_formula_units_Z 48
_cell_length_a 12.587500
_cell_length_b 19.432712
_cell_length_c 14.638019
_cell_angle_alpha 90.000000
_cell_angle_beta 38.983457
_cell_angle_gamma 90.000000
_cell_volume 2252.537937
_symmetry_space_group_name_H-M "C 2/M"
_symmetry_group_IT_number 12
_symmetry_cell_setting 'monoclinic'
loop_
_space_group_symop_operation_xyz
x,y,z
-x,y,-z
-x,-y,-z
x,-y,z
1/2+x,1/2+y,z
1/2-x,1/2+y,-z
1/2-x,1/2-y,-z
1/2+x,1/2-y,z
loop_
_atom_site_type_symbol
_atom_site_label
_atom_site_fract_x
_atom_site_fract_y
_atom_site_fract_z
Si Si1 0.052865 0.632169 0.660942
Si Si2 0.829680 0.420162 0.961810
Si Si3 0.002135 0.833800 0.795276
Si Si4 0.924716 0.304457 0.171056
Si Si5 0.806471 0.575096 0.597877
Si Si6 0.436920 0.270673 0.646019
O O1 0.983509 0.692639 0.642649
O O2 0.144009 0.670235 0.683972
O O3 0.173861 0.582950 0.524200
O O4 0.901180 0.591008 0.811002
O O5 0.840776 0.500000 0.980183
O O6 0.643646 0.389425 0.093759
O O7 0.952444 0.367695 0.934922
O O8 0.010783 0.814201 0.682025
O O9 0.970485 0.764190 0.874040
O O10 0.179222 0.865218 0.710457
O O11 0.764244 0.285511 0.218516
O O12 0.741460 0.500000 0.667992
O O13 0.000000 0.579988 0.500000
O O14 0.500000 0.282977 0.500000
#
# Coordination Sequence:
#
# PCOD9215683 Si02
#       6
#     8   8   8   8   8   8
#     4   9  20  37  62  86 121 166 198 256 303 366
#     4  10  22  42  62  89 127 169 206 252 315 372
#     4  11  22  40  63  92 124 162 209 261 307 358
#     4   9  21  37  62  90 121 163 207 252 309 363
#     4  11  22  37  60  89 123 166 205 251 315 373
#     4  11  21  37  63  98 125 155 212 261 307 362
#
# _framework density 21.309297000000001
#
# number of rings (size 3 to 8) (size 9 to 14) (size 15 to 20)
#    1.000    0.833    0.000    5.000    0.000    3.333 
#    0.000    5.000    0.000    9.500    0.000    0.000 
#    0.000    0.000    0.000    0.000    0.000    0.000 
#
# Total GULP energy -133774.470639 kJ/mol
# GULP energy per Si atom -5573.936277 kJ/mol
# Density = 2.126080 g / cm^3
# Si number density = 21.309297 Si / 1000 Ang^3
#
#
#
# Elastic Constant Matrix: (Units=GPa)
#
#
# Indices 1 2 3 4 5 6 
#
# 1 58.8545 34.2970 13.3309 -0.0005 -22.7675 0.0007
# 2 34.2970 161.1666 40.7143 0.0004 -15.3913 0.0012
# 3 13.3309 40.7143 59.5224 0.0030 -4.4752 0.0024
# 4 -0.0005 0.0004 0.0030 31.7637 0.0010 -2.8404
# 5 -22.7675 -15.3913 -4.4752 0.0010 32.5069 -0.0007
# 6 0.0007 0.0012 0.0024 -2.8404 -0.0007 6.9653
#
#
#
# Elastic Compliance Matrix: (Units=1/GPa)
#
#
# Indices 1 2 3 4 5 6 
#
# 1 0.025681 -0.003362 -0.002242 0.000000 0.016086 0.000001
# 2 -0.003362 0.008217 -0.004802 0.000000 0.000874 0.000001
# 3 -0.002242 -0.004802 0.020510 -0.000003 -0.001020 -0.000007
# 4 0.000000 0.000000 -0.000003 0.032674 -0.000001 0.013324
# 5 0.016086 0.000874 -0.001020 -0.000001 0.042303 0.000003
# 6 0.000001 0.000001 -0.000007 0.013324 0.000003 0.149002
#
#
# Mechanical properties :
#
#
# Convention : Reuss Voigt Hill
#
# Bulk Modulus (GPa) = 29.76581 50.69200 40.22891
# Shear Modulus (GPa) = 16.10833 26.99394 21.55113
#
# Velocity S-wave (km/s) = 2.75240 3.56303 3.18362
# Velocity P-wave (km/s) = 4.90915 6.38492 5.69504
#
# Compressibility (1/GPa) = 0.03359559
#
# Stress axis : x y z
#
# Youngs Moduli (GPa) = 38.93907 121.70179 48.75603
#
# Poissons Ratio (x) = 0.40921 0.10932
# Poissons Ratio (y) = 0.13093 0.23411
# Poissons Ratio (z) = 0.08731 0.58437
#
# Static dielectric constant tensor:
#      x y z
#    x 1.823230 0.000000 0.024610 
#    y 0.000000 1.751910 0.000000 
#    z 0.024610 0.000000 1.794880 
# 
# From -- ./inp_files/311320.got.cif
#   From: 2010.05.17/outbox.cif.g08.bks.cpg/sg12_156_cif.got.tgz:311320.got - 2010.06.03 13:09:07.
