data_PCOD9215022
_publ_section_title
;
Structure prediction by ZEFSAII (Michael W. Deem and Ramdas Pophale) SiO2 
 PCOD9215022
Probable space group: C 2/M
;
_chemical_formula_sum "Si O2"
_cell_formula_units_Z 52
_cell_length_a 14.535337
_cell_length_b 15.550175
_cell_length_c 19.579724
_cell_angle_alpha 90.000000
_cell_angle_beta 148.986241
_cell_angle_gamma 90.000000
_cell_volume 2280.236067
_symmetry_space_group_name_H-M "C 2/M"
_symmetry_group_IT_number 12
_symmetry_cell_setting 'monoclinic'
loop_
_space_group_symop_operation_xyz
x,y,z
-x,y,-z
-x,-y,-z
x,-y,z
1/2+x,1/2+y,z
1/2-x,1/2+y,-z
1/2-x,1/2-y,-z
1/2+x,1/2-y,z
loop_
_atom_site_type_symbol
_atom_site_label
_atom_site_fract_x
_atom_site_fract_y
_atom_site_fract_z
Si Si1 0.507472 0.335668 0.262291
Si Si2 0.262263 0.854589 0.012987
Si Si3 0.214177 0.100087 0.137637
Si Si4 0.948278 0.000000 0.667133
Si Si5 0.748431 0.188516 0.375435
Si Si6 0.378468 0.736990 0.313288
Si Si7 0.866894 0.500000 0.980491
Si Si8 0.834402 0.000000 0.445119
O O1 0.431341 0.371404 0.143171
O O2 0.641318 0.411195 0.367910
O O3 0.591082 0.243769 0.305578
O O4 0.373088 0.321045 0.240873
O O5 0.383137 0.914073 0.039178
O O6 0.250000 0.750000 0.000000
O O7 0.276080 0.884852 0.098861
O O8 0.316826 0.168305 0.250881
O O9 0.240576 0.000000 0.173299
O O10 0.000000 0.117949 0.000000
O O11 0.158326 0.000000 0.822170
O O12 0.937532 0.000000 0.580844
O O13 0.760934 0.207817 0.302848
O O14 0.727872 0.087528 0.371062
O O15 0.924024 0.221255 0.528595
O O16 0.000000 0.500000 0.000000
O O17 0.000000 0.000000 0.500000
#
# Coordination Sequence:
#
# PCOD9215022 Si02
#       8
#     8   8   8   4   8   8   4   4
#     4  11  22  43  66  96 134 176 222 271 345 409
#     4  11  22  43  70  98 138 179 224 289 341 413
#     4  11  24  45  70  95 132 182 234 282 343 406
#     4  10  22  40  68  91 133 177 216 276 339 402
#     4  11  24  42  69  99 133 178 227 276 345 416
#     4  11  22  43  65  95 135 167 227 287 325 405
#     4  10  24  46  67 103 142 176 232 284 346 418
#     4  12  20  42  66  95 134 171 215 281 338 400
#
# _framework density 22.804656000000001
#
# number of rings (size 3 to 8) (size 9 to 14) (size 15 to 20)
#    0.000    1.077    5.385    1.385    0.000    0.615 
#   12.462    0.769    0.000    0.000    0.000    0.538 
#    0.000    0.000    0.000    0.000    0.000    0.000 
#
# Total GULP energy -144981.286893 kJ/mol
# GULP energy per Si atom -5576.203342 kJ/mol
# Density = 2.275275 g / cm^3
# Si number density = 22.804656 Si / 1000 Ang^3
#
#
#
# Elastic Constant Matrix: (Units=GPa)
#
#
# Indices 1 2 3 4 5 6 
#
# 1 86.4988 56.4281 31.8395 0.0001 -13.9979 0.0002
# 2 56.4281 214.9499 50.6337 0.0001 -4.7975 0.0002
# 3 31.8395 50.6337 82.2887 -0.0011 -23.7365 -0.0006
# 4 0.0001 0.0001 -0.0011 38.9361 -0.0002 -6.9722
# 5 -13.9979 -4.7975 -23.7365 -0.0002 25.1282 0.0000
# 6 0.0002 0.0002 -0.0006 -6.9722 0.0000 31.9590
#
#
#
# Elastic Compliance Matrix: (Units=1/GPa)
#
#
# Indices 1 2 3 4 5 6 
#
# 1 0.015574 -0.003439 -0.002195 0.000000 0.005946 0.000000
# 2 -0.003439 0.006361 -0.003829 0.000000 -0.004318 0.000000
# 3 -0.002195 -0.003829 0.020335 0.000001 0.017255 0.000001
# 4 0.000000 0.000000 0.000001 0.026727 0.000001 0.005831
# 5 0.005946 -0.004318 0.017255 0.000001 0.058583 0.000001
# 6 0.000000 0.000000 0.000001 0.005831 0.000001 0.032562
#
#
# Mechanical properties :
#
#
# Convention : Reuss Voigt Hill
#
# Bulk Modulus (GPa) = 42.83664 73.50444 58.17054
# Shear Modulus (GPa) = 26.75967 35.52706 31.14337
#
# Velocity S-wave (km/s) = 3.42925 3.95129 3.69949
# Velocity P-wave (km/s) = 5.87407 7.28828 6.61905
#
# Compressibility (1/GPa) = 0.02334450
#
# Stress axis : x y z
#
# Youngs Moduli (GPa) = 64.20825 157.22033 49.17691
#
# Poissons Ratio (x) = 0.54064 0.10795
# Poissons Ratio (y) = 0.22080 0.18828
# Poissons Ratio (z) = 0.14094 0.60195
#
# Static dielectric constant tensor:
#      x y z
#    x 1.802260 0.000000 0.032570 
#    y 0.000000 1.920420 0.000000 
#    z 0.032570 0.000000 1.898800 
# 
# From -- ./inp_files/270791.got.cif
#   From: 2010.05.17/outbox.cif.g08.bks.cpg/sg12_136_cif.got.tgz:270791.got - 2010.06.03 13:09:07.
