data_PCOD9215822
_publ_section_title
;
Structure prediction by ZEFSAII (Michael W. Deem and Ramdas Pophale) SiO2 
 PCOD9215822
Probable space group: C 2/M
;
_chemical_formula_sum "Si O2"
_cell_formula_units_Z 56
_cell_length_a 9.915157
_cell_length_b 14.163000
_cell_length_c 26.439433
_cell_angle_alpha 90.000000
_cell_angle_beta 53.974245
_cell_angle_gamma 90.000000
_cell_volume 3002.774576
_symmetry_space_group_name_H-M "C 2/M"
_symmetry_group_IT_number 12
_symmetry_cell_setting 'monoclinic'
loop_
_space_group_symop_operation_xyz
x,y,z
-x,y,-z
-x,-y,-z
x,-y,z
1/2+x,1/2+y,z
1/2-x,1/2+y,-z
1/2-x,1/2-y,-z
1/2+x,1/2-y,z
loop_
_atom_site_type_symbol
_atom_site_label
_atom_site_fract_x
_atom_site_fract_y
_atom_site_fract_z
Si Si1 0.320864 0.611921 0.142625
Si Si2 0.526143 0.889146 0.840880
Si Si3 0.697127 0.191640 0.462591
Si Si4 0.054508 0.729476 0.043880
Si Si5 0.617043 0.797835 0.666837
Si Si6 0.336009 0.500000 0.471428
Si Si7 0.230409 0.230910 0.748992
Si Si8 0.235995 0.000000 0.393632
O O1 0.355172 0.500000 0.131783
O O2 0.134847 0.628024 0.160291
O O3 0.449723 0.677029 0.083046
O O4 0.327173 0.649884 0.198961
O O5 0.480887 0.849032 0.905933
O O6 0.683908 0.828501 0.787633
O O7 0.558653 0.000000 0.833964
O O8 0.500000 0.187749 0.500000
O O9 0.750000 0.250000 0.500000
O O10 0.773532 0.242447 0.397655
O O11 0.773327 0.089981 0.455172
O O12 0.250000 0.750000 0.000000
O O13 0.000000 0.699947 0.000000
O O14 0.423424 0.788453 0.696295
O O15 0.641834 0.746861 0.715100
O O16 0.679279 0.906615 0.649087
O O17 0.536730 0.500000 0.428930
O O18 0.257843 0.500000 0.545850
#
# Coordination Sequence:
#
# PCOD9215822 Si02
#       8
#     8   8   8   8   8   4   8   4
#     4  10  22  42  66  91 126 175 215 254 313 380
#     4  10  22  42  68  92 130 175 213 258 318 376
#     4  12  24  44  66  95 133 170 211 271 336 395
#     4  11  22  39  65 100 134 164 211 265 311 368
#     4  12  25  42  67  93 125 165 219 265 322 388
#     4  11  23  44  64  96 130 166 212 264 338 400
#     4  11  24  42  63  94 125 166 215 270 311 375
#     4  11  24  40  72  94 120 172 216 263 326 404
#
# _framework density 18.649418000000001
#
# number of rings (size 3 to 8) (size 9 to 14) (size 15 to 20)
#    0.000    1.000    4.286    2.786    2.000    1.143 
#    2.571    1.429    0.000    0.000    0.000    0.000 
#    0.000    0.000    0.000    0.000    0.000    0.000 
#
# Total GULP energy -156389.725685 kJ/mol
# GULP energy per Si atom -5585.347346 kJ/mol
# Density = 1.860697 g / cm^3
# Si number density = 18.649418 Si / 1000 Ang^3
#
#
#
# Elastic Constant Matrix: (Units=GPa)
#
#
# Indices 1 2 3 4 5 6 
#
# 1 58.3580 35.5184 -3.2698 0.0000 -5.2720 0.0000
# 2 35.5184 137.0512 32.1266 0.0000 -0.3836 0.0000
# 3 -3.2698 32.1266 59.9347 0.0000 1.0529 0.0000
# 4 0.0000 0.0000 0.0000 10.8637 0.0000 -2.9746
# 5 -5.2720 -0.3836 1.0529 0.0000 46.8753 0.0000
# 6 0.0000 0.0000 0.0000 -2.9746 0.0000 25.0564
#
#
#
# Elastic Compliance Matrix: (Units=1/GPa)
#
#
# Indices 1 2 3 4 5 6 
#
# 1 0.021706 -0.006733 0.004753 0.000000 0.002279 0.000000
# 2 -0.006733 0.010435 -0.005951 0.000000 -0.000538 0.000000
# 3 0.004753 -0.005951 0.020134 0.000000 0.000034 0.000000
# 4 0.000000 0.000000 0.000000 0.095142 0.000000 0.011295
# 5 0.002279 -0.000538 0.000034 0.000000 0.021584 0.000000
# 6 0.000000 0.000000 0.000000 0.011295 0.000000 0.041251
#
#
# Mechanical properties :
#
#
# Convention : Reuss Voigt Hill
#
# Bulk Modulus (GPa) = 27.46339 42.67713 35.07026
# Shear Modulus (GPa) = 20.98621 29.29033 25.13827
#
# Velocity S-wave (km/s) = 3.35819 3.96735 3.67541
# Velocity P-wave (km/s) = 5.45845 6.62722 6.07103
#
# Compressibility (1/GPa) = 0.03641211
#
# Stress axis : x y z
#
# Youngs Moduli (GPa) = 46.07053 95.83049 49.66809
#
# Poissons Ratio (x) = 0.64524 -0.23609
# Poissons Ratio (y) = 0.31020 0.29559
# Poissons Ratio (z) = -0.21899 0.57032
#
# Static dielectric constant tensor:
#      x y z
#    x 1.631430 0.000000 0.013820 
#    y 0.000000 1.604690 0.000000 
#    z 0.013820 0.000000 1.644580 
# 
# From -- ./inp_files/332872.got.cif
#   From: 2010.05.17/outbox.cif.g08.bks.cpg/sg12_167_cif.got.tgz:332872.got - 2010.06.03 13:09:07.
