data_PCOD9215646
_publ_section_title
;
Structure prediction by ZEFSAII (Michael W. Deem and Ramdas Pophale) SiO2 
 PCOD9215646
Probable space group: C 2/M
;
_chemical_formula_sum "Si O2"
_cell_formula_units_Z 44
_cell_length_a 18.132576
_cell_length_b 10.805988
_cell_length_c 10.708156
_cell_angle_alpha 90.000000
_cell_angle_beta 117.333086
_cell_angle_gamma 90.000000
_cell_volume 1863.905437
_symmetry_space_group_name_H-M "C 2/M"
_symmetry_group_IT_number 12
_symmetry_cell_setting 'monoclinic'
loop_
_space_group_symop_operation_xyz
x,y,z
-x,y,-z
-x,-y,-z
x,-y,z
1/2+x,1/2+y,z
1/2-x,1/2+y,-z
1/2-x,1/2-y,-z
1/2+x,1/2-y,z
loop_
_atom_site_type_symbol
_atom_site_label
_atom_site_fract_x
_atom_site_fract_y
_atom_site_fract_z
Si Si1 0.601318 0.500000 0.099628
Si Si2 0.666466 0.218705 0.731591
Si Si3 0.163024 0.258295 0.263473
Si Si4 0.916567 0.357823 0.579236
Si Si5 0.025152 0.132306 0.666313
Si Si6 0.898809 0.500000 0.920528
Si Si7 0.765927 0.500000 0.049574
O O1 0.625459 0.624337 0.196597
O O2 0.667825 0.500000 0.030293
O O3 0.500000 0.500000 0.000000
O O4 0.744781 0.258432 0.714851
O O5 0.603167 0.155718 0.582858
O O6 0.622020 0.339528 0.751263
O O7 0.696665 0.122258 0.855967
O O8 0.160791 0.304250 0.404441
O O9 0.116465 0.369769 0.159309
O O10 0.935494 0.500000 0.620888
O O11 0.983840 0.258679 0.679602
O O12 0.000000 0.125311 0.500000
O O13 0.001617 0.000000 0.703232
O O14 0.821726 0.500000 0.963959
O O15 0.000000 0.500000 0.000000
#
# Coordination Sequence:
#
# PCOD9215646 Si02
#       7
#     4   8   8   8   8   4   4
#     4  10  24  50  71  97 143 191 238 292 351 412
#     4  10  22  41  70  98 138 176 229 281 354 430
#     4  11  25  45  66 104 135 181 233 284 360 411
#     4  11  22  40  69 103 138 180 222 279 354 435
#     4   9  21  37  58  96 138 177 218 271 340 414
#     4  12  28  47  70 101 135 179 251 304 344 407
#     4  10  24  45  74 102 133 184 246 290 346 419
#
# _framework density 23.606347
#
# number of rings (size 3 to 8) (size 9 to 14) (size 15 to 20)
#    0.000    1.636    1.818    1.091    6.364    4.000 
#    3.273    0.000    0.000    0.000    0.000    0.000 
#    0.000    0.000    0.000    0.000    0.000    0.000 
#
# Total GULP energy -122541.875696 kJ/mol
# GULP energy per Si atom -5570.085259 kJ/mol
# Density = 2.355262 g / cm^3
# Si number density = 23.606347 Si / 1000 Ang^3
#
#
#
# Elastic Constant Matrix: (Units=GPa)
#
#
# Indices 1 2 3 4 5 6 
#
# 1 95.2431 58.3890 22.1482 0.0000 14.6240 0.0000
# 2 58.3890 221.4877 35.0569 0.0000 7.5974 0.0000
# 3 22.1482 35.0569 38.9729 0.0000 -3.9032 0.0000
# 4 0.0000 0.0000 0.0000 -76.3403 0.0000 -139.8038
# 5 14.6240 7.5974 -3.9032 0.0000 41.4734 0.0000
# 6 0.0000 0.0000 0.0000 -139.8038 0.0000 -132.2943
#
#
#
# Elastic Compliance Matrix: (Units=1/GPa)
#
#
# Indices 1 2 3 4 5 6 
#
# 1 0.014368 -0.002606 -0.006340 0.000000 -0.005186 0.000000
# 2 -0.002606 0.005822 -0.003806 0.000000 -0.000506 0.000000
# 3 -0.006340 -0.003806 0.033293 0.000000 0.006066 0.000000
# 4 0.000000 0.000000 0.000000 0.014006 0.000000 -0.014801
# 5 -0.005186 -0.000506 0.006066 0.000000 0.026604 0.000000
# 6 0.000000 0.000000 0.000000 -0.014801 0.000000 0.008082
#
#
# Mechanical properties :
#
#
# Convention : Reuss Voigt Hill
#
# Bulk Modulus (GPa) = 35.74303 65.21022 50.47663
# Shear Modulus (GPa) = 36.49477 -17.42495 9.53491
#
# Velocity S-wave (km/s) = 3.93615 -2.71983 2.01194
# Velocity P-wave (km/s) = 5.98597 4.22145 5.17941
#
# Compressibility (1/GPa) = 0.02797749
#
# Stress axis : x y z
#
# Youngs Moduli (GPa) = 69.60007 171.76786 30.03601
#
# Poissons Ratio (x) = 0.44768 0.19043
# Poissons Ratio (y) = 0.18140 0.11433
# Poissons Ratio (z) = 0.44127 0.65381
#
# Static dielectric constant tensor:
#      x y z
#    x 2.079100 0.000000 -0.054930 
#    y 0.000000 1.854110 0.000000 
#    z -0.054930 0.000000 2.005620 
# 
# From -- ./inp_files/154426.got.cif
#   From: 2010.05.17/outbox.cif.g08.bks.cpg/sg12_78_cif.got.tgz:154426.got - 2010.06.03 13:09:07.
