data_PCOD9215000
_publ_section_title
;
Structure prediction by ZEFSAII (Michael W. Deem and Ramdas Pophale) SiO2 
 PCOD9215000
Probable space group: C 2/M
;
_chemical_formula_sum "Si O2"
_cell_formula_units_Z 40
_cell_length_a 10.048653
_cell_length_b 16.756991
_cell_length_c 11.283872
_cell_angle_alpha 90.000000
_cell_angle_beta 79.953065
_cell_angle_gamma 90.000000
_cell_volume 1870.900174
_symmetry_space_group_name_H-M "C 2/M"
_symmetry_group_IT_number 12
_symmetry_cell_setting 'monoclinic'
loop_
_space_group_symop_operation_xyz
x,y,z
-x,y,-z
-x,-y,-z
x,-y,z
1/2+x,1/2+y,z
1/2-x,1/2+y,-z
1/2-x,1/2-y,-z
1/2+x,1/2-y,z
loop_
_atom_site_type_symbol
_atom_site_label
_atom_site_fract_x
_atom_site_fract_y
_atom_site_fract_z
Si Si1 0.935662 0.407143 0.722827
Si Si2 0.271676 0.126907 0.235697
Si Si3 0.019849 0.912821 0.637134
Si Si4 0.146736 0.676719 0.019458
Si Si5 0.749855 0.290165 0.629631
O O1 0.899804 0.500000 0.714397
O O2 0.873528 0.369122 0.853739
O O3 0.874880 0.349942 0.631116
O O4 0.098001 0.401324 0.710653
O O5 0.250810 0.219371 0.275205
O O6 0.129143 0.088470 0.286438
O O7 0.306788 0.117910 0.092641
O O8 0.115646 0.842944 0.666826
O O9 0.000000 0.901337 0.500000
O O10 0.082548 0.000000 0.647344
O O11 0.250000 0.750000 0.000000
O O12 0.000000 0.707283 0.000000
O O13 0.750000 0.250000 0.500000
#
# Coordination Sequence:
#
# PCOD9215000 Si02
#       5
#     8   8   8   8   8
#     4  11  25  44  68 100 134 171 220 280 332 385
#     4  11  23  41  71  94 129 175 223 265 331 397
#     4  11  24  42  62  92 131 169 215 272 327 381
#     4  10  22  40  67  97 131 171 221 270 327 396
#     4  12  24  43  66  95 132 178 222 267 323 397
#
# _framework density 21.380082000000002
#
# number of rings (size 3 to 8) (size 9 to 14) (size 15 to 20)
#    0.000    1.000    4.000    2.400    2.800    4.400 
#    0.000    1.000    0.000    3.000    0.000    0.000 
#    0.000    0.000    0.000    0.000    0.000    0.000 
#
# Total GULP energy -111831.256265 kJ/mol
# GULP energy per Si atom -5591.562813 kJ/mol
# Density = 2.133142 g / cm^3
# Si number density = 21.380082 Si / 1000 Ang^3
#
#
#
# Elastic Constant Matrix: (Units=GPa)
#
#
# Indices 1 2 3 4 5 6 
#
# 1 100.1544 20.6005 16.9612 0.0000 -1.7623 0.0000
# 2 20.6005 127.3164 3.0338 0.0000 21.1702 0.0000
# 3 16.9612 3.0338 64.8448 0.0000 6.9320 0.0000
# 4 0.0000 0.0000 0.0000 -36.9909 0.0000 -6.0052
# 5 -1.7623 21.1702 6.9320 0.0000 25.8828 0.0000
# 6 0.0000 0.0000 0.0000 -6.0052 0.0000 17.5129
#
#
#
# Elastic Compliance Matrix: (Units=1/GPa)
#
#
# Indices 1 2 3 4 5 6 
#
# 1 0.011051 -0.002290 -0.003154 0.000000 0.003470 0.000000
# 2 -0.002290 0.009574 0.001034 0.000000 -0.008264 0.000000
# 3 -0.003154 0.001034 0.016792 0.000000 -0.005558 0.000000
# 4 0.000000 0.000000 0.000000 -0.025608 0.000000 -0.008781
# 5 0.003470 -0.008264 -0.005558 0.000000 0.047120 0.000000
# 6 0.000000 0.000000 0.000000 -0.008781 0.000000 0.054090
#
#
# Mechanical properties :
#
#
# Convention : Reuss Voigt Hill
#
# Bulk Modulus (GPa) = 34.96756 41.50075 38.23415
# Shear Modulus (GPa) = 38.06002 18.06231 28.06117
#
# Velocity S-wave (km/s) = 4.22377 2.90973 3.62676
# Velocity P-wave (km/s) = 6.33859 5.54453 5.95481
#
# Compressibility (1/GPa) = 0.02859793
#
# Stress axis : x y z
#
# Youngs Moduli (GPa) = 90.49078 104.44420 59.55115
#
# Poissons Ratio (x) = 0.23917 0.18785
# Poissons Ratio (y) = 0.20722 -0.06160
# Poissons Ratio (z) = 0.28544 -0.10804
#
# Static dielectric constant tensor:
#      x y z
#    x 1.819600 0.000000 0.000580 
#    y 0.000000 1.762800 0.000000 
#    z 0.000580 0.000000 1.802750 
# 
# From -- ./inp_files/118925.got.cif
#   From: 2010.05.17/outbox.cif.g08.bks.cpg/sg12_60_cif.got.tgz:118925.got - 2010.06.03 13:09:07.
