data_PCOD9215982
_publ_section_title
;
Structure prediction by ZEFSAII (Michael W. Deem and Ramdas Pophale) SiO2 
 PCOD9215982
Probable space group: C 2/M
;
_chemical_formula_sum "Si O2"
_cell_formula_units_Z 64
_cell_length_a 10.769472
_cell_length_b 20.567306
_cell_length_c 12.159098
_cell_angle_alpha 90.000000
_cell_angle_beta 76.133272
_cell_angle_gamma 90.000000
_cell_volume 2614.736432
_symmetry_space_group_name_H-M "C 2/M"
_symmetry_group_IT_number 12
_symmetry_cell_setting 'monoclinic'
loop_
_space_group_symop_operation_xyz
x,y,z
-x,y,-z
-x,-y,-z
x,-y,z
1/2+x,1/2+y,z
1/2-x,1/2+y,-z
1/2-x,1/2-y,-z
1/2+x,1/2-y,z
loop_
_atom_site_type_symbol
_atom_site_label
_atom_site_fract_x
_atom_site_fract_y
_atom_site_fract_z
Si Si1 0.635634 0.752816 0.611518
Si Si2 0.781712 0.925709 0.345590
Si Si3 0.740604 0.321281 0.224820
Si Si4 0.930419 0.428761 0.172429
Si Si5 0.979706 0.879051 0.622868
Si Si6 0.597169 0.894968 0.569790
Si Si7 0.771937 0.423071 0.887332
Si Si8 0.865521 0.802580 0.970934
O O1 0.750000 0.750000 0.500000
O O2 0.698113 0.762266 0.719935
O O3 0.544818 0.692197 0.612152
O O4 0.563298 0.820294 0.605234
O O5 0.934915 0.918983 0.310743
O O6 0.726105 0.894426 0.468545
O O7 0.730737 0.901070 0.240313
O O8 0.744457 0.000000 0.360956
O O9 0.850324 0.366460 0.150063
O O10 0.668458 0.368696 0.324863
O O11 0.628820 0.307388 0.162027
O O12 0.885643 0.500000 0.142125
O O13 0.915305 0.428666 0.309451
O O14 0.079079 0.420742 0.111454
O O15 0.000000 0.909796 0.500000
O O16 0.500000 0.921886 0.500000
O O17 0.732375 0.500000 0.902067
O O18 0.684074 0.371459 0.969987
O O19 0.750000 0.750000 0.000000
O O20 0.000000 0.785176 0.000000
#
# Coordination Sequence:
#
# PCOD9215982 Si02
#       8
#     8   8   8   8   8   8   8   8
#     4  11  22  39  62  97 134 185 230 283 352 449
#     4  11  23  38  64  98 135 186 236 293 362 430
#     4  11  27  43  70 103 138 185 235 295 364 432
#     4  10  22  42  69 106 144 187 241 297 363 443
#     4  12  23  41  64  95 141 184 232 282 361 438
#     4  11  20  33  61  97 139 182 233 294 353 434
#     4  10  24  48  77 105 144 195 251 309 373 444
#     4  12  31  52  78 112 147 190 248 317 376 435
#
# _framework density 24.476654
#
# number of rings (size 3 to 8) (size 9 to 14) (size 15 to 20)
#    0.000    1.000    3.750    2.250    5.250    3.000 
#    0.000    1.250    0.000    0.000    0.000    0.000 
#    0.000    0.000    0.000    0.000    0.000    0.000 
#
# Total GULP energy -178818.845948 kJ/mol
# GULP energy per Si atom -5588.088936 kJ/mol
# Density = 2.442094 g / cm^3
# Si number density = 24.476654 Si / 1000 Ang^3
#
#
#
# Elastic Constant Matrix: (Units=GPa)
#
#
# Indices 1 2 3 4 5 6 
#
# 1 119.9967 24.4622 18.7817 0.0000 16.1373 0.0000
# 2 24.4622 84.2269 14.0303 0.0000 -0.5625 0.0000
# 3 18.7817 14.0303 86.3338 0.0000 14.1410 0.0000
# 4 0.0000 0.0000 0.0000 24.6956 0.0000 -5.4609
# 5 16.1373 -0.5625 14.1410 0.0000 45.6495 0.0000
# 6 0.0000 0.0000 0.0000 -5.4609 0.0000 27.6272
#
#
#
# Elastic Compliance Matrix: (Units=1/GPa)
#
#
# Indices 1 2 3 4 5 6 
#
# 1 0.009442 -0.002572 -0.001142 0.000000 -0.003016 0.000000
# 2 -0.002572 0.012932 -0.001809 0.000000 0.001629 0.000000
# 3 -0.001142 -0.001809 0.012708 0.000000 -0.003555 0.000000
# 4 0.000000 0.000000 0.000000 0.042344 0.000000 0.008370
# 5 -0.003016 0.001629 -0.003555 0.000000 0.024093 0.000000
# 6 0.000000 0.000000 0.000000 0.008370 0.000000 0.037851
#
#
# Mechanical properties :
#
#
# Convention : Reuss Voigt Hill
#
# Bulk Modulus (GPa) = 41.60518 45.01172 43.30845
# Shear Modulus (GPa) = 31.56007 35.14667 33.35337
#
# Velocity S-wave (km/s) = 3.59471 3.79347 3.69543
# Velocity P-wave (km/s) = 5.85355 6.13326 5.99503
#
# Compressibility (1/GPa) = 0.02403547
#
# Stress axis : x y z
#
# Youngs Moduli (GPa) = 105.90683 77.32792 78.69261
#
# Poissons Ratio (x) = 0.19890 0.08988
# Poissons Ratio (y) = 0.27242 0.14234
# Poissons Ratio (z) = 0.12096 0.13987
#
# Static dielectric constant tensor:
#      x y z
#    x 1.993180 0.000000 0.015310 
#    y 0.000000 1.959520 0.000000 
#    z 0.015310 0.000000 2.155000 
# 
# From -- ./inp_files/135948.got.cif
#   From: 2010.05.17/outbox.cif.g08.bks.cpg/sg12_68_cif.got.tgz:135948.got - 2010.06.03 13:09:07.
