data_PCOD9215158
_publ_section_title
;
Structure prediction by ZEFSAII (Michael W. Deem and Ramdas Pophale) SiO2 
 PCOD9215158
Probable space group: C 2/M
;
_chemical_formula_sum "Si O2"
_cell_formula_units_Z 36
_cell_length_a 20.298443
_cell_length_b 18.294860
_cell_length_c 11.849553
_cell_angle_alpha 90.000000
_cell_angle_beta 157.623315
_cell_angle_gamma 90.000000
_cell_volume 1675.212711
_symmetry_space_group_name_H-M "C 2/M"
_symmetry_group_IT_number 12
_symmetry_cell_setting 'monoclinic'
loop_
_space_group_symop_operation_xyz
x,y,z
-x,y,-z
-x,-y,-z
x,-y,z
1/2+x,1/2+y,z
1/2-x,1/2+y,-z
1/2-x,1/2-y,-z
1/2+x,1/2-y,z
loop_
_atom_site_type_symbol
_atom_site_label
_atom_site_fract_x
_atom_site_fract_y
_atom_site_fract_z
Si Si1 0.850991 0.619733 0.933778
Si Si2 0.760225 0.500000 0.229280
Si Si3 0.114533 0.000000 0.470276
Si Si4 0.182240 0.235406 0.267609
Si Si5 0.456574 0.849401 0.549405
Si Si6 0.850477 0.500000 0.622418
O O1 0.681571 0.571091 0.643521
O O2 0.851440 0.689694 0.853868
O O3 0.878647 0.640356 0.108208
O O4 0.018642 0.568955 0.171900
O O5 0.870445 0.427151 0.382358
O O6 0.738809 0.500000 0.331438
O O7 0.584151 0.500000 0.880068
O O8 0.229244 0.000000 0.537839
O O9 0.250000 0.250000 0.500000
O O10 0.317568 0.191973 0.406469
O O11 0.000000 0.195242 0.000000
O O12 0.500000 0.811514 0.500000
#
# Coordination Sequence:
#
# PCOD9215158 Si02
#       6
#     8   4   4   8   8   4
#     4  10  22  41  62  95 135 176 213 268 337 389
#     4  10  24  39  66  97 125 173 229 273 316 402
#     4  11  21  35  67 100 131 168 220 283 328 383
#     4  12  25  43  70 101 135 171 222 276 330 395
#     4  11  26  47  68  92 136 184 220 267 335 398
#     4   9  19  36  64  93 135 174 214 265 341 387
#
# _framework density 21.489809000000001
#
# number of rings (size 3 to 8) (size 9 to 14) (size 15 to 20)
#    0.000    1.333    2.222    4.000    6.222    0.889 
#    0.000    2.222    0.000    0.000    0.000    0.000 
#    0.000    0.000    0.000    0.000    0.000    0.000 
#
# Total GULP energy -100664.219246 kJ/mol
# GULP energy per Si atom -5592.456625 kJ/mol
# Density = 2.144090 g / cm^3
# Si number density = 21.489809 Si / 1000 Ang^3
#
#
#
# Elastic Constant Matrix: (Units=GPa)
#
#
# Indices 1 2 3 4 5 6 
#
# 1 149.8600 33.5710 63.9654 0.0000 -26.7645 0.0000
# 2 33.5710 87.5492 34.5834 0.0000 -3.8275 0.0000
# 3 63.9654 34.5834 158.8598 0.0000 -36.6455 0.0000
# 4 0.0000 0.0000 0.0000 21.4634 0.0000 -7.2483
# 5 -26.7645 -3.8275 -36.6455 0.0000 24.7275 0.0000
# 6 0.0000 0.0000 0.0000 -7.2483 0.0000 19.2901
#
#
#
# Elastic Compliance Matrix: (Units=1/GPa)
#
#
# Indices 1 2 3 4 5 6 
#
# 1 0.009199 -0.002645 -0.001407 0.000000 0.007463 0.000000
# 2 -0.002645 0.013425 -0.003097 0.000000 -0.005376 0.000000
# 3 -0.001407 -0.003097 0.010748 0.000000 0.013927 0.000000
# 4 0.000000 0.000000 0.000000 0.053362 0.000000 0.020051
# 5 0.007463 -0.005376 0.013927 0.000000 0.068325 0.000000
# 6 0.000000 0.000000 0.000000 0.020051 0.000000 0.059374
#
#
# Mechanical properties :
#
#
# Convention : Reuss Voigt Hill
#
# Bulk Modulus (GPa) = 52.43028 73.38986 62.91007
# Shear Modulus (GPa) = 21.26849 30.70615 25.98732
#
# Velocity S-wave (km/s) = 3.14936 3.78414 3.48125
# Velocity P-wave (km/s) = 6.13803 7.30192 6.74513
#
# Compressibility (1/GPa) = 0.01907295
#
# Stress axis : x y z
#
# Youngs Moduli (GPa) = 108.71166 74.48742 93.04004
#
# Poissons Ratio (x) = 0.19705 0.13086
# Poissons Ratio (y) = 0.28759 0.28819
# Poissons Ratio (z) = 0.15291 0.23072
#
# Static dielectric constant tensor:
#      x y z
#    x 1.809310 0.000000 -0.045380 
#    y 0.000000 1.798400 0.000000 
#    z -0.045380 0.000000 1.890360 
# 
# From -- ./inp_files/169925.got.cif
#   From: 2010.05.17/outbox.cif.g08.bks.cpg/sg12_85_cif.got.tgz:169925.got - 2010.06.03 13:09:07.
