data_PCOD9215420
_publ_section_title
;
Structure prediction by ZEFSAII (Michael W. Deem and Ramdas Pophale) SiO2 
 PCOD9215420
Probable space group: C 2/M
;
_chemical_formula_sum "Si O2"
_cell_formula_units_Z 56
_cell_length_a 8.942147
_cell_length_b 26.802463
_cell_length_c 12.424433
_cell_angle_alpha 90.000000
_cell_angle_beta 61.469374
_cell_angle_gamma 90.000000
_cell_volume 2616.167047
_symmetry_space_group_name_H-M "C 2/M"
_symmetry_group_IT_number 12
_symmetry_cell_setting 'monoclinic'
loop_
_space_group_symop_operation_xyz
x,y,z
-x,y,-z
-x,-y,-z
x,-y,z
1/2+x,1/2+y,z
1/2-x,1/2+y,-z
1/2-x,1/2-y,-z
1/2+x,1/2-y,z
loop_
_atom_site_type_symbol
_atom_site_label
_atom_site_fract_x
_atom_site_fract_y
_atom_site_fract_z
Si Si1 0.668555 0.442018 0.370870
Si Si2 0.875407 0.304012 0.842282
Si Si3 0.965991 0.445444 0.638102
Si Si4 0.765788 0.149451 0.300306
Si Si5 0.311937 0.850797 0.221967
Si Si6 0.097701 0.804558 0.111280
Si Si7 0.810134 0.195840 0.517033
O O1 0.500000 0.429299 0.500000
O O2 0.647447 0.500000 0.345437
O O3 0.705675 0.402067 0.264853
O O4 0.847125 0.437991 0.374438
O O5 0.845921 0.309384 0.725208
O O6 0.962430 0.251661 0.842380
O O7 0.984049 0.349783 0.854389
O O8 0.693988 0.303998 0.965101
O O9 0.903298 0.500000 0.696539
O O10 0.828843 0.401722 0.696167
O O11 0.000000 0.447431 0.500000
O O12 0.785696 0.160938 0.419924
O O13 0.949816 0.156110 0.183841
O O14 0.237465 0.817108 0.153859
O O15 0.289553 0.825696 0.346905
O O16 0.750000 0.250000 0.500000
O O17 0.000000 0.197714 0.500000
#
# Coordination Sequence:
#
# PCOD9215420 Si02
#       7
#     8   8   8   8   8   8   8
#     4  10  22  41  66  95 129 170 217 267 329 402
#     4  11  24  43  65  91 126 184 228 268 312 382
#     4  10  22  41  65  96 130 170 216 265 331 405
#     4  12  24  41  66  95 133 169 216 276 333 394
#     4  12  23  40  64  95 132 168 215 275 329 388
#     4  11  24  42  65  92 131 176 232 266 311 388
#     4  12  26  39  60  95 136 174 208 263 339 403
#
# _framework density 21.405360999999999
#
# number of rings (size 3 to 8) (size 9 to 14) (size 15 to 20)
#    0.000    0.857    2.857    4.714    4.000    2.286 
#    0.000    0.000    0.000    5.571    0.000    0.000 
#    0.000    0.000    0.000    0.000    0.000    0.000 
#
# Total GULP energy -156400.477444 kJ/mol
# GULP energy per Si atom -5585.731337 kJ/mol
# Density = 2.135664 g / cm^3
# Si number density = 21.405361 Si / 1000 Ang^3
#
#
#
# Elastic Constant Matrix: (Units=GPa)
#
#
# Indices 1 2 3 4 5 6 
#
# 1 115.5707 36.6322 23.4685 0.0000 -0.2534 0.0000
# 2 36.6322 114.5196 32.4973 0.0000 -8.2029 0.0000
# 3 23.4685 32.4973 58.7690 0.0000 9.3573 0.0000
# 4 0.0000 0.0000 0.0000 21.1018 0.0000 -7.9974
# 5 -0.2534 -8.2029 9.3573 0.0000 44.1004 0.0000
# 6 0.0000 0.0000 0.0000 -7.9974 0.0000 36.3507
#
#
#
# Elastic Compliance Matrix: (Units=1/GPa)
#
#
# Indices 1 2 3 4 5 6 
#
# 1 0.009961 -0.002416 -0.002669 0.000000 0.000174 0.000000
# 2 -0.002416 0.011415 -0.005881 0.000000 0.003357 0.000000
# 3 -0.002669 -0.005881 0.022263 0.000000 -0.005833 0.000000
# 4 0.000000 0.000000 0.000000 0.051700 0.000000 0.011374
# 5 0.000174 0.003357 -0.005833 0.000000 0.024539 0.000000
# 6 0.000000 0.000000 0.000000 0.011374 0.000000 0.030012
#
#
# Mechanical properties :
#
#
# Convention : Reuss Voigt Hill
#
# Bulk Modulus (GPa) = 46.07449 52.67279 49.37364
# Shear Modulus (GPa) = 27.92389 33.39467 30.65928
#
# Velocity S-wave (km/s) = 3.61574 3.95411 3.78870
# Velocity P-wave (km/s) = 6.24523 6.74591 6.50039
#
# Compressibility (1/GPa) = 0.02170398
#
# Stress axis : x y z
#
# Youngs Moduli (GPa) = 100.39101 87.60771 44.91809
#
# Poissons Ratio (x) = 0.21169 0.11990
# Poissons Ratio (y) = 0.24258 0.26418
# Poissons Ratio (z) = 0.26798 0.51526
#
# Static dielectric constant tensor:
#      x y z
#    x 1.887680 0.000000 -0.063540 
#    y 0.000000 1.842880 0.000000 
#    z -0.063540 0.000000 1.800160 
# 
# From -- ./inp_files/125631.got.cif
#   From: 2010.05.17/outbox.cif.g08.bks.cpg/sg12_63_cif.got.tgz:125631.got - 2010.06.03 13:09:07.
