data_PCOD9215770
_publ_section_title
;
Structure prediction by ZEFSAII (Michael W. Deem and Ramdas Pophale) SiO2 
 PCOD9215770
Probable space group: C 2/M
;
_chemical_formula_sum "Si O2"
_cell_formula_units_Z 64
_cell_length_a 30.214927
_cell_length_b 8.838026
_cell_length_c 18.711076
_cell_angle_alpha 90.000000
_cell_angle_beta 40.044951
_cell_angle_gamma 90.000000
_cell_volume 3214.761939
_symmetry_space_group_name_H-M "C 2/M"
_symmetry_group_IT_number 12
_symmetry_cell_setting 'monoclinic'
loop_
_space_group_symop_operation_xyz
x,y,z
-x,y,-z
-x,-y,-z
x,-y,z
1/2+x,1/2+y,z
1/2-x,1/2+y,-z
1/2-x,1/2-y,-z
1/2+x,1/2-y,z
loop_
_atom_site_type_symbol
_atom_site_label
_atom_site_fract_x
_atom_site_fract_y
_atom_site_fract_z
Si Si1 0.542680 0.823528 0.587439
Si Si2 0.806945 0.681613 0.217958
Si Si3 0.087507 0.179606 0.301807
Si Si4 0.169246 0.323955 0.329073
Si Si5 0.822994 0.318521 0.933390
Si Si6 0.686008 0.181604 0.622980
Si Si7 0.044351 0.820277 0.740303
Si Si8 0.406180 0.180914 0.972047
O O1 0.486737 0.757542 0.602017
O O2 0.617559 0.811059 0.460009
O O3 0.537273 0.731139 0.666926
O O4 0.527844 0.000000 0.619757
O O5 0.797309 0.500000 0.223821
O O6 0.742932 0.763856 0.260776
O O7 0.809641 0.719783 0.298199
O O8 0.874687 0.719448 0.088162
O O9 0.136634 0.228004 0.305539
O O10 0.121314 0.245901 0.188218
O O11 0.080926 0.000000 0.306322
O O12 0.171745 0.500000 0.304384
O O13 0.820924 0.500000 0.927714
O O14 0.848521 0.285367 0.982443
O O15 0.750000 0.250000 0.000000
O O16 0.750000 0.250000 0.500000
O O17 0.613958 0.244541 0.683112
O O18 0.687327 0.000000 0.614124
O O19 0.976766 0.763145 0.865382
O O20 0.049661 0.000000 0.738343
O O21 0.418465 0.000000 0.953838
#
# Coordination Sequence:
#
# PCOD9215770 Si02
#       8
#     8   8   8   8   8   8   8   8
#     4  11  23  41  63  90 126 167 213 267 325 384
#     4  10  23  43  67  95 126 164 212 262 318 382
#     4  12  24  38  59  89 126 166 214 264 316 383
#     4  11  24  40  62  91 126 167 211 264 324 383
#     4  11  22  37  61  89 125 169 216 268 321 381
#     4  11  24  44  70  99 133 169 211 264 320 386
#     4  12  25  41  66  97 129 169 216 265 321 388
#     4  10  22  42  65  90 125 168 212 263 321 379
#
# _framework density 19.908161
#
# number of rings (size 3 to 8) (size 9 to 14) (size 15 to 20)
#    0.000    1.000    1.250    5.625    0.000    9.000 
#    0.000    2.500    0.000    0.000    0.000    0.000 
#    0.000    0.000    0.000    0.000    0.000    0.000 
#
# Total GULP energy -179051.289959 kJ/mol
# GULP energy per Si atom -5595.352811 kJ/mol
# Density = 1.986285 g / cm^3
# Si number density = 19.908161 Si / 1000 Ang^3
#
#
#
# Elastic Constant Matrix: (Units=GPa)
#
#
# Indices 1 2 3 4 5 6 
#
# 1 102.3580 42.7026 54.2712 0.0009 -9.1601 0.0012
# 2 42.7026 71.1114 53.5138 0.0112 -1.6677 0.0002
# 3 54.2712 53.5138 109.0768 0.0009 8.8613 -0.0018
# 4 0.0009 0.0112 0.0009 30.3089 -0.0044 -6.8286
# 5 -9.1601 -1.6677 8.8613 -0.0044 31.7071 0.0026
# 6 0.0012 0.0002 -0.0018 -6.8286 0.0026 33.5625
#
#
#
# Elastic Compliance Matrix: (Units=1/GPa)
#
#
# Indices 1 2 3 4 5 6 
#
# 1 0.015319 -0.004714 -0.005780 0.000002 0.005793 -0.000001
# 2 -0.004714 0.024339 -0.009812 -0.000009 0.002661 -0.000002
# 3 -0.005780 -0.009812 0.017431 0.000003 -0.007057 0.000002
# 4 0.000002 -0.000009 0.000003 0.034579 0.000004 0.007035
# 5 0.005793 0.002661 -0.007057 0.000004 0.035325 -0.000003
# 6 -0.000001 -0.000002 0.000002 0.007035 -0.000003 0.031227
#
#
# Mechanical properties :
#
#
# Convention : Reuss Voigt Hill
#
# Bulk Modulus (GPa) = 60.68701 64.83570 62.76135
# Shear Modulus (GPa) = 24.47107 27.91960 26.19534
#
# Velocity S-wave (km/s) = 3.50980 3.74895 3.63134
# Velocity P-wave (km/s) = 6.85380 7.16782 7.01257
#
# Compressibility (1/GPa) = 0.01647799
#
# Stress axis : x y z
#
# Youngs Moduli (GPa) = 65.27731 41.08625 57.36956
#
# Poissons Ratio (x) = 0.19366 0.33161
# Poissons Ratio (y) = 0.30769 0.56290
# Poissons Ratio (z) = 0.37732 0.40313
#
# Static dielectric constant tensor:
#      x y z
#    x 1.687860 0.000000 0.005560 
#    y 0.000000 1.665910 0.000000 
#    z 0.005560 0.000000 1.679010 
# 
# From -- ./inp_files/295652.got.cif
#   From: 2010.05.17/outbox.cif.g08.bks.cpg/sg12_148_cif.got.tgz:295652.got - 2010.06.03 13:09:07.
