data_PCOD9215458
_publ_section_title
;
Structure prediction by ZEFSAII (Michael W. Deem and Ramdas Pophale) SiO2 
 PCOD9215458
Probable space group: C 2/M
;
_chemical_formula_sum "Si O2"
_cell_formula_units_Z 56
_cell_length_a 9.355148
_cell_length_b 18.322554
_cell_length_c 27.334996
_cell_angle_alpha 90.000000
_cell_angle_beta 141.337334
_cell_angle_gamma 90.000000
_cell_volume 2927.189413
_symmetry_space_group_name_H-M "C 2/M"
_symmetry_group_IT_number 12
_symmetry_cell_setting 'monoclinic'
loop_
_space_group_symop_operation_xyz
x,y,z
-x,y,-z
-x,-y,-z
x,-y,z
1/2+x,1/2+y,z
1/2-x,1/2+y,-z
1/2-x,1/2-y,-z
1/2+x,1/2-y,z
loop_
_atom_site_type_symbol
_atom_site_label
_atom_site_fract_x
_atom_site_fract_y
_atom_site_fract_z
Si Si1 0.230785 0.085628 0.937448
Si Si2 0.718944 0.321378 0.025523
Si Si3 0.311293 0.180233 0.792628
Si Si4 0.848812 0.827716 0.508766
Si Si5 0.498940 0.412911 0.642202
Si Si6 0.377416 0.086580 0.376914
Si Si7 0.448682 0.327727 0.780974
O O1 0.182956 0.111091 0.979586
O O2 0.076587 0.132781 0.859741
O O3 0.190610 0.000000 0.918977
O O4 0.500000 0.100394 0.000000
O O5 0.059783 0.334027 0.881773
O O6 0.500000 0.308897 0.000000
O O7 0.750000 0.250000 0.000000
O O8 0.206295 0.116127 0.731321
O O9 0.327063 0.254466 0.766200
O O10 0.140176 0.191350 0.792105
O O11 0.750000 0.750000 0.500000
O O12 0.625333 0.877741 0.441857
O O13 0.000000 0.820903 0.500000
O O14 0.989249 0.866735 0.589910
O O15 0.511944 0.500000 0.637331
O O16 0.267260 0.397694 0.611982
O O17 0.228343 0.118961 0.292922
O O18 0.395361 0.000000 0.378005
#
# Coordination Sequence:
#
# PCOD9215458 Si02
#       7
#     8   8   8   8   8   8   8
#     4  11  23  40  63  89 123 165 211 262 317 378
#     4  12  23  40  64  92 126 167 215 261 317 376
#     4  11  23  38  64  92 125 166 212 261 312 376
#     4  12  25  43  67  96 128 165 213 260 314 377
#     4  10  23  43  66  95 130 169 208 258 318 380
#     4  10  22  41  66  93 128 166 205 254 312 375
#     4  11  22  39  62  94 123 162 213 259 314 370
#
# _framework density 19.130980000000001
#
# number of rings (size 3 to 8) (size 9 to 14) (size 15 to 20)
#    0.000    1.000    2.857    4.286    0.000    7.143 
#    0.000    0.000    0.000    0.000    0.000    0.000 
#    0.000    0.000    0.000    0.000    0.000    0.000 
#
# Total GULP energy -156588.203395 kJ/mol
# GULP energy per Si atom -5592.435836 kJ/mol
# Density = 1.908744 g / cm^3
# Si number density = 19.130980 Si / 1000 Ang^3
#
#
#
# Elastic Constant Matrix: (Units=GPa)
#
#
# Indices 1 2 3 4 5 6 
#
# 1 133.4750 52.5787 62.5638 0.0003 -7.9504 -0.0001
# 2 52.5787 85.0051 32.8151 0.0003 -14.8898 -0.0001
# 3 62.5638 32.8151 105.1286 0.0013 -3.0180 0.0003
# 4 0.0003 0.0003 0.0013 13.7275 0.0005 8.8462
# 5 -7.9504 -14.8898 -3.0180 0.0005 25.1070 -0.0001
# 6 -0.0001 -0.0001 0.0003 8.8462 -0.0001 25.3139
#
#
#
# Elastic Compliance Matrix: (Units=1/GPa)
#
#
# Indices 1 2 3 4 5 6 
#
# 1 0.012250 -0.005417 -0.005600 0.000000 -0.000006 0.000000
# 2 -0.005417 0.017323 -0.001945 -0.000001 0.008325 0.000000
# 3 -0.005600 -0.001945 0.013414 -0.000001 -0.001314 0.000000
# 4 0.000000 -0.000001 -0.000001 0.094019 -0.000003 -0.032856
# 5 -0.000006 0.008325 -0.001314 -0.000003 0.044607 0.000001
# 6 0.000000 0.000000 0.000000 -0.032856 0.000001 0.050986
#
#
# Mechanical properties :
#
#
# Convention : Reuss Voigt Hill
#
# Bulk Modulus (GPa) = 58.59893 68.83600 63.71747
# Shear Modulus (GPa) = 18.92442 24.53976 21.73209
#
# Velocity S-wave (km/s) = 3.14857 3.58540 3.37406
# Velocity P-wave (km/s) = 6.62683 7.29381 6.96830
#
# Compressibility (1/GPa) = 0.01706516
#
# Stress axis : x y z
#
# Youngs Moduli (GPa) = 81.63190 57.72569 74.54908
#
# Poissons Ratio (x) = 0.31267 0.41745
# Poissons Ratio (y) = 0.44216 0.14499
# Poissons Ratio (z) = 0.45711 0.11227
#
# Static dielectric constant tensor:
#      x y z
#    x 1.627120 0.000000 -0.175790 
#    y 0.000000 1.648510 0.000000 
#    z -0.175790 0.000000 0.146770 
# 
# From -- ./inp_files/356763.got.cif
#   From: 2010.05.17/outbox.cif.g08.bks.cpg/sg12_179_cif.got.tgz:356763.got - 2010.06.03 13:09:07.
