data_PCOD9215328
_publ_section_title
;
Structure prediction by ZEFSAII (Michael W. Deem and Ramdas Pophale) SiO2 
 PCOD9215328
Probable space group: C 2/M
;
_chemical_formula_sum "Si O2"
_cell_formula_units_Z 64
_cell_length_a 29.736918
_cell_length_b 8.894441
_cell_length_c 23.148680
_cell_angle_alpha 90.000000
_cell_angle_beta 151.203193
_cell_angle_gamma 90.000000
_cell_volume 2949.319714
_symmetry_space_group_name_H-M "C 2/M"
_symmetry_group_IT_number 12
_symmetry_cell_setting 'monoclinic'
loop_
_space_group_symop_operation_xyz
x,y,z
-x,y,-z
-x,-y,-z
x,-y,z
1/2+x,1/2+y,z
1/2-x,1/2+y,-z
1/2-x,1/2-y,-z
1/2+x,1/2-y,z
loop_
_atom_site_type_symbol
_atom_site_label
_atom_site_fract_x
_atom_site_fract_y
_atom_site_fract_z
Si Si1 0.782387 0.178175 0.784950
Si Si2 0.731128 0.322964 0.610036
Si Si3 0.966390 0.675246 0.591090
Si Si4 0.856045 0.319908 0.273758
Si Si5 0.718554 0.819760 0.025224
Si Si6 0.114381 0.177803 0.283376
Si Si7 0.466069 0.176498 0.028285
Si Si8 0.010739 0.674573 0.771539
O O1 0.783637 0.269725 0.727268
O O2 0.685484 0.206814 0.709604
O O3 0.868497 0.234905 0.920393
O O4 0.790853 0.000000 0.783478
O O5 0.737745 0.500000 0.610089
O O6 0.626121 0.269705 0.503036
O O7 0.783801 0.241405 0.616937
O O8 0.940243 0.500000 0.551420
O O9 0.038377 0.725447 0.622698
O O10 0.020110 0.682889 0.712965
O O11 0.852156 0.500000 0.259498
O O12 0.785660 0.241453 0.150241
O O13 0.609402 0.780377 0.910417
O O14 0.723929 0.000000 0.028356
O O15 0.750000 0.750000 0.000000
O O16 0.072954 0.225923 0.298405
O O17 0.114113 0.000000 0.276299
O O18 0.042282 0.253376 0.156745
O O19 0.452718 0.000000 0.026560
O O20 0.500000 0.188795 0.000000
O O21 0.991209 0.500000 0.763759
#
# Coordination Sequence:
#
# PCOD9215328 Si02
#       8
#     8   8   8   8   8   8   8   8
#     4  11  23  40  66  96 126 162 206 253 307 369
#     4  12  26  44  64  89 123 162 209 259 309 365
#     4  10  22  44  67  88 121 164 210 256 307 363
#     4  10  22  41  64  94 127 162 204 254 309 366
#     4  11  21  36  62  94 129 167 204 248 305 367
#     4  12  25  41  65  94 125 162 206 254 309 372
#     4  11  22  38  63  93 128 165 200 249 309 365
#     4  10  22  41  65  92 126 165 205 254 310 367
#
# _framework density 21.699918
#
# number of rings (size 3 to 8) (size 9 to 14) (size 15 to 20)
#    0.000    1.125    2.500    4.125    0.000    6.500 
#    0.000    2.500    0.000    0.000    0.000    0.000 
#    0.000    0.000    0.000    0.000    0.000    0.000 
#
# Total GULP energy -179079.751983 kJ/mol
# GULP energy per Si atom -5596.242249 kJ/mol
# Density = 2.165053 g / cm^3
# Si number density = 21.699918 Si / 1000 Ang^3
#
#
#
# Elastic Constant Matrix: (Units=GPa)
#
#
# Indices 1 2 3 4 5 6 
#
# 1 93.8614 31.1540 3.9141 0.0000 31.8206 0.0000
# 2 31.1540 82.4697 13.5701 0.0000 23.0896 0.0000
# 3 3.9141 13.5701 57.2886 0.0000 26.8076 0.0000
# 4 0.0000 0.0000 0.0000 34.0457 0.0000 1.5595
# 5 31.8206 23.0896 26.8076 0.0000 39.0507 0.0000
# 6 0.0000 0.0000 0.0000 1.5595 0.0000 28.4020
#
#
#
# Elastic Compliance Matrix: (Units=1/GPa)
#
#
# Indices 1 2 3 4 5 6 
#
# 1 0.017298 -0.002843 0.007810 0.000000 -0.017776 0.000000
# 2 -0.002843 0.015027 -0.000430 0.000000 -0.006273 0.000000
# 3 0.007810 -0.000430 0.029292 0.000000 -0.026218 0.000000
# 4 0.000000 0.000000 0.000000 0.029446 0.000000 -0.001617
# 5 -0.017776 -0.006273 -0.026218 0.000000 0.061800 0.000000
# 6 0.000000 0.000000 0.000000 -0.001617 0.000000 0.035298
#
#
# Mechanical properties :
#
#
# Convention : Reuss Voigt Hill
#
# Bulk Modulus (GPa) = 14.14599 36.76623 25.45611
# Shear Modulus (GPa) = 24.67297 32.63177 28.65237
#
# Velocity S-wave (km/s) = 3.37561 3.88206 3.63766
# Velocity P-wave (km/s) = 4.66112 6.08881 5.42216
#
# Compressibility (1/GPa) = 0.07069140
#
# Stress axis : x y z
#
# Youngs Moduli (GPa) = 57.80934 66.54822 34.13867
#
# Poissons Ratio (x) = 0.18919 -0.26661
# Poissons Ratio (y) = 0.16434 0.01467
# Poissons Ratio (z) = -0.45146 0.02859
#
# Static dielectric constant tensor:
#      x y z
#    x 1.814980 0.000000 0.003810 
#    y 0.000000 1.719620 0.000000 
#    z 0.003810 0.000000 1.807080 
# 
# From -- ./inp_files/353515.got.cif
#   From: 2010.05.17/outbox.cif.g08.bks.cpg/sg12_177_cif.got.tgz:353515.got - 2010.06.03 13:09:07.
