data_PCOD9215960
_publ_section_title
;
Structure prediction by ZEFSAII (Michael W. Deem and Ramdas Pophale) SiO2 
 PCOD9215960
Probable space group: C 2/M
;
_chemical_formula_sum "Si O2"
_cell_formula_units_Z 42
_cell_length_a 16.799352
_cell_length_b 16.207516
_cell_length_c 7.096872
_cell_angle_alpha 90.000000
_cell_angle_beta 71.743573
_cell_angle_gamma 90.000000
_cell_volume 1835.041679
_symmetry_space_group_name_H-M "C 2/M"
_symmetry_group_IT_number 12
_symmetry_cell_setting 'monoclinic'
loop_
_space_group_symop_operation_xyz
x,y,z
-x,y,-z
-x,-y,-z
x,-y,z
1/2+x,1/2+y,z
1/2-x,1/2+y,-z
1/2-x,1/2-y,-z
1/2+x,1/2-y,z
loop_
_atom_site_type_symbol
_atom_site_label
_atom_site_fract_x
_atom_site_fract_y
_atom_site_fract_z
Si Si1 0.126738 0.372976 0.406485
Si Si2 0.096022 0.815517 0.375910
Si Si3 0.500000 0.000000 0.500000
Si Si4 0.814907 0.093846 0.387480
Si Si5 0.098958 0.590834 0.979389
Si Si6 0.899963 0.772341 0.058813
O O1 0.109426 0.276940 0.445055
O O2 0.217920 0.395685 0.410446
O O3 0.114182 0.400560 0.195767
O O4 0.057581 0.428219 0.556778
O O5 0.159165 0.879760 0.422217
O O6 0.000000 0.838649 0.500000
O O7 0.114907 0.803215 0.142376
O O8 0.863214 0.160393 0.224765
O O9 0.840443 0.000000 0.330279
O O10 0.133696 0.500000 0.901907
O O11 0.133331 0.679106 0.881593
O O12 0.000000 0.589672 0.000000
O O13 0.000000 0.767983 0.000000
#
# Coordination Sequence:
#
# PCOD9215960 Si02
#       6
#     8   8   2   8   8   8
#     4  11  23  42  69 102 138 178 221 287 356 413
#     4  11  23  43  71 102 134 181 236 283 344 417
#     4  12  20  40  74  96 130 176 216 270 360 424
#     4  12  26  45  69  99 143 183 236 289 336 405
#     4   9  18  35  63  98 135 172 224 278 344 413
#     4  10  22  42  68  98 137 186 231 282 349 404
#
# _framework density 22.887761000000001
#
# number of rings (size 3 to 8) (size 9 to 14) (size 15 to 20)
#    0.000    1.333    4.762    0.571    0.000    4.571 
#    0.000    1.905    4.190    0.000    0.000    0.000 
#    0.000    0.000    0.000    0.000    0.000    0.000 
#
# Total GULP energy -117219.857387 kJ/mol
# GULP energy per Si atom -5581.897971 kJ/mol
# Density = 2.283567 g / cm^3
# Si number density = 22.887761 Si / 1000 Ang^3
#
#
#
# Elastic Constant Matrix: (Units=GPa)
#
#
# Indices 1 2 3 4 5 6 
#
# 1 113.4186 65.4866 18.3555 0.0000 16.7894 0.0000
# 2 65.4866 171.4042 43.7262 0.0000 5.4624 0.0000
# 3 18.3555 43.7262 68.7740 0.0000 22.9286 0.0000
# 4 0.0000 0.0000 0.0000 36.4162 0.0000 -16.0610
# 5 16.7894 5.4624 22.9286 0.0000 31.6904 0.0000
# 6 0.0000 0.0000 0.0000 -16.0610 0.0000 46.0347
#
#
#
# Elastic Compliance Matrix: (Units=1/GPa)
#
#
# Indices 1 2 3 4 5 6 
#
# 1 0.012516 -0.005167 0.002450 0.000000 -0.007513 0.000000
# 2 -0.005167 0.009269 -0.006450 0.000000 0.005807 0.000000
# 3 0.002450 -0.006450 0.023787 0.000000 -0.017396 0.000000
# 4 0.000000 0.000000 0.000000 0.032454 0.000000 0.011323
# 5 -0.007513 0.005807 -0.017396 0.000000 0.047121 0.000000
# 6 0.000000 0.000000 0.000000 0.011323 0.000000 0.025673
#
#
# Mechanical properties :
#
#
# Convention : Reuss Voigt Hill
#
# Bulk Modulus (GPa) = 36.71495 67.63705 52.17600
# Shear Modulus (GPa) = 28.05292 37.89682 32.97487
#
# Velocity S-wave (km/s) = 3.50476 4.07353 3.79980
# Velocity P-wave (km/s) = 5.69683 7.19309 6.48824
#
# Compressibility (1/GPa) = 0.02723686
#
# Stress axis : x y z
#
# Youngs Moduli (GPa) = 79.89672 107.88967 42.03956
#
# Poissons Ratio (x) = 0.55751 -0.10298
# Poissons Ratio (y) = 0.41286 0.27114
# Poissons Ratio (z) = -0.19571 0.69586
#
# Static dielectric constant tensor:
#      x y z
#    x 1.875690 0.000000 0.082070 
#    y 0.000000 1.854590 0.000000 
#    z 0.082070 0.000000 2.697490 
# 
# From -- ./inp_files/72945.got.cif
#   From: 2010.05.17/outbox.cif.g08.bks.cpg/sg12_37_cif.got.tgz:72945.got - 2010.06.03 13:09:07.
