data_PCOD9215216
_publ_section_title
;
Structure prediction by ZEFSAII (Michael W. Deem and Ramdas Pophale) SiO2 
 PCOD9215216
Probable space group: C 2/M
;
_chemical_formula_sum "Si O2"
_cell_formula_units_Z 40
_cell_length_a 28.800970
_cell_length_b 8.066193
_cell_length_c 20.004303
_cell_angle_alpha 90.000000
_cell_angle_beta 20.894414
_cell_angle_gamma 90.000000
_cell_volume 1657.439267
_symmetry_space_group_name_H-M "C 2/M"
_symmetry_group_IT_number 12
_symmetry_cell_setting 'monoclinic'
loop_
_space_group_symop_operation_xyz
x,y,z
-x,y,-z
-x,-y,-z
x,-y,z
1/2+x,1/2+y,z
1/2-x,1/2+y,-z
1/2-x,1/2-y,-z
1/2+x,1/2-y,z
loop_
_atom_site_type_symbol
_atom_site_label
_atom_site_fract_x
_atom_site_fract_y
_atom_site_fract_z
Si Si1 0.432824 0.687903 0.293582
Si Si2 0.423421 0.184443 0.670511
Si Si3 0.821475 0.686168 0.970686
Si Si4 0.066886 0.200010 0.979704
Si Si5 0.158565 0.198875 0.445924
O O1 0.387726 0.500000 0.340778
O O2 0.338907 0.759132 0.478902
O O3 0.570276 0.691738 0.147929
O O4 0.480014 0.765205 0.159310
O O5 0.500000 0.173722 0.500000
O O6 0.305915 0.307442 0.812552
O O7 0.526764 0.234554 0.588415
O O8 0.370372 0.000000 0.756214
O O9 0.873501 0.500000 0.898243
O O10 0.750000 0.750000 0.000000
O O11 0.216876 0.251728 0.766132
O O12 0.067358 0.000000 0.986180
O O13 0.000000 0.246953 0.000000
O O14 0.151290 0.000000 0.458391
#
# Coordination Sequence:
#
# PCOD9215216 Si02
#       5
#     8   8   8   8   8
#     4  10  22  41  63  90 126 166 206 254 311 369
#     4  11  23  38  58  86 123 165 206 251 303 364
#     4  12  23  36  58  88 123 162 204 248 298 360
#     4  10  23  44  67  90 121 162 207 258 318 377
#     4  11  23  39  62  91 123 160 206 260 310 366
#
# _framework density 24.133616
#
# number of rings (size 3 to 8) (size 9 to 14) (size 15 to 20)
#    0.000    1.200    2.000    4.200    0.000    9.200 
#    0.000    0.000    0.000    0.000    0.000    0.000 
#    0.000    0.000    0.000    0.000    0.000    0.000 
#
# Total GULP energy -111545.601828 kJ/mol
# GULP energy per Si atom -5577.280091 kJ/mol
# Density = 2.407869 g / cm^3
# Si number density = 24.133616 Si / 1000 Ang^3
#
#
#
# Elastic Constant Matrix: (Units=GPa)
#
#
# Indices 1 2 3 4 5 6 
#
# 1 109.2100 1.5398 23.4174 0.0000 38.7337 0.0001
# 2 1.5398 57.8929 -10.0430 -0.0018 6.3795 0.0003
# 3 23.4174 -10.0430 54.3250 -0.0015 17.9088 0.0003
# 4 0.0000 -0.0018 -0.0015 22.3118 0.0001 10.0420
# 5 38.7337 6.3795 17.9088 0.0001 56.1224 0.0001
# 6 0.0001 0.0003 0.0003 10.0420 0.0001 14.7535
#
#
#
# Elastic Compliance Matrix: (Units=1/GPa)
#
#
# Indices 1 2 3 4 5 6 
#
# 1 0.012506 0.000027 -0.002838 0.000000 -0.007729 0.000000
# 2 0.000027 0.018462 0.004581 0.000003 -0.003579 -0.000002
# 3 -0.002838 0.004581 0.022356 0.000003 -0.005696 -0.000003
# 4 0.000000 0.000003 0.000003 0.064614 -0.000001 -0.043979
# 5 -0.007729 -0.003579 -0.005696 -0.000001 0.025377 0.000001
# 6 0.000000 -0.000002 -0.000003 -0.043979 0.000001 0.097715
#
#
# Mechanical properties :
#
#
# Convention : Reuss Voigt Hill
#
# Bulk Modulus (GPa) = 17.58607 27.91737 22.75172
# Shear Modulus (GPa) = 19.49749 32.40511 25.95130
#
# Velocity S-wave (km/s) = 2.84544 3.66831 3.28276
# Velocity P-wave (km/s) = 4.25419 5.43461 4.88022
#
# Compressibility (1/GPa) = 0.05686319
#
# Stress axis : x y z
#
# Youngs Moduli (GPa) = 79.96188 54.16621 44.73122
#
# Poissons Ratio (x) = -0.00144 0.12695
# Poissons Ratio (y) = -0.00213 -0.20493
# Poissons Ratio (z) = 0.22694 -0.24815
#
# Static dielectric constant tensor:
#      x y z
#    x 2.031400 0.000000 0.209340 
#    y 0.000000 2.132280 0.000000 
#    z 0.209340 0.000000 2.171650 
# 
# From -- ./inp_files/220191.got.cif
#   From: 2010.05.17/outbox.cif.g08.bks.cpg/sg12_111_cif.got.tgz:220191.got - 2010.06.03 13:09:07.
