data_PCOD9215799
_publ_section_title
;
Structure prediction by ZEFSAII (Michael W. Deem and Ramdas Pophale) SiO2 
 PCOD9215799
Probable space group: C 2/M
;
_chemical_formula_sum "Si O2"
_cell_formula_units_Z 38
_cell_length_a 7.460061
_cell_length_b 16.488237
_cell_length_c 14.670606
_cell_angle_alpha 90.000000
_cell_angle_beta 97.082374
_cell_angle_gamma 90.000000
_cell_volume 1790.763538
_symmetry_space_group_name_H-M "C 2/M"
_symmetry_group_IT_number 12
_symmetry_cell_setting 'monoclinic'
loop_
_space_group_symop_operation_xyz
x,y,z
-x,y,-z
-x,-y,-z
x,-y,z
1/2+x,1/2+y,z
1/2-x,1/2+y,-z
1/2-x,1/2-y,-z
1/2+x,1/2-y,z
loop_
_atom_site_type_symbol
_atom_site_label
_atom_site_fract_x
_atom_site_fract_y
_atom_site_fract_z
Si Si1 0.500000 0.203805 0.500000
Si Si2 0.360537 0.648671 0.605356
Si Si3 0.537377 0.341449 0.186822
Si Si4 0.716508 0.909949 0.944225
Si Si5 0.359043 0.837399 0.872303
Si Si6 0.000000 0.000000 0.500000
O O1 0.552517 0.265785 0.421926
O O2 0.666246 0.150312 0.543962
O O3 0.353612 0.647294 0.713368
O O4 0.468753 0.572176 0.574704
O O5 0.616596 0.396834 0.111816
O O6 0.569409 0.250382 0.152075
O O7 0.325648 0.355509 0.192309
O O8 0.531020 0.896228 0.876394
O O9 0.719437 0.000000 0.983931
O O10 0.703963 0.846088 0.025996
#
# Coordination Sequence:
#
# PCOD9215799 Si02
#       6
#     4   8   8   8   8   2
#     4   9  20  42  70  87 126 170 206 261 322 392
#     4  10  22  42  65  97 124 165 213 262 323 388
#     4  12  23  39  69  98 124 170 228 265 307 389
#     4  11  26  43  61  96 135 173 216 262 329 380
#     4  11  23  41  65  92 131 174 213 273 314 371
#     4  10  24  46  60  94 138 160 196 272 338 384
#
# _framework density 21.220001
#
# number of rings (size 3 to 8) (size 9 to 14) (size 15 to 20)
#    0.000    1.263    2.105    3.789    4.421    2.947 
#    0.000    0.000    0.000    0.000    0.000    0.000 
#    0.000    0.000    0.000    0.000    0.000    0.000 
#
# Total GULP energy -105891.076487 kJ/mol
# GULP energy per Si atom -5573.214552 kJ/mol
# Density = 2.117170 g / cm^3
# Si number density = 21.220001 Si / 1000 Ang^3
#
#
#
# Elastic Constant Matrix: (Units=GPa)
#
#
# Indices 1 2 3 4 5 6 
#
# 1 58.3542 -6.8798 -7.8943 0.0000 17.2030 0.0000
# 2 -6.8798 71.0573 32.7005 0.0000 0.0239 0.0000
# 3 -7.8943 32.7005 75.8453 0.0000 -9.0063 0.0000
# 4 0.0000 0.0000 0.0000 -0.8602 0.0000 6.4855
# 5 17.2030 0.0239 -9.0063 0.0000 27.3158 0.0000
# 6 0.0000 0.0000 0.0000 6.4855 0.0000 7.1501
#
#
#
# Elastic Compliance Matrix: (Units=1/GPa)
#
#
# Indices 1 2 3 4 5 6 
#
# 1 0.021351 0.002234 -0.000351 0.000000 -0.013564 0.000000
# 2 0.002234 0.017971 -0.007998 0.000000 -0.004059 0.000000
# 3 -0.000351 -0.007998 0.017301 0.000000 0.005933 0.000000
# 4 0.000000 0.000000 0.000000 -0.148304 0.000000 0.134519
# 5 -0.013564 -0.004059 0.005933 0.000000 0.047111 0.000000
# 6 0.000000 0.000000 0.000000 0.134519 0.000000 0.017841
#
#
# Mechanical properties :
#
#
# Convention : Reuss Voigt Hill
#
# Bulk Modulus (GPa) = 22.52648 26.78995 24.65822
# Shear Modulus (GPa) = 16620.79039 19.20985 8320.00012
#
# Velocity S-wave (km/s) = 88.59802 3.01204 62.68446
# Velocity P-wave (km/s) = 102.35617 4.97481 72.46218
#
# Compressibility (1/GPa) = 0.04439220
#
# Stress axis : x y z
#
# Youngs Moduli (GPa) = 46.83543 55.64400 57.80050
#
# Poissons Ratio (x) = -0.12428 0.02031
# Poissons Ratio (y) = -0.10461 0.46228
# Poissons Ratio (z) = 0.01646 0.44503
#
# Static dielectric constant tensor:
#      x y z
#    x 1.831520 0.000000 0.035610 
#    y 0.000000 1.833940 0.000000 
#    z 0.035610 0.000000 1.765190 
# 
# From -- ./inp_files/194692.got.cif
#   From: 2010.05.17/outbox.cif.g08.bks.cpg/sg12_98_cif.got.tgz:194692.got - 2010.06.03 13:09:07.
