data_PCOD9215949
_publ_section_title
;
Structure prediction by ZEFSAII (Michael W. Deem and Ramdas Pophale) SiO2 
 PCOD9215949
Probable space group: C 2/M
;
_chemical_formula_sum "Si O2"
_cell_formula_units_Z 48
_cell_length_a 21.987884
_cell_length_b 11.502770
_cell_length_c 11.740269
_cell_angle_alpha 90.000000
_cell_angle_beta 49.798553
_cell_angle_gamma 90.000000
_cell_volume 2267.942544
_symmetry_space_group_name_H-M "C 2/M"
_symmetry_group_IT_number 12
_symmetry_cell_setting 'monoclinic'
loop_
_space_group_symop_operation_xyz
x,y,z
-x,y,-z
-x,-y,-z
x,-y,z
1/2+x,1/2+y,z
1/2-x,1/2+y,-z
1/2-x,1/2-y,-z
1/2+x,1/2-y,z
loop_
_atom_site_type_symbol
_atom_site_label
_atom_site_fract_x
_atom_site_fract_y
_atom_site_fract_z
Si Si1 0.402089 0.500000 0.467353
Si Si2 0.406528 0.500000 0.729572
Si Si3 0.559937 0.137167 0.574697
Si Si4 0.360139 0.359979 0.112624
Si Si5 0.599686 0.740379 0.157084
Si Si6 0.342967 0.281865 0.388505
Si Si7 0.685060 0.862394 0.231655
O O1 0.385613 0.500000 0.622034
O O2 0.498843 0.500000 0.353223
O O3 0.367169 0.386882 0.445164
O O4 0.374946 0.616105 0.824055
O O5 0.480926 0.211659 0.689198
O O6 0.612967 0.166812 0.620233
O O7 0.613546 0.176801 0.402461
O O8 0.541698 0.000000 0.585935
O O9 0.373072 0.500000 0.086223
O O10 0.368796 0.323305 0.232325
O O11 0.270063 0.329804 0.180825
O O12 0.412056 0.284697 0.961776
O O13 0.666993 0.824857 0.124995
O O14 0.250000 0.250000 0.500000
O O15 0.682585 0.000000 0.240322
#
# Coordination Sequence:
#
# PCOD9215949 Si02
#       7
#     4   4   8   8   8   8   8
#     4  11  24  43  67  99 137 175 228 287 332 399
#     4  11  24  39  65 103 133 169 221 286 346 391
#     4  11  24  43  69  98 130 178 225 283 332 405
#     4  11  24  43  67  97 137 181 223 273 342 407
#     4  12  23  42  64 101 137 172 222 277 346 404
#     4  12  24  43  69  97 132 180 231 277 330 405
#     4  10  22  42  68  97 131 177 226 281 333 403
#
# _framework density 21.164558
#
# number of rings (size 3 to 8) (size 9 to 14) (size 15 to 20)
#    0.000    0.833    5.000    2.500    3.500    2.000 
#    0.000    4.167    0.000    0.000    0.000    0.000 
#    0.000    0.000    0.000    0.000    0.000    0.000 
#
# Total GULP energy -134089.508285 kJ/mol
# GULP energy per Si atom -5587.062845 kJ/mol
# Density = 2.111639 g / cm^3
# Si number density = 21.164558 Si / 1000 Ang^3
#
#
#
# Elastic Constant Matrix: (Units=GPa)
#
#
# Indices 1 2 3 4 5 6 
#
# 1 88.1230 8.7554 4.8548 0.0000 16.2948 0.0000
# 2 8.7554 47.7518 18.8190 0.0000 2.7199 0.0000
# 3 4.8548 18.8190 47.7740 0.0000 16.1892 0.0000
# 4 0.0000 0.0000 0.0000 29.2418 0.0000 10.1323
# 5 16.2948 2.7199 16.1892 0.0000 38.8614 0.0000
# 6 0.0000 0.0000 0.0000 10.1323 0.0000 32.3878
#
#
#
# Elastic Compliance Matrix: (Units=1/GPa)
#
#
# Indices 1 2 3 4 5 6 
#
# 1 0.012593 -0.002664 0.001742 0.000000 -0.005819 0.000000
# 2 -0.002664 0.025602 -0.011161 0.000000 0.003975 0.000000
# 3 0.001742 -0.011161 0.029266 0.000000 -0.012141 0.000000
# 4 0.000000 0.000000 0.000000 0.038355 0.000000 -0.011999
# 5 -0.005819 0.003975 -0.012141 0.000000 0.032952 0.000000
# 6 0.000000 0.000000 0.000000 -0.011999 0.000000 0.034630
#
#
# Mechanical properties :
#
#
# Convention : Reuss Voigt Hill
#
# Bulk Modulus (GPa) = 23.09820 27.61191 25.35506
# Shear Modulus (GPa) = 23.58536 30.17952 26.88244
#
# Velocity S-wave (km/s) = 3.34185 3.78027 3.56780
# Velocity P-wave (km/s) = 5.08212 5.66820 5.38314
#
# Compressibility (1/GPa) = 0.04329342
#
# Stress axis : x y z
#
# Youngs Moduli (GPa) = 79.41224 39.05896 34.16968
#
# Poissons Ratio (x) = 0.10404 -0.05951
# Poissons Ratio (y) = 0.21154 0.38138
# Poissons Ratio (z) = -0.13830 0.43595
#
# Static dielectric constant tensor:
#      x y z
#    x 1.771440 0.000000 -0.027370 
#    y 0.000000 1.746180 0.000000 
#    z -0.027370 0.000000 1.818930 
# 
# From -- ./inp_files/174437.got.cif
#   From: 2010.05.17/outbox.cif.g08.bks.cpg/sg12_88_cif.got.tgz:174437.got - 2010.06.03 13:09:07.
