data_PCOD9215838
_publ_section_title
;
Structure prediction by ZEFSAII (Michael W. Deem and Ramdas Pophale) SiO2 
 PCOD9215838
Probable space group: C 2/M
;
_chemical_formula_sum "Si O2"
_cell_formula_units_Z 64
_cell_length_a 9.618410
_cell_length_b 15.582401
_cell_length_c 29.662559
_cell_angle_alpha 90.000000
_cell_angle_beta 48.896098
_cell_angle_gamma 90.000000
_cell_volume 3349.964975
_symmetry_space_group_name_H-M "C 2/M"
_symmetry_group_IT_number 12
_symmetry_cell_setting 'monoclinic'
loop_
_space_group_symop_operation_xyz
x,y,z
-x,y,-z
-x,-y,-z
x,-y,z
1/2+x,1/2+y,z
1/2-x,1/2+y,-z
1/2-x,1/2-y,-z
1/2+x,1/2-y,z
loop_
_atom_site_type_symbol
_atom_site_label
_atom_site_fract_x
_atom_site_fract_y
_atom_site_fract_z
Si Si1 0.795179 0.403133 0.121110
Si Si2 0.504144 0.404237 0.636370
Si Si3 0.953984 0.161778 0.744136
Si Si4 0.791393 0.261936 0.543324
Si Si5 0.532405 0.741497 0.044360
Si Si6 0.794099 0.401708 0.377233
Si Si7 0.306397 0.840239 0.734309
Si Si8 0.058735 0.905165 0.867382
O O1 0.867792 0.500000 0.109464
O O2 0.690755 0.375618 0.189082
O O3 0.637629 0.402230 0.116310
O O4 0.943435 0.332530 0.076191
O O5 0.572664 0.500000 0.610562
O O6 0.469725 0.397779 0.696978
O O7 0.649357 0.330259 0.593815
O O8 0.321322 0.390311 0.644747
O O9 0.878536 0.250994 0.739977
O O10 0.149496 0.171636 0.729046
O O11 0.750000 0.250000 0.500000
O O12 0.773033 0.172150 0.574251
O O13 0.000000 0.294110 0.500000
O O14 0.445262 0.670602 0.095812
O O15 0.500000 0.717251 0.000000
O O16 0.750000 0.750000 0.000000
O O17 0.761650 0.500000 0.399575
O O18 0.011864 0.387438 0.322744
O O19 0.208979 0.889836 0.796230
O O20 0.084143 0.000000 0.881821
#
# Coordination Sequence:
#
# PCOD9215838 Si02
#       8
#     8   8   8   8   8   8   8   8
#     4  10  22  42  67  94 126 170 213 259 319 387
#     4  11  25  45  68  99 133 167 212 270 325 382
#     4  11  22  39  69  99 130 166 211 265 326 388
#     4  12  26  45  67  94 128 172 224 264 310 375
#     4  12  24  41  65  92 126 168 218 265 313 374
#     4  11  25  45  69  98 132 171 213 264 327 386
#     4  11  22  39  69  98 129 169 210 261 330 386
#     4  10  22  42  66  94 129 166 211 264 320 382
#
# _framework density 19.104676999999999
#
# number of rings (size 3 to 8) (size 9 to 14) (size 15 to 20)
#    0.000    1.000    5.000    1.500    1.750    3.500 
#    2.250    0.000    0.000    0.000    0.000    0.000 
#    0.000    0.000    0.000    0.000    0.000    0.000 
#
# Total GULP energy -178752.877187 kJ/mol
# GULP energy per Si atom -5586.027412 kJ/mol
# Density = 1.906119 g / cm^3
# Si number density = 19.104677 Si / 1000 Ang^3
#
#
#
# Elastic Constant Matrix: (Units=GPa)
#
#
# Indices 1 2 3 4 5 6 
#
# 1 96.8640 24.2947 29.9069 0.0000 8.4649 0.0000
# 2 24.2947 134.4417 26.5425 0.0000 4.0649 0.0000
# 3 29.9069 26.5425 76.0344 -0.0001 3.7061 0.0001
# 4 0.0000 0.0000 -0.0001 -3.0576 0.0001 -1.4632
# 5 8.4649 4.0649 3.7061 0.0001 40.8162 0.0000
# 6 0.0000 0.0000 0.0001 -1.4632 0.0000 21.5345
#
#
#
# Elastic Compliance Matrix: (Units=1/GPa)
#
#
# Indices 1 2 3 4 5 6 
#
# 1 0.012127 -0.001298 -0.004219 0.000000 -0.002003 0.000000
# 2 -0.001298 0.008140 -0.002315 0.000000 -0.000331 0.000000
# 3 -0.004219 -0.002315 0.015635 -0.000001 -0.000314 0.000000
# 4 0.000000 0.000000 -0.000001 -0.316753 0.000001 -0.021522
# 5 -0.002003 -0.000331 -0.000314 0.000001 0.024977 0.000000
# 6 0.000000 0.000000 0.000000 -0.021522 0.000000 0.044975
#
#
# Mechanical properties :
#
#
# Convention : Reuss Voigt Hill
#
# Bulk Modulus (GPa) = 49.41280 52.09205 50.75242
# Shear Modulus (GPa) = -26.52664 26.96501 0.21919
#
# Velocity S-wave (km/s) = -3.73029 3.76098 0.33908
# Velocity P-wave (km/s) = 2.71422 6.79602 5.17459
#
# Compressibility (1/GPa) = 0.02023767
#
# Stress axis : x y z
#
# Youngs Moduli (GPa) = 82.46067 122.85416 63.95947
#
# Poissons Ratio (x) = 0.15945 0.26986
# Poissons Ratio (y) = 0.10703 0.14805
# Poissons Ratio (z) = 0.34792 0.28438
#
# Static dielectric constant tensor:
#      x y z
#    x 1.632300 0.000000 0.006110 
#    y 0.000000 1.674900 0.000000 
#    z 0.006110 0.000000 1.646480 
# 
# From -- ./inp_files/372535.got.cif
#   From: 2010.05.17/outbox.cif.g08.bks.cpg/sg12_187_cif.got.tgz:372535.got - 2010.06.03 13:09:07.
