data_PCOD9215825
_publ_section_title
;
Structure prediction by ZEFSAII (Michael W. Deem and Ramdas Pophale) SiO2 
 PCOD9215825
Probable space group: C 2/M
;
_chemical_formula_sum "Si O2"
_cell_formula_units_Z 40
_cell_length_a 23.615396
_cell_length_b 8.038157
_cell_length_c 9.679564
_cell_angle_alpha 90.000000
_cell_angle_beta 72.998974
_cell_angle_gamma 90.000000
_cell_volume 1757.120116
_symmetry_space_group_name_H-M "C 2/M"
_symmetry_group_IT_number 12
_symmetry_cell_setting 'monoclinic'
loop_
_space_group_symop_operation_xyz
x,y,z
-x,y,-z
-x,-y,-z
x,-y,z
1/2+x,1/2+y,z
1/2-x,1/2+y,-z
1/2-x,1/2-y,-z
1/2+x,1/2-y,z
loop_
_atom_site_type_symbol
_atom_site_label
_atom_site_fract_x
_atom_site_fract_y
_atom_site_fract_z
Si Si1 0.432275 0.311267 0.392903
Si Si2 0.889698 0.701437 0.713427
Si Si3 0.026604 0.308595 0.120236
Si Si4 0.691569 0.807541 0.623639
Si Si5 0.744842 0.800902 0.162123
O O1 0.453179 0.500000 0.363085
O O2 0.426985 0.264298 0.556977
O O3 0.475363 0.197522 0.272091
O O4 0.366172 0.292588 0.379396
O O5 0.892302 0.500000 0.712379
O O6 0.916832 0.763248 0.839232
O O7 0.821424 0.749639 0.744217
O O8 0.041968 0.500000 0.074039
O O9 0.000000 0.229907 0.000000
O O10 0.750000 0.750000 0.500000
O O11 0.707353 0.783324 0.772839
O O12 0.680141 0.000000 0.598847
O O13 0.750003 0.000000 0.172905
O O14 0.750000 0.750000 0.000000
#
# Coordination Sequence:
#
# PCOD9215825 Si02
#       5
#     8   8   8   8   8
#     4  12  25  41  65  96 128 169 213 264 322 381
#     4  10  22  42  66  92 126 171 218 261 315 381
#     4  10  23  43  67  94 125 167 214 265 323 382
#     4  12  24  42  67  96 129 167 213 266 321 386
#     4  11  24  41  64  97 134 174 214 261 317 382
#
# _framework density 22.764521999999999
#
# number of rings (size 3 to 8) (size 9 to 14) (size 15 to 20)
#    0.000    1.000    2.000    4.800    2.800    4.400 
#    0.000    0.000    0.000    0.000    0.000    0.000 
#    0.000    0.000    0.000    0.000    0.000    0.000 
#
# Total GULP energy -111932.634165 kJ/mol
# GULP energy per Si atom -5596.631708 kJ/mol
# Density = 2.271271 g / cm^3
# Si number density = 22.764522 Si / 1000 Ang^3
#
#
#
# Elastic Constant Matrix: (Units=GPa)
#
#
# Indices 1 2 3 4 5 6 
#
# 1 74.0001 -7.3538 0.6399 0.0000 30.4340 0.0000
# 2 -7.3538 53.2055 -6.3650 0.0000 2.6710 0.0000
# 3 0.6399 -6.3650 91.6474 0.0000 32.0867 0.0000
# 4 0.0000 0.0000 0.0000 23.5974 0.0000 8.5354
# 5 30.4340 2.6710 32.0867 0.0000 49.5421 0.0000
# 6 0.0000 0.0000 0.0000 8.5354 0.0000 14.9990
#
#
#
# Elastic Compliance Matrix: (Units=1/GPa)
#
#
# Indices 1 2 3 4 5 6 
#
# 1 0.020930 0.004485 0.006145 0.000000 -0.017079 0.000000
# 2 0.004485 0.020142 0.003508 0.000000 -0.006113 0.000000
# 3 0.006145 0.003508 0.016166 0.000000 -0.014434 0.000000
# 4 0.000000 0.000000 0.000000 0.053361 0.000000 -0.030366
# 5 -0.017079 -0.006113 -0.014434 0.000000 0.040355 0.000000
# 6 0.000000 0.000000 0.000000 -0.030366 0.000000 0.083951
#
#
# Mechanical properties :
#
#
# Convention : Reuss Voigt Hill
#
# Bulk Modulus (GPa) = 11.69397 21.41058 16.55227
# Shear Modulus (GPa) = 21.26456 33.08984 27.17720
#
# Velocity S-wave (km/s) = 3.05964 3.81671 3.45895
# Velocity P-wave (km/s) = 4.19880 5.37110 4.82071
#
# Compressibility (1/GPa) = 0.08551418
#
# Stress axis : x y z
#
# Youngs Moduli (GPa) = 47.77756 49.64863 61.85981
#
# Poissons Ratio (x) = -0.22270 -0.38013
# Poissons Ratio (y) = -0.21430 -0.21700
# Poissons Ratio (z) = -0.29360 -0.17416
#
# Static dielectric constant tensor:
#      x y z
#    x 1.848440 0.000000 0.029370 
#    y 0.000000 1.838860 0.000000 
#    z 0.029370 0.000000 1.833610 
# 
# From -- ./inp_files/92714.got.cif
#   From: 2010.05.17/outbox.cif.g08.bks.cpg/sg12_47_cif.got.tgz:92714.got - 2010.06.03 13:09:07.
