data_PCOD9215391
_publ_section_title
;
Structure prediction by ZEFSAII (Michael W. Deem and Ramdas Pophale) SiO2 
 PCOD9215391
Probable space group: C 2/M
;
_chemical_formula_sum "Si O2"
_cell_formula_units_Z 64
_cell_length_a 13.193029
_cell_length_b 15.393487
_cell_length_c 24.078821
_cell_angle_alpha 90.000000
_cell_angle_beta 139.545019
_cell_angle_gamma 90.000000
_cell_volume 3172.935941
_symmetry_space_group_name_H-M "C 2/M"
_symmetry_group_IT_number 12
_symmetry_cell_setting 'monoclinic'
loop_
_space_group_symop_operation_xyz
x,y,z
-x,y,-z
-x,-y,-z
x,-y,z
1/2+x,1/2+y,z
1/2-x,1/2+y,-z
1/2-x,1/2-y,-z
1/2+x,1/2-y,z
loop_
_atom_site_type_symbol
_atom_site_label
_atom_site_fract_x
_atom_site_fract_y
_atom_site_fract_z
Si Si1 0.064166 0.245743 0.760415
Si Si2 0.657485 0.735652 0.038020
Si Si3 0.453605 0.627117 0.418970
Si Si4 0.069414 0.302725 0.640202
Si Si5 0.725137 0.902101 0.509088
Si Si6 0.191499 0.100601 0.330863
Si Si7 0.363232 0.104537 0.052634
Si Si8 0.099158 0.405324 0.250216
O O1 0.213799 0.244797 0.861874
O O2 0.109136 0.257721 0.714986
O O3 0.958218 0.162269 0.728138
O O4 0.961334 0.329000 0.735770
O O5 0.379475 0.827148 0.008721
O O6 0.727833 0.656857 0.030123
O O7 0.500000 0.703767 0.000000
O O8 0.500000 0.598399 0.500000
O O9 0.432317 0.730300 0.408028
O O10 0.598523 0.606659 0.439241
O O11 0.286461 0.593745 0.328714
O O12 0.194548 0.372589 0.671756
O O13 0.894596 0.339271 0.571104
O O14 0.722257 0.887332 0.573870
O O15 0.672334 0.000000 0.476201
O O16 0.147818 0.000000 0.308611
O O17 0.517491 0.107975 0.156280
O O18 0.334542 0.000000 0.029829
O O19 0.044365 0.500000 0.247693
#
# Coordination Sequence:
#
# PCOD9215391 Si02
#       8
#     8   8   8   8   8   8   8   8
#     4  11  24  42  64  94 129 165 211 266 322 381
#     4  10  23  40  68  98 129 163 207 263 323 386
#     4  12  23  36  62  92 126 168 217 261 316 368
#     4  12  24  39  63  87 125 172 219 262 317 377
#     4  11  24  40  59  90 127 170 223 273 316 372
#     4  11  24  43  65  92 128 175 221 267 319 375
#     4   9  21  43  68  95 129 167 208 259 321 386
#     4  10  22  41  65  93 127 165 211 266 320 378
#
# _framework density 20.170591999999999
#
# number of rings (size 3 to 8) (size 9 to 14) (size 15 to 20)
#    0.000    1.250    2.500    3.000    1.750    6.000 
#    0.000    0.000    0.000    0.000    0.000    0.000 
#    0.000    0.000    0.000    0.000    0.000    0.000 
#
# Total GULP energy -178662.798362 kJ/mol
# GULP energy per Si atom -5583.212449 kJ/mol
# Density = 2.012468 g / cm^3
# Si number density = 20.170592 Si / 1000 Ang^3
#
#
#
# Elastic Constant Matrix: (Units=GPa)
#
#
# Indices 1 2 3 4 5 6 
#
# 1 92.3284 22.7521 38.5308 0.0000 3.4050 0.0000
# 2 22.7521 110.2343 34.6003 0.0000 -0.0241 -0.0001
# 3 38.5308 34.6003 62.8415 0.0000 10.3117 0.0001
# 4 0.0000 0.0000 0.0000 34.2140 0.0000 78.0685
# 5 3.4050 -0.0241 10.3117 0.0000 18.1157 0.0000
# 6 0.0000 -0.0001 0.0001 78.0685 0.0000 1174.6072
#
#
#
# Elastic Compliance Matrix: (Units=1/GPa)
#
#
# Indices 1 2 3 4 5 6 
#
# 1 0.014667 -0.000086 -0.009368 0.000000 0.002575 0.000000
# 2 -0.000086 0.011211 -0.006756 0.000000 0.003877 0.000000
# 3 -0.009368 -0.006756 0.027674 0.000000 -0.014001 0.000000
# 4 0.000000 0.000000 0.000000 0.034453 0.000000 -0.002290
# 5 0.002575 0.003877 -0.014001 0.000000 0.062691 0.000000
# 6 0.000000 0.000000 0.000000 -0.002290 0.000000 0.001004
#
#
# Mechanical properties :
#
#
# Convention : Reuss Voigt Hill
#
# Bulk Modulus (GPa) = 47.32270 50.79672 49.05971
# Shear Modulus (GPa) = 26.15575 256.68877 141.42226
#
# Velocity S-wave (km/s) = 3.60492 11.29315 8.38244
# Velocity P-wave (km/s) = 6.39057 13.97445 10.86565
#
# Compressibility (1/GPa) = 0.02113151
#
# Stress axis : x y z
#
# Youngs Moduli (GPa) = 68.18225 89.19999 36.13499
#
# Poissons Ratio (x) = 0.00769 0.33851
# Poissons Ratio (y) = 0.00588 0.24412
# Poissons Ratio (z) = 0.63872 0.60262
#
# Static dielectric constant tensor:
#      x y z
#    x 1.770800 0.000000 -0.152780 
#    y 0.000000 1.737300 0.000000 
#    z -0.152780 0.000000 2.059680 
# 
# From -- ./inp_files/358449.got.cif
#   From: 2010.05.17/outbox.cif.g08.bks.cpg/sg12_180_cif.got.tgz:358449.got - 2010.06.03 13:09:07.
