data_PCOD9215163
_publ_section_title
;
Structure prediction by ZEFSAII (Michael W. Deem and Ramdas Pophale) SiO2 
 PCOD9215163
Probable space group: C 2/M
;
_chemical_formula_sum "Si O2"
_cell_formula_units_Z 40
_cell_length_a 29.437647
_cell_length_b 9.218607
_cell_length_c 7.161045
_cell_angle_alpha 90.000000
_cell_angle_beta 90.165150
_cell_angle_gamma 90.000000
_cell_volume 1943.314060
_symmetry_space_group_name_H-M "C 2/M"
_symmetry_group_IT_number 12
_symmetry_cell_setting 'monoclinic'
loop_
_space_group_symop_operation_xyz
x,y,z
-x,y,-z
-x,-y,-z
x,-y,z
1/2+x,1/2+y,z
1/2-x,1/2+y,-z
1/2-x,1/2-y,-z
1/2+x,1/2-y,z
loop_
_atom_site_type_symbol
_atom_site_label
_atom_site_fract_x
_atom_site_fract_y
_atom_site_fract_z
Si Si1 0.601330 0.171649 0.077431
Si Si2 0.285906 0.833259 0.259839
Si Si3 0.699233 0.834431 0.190614
Si Si4 0.949033 0.329112 0.568159
Si Si5 0.377880 0.672693 0.307027
O O1 0.646218 0.202164 0.203538
O O2 0.558591 0.195287 0.211160
O O3 0.603714 0.000000 0.025408
O O4 0.605006 0.267656 0.893932
O O5 0.236185 0.766142 0.288383
O O6 0.328180 0.742968 0.338681
O O7 0.288495 0.000000 0.317635
O O8 0.292555 0.829243 0.033782
O O9 0.706556 0.000000 0.249447
O O10 0.938075 0.500000 0.534560
O O11 0.914302 0.230510 0.454483
O O12 0.000000 0.303825 0.500000
O O13 0.374309 0.500000 0.306063
#
# Coordination Sequence:
#
# PCOD9215163 Si02
#       5
#     8   8   8   8   8
#     4   9  19  37  60  84 112 148 188 229 274 329
#     4   9  16  28  49  77 110 147 186 224 265 321
#     4   8  14  26  47  77 110 142 179 224 272 320
#     4  10  22  41  63  84 108 142 187 237 284 332
#     4  11  22  36  57  84 116 150 184 227 278 333
#
# _framework density 20.583396
#
# number of rings (size 3 to 8) (size 9 to 14) (size 15 to 20)
#    0.000    2.600    0.000    3.600    0.000    6.800 
#    0.000    5.000    0.000    0.000    0.000    0.000 
#    0.000    0.000    0.000    0.000    0.000    0.000 
#
# Total GULP energy -111728.672259 kJ/mol
# GULP energy per Si atom -5586.433613 kJ/mol
# Density = 2.053655 g / cm^3
# Si number density = 20.583396 Si / 1000 Ang^3
#
#
#
# Elastic Constant Matrix: (Units=GPa)
#
#
# Indices 1 2 3 4 5 6 
#
# 1 46.8909 30.4670 9.9871 0.0000 -17.9912 0.0000
# 2 30.4670 106.4049 31.2721 0.0000 12.1831 0.0000
# 3 9.9871 31.2721 62.3624 0.0000 -0.5609 0.0000
# 4 0.0000 0.0000 0.0000 16.0432 0.0000 13.5164
# 5 -17.9912 12.1831 -0.5609 0.0000 29.3042 0.0000
# 6 0.0000 0.0000 0.0000 13.5164 0.0000 22.8726
#
#
#
# Elastic Compliance Matrix: (Units=1/GPa)
#
#
# Indices 1 2 3 4 5 6 
#
# 1 0.046408 -0.017969 0.001902 0.000000 0.035999 0.000000
# 2 -0.017969 0.018664 -0.006652 0.000000 -0.018919 0.000000
# 3 0.001902 -0.006652 0.019105 0.000000 0.004299 0.000000
# 4 0.000000 0.000000 0.000000 0.124135 0.000000 -0.073357
# 5 0.035999 -0.018919 0.004299 0.000000 0.064174 0.000000
# 6 0.000000 0.000000 0.000000 -0.073357 0.000000 0.087070
#
#
# Mechanical properties :
#
#
# Convention : Reuss Voigt Hill
#
# Bulk Modulus (GPa) = 25.81272 39.90117 32.85695
# Shear Modulus (GPa) = 11.96439 23.23949 17.60194
#
# Velocity S-wave (km/s) = 2.41356 3.36376 2.92747
# Velocity P-wave (km/s) = 4.50941 5.87484 5.23682
#
# Compressibility (1/GPa) = 0.03874059
#
# Stress axis : x y z
#
# Youngs Moduli (GPa) = 21.54783 53.57833 52.34253
#
# Poissons Ratio (x) = 0.96275 -0.09958
# Poissons Ratio (y) = 0.38719 0.34817
# Poissons Ratio (z) = -0.04099 0.35639
#
# Static dielectric constant tensor:
#      x y z
#    x 1.735420 0.000000 -0.032880 
#    y 0.000000 1.690460 0.000000 
#    z -0.032880 0.000000 1.772980 
# 
# From -- ./inp_files/101188.got.cif
#   From: 2010.05.17/outbox.cif.g08.bks.cpg/sg12_51_cif.got.tgz:101188.got - 2010.06.03 13:09:07.
