data_PCOD9215459
_publ_section_title
;
Structure prediction by ZEFSAII (Michael W. Deem and Ramdas Pophale) SiO2 
 PCOD9215459
Probable space group: C 2/M
;
_chemical_formula_sum "Si O2"
_cell_formula_units_Z 56
_cell_length_a 12.479301
_cell_length_b 31.249029
_cell_length_c 8.456252
_cell_angle_alpha 90.000000
_cell_angle_beta 49.363612
_cell_angle_gamma 90.000000
_cell_volume 2502.448433
_symmetry_space_group_name_H-M "C 2/M"
_symmetry_group_IT_number 12
_symmetry_cell_setting 'monoclinic'
loop_
_space_group_symop_operation_xyz
x,y,z
-x,y,-z
-x,-y,-z
x,-y,z
1/2+x,1/2+y,z
1/2-x,1/2+y,-z
1/2-x,1/2-y,-z
1/2+x,1/2-y,z
loop_
_atom_site_type_symbol
_atom_site_label
_atom_site_fract_x
_atom_site_fract_y
_atom_site_fract_z
Si Si1 0.113631 0.548584 0.529768
Si Si2 0.826825 0.311767 0.821756
Si Si3 0.387759 0.573912 0.381817
Si Si4 0.881628 0.163036 0.240607
Si Si5 0.953485 0.386786 0.876118
Si Si6 0.693234 0.549840 0.180550
Si Si7 0.561580 0.715914 0.275241
O O1 0.090047 0.500000 0.602495
O O2 0.281754 0.555032 0.349990
O O3 0.000000 0.556859 0.500000
O O4 0.074636 0.581770 0.701802
O O5 0.757055 0.326013 0.724384
O O6 0.930136 0.348362 0.779580
O O7 0.897319 0.265391 0.747263
O O8 0.700097 0.307893 0.073719
O O9 0.373387 0.625045 0.374883
O O10 0.551268 0.560318 0.218504
O O11 0.341674 0.557154 0.599822
O O12 0.941350 0.205992 0.262673
O O13 0.000000 0.148634 0.000000
O O14 0.814953 0.416744 0.018222
O O15 0.000000 0.369174 0.000000
O O16 0.733531 0.500000 0.118262
O O17 0.500000 0.699974 0.500000
#
# Coordination Sequence:
#
# PCOD9215459 Si02
#       7
#     8   8   8   8   8   8   8
#     4  11  24  42  64  95 136 179 222 278 345 408
#     4  10  24  44  61  98 134 169 223 277 342 414
#     4  11  22  38  66  98 131 176 222 279 328 397
#     4  10  22  41  66  93 135 173 215 281 341 400
#     4  12  25  42  67  94 132 179 223 286 334 414
#     4  11  23  40  65  99 132 173 231 288 331 388
#     4  10  23  41  68  93 127 173 221 279 338 409
#
# _framework density 22.378084999999999
#
# number of rings (size 3 to 8) (size 9 to 14) (size 15 to 20)
#    0.000    1.286    1.429    4.714    4.000    5.714 
#    0.000    0.000    0.000    6.429    0.000    0.000 
#    0.000    0.000    0.000    0.000    0.000    0.000 
#
# Total GULP energy -156539.344527 kJ/mol
# GULP energy per Si atom -5590.690876 kJ/mol
# Density = 2.232715 g / cm^3
# Si number density = 22.378085 Si / 1000 Ang^3
#
#
#
# Elastic Constant Matrix: (Units=GPa)
#
#
# Indices 1 2 3 4 5 6 
#
# 1 156.3136 29.6621 8.1203 0.0000 -4.7219 0.0000
# 2 29.6621 74.1662 -8.8424 0.0000 0.4552 0.0000
# 3 8.1203 -8.8424 53.2694 0.0000 -5.9149 0.0000
# 4 0.0000 0.0000 0.0000 5.0992 0.0000 9.7751
# 5 -4.7219 0.4552 -5.9149 0.0000 24.4189 0.0000
# 6 0.0000 0.0000 0.0000 9.7751 0.0000 42.6160
#
#
#
# Elastic Compliance Matrix: (Units=1/GPa)
#
#
# Indices 1 2 3 4 5 6 
#
# 1 0.007077 -0.003011 -0.001460 0.000000 0.001071 0.000000
# 2 -0.003011 0.015039 0.002939 0.000000 -0.000151 0.000000
# 3 -0.001460 0.002939 0.019983 0.000000 0.004503 0.000000
# 4 0.000000 0.000000 0.000000 0.350008 0.000000 -0.080284
# 5 0.001071 -0.000151 0.004503 0.000000 0.042253 0.000000
# 6 0.000000 0.000000 0.000000 -0.080284 0.000000 0.041881
#
#
# Mechanical properties :
#
#
# Convention : Reuss Voigt Hill
#
# Bulk Modulus (GPa) = 25.61843 37.95878 31.78861
# Shear Modulus (GPa) = 10.15609 31.41411 20.78510
#
# Velocity S-wave (km/s) = 2.13267 3.75078 3.05095
# Velocity P-wave (km/s) = 4.18774 5.97973 5.16209
#
# Compressibility (1/GPa) = 0.03903439
#
# Stress axis : x y z
#
# Youngs Moduli (GPa) = 141.30410 66.49506 50.04296
#
# Poissons Ratio (x) = 0.20021 0.07305
# Poissons Ratio (y) = 0.42546 -0.14706
# Poissons Ratio (z) = 0.20626 -0.19540
#
# Static dielectric constant tensor:
#      x y z
#    x 1.858920 0.000000 -0.011650 
#    y 0.000000 1.766610 0.000000 
#    z -0.011650 0.000000 1.862990 
# 
# From -- ./inp_files/54579.got.cif
#   From: 2010.05.17/outbox.cif.g08.bks.cpg/sg12_28_cif.got.tgz:54579.got - 2010.06.03 13:09:07.
