data_PCOD9215833
_publ_section_title
;
Structure prediction by ZEFSAII (Michael W. Deem and Ramdas Pophale) SiO2 
 PCOD9215833
Probable space group: C 2/M
;
_chemical_formula_sum "Si O2"
_cell_formula_units_Z 50
_cell_length_a 13.275823
_cell_length_b 12.739116
_cell_length_c 13.256465
_cell_angle_alpha 90.000000
_cell_angle_beta 110.977936
_cell_angle_gamma 90.000000
_cell_volume 2093.362183
_symmetry_space_group_name_H-M "C 2/M"
_symmetry_group_IT_number 12
_symmetry_cell_setting 'monoclinic'
loop_
_space_group_symop_operation_xyz
x,y,z
-x,y,-z
-x,-y,-z
x,-y,z
1/2+x,1/2+y,z
1/2-x,1/2+y,-z
1/2-x,1/2-y,-z
1/2+x,1/2-y,z
loop_
_atom_site_type_symbol
_atom_site_label
_atom_site_fract_x
_atom_site_fract_y
_atom_site_fract_z
Si Si1 0.874906 0.620323 0.869816
Si Si2 0.365435 0.824228 0.534445
Si Si3 0.481656 0.383125 0.656856
Si Si4 0.430713 0.725057 0.118296
Si Si5 0.736569 0.882301 0.948171
Si Si6 0.500000 0.000000 0.500000
Si Si7 0.701373 0.327271 0.639341
O O1 0.911139 0.500000 0.862042
O O2 0.821801 0.617355 0.962146
O O3 0.780784 0.653942 0.760246
O O4 0.972636 0.701075 0.886307
O O5 0.410522 0.716553 0.598887
O O6 0.324612 0.790945 0.408313
O O7 0.269355 0.867552 0.568190
O O8 0.456798 0.908726 0.560645
O O9 0.434109 0.500000 0.635708
O O10 0.522926 0.356178 0.784274
O O11 0.587977 0.379321 0.624496
O O12 0.356371 0.662901 0.010463
O O13 0.342400 0.803302 0.138576
O O14 0.739707 0.000000 0.909796
#
# Coordination Sequence:
#
# PCOD9215833 Si02
#       7
#     8   8   8   8   8   2   8
#     4  11  22  39  68  99 131 173 226 277 324 399
#     4  11  26  45  68  98 136 174 218 275 337 384
#     4  12  24  44  67  97 132 173 227 271 321 397
#     4  11  22  38  65  96 129 165 218 276 328 382
#     4  10  22  42  66  93 129 173 220 277 333 397
#     4  12  24  48  66  96 138 174 218 286 326 396
#     4  11  23  44  64  99 129 178 223 265 327 392
#
# _framework density 23.885020000000001
#
# number of rings (size 3 to 8) (size 9 to 14) (size 15 to 20)
#    0.000    0.960    4.800    1.920    2.240    3.200 
#    5.760    0.000    0.000   22.080    0.000    0.000 
#    0.000    0.000    0.000    0.000    0.000    0.000 
#
# Total GULP energy -139465.317957 kJ/mol
# GULP energy per Si atom -5578.612718 kJ/mol
# Density = 2.383066 g / cm^3
# Si number density = 23.885020 Si / 1000 Ang^3
#
#
#
# Elastic Constant Matrix: (Units=GPa)
#
#
# Indices 1 2 3 4 5 6 
#
# 1 94.5324 32.7711 11.5123 0.0000 5.6183 0.0000
# 2 32.7711 164.1273 16.5165 0.0000 2.1289 0.0000
# 3 11.5123 16.5165 58.1424 0.0000 8.9796 0.0000
# 4 0.0000 0.0000 0.0000 20.2266 0.0000 -9.7941
# 5 5.6183 2.1289 8.9796 0.0000 35.8476 0.0000
# 6 0.0000 0.0000 0.0000 -9.7941 0.0000 5.7537
#
#
#
# Elastic Compliance Matrix: (Units=1/GPa)
#
#
# Indices 1 2 3 4 5 6 
#
# 1 0.011581 -0.002146 -0.001480 0.000000 -0.001317 0.000000
# 2 -0.002146 0.006670 -0.001519 0.000000 0.000321 0.000000
# 3 -0.001480 -0.001519 0.018593 0.000000 -0.004335 0.000000
# 4 0.000000 0.000000 0.000000 0.281296 0.000000 0.478827
# 5 -0.001317 0.000321 -0.004335 0.000000 0.029169 0.000000
# 6 0.000000 0.000000 0.000000 0.478827 0.000000 0.988868
#
#
# Mechanical properties :
#
#
# Convention : Reuss Voigt Hill
#
# Bulk Modulus (GPa) = 37.66037 48.71132 43.18585
# Shear Modulus (GPa) = 3.68917 29.43240 16.56078
#
# Velocity S-wave (km/s) = 1.24415 3.51416 2.63602
# Velocity P-wave (km/s) = 4.22676 6.07487 5.23305
#
# Compressibility (1/GPa) = 0.02655311
#
# Stress axis : x y z
#
# Youngs Moduli (GPa) = 86.34872 149.92222 53.78271
#
# Poissons Ratio (x) = 0.32178 0.07960
# Poissons Ratio (y) = 0.18533 0.08171
# Poissons Ratio (z) = 0.12779 0.22778
#
# Static dielectric constant tensor:
#      x y z
#    x 1.935030 0.000000 0.019790 
#    y 0.000000 1.927990 0.000000 
#    z 0.019790 0.000000 1.987300 
# 
# From -- ./inp_files/213487.got.cif
#   From: 2010.05.17/outbox.cif.g08.bks.cpg/sg12_107_cif.got.tgz:213487.got - 2010.06.03 13:09:07.
