data_PCOD9215974
_publ_section_title
;
Structure prediction by ZEFSAII (Michael W. Deem and Ramdas Pophale) SiO2 
 PCOD9215974
Probable space group: C 2/M
;
_chemical_formula_sum "Si O2"
_cell_formula_units_Z 48
_cell_length_a 16.621593
_cell_length_b 17.198072
_cell_length_c 10.056693
_cell_angle_alpha 90.000000
_cell_angle_beta 45.527312
_cell_angle_gamma 90.000000
_cell_volume 2051.412491
_symmetry_space_group_name_H-M "C 2/M"
_symmetry_group_IT_number 12
_symmetry_cell_setting 'monoclinic'
loop_
_space_group_symop_operation_xyz
x,y,z
-x,y,-z
-x,-y,-z
x,-y,z
1/2+x,1/2+y,z
1/2-x,1/2+y,-z
1/2-x,1/2-y,-z
1/2+x,1/2-y,z
loop_
_atom_site_type_symbol
_atom_site_label
_atom_site_fract_x
_atom_site_fract_y
_atom_site_fract_z
Si Si1 0.709319 0.237557 0.275264
Si Si2 0.308157 0.000000 0.168445
Si Si3 0.107640 0.797300 0.130247
Si Si4 0.563080 0.592563 0.787875
Si Si5 0.000000 0.367866 0.500000
Si Si6 0.967656 0.381539 0.820622
Si Si7 0.726550 0.132454 0.602251
O O1 0.664572 0.294205 0.208518
O O2 0.600954 0.186686 0.435619
O O3 0.757332 0.285416 0.342924
O O4 0.799624 0.186055 0.090230
O O5 0.613306 0.067898 0.994532
O O6 0.239888 0.067546 0.329816
O O7 0.007596 0.858210 0.237537
O O8 0.066982 0.709515 0.142610
O O9 0.556936 0.500000 0.777935
O O10 0.691606 0.620301 0.618666
O O11 0.500000 0.610746 0.000000
O O12 0.041157 0.410300 0.321249
O O13 0.096599 0.386169 0.719315
#
# Coordination Sequence:
#
# PCOD9215974 Si02
#       7
#     8   4   8   8   4   8   8
#     4  10  22  42  69 101 134 171 225 283 320 392
#     4  12  25  43  67 102 137 163 230 285 325 389
#     4  10  23  44  67  98 139 175 219 276 333 394
#     4  11  27  46  65  98 138 177 222 275 331 400
#     4  10  24  43  64 101 140 170 226 274 333 402
#     4  11  24  42  70 104 134 176 221 280 334 393
#     4  12  23  43  73  98 130 182 223 277 335 391
#
# _framework density 23.398510999999999
#
# number of rings (size 3 to 8) (size 9 to 14) (size 15 to 20)
#    0.000    1.167    2.500    3.500    4.667    1.667 
#    1.500    0.833    0.000    0.000    0.000    0.000 
#    0.000    0.000    0.000    0.000    0.000    0.000 
#
# Total GULP energy -133765.092246 kJ/mol
# GULP energy per Si atom -5573.545510 kJ/mol
# Density = 2.334526 g / cm^3
# Si number density = 23.398511 Si / 1000 Ang^3
#
#
#
# Elastic Constant Matrix: (Units=GPa)
#
#
# Indices 1 2 3 4 5 6 
#
# 1 32.9243 16.8673 -1.2675 0.0000 10.9904 0.0000
# 2 16.8673 90.4934 11.8998 0.0000 5.6535 0.0000
# 3 -1.2675 11.8998 141.1827 0.0000 13.5704 0.0000
# 4 0.0000 0.0000 0.0000 28.2389 0.0000 -19.5953
# 5 10.9904 5.6535 13.5704 0.0000 34.8962 0.0000
# 6 0.0000 0.0000 0.0000 -19.5953 0.0000 -7.3808
#
#
#
# Elastic Compliance Matrix: (Units=1/GPa)
#
#
# Indices 1 2 3 4 5 6 
#
# 1 0.037679 -0.006563 0.002005 0.000000 -0.011583 0.000000
# 2 -0.006563 0.012394 -0.001152 0.000000 0.000507 0.000000
# 3 0.002005 -0.001152 0.007522 0.000000 -0.003370 0.000000
# 4 0.000000 0.000000 0.000000 0.012459 0.000000 -0.033078
# 5 -0.011583 0.000507 -0.003370 0.000000 0.033533 0.000000
# 6 0.000000 0.000000 0.000000 -0.033078 0.000000 -0.047668
#
#
# Mechanical properties :
#
#
# Convention : Reuss Voigt Hill
#
# Bulk Modulus (GPa) = 21.65747 35.51108 28.58427
# Shear Modulus (GPa) = 60.43733 26.95756 43.69745
#
# Velocity S-wave (km/s) = 5.08779 3.39795 4.32618
# Velocity P-wave (km/s) = 6.61742 5.53212 6.09896
#
# Compressibility (1/GPa) = 0.04617344
#
# Stress axis : x y z
#
# Youngs Moduli (GPa) = 26.54013 80.68629 132.94240
#
# Poissons Ratio (x) = 0.52955 -0.26652
# Poissons Ratio (y) = 0.17418 0.15319
# Poissons Ratio (z) = -0.05321 0.09297
#
# Static dielectric constant tensor:
#      x y z
#    x 1.944000 0.000000 0.004520 
#    y 0.000000 1.838760 0.000000 
#    z 0.004520 0.000000 1.916480 
# 
# From -- ./inp_files/167570.got.cif
#   From: 2010.05.17/outbox.cif.g08.bks.cpg/sg12_84_cif.got.tgz:167570.got - 2010.06.03 13:09:07.
