data_PCOD9215769
_publ_section_title
;
Structure prediction by ZEFSAII (Michael W. Deem and Ramdas Pophale) SiO2 
 PCOD9215769
Probable space group: C 2/M
;
_chemical_formula_sum "Si O2"
_cell_formula_units_Z 56
_cell_length_a 10.032821
_cell_length_b 14.376058
_cell_length_c 26.551628
_cell_angle_alpha 90.000000
_cell_angle_beta 53.580662
_cell_angle_gamma 90.000000
_cell_volume 3081.658499
_symmetry_space_group_name_H-M "C 2/M"
_symmetry_group_IT_number 12
_symmetry_cell_setting 'monoclinic'
loop_
_space_group_symop_operation_xyz
x,y,z
-x,y,-z
-x,-y,-z
x,-y,z
1/2+x,1/2+y,z
1/2-x,1/2+y,-z
1/2-x,1/2-y,-z
1/2+x,1/2-y,z
loop_
_atom_site_type_symbol
_atom_site_label
_atom_site_fract_x
_atom_site_fract_y
_atom_site_fract_z
Si Si1 0.723364 0.255236 0.753183
Si Si2 0.659253 0.500000 0.033775
Si Si3 0.197752 0.308027 0.962235
Si Si4 0.181536 0.608979 0.357198
Si Si5 0.655002 0.197464 0.164784
Si Si6 0.945843 0.762814 0.455611
Si Si7 0.267749 0.500000 0.101061
Si Si8 0.981165 0.891539 0.653801
O O1 0.775874 0.339910 0.704805
O O2 0.536009 0.224507 0.784668
O O3 0.747329 0.284331 0.805520
O O4 0.844394 0.169220 0.713400
O O5 0.726618 0.409458 0.046496
O O6 0.460079 0.500000 0.075210
O O7 0.725883 0.500000 0.961213
O O8 0.272151 0.260035 0.896294
O O9 0.250000 0.250000 0.000000
O O10 0.000000 0.310608 0.000000
O O11 0.140632 0.500000 0.360181
O O12 0.345030 0.615857 0.355399
O O13 0.037338 0.669171 0.415769
O O14 0.679491 0.091725 0.141541
O O15 0.750000 0.750000 0.500000
O O16 0.996159 0.843795 0.405566
O O17 0.000000 0.783826 0.500000
O O18 0.936633 0.000000 0.660376
#
# Coordination Sequence:
#
# PCOD9215769 Si02
#       8
#     8   4   8   8   8   8   4   8
#     4  11  24  44  61  94 125 168 213 267 309 376
#     4  11  23  44  64  94 130 166 208 256 334 404
#     4  12  24  44  67  93 129 167 209 268 333 390
#     4  10  22  42  66  92 127 176 210 252 315 375
#     4  12  25  42  65  93 125 165 215 263 319 380
#     4  11  22  39  65  99 131 163 209 260 307 367
#     4  11  24  40  68  94 126 166 206 267 326 388
#     4  10  22  42  65  89 131 169 207 259 314 363
#
# _framework density 18.172034
#
# number of rings (size 3 to 8) (size 9 to 14) (size 15 to 20)
#    0.000    1.000    4.286    2.786    2.000    1.143 
#    2.571    1.429    0.000    0.000    0.000    0.000 
#    0.000    0.000    0.000    0.000    0.000    0.000 
#
# Total GULP energy -156543.917804 kJ/mol
# GULP energy per Si atom -5590.854207 kJ/mol
# Density = 1.813067 g / cm^3
# Si number density = 18.172034 Si / 1000 Ang^3
#
#
#
# Elastic Constant Matrix: (Units=GPa)
#
#
# Indices 1 2 3 4 5 6 
#
# 1 82.7831 34.0058 19.6519 0.0000 10.6834 0.0000
# 2 34.0058 169.7270 51.0816 0.0000 13.2785 0.0000
# 3 19.6519 51.0816 88.4530 0.0000 17.9425 0.0000
# 4 0.0000 0.0000 0.0000 10.1766 0.0000 -5.7165
# 5 10.6834 13.2785 17.9425 0.0000 42.8854 0.0000
# 6 0.0000 0.0000 0.0000 -5.7165 0.0000 27.2026
#
#
#
# Elastic Compliance Matrix: (Units=1/GPa)
#
#
# Indices 1 2 3 4 5 6 
#
# 1 0.013556 -0.002145 -0.001336 0.000000 -0.002154 0.000000
# 2 -0.002145 0.007482 -0.003806 0.000000 -0.000190 0.000000
# 3 -0.001336 -0.003806 0.014745 0.000000 -0.004658 0.000000
# 4 0.000000 0.000000 0.000000 0.111416 0.000000 0.023414
# 5 -0.002154 -0.000190 -0.004658 0.000000 0.025862 0.000000
# 6 0.000000 0.000000 0.000000 0.023414 0.000000 0.041682
#
#
# Mechanical properties :
#
#
# Convention : Reuss Voigt Hill
#
# Bulk Modulus (GPa) = 47.15003 61.16018 54.15511
# Shear Modulus (GPa) = 21.15180 31.80117 26.47649
#
# Velocity S-wave (km/s) = 3.41541 4.18785 3.82120
# Velocity P-wave (km/s) = 6.44641 7.55734 7.02387
#
# Compressibility (1/GPa) = 0.02120889
#
# Stress axis : x y z
#
# Youngs Moduli (GPa) = 73.76705 133.65634 67.82051
#
# Poissons Ratio (x) = 0.28676 0.09060
# Poissons Ratio (y) = 0.15827 0.25810
# Poissons Ratio (z) = 0.09855 0.50864
#
# Static dielectric constant tensor:
#      x y z
#    x 1.596600 0.000000 -0.000270 
#    y 0.000000 1.167400 0.000000 
#    z -0.000270 0.000000 1.600150 
# 
# From -- ./inp_files/332868.got.cif
#   From: 2010.05.17/outbox.cif.g08.bks.cpg/sg12_167_cif.got.tgz:332868.got - 2010.06.03 13:09:07.
