data_PCOD9215104
_publ_section_title
;
Structure prediction by ZEFSAII (Michael W. Deem and Ramdas Pophale) SiO2 
 PCOD9215104
Probable space group: C 2/M
;
_chemical_formula_sum "Si O2"
_cell_formula_units_Z 48
_cell_length_a 8.612611
_cell_length_b 18.803389
_cell_length_c 16.677607
_cell_angle_alpha 90.000000
_cell_angle_beta 57.259032
_cell_angle_gamma 90.000000
_cell_volume 2271.772659
_symmetry_space_group_name_H-M "C 2/M"
_symmetry_group_IT_number 12
_symmetry_cell_setting 'monoclinic'
loop_
_space_group_symop_operation_xyz
x,y,z
-x,y,-z
-x,-y,-z
x,-y,z
1/2+x,1/2+y,z
1/2-x,1/2+y,-z
1/2-x,1/2-y,-z
1/2+x,1/2-y,z
loop_
_atom_site_type_symbol
_atom_site_label
_atom_site_fract_x
_atom_site_fract_y
_atom_site_fract_z
Si Si1 0.279515 0.201439 0.244299
Si Si2 0.009613 0.918638 0.655014
Si Si3 0.286385 0.813156 0.054325
Si Si4 0.666813 0.169913 0.515689
Si Si5 0.413278 0.163673 0.728103
Si Si6 0.549106 0.580851 0.836836
O O1 0.271941 0.209668 0.151116
O O2 0.479967 0.193694 0.224797
O O3 0.184578 0.274369 0.297116
O O4 0.164248 0.133320 0.302997
O O5 0.174808 0.882010 0.560954
O O6 0.050214 0.918854 0.739223
O O7 0.977459 0.000000 0.639281
O O8 0.123275 0.870853 0.087034
O O9 0.500000 0.840398 0.000000
O O10 0.250000 0.750000 0.000000
O O11 0.500000 0.170991 0.500000
O O12 0.750000 0.250000 0.500000
O O13 0.576879 0.140149 0.622939
O O14 0.250283 0.112056 0.801303
O O15 0.527189 0.500000 0.870724
#
# Coordination Sequence:
#
# PCOD9215104 Si02
#       6
#     8   8   8   8   8   8
#     4  11  23  40  65  95 128 170 215 276 330 395
#     4  10  22  41  61  90 132 179 224 272 328 383
#     4  11  23  42  71 101 128 164 218 271 335 403
#     4  12  23  37  61  94 130 175 230 278 314 374
#     4  12  22  38  65  94 132 175 223 267 326 385
#     4  10  23  43  66  97 135 175 220 272 333 400
#
# _framework density 21.128874
#
# number of rings (size 3 to 8) (size 9 to 14) (size 15 to 20)
#    0.000    1.000    3.333    5.000    0.000    2.000 
#    0.000    0.833    0.000   11.500    0.000    0.000 
#    0.000    0.000    0.000    0.000    0.000    0.000 
#
# Total GULP energy -134004.640090 kJ/mol
# GULP energy per Si atom -5583.526670 kJ/mol
# Density = 2.108078 g / cm^3
# Si number density = 21.128874 Si / 1000 Ang^3
#
#
#
# Elastic Constant Matrix: (Units=GPa)
#
#
# Indices 1 2 3 4 5 6 
#
# 1 148.1446 55.3052 54.4344 0.0000 -16.4980 0.0000
# 2 55.3052 142.7281 67.0536 0.0000 -21.0908 0.0000
# 3 54.4344 67.0536 111.7088 0.0000 -28.3546 0.0000
# 4 0.0000 0.0000 0.0000 27.5926 0.0000 -3.9049
# 5 -16.4980 -21.0908 -28.3546 0.0000 36.1821 0.0000
# 6 0.0000 0.0000 0.0000 -3.9049 0.0000 19.4727
#
#
#
# Elastic Compliance Matrix: (Units=1/GPa)
#
#
# Indices 1 2 3 4 5 6 
#
# 1 0.008583 -0.001874 -0.002923 0.000000 0.000531 0.000000
# 2 -0.001874 0.010222 -0.004902 0.000000 0.001262 0.000000
# 3 -0.002923 -0.004902 0.015298 0.000000 0.007798 0.000000
# 4 0.000000 0.000000 0.000000 0.037300 0.000000 0.007480
# 5 0.000531 0.001262 0.007798 0.000000 0.034727 0.000000
# 6 0.000000 0.000000 0.000000 0.007480 0.000000 0.052854
#
#
# Mechanical properties :
#
#
# Convention : Reuss Voigt Hill
#
# Bulk Modulus (GPa) = 68.00456 84.01863 76.01160
# Shear Modulus (GPa) = 27.28010 31.70202 29.49106
#
# Velocity S-wave (km/s) = 3.59713 3.87772 3.74005
# Velocity P-wave (km/s) = 7.03619 7.73952 7.39622
#
# Compressibility (1/GPa) = 0.01470490
#
# Stress axis : x y z
#
# Youngs Moduli (GPa) = 116.51151 97.82681 65.36831
#
# Poissons Ratio (x) = 0.18336 0.19104
# Poissons Ratio (y) = 0.21838 0.32045
# Poissons Ratio (z) = 0.34051 0.47956
#
# Static dielectric constant tensor:
#      x y z
#    x 1.768950 0.000000 -0.052020 
#    y 0.000000 1.749530 0.000000 
#    z -0.052020 0.000000 1.977760 
# 
# From -- ./inp_files/256453.got.cif
#   From: 2010.05.17/outbox.cif.g08.bks.cpg/sg12_129_cif.got.tgz:256453.got - 2010.06.03 13:09:07.
