data_PCOD9215484
_publ_section_title
;
Structure prediction by ZEFSAII (Michael W. Deem and Ramdas Pophale) SiO2 
 PCOD9215484
Probable space group: C 2/M
;
_chemical_formula_sum "Si O2"
_cell_formula_units_Z 50
_cell_length_a 18.039391
_cell_length_b 7.869528
_cell_length_c 16.133734
_cell_angle_alpha 90.000000
_cell_angle_beta 79.234058
_cell_angle_gamma 90.000000
_cell_volume 2250.054941
_symmetry_space_group_name_H-M "C 2/M"
_symmetry_group_IT_number 12
_symmetry_cell_setting 'monoclinic'
loop_
_space_group_symop_operation_xyz
x,y,z
-x,y,-z
-x,-y,-z
x,-y,z
1/2+x,1/2+y,z
1/2-x,1/2+y,-z
1/2-x,1/2-y,-z
1/2+x,1/2-y,z
loop_
_atom_site_type_symbol
_atom_site_label
_atom_site_fract_x
_atom_site_fract_y
_atom_site_fract_z
Si Si1 0.542024 0.183736 0.584381
Si Si2 0.819394 0.800336 0.544960
Si Si3 0.999739 0.796789 0.248865
Si Si4 0.669619 0.202737 0.266399
Si Si5 0.056077 0.208004 0.916870
Si Si6 0.000000 0.000000 0.500000
Si Si7 0.772787 0.204970 0.089647
O O1 0.613138 0.193276 0.509480
O O2 0.561019 0.217410 0.675425
O O3 0.494117 0.348773 0.570932
O O4 0.504671 0.000000 0.586581
O O5 0.750000 0.750000 0.500000
O O6 0.810146 0.772042 0.645405
O O7 0.841473 0.000000 0.527361
O O8 0.082931 0.741841 0.260779
O O9 0.979511 0.736734 0.162010
O O10 0.994957 0.000000 0.250228
O O11 0.719779 0.265132 0.177304
O O12 0.679141 0.000000 0.270709
O O13 0.141729 0.264176 0.912315
O O14 0.057500 0.000000 0.917479
O O15 0.000000 0.264706 0.000000
O O16 0.771339 0.000000 0.094062
O O17 0.750000 0.250000 0.000000
#
# Coordination Sequence:
#
# PCOD9215484 Si02
#       7
#     8   8   8   8   8   2   8
#     4  12  25  43  68  99 138 180 230 290 344 404
#     4  12  26  46  68  98 138 181 236 286 346 417
#     4  11  22  40  67  98 134 176 230 282 336 410
#     4  11  24  41  63  96 133 178 222 280 345 408
#     4   9  19  37  65  97 130 173 221 273 335 404
#     4  12  22  44  64  98 130 176 234 278 338 404
#     4  10  22  41  66  96 131 170 218 273 338 410
#
# _framework density 22.221679999999999
#
# number of rings (size 3 to 8) (size 9 to 14) (size 15 to 20)
#    0.000    1.120    1.600    4.560    2.240    2.560 
#    0.000    1.600    0.000    4.320    0.000    0.000 
#    0.000    0.000    0.000    0.000    0.000    0.000 
#
# Total GULP energy -139407.246463 kJ/mol
# GULP energy per Si atom -5576.289859 kJ/mol
# Density = 2.217110 g / cm^3
# Si number density = 22.221680 Si / 1000 Ang^3
#
#
#
# Elastic Constant Matrix: (Units=GPa)
#
#
# Indices 1 2 3 4 5 6 
#
# 1 114.1223 15.0092 80.9279 0.0000 8.2673 0.0000
# 2 15.0092 122.0315 28.9992 0.0000 1.4068 0.0000
# 3 80.9279 28.9992 250.3724 0.0000 9.6327 0.0000
# 4 0.0000 0.0000 0.0000 23.7756 0.0000 -6.2594
# 5 8.2673 1.4068 9.6327 0.0000 44.5349 0.0000
# 6 0.0000 0.0000 0.0000 -6.2594 0.0000 9.0114
#
#
#
# Elastic Compliance Matrix: (Units=1/GPa)
#
#
# Indices 1 2 3 4 5 6 
#
# 1 0.011481 -0.000542 -0.003597 0.000000 -0.001336 0.000000
# 2 -0.000542 0.008452 -0.000804 0.000000 0.000008 0.000000
# 3 -0.003597 -0.000804 0.005267 0.000000 -0.000446 0.000000
# 4 0.000000 0.000000 0.000000 0.051473 0.000000 0.035754
# 5 -0.001336 0.000008 -0.000446 0.000000 0.022799 0.000000
# 6 0.000000 0.000000 0.000000 0.035754 0.000000 0.135806
#
#
# Mechanical properties :
#
#
# Convention : Reuss Voigt Hill
#
# Bulk Modulus (GPa) = 65.29718 81.82208 73.55963
# Shear Modulus (GPa) = 19.97849 39.57037 29.77443
#
# Velocity S-wave (km/s) = 3.00168 4.22442 3.66441
# Velocity P-wave (km/s) = 6.43907 7.79071 7.14691
#
# Compressibility (1/GPa) = 0.01531460
#
# Stress axis : x y z
#
# Youngs Moduli (GPa) = 87.09809 118.31154 189.86212
#
# Poissons Ratio (x) = 0.06412 0.68292
# Poissons Ratio (y) = 0.04720 0.15267
# Poissons Ratio (z) = 0.31329 0.09513
#
# Static dielectric constant tensor:
#      x y z
#    x 1.781610 0.000000 0.041830 
#    y 0.000000 1.813070 0.000000 
#    z 0.041830 0.000000 1.923730 
# 
# From -- ./inp_files/230059.got.cif
#   From: 2010.05.17/outbox.cif.g08.bks.cpg/sg12_116_cif.got.tgz:230059.got - 2010.06.03 13:09:07.
