data_PCOD9215601
_publ_section_title
;
Structure prediction by ZEFSAII (Michael W. Deem and Ramdas Pophale) SiO2 
 PCOD9215601
Probable space group: C 2/M
;
_chemical_formula_sum "Si O2"
_cell_formula_units_Z 32
_cell_length_a 7.823439
_cell_length_b 30.870327
_cell_length_c 5.887059
_cell_angle_alpha 90.000000
_cell_angle_beta 80.105350
_cell_angle_gamma 90.000000
_cell_volume 1400.647418
_symmetry_space_group_name_H-M "C 2/M"
_symmetry_group_IT_number 12
_symmetry_cell_setting 'monoclinic'
loop_
_space_group_symop_operation_xyz
x,y,z
-x,y,-z
-x,-y,-z
x,-y,z
1/2+x,1/2+y,z
1/2-x,1/2+y,-z
1/2-x,1/2-y,-z
1/2+x,1/2-y,z
loop_
_atom_site_type_symbol
_atom_site_label
_atom_site_fract_x
_atom_site_fract_y
_atom_site_fract_z
Si Si1 0.700648 0.787384 0.332092
Si Si2 0.000000 0.246397 0.000000
Si Si3 0.189413 0.121112 0.563516
Si Si4 0.331578 0.048557 0.201107
Si Si5 0.000000 0.072546 0.000000
O O1 0.750000 0.750000 0.500000
O O2 0.707482 0.834500 0.435282
O O3 0.845305 0.784991 0.101775
O O4 0.537845 0.774781 0.214256
O O5 0.297757 0.085987 0.394229
O O6 0.000000 0.131440 0.500000
O O7 0.128386 0.100722 0.814286
O O8 0.359606 0.000000 0.290693
O O9 0.500000 0.057270 0.000000
O O10 0.143716 0.047654 0.116140
#
# Coordination Sequence:
#
# PCOD9215601 Si02
#       5
#     8   4   8   8   4
#     4  11  22  43  64  96 133 179 223 280 338 404
#     4  10  23  38  66  95 130 180 228 271 339 408
#     4  10  22  41  68  97 135 178 228 282 344 415
#     4  10  23  44  69 100 135 178 229 285 351 418
#     4  10  22  42  66  99 134 180 220 287 342 418
#
# _framework density 22.846578000000001
#
# number of rings (size 3 to 8) (size 9 to 14) (size 15 to 20)
#    0.000    1.750    0.000    3.375    0.000   12.500 
#   13.500    2.500    0.000    0.000    0.000    0.000 
#    0.000    0.000    0.000    0.000    0.000    0.000 
#
# Total GULP energy -89263.662475 kJ/mol
# GULP energy per Si atom -5578.978905 kJ/mol
# Density = 2.279458 g / cm^3
# Si number density = 22.846578 Si / 1000 Ang^3
#
#
#
# Elastic Constant Matrix: (Units=GPa)
#
#
# Indices 1 2 3 4 5 6 
#
# 1 119.8431 62.8913 38.3311 0.0000 -31.9199 0.0000
# 2 62.8913 200.2788 94.2594 0.0000 -13.7141 0.0000
# 3 38.3311 94.2594 102.7830 0.0000 -6.1162 0.0000
# 4 0.0000 0.0000 0.0000 -12.2490 0.0000 4.6536
# 5 -31.9199 -13.7141 -6.1162 0.0000 55.6094 0.0000
# 6 0.0000 0.0000 0.0000 4.6536 0.0000 15.7699
#
#
#
# Elastic Compliance Matrix: (Units=1/GPa)
#
#
# Indices 1 2 3 4 5 6 
#
# 1 0.011794 -0.002449 -0.001797 0.000000 0.005968 0.000000
# 2 -0.002449 0.009386 -0.007690 0.000000 0.000063 0.000000
# 3 -0.001797 -0.007690 0.017392 0.000000 -0.001015 0.000000
# 4 0.000000 0.000000 0.000000 -0.073409 0.000000 0.021663
# 5 0.005968 0.000063 -0.001015 0.000000 0.021312 0.000000
# 6 0.000000 0.000000 0.000000 0.021663 0.000000 0.057019
#
#
# Mechanical properties :
#
#
# Convention : Reuss Voigt Hill
#
# Bulk Modulus (GPa) = 68.03620 90.42983 79.23301
# Shear Modulus (GPa) = 69.18885 26.98760 48.08823
#
# Velocity S-wave (km/s) = 5.50907 3.44067 4.59282
# Velocity P-wave (km/s) = 8.38515 7.44658 7.92976
#
# Compressibility (1/GPa) = 0.01469806
#
# Stress axis : x y z
#
# Youngs Moduli (GPa) = 84.79011 106.54398 57.49852
#
# Poissons Ratio (x) = 0.26092 0.10334
# Poissons Ratio (y) = 0.20764 0.44219
# Poissons Ratio (z) = 0.15240 0.81937
#
# Static dielectric constant tensor:
#      x y z
#    x 2.060150 0.000000 0.019660 
#    y 0.000000 1.797250 0.000000 
#    z 0.019660 0.000000 1.898850 
# 
# From -- ./inp_files/3560.got.cif
#   From: 2010.05.17/outbox.cif.g08.bks.cpg/sg12_2_cif.got.tgz:3560.got - 2010.06.03 13:09:07.
