data_PCOD9215345
_publ_section_title
;
Structure prediction by ZEFSAII (Michael W. Deem and Ramdas Pophale) SiO2 
 PCOD9215345
Probable space group: C 2/M
;
_chemical_formula_sum "Si O2"
_cell_formula_units_Z 64
_cell_length_a 10.111585
_cell_length_b 14.285520
_cell_length_c 24.762107
_cell_angle_alpha 90.000000
_cell_angle_beta 80.473437
_cell_angle_gamma 90.000000
_cell_volume 3527.539114
_symmetry_space_group_name_H-M "C 2/M"
_symmetry_group_IT_number 12
_symmetry_cell_setting 'monoclinic'
loop_
_space_group_symop_operation_xyz
x,y,z
-x,y,-z
-x,-y,-z
x,-y,z
1/2+x,1/2+y,z
1/2-x,1/2+y,-z
1/2-x,1/2-y,-z
1/2+x,1/2-y,z
loop_
_atom_site_type_symbol
_atom_site_label
_atom_site_fract_x
_atom_site_fract_y
_atom_site_fract_z
Si Si1 0.333079 0.389107 0.393650
Si Si2 0.225819 0.768989 0.705476
Si Si3 0.493196 0.890999 0.122168
Si Si4 0.108374 0.232749 0.037972
Si Si5 0.656014 0.614072 0.489603
Si Si6 0.558987 0.232842 0.220577
Si Si7 0.671113 0.391235 0.135559
Si Si8 0.156706 0.890075 0.371223
O O1 0.306809 0.500000 0.390932
O O2 0.274116 0.335764 0.346662
O O3 0.284262 0.356756 0.456717
O O4 0.495291 0.377135 0.381819
O O5 0.328609 0.799819 0.744819
O O6 0.276952 0.669518 0.679877
O O7 0.077884 0.757896 0.739522
O O8 0.561298 0.827089 0.071833
O O9 0.531924 0.844829 0.176734
O O10 0.332527 0.884281 0.126526
O O11 0.531388 0.000000 0.116242
O O12 0.121900 0.153051 0.082555
O O13 0.250000 0.250000 0.000000
O O14 0.000000 0.208249 0.000000
O O15 0.500000 0.643328 0.500000
O O16 0.655393 0.500000 0.490585
O O17 0.711027 0.639551 0.427001
O O18 0.612018 0.325547 0.186408
O O19 0.633655 0.500000 0.143831
O O20 0.181980 0.000000 0.362744
#
# Coordination Sequence:
#
# PCOD9215345 Si02
#       8
#     8   8   8   8   8   8   8   8
#     4   9  18  33  54  80 110 144 184 233 289 348
#     4  12  22  36  57  84 113 145 191 243 293 338
#     4  10  22  41  65  88 116 162 202 227 278 343
#     4  11  22  39  63  98 133 153 183 240 283 322
#     4   7  12  27  50  76 106 139 180 228 278 345
#     4  11  24  40  57  84 117 150 192 250 287 323
#     4  10  22  41  65  88 116 161 201 229 279 340
#     4   9  18  33  55  80 107 146 189 228 283 356
#
# _framework density 18.142961
#
# number of rings (size 3 to 8) (size 9 to 14) (size 15 to 20)
#    0.000    2.125    3.750    1.500    0.000    3.500 
#    0.000    1.250    0.000    0.000    0.000    2.625 
#    0.000    0.000    0.000    0.000    0.000    0.000 
#
# Total GULP energy -178501.713555 kJ/mol
# GULP energy per Si atom -5578.178549 kJ/mol
# Density = 1.810167 g / cm^3
# Si number density = 18.142961 Si / 1000 Ang^3
#
#
#
# Elastic Constant Matrix: (Units=GPa)
#
#
# Indices 1 2 3 4 5 6 
#
# 1 58.1321 23.3214 28.4740 0.0000 16.5698 0.0000
# 2 23.3214 95.5496 40.2823 0.0000 16.6129 0.0000
# 3 28.4740 40.2823 108.4623 0.0000 29.9724 0.0000
# 4 0.0000 0.0000 0.0000 14.6397 0.0000 -3.2436
# 5 16.5698 16.6129 29.9724 0.0000 37.7400 0.0000
# 6 0.0000 0.0000 0.0000 -3.2436 0.0000 14.8218
#
#
#
# Elastic Compliance Matrix: (Units=1/GPa)
#
#
# Indices 1 2 3 4 5 6 
#
# 1 0.021491 -0.003005 -0.002926 0.000000 -0.005789 0.000000
# 2 -0.003005 0.012988 -0.003612 0.000000 -0.001529 0.000000
# 3 -0.002926 -0.003612 0.013497 0.000000 -0.007845 0.000000
# 4 0.000000 0.000000 0.000000 0.071788 0.000000 0.015710
# 5 -0.005789 -0.001529 -0.007845 0.000000 0.035942 0.000000
# 6 0.000000 0.000000 0.000000 0.015710 0.000000 0.070906
#
#
# Mechanical properties :
#
#
# Convention : Reuss Voigt Hill
#
# Bulk Modulus (GPa) = 34.61500 49.58883 42.10192
# Shear Modulus (GPa) = 19.58251 24.77804 22.18027
#
# Velocity S-wave (km/s) = 3.28890 3.69956 3.50026
# Velocity P-wave (km/s) = 5.79163 6.75578 6.29220
#
# Compressibility (1/GPa) = 0.02888921
#
# Stress axis : x y z
#
# Youngs Moduli (GPa) = 46.53062 76.99427 74.08931
#
# Poissons Ratio (x) = 0.23140 0.21679
# Poissons Ratio (y) = 0.13984 0.26762
# Poissons Ratio (z) = 0.13615 0.27811
#
# Static dielectric constant tensor:
#      x y z
#    x 1.588090 0.000000 0.011780 
#    y 0.000000 1.608370 0.000000 
#    z 0.011780 0.000000 1.635300 
# 
# From -- ./inp_files/332957.got.cif
#   From: 2010.05.17/outbox.cif.g08.bks.cpg/sg12_167_cif.got.tgz:332957.got - 2010.06.03 13:09:07.
