data_PCOD9215569
_publ_section_title
;
Structure prediction by ZEFSAII (Michael W. Deem and Ramdas Pophale) SiO2 
 PCOD9215569
Probable space group: C 2/M
;
_chemical_formula_sum "Si O2"
_cell_formula_units_Z 44
_cell_length_a 17.677468
_cell_length_b 14.754752
_cell_length_c 15.315058
_cell_angle_alpha 90.000000
_cell_angle_beta 30.884506
_cell_angle_gamma 90.000000
_cell_volume 2050.452264
_symmetry_space_group_name_H-M "C 2/M"
_symmetry_group_IT_number 12
_symmetry_cell_setting 'monoclinic'
loop_
_space_group_symop_operation_xyz
x,y,z
-x,y,-z
-x,-y,-z
x,-y,z
1/2+x,1/2+y,z
1/2-x,1/2+y,-z
1/2-x,1/2-y,-z
1/2+x,1/2-y,z
loop_
_atom_site_type_symbol
_atom_site_label
_atom_site_fract_x
_atom_site_fract_y
_atom_site_fract_z
Si Si1 0.000047 0.500000 0.711193
Si Si2 0.341923 0.500000 0.317696
Si Si3 0.183624 0.808596 0.750626
Si Si4 0.000000 0.656077 0.000000
Si Si5 0.987992 0.000000 0.691357
Si Si6 0.545078 0.682237 0.554439
Si Si7 0.387108 0.843948 0.696808
Si Si8 0.156429 0.500000 0.947721
O O1 0.178503 0.500000 0.525546
O O2 0.930445 0.416380 0.725660
O O3 0.947491 0.500000 0.863431
O O4 0.345599 0.404095 0.264642
O O5 0.490130 0.500000 0.227962
O O6 0.321496 0.752882 0.574347
O O7 0.231807 0.837933 0.801456
O O8 0.065377 0.728219 0.867066
O O9 0.118315 0.588471 0.926865
O O10 0.069220 0.909593 0.579715
O O11 0.824327 0.000000 0.814509
O O12 0.500000 0.658117 0.500000
O O13 0.410377 0.745346 0.716808
O O14 0.500000 0.858294 0.500000
#
# Coordination Sequence:
#
# PCOD9215569 Si02
#       8
#     4   4   8   4   4   8   8   4
#     4  12  21  40  69 104 137 173 216 280 333 393
#     4  12  25  40  67 104 140 171 225 271 328 401
#     4  10  22  41  68 101 127 180 224 270 324 395
#     4  11  26  49  70  90 136 175 232 275 332 404
#     4  12  26  41  60  94 140 176 221 274 336 397
#     4   9  19  37  65  88 122 170 232 268 314 386
#     4   9  17  36  67  94 127 166 221 269 321 385
#     4  11  28  47  67  96 135 179 220 280 347 386
#
# _framework density 21.458680000000001
#
# number of rings (size 3 to 8) (size 9 to 14) (size 15 to 20)
#    0.000    2.000    3.636    3.273    2.545    4.727 
#    0.000    2.727    0.000    0.000    0.000    0.000 
#    0.000    0.000    0.000    0.000    0.000    0.000 
#
# Total GULP energy -122500.967105 kJ/mol
# GULP energy per Si atom -5568.225778 kJ/mol
# Density = 2.140984 g / cm^3
# Si number density = 21.458680 Si / 1000 Ang^3
#
#
#
# Elastic Constant Matrix: (Units=GPa)
#
#
# Indices 1 2 3 4 5 6 
#
# 1 65.9173 60.7350 16.0696 0.0000 -23.1409 0.0001
# 2 60.7350 177.4348 35.3717 0.0000 -4.8134 0.0004
# 3 16.0696 35.3717 31.6941 0.0000 -11.3652 0.0001
# 4 0.0000 0.0000 0.0000 23.4771 0.0000 -4.2938
# 5 -23.1409 -4.8134 -11.3652 0.0000 28.6843 0.0000
# 6 0.0001 0.0004 0.0001 -4.2938 0.0000 28.3827
#
#
#
# Elastic Compliance Matrix: (Units=1/GPa)
#
#
# Indices 1 2 3 4 5 6 
#
# 1 0.035422 -0.012647 0.006575 0.000000 0.029060 0.000000
# 2 -0.012647 0.011899 -0.011434 0.000000 -0.012737 0.000000
# 3 0.006575 -0.011434 0.049181 0.000000 0.022872 0.000000
# 4 0.000000 0.000000 0.000000 0.043807 0.000000 0.006627
# 5 0.029060 -0.012737 0.022872 0.000000 0.065231 0.000000
# 6 0.000000 0.000000 0.000000 0.006627 0.000000 0.036235
#
#
# Mechanical properties :
#
#
# Convention : Reuss Voigt Hill
#
# Bulk Modulus (GPa) = 16.26303 55.48877 35.87590
# Shear Modulus (GPa) = 16.81895 26.96683 21.89289
#
# Velocity S-wave (km/s) = 2.80265 3.54882 3.19758
# Velocity P-wave (km/s) = 4.25069 6.53504 5.51249
#
# Compressibility (1/GPa) = 0.06148915
#
# Stress axis : x y z
#
# Youngs Moduli (GPa) = 28.23079 84.04112 20.33324
#
# Poissons Ratio (x) = 1.06290 -0.13370
# Poissons Ratio (y) = 0.35705 0.23250
# Poissons Ratio (z) = -0.18563 0.96096
#
# Static dielectric constant tensor:
#      x y z
#    x 1.791310 0.000000 -0.033380 
#    y 0.000000 1.775600 0.000000 
#    z -0.033380 0.000000 1.951780 
# 
# From -- ./inp_files/277796.got.cif
#   From: 2010.05.17/outbox.cif.g08.bks.cpg/sg12_139_cif.got.tgz:277796.got - 2010.06.03 13:09:07.
