data_PCOD9215836
_publ_section_title
;
Structure prediction by ZEFSAII (Michael W. Deem and Ramdas Pophale) SiO2 
 PCOD9215836
Probable space group: C 2/M
;
_chemical_formula_sum "Si O2"
_cell_formula_units_Z 64
_cell_length_a 18.541699
_cell_length_b 14.462556
_cell_length_c 19.396720
_cell_angle_alpha 90.000000
_cell_angle_beta 144.854475
_cell_angle_gamma 90.000000
_cell_volume 2994.230735
_symmetry_space_group_name_H-M "C 2/M"
_symmetry_group_IT_number 12
_symmetry_cell_setting 'monoclinic'
loop_
_space_group_symop_operation_xyz
x,y,z
-x,y,-z
-x,-y,-z
x,-y,z
1/2+x,1/2+y,z
1/2-x,1/2+y,-z
1/2-x,1/2-y,-z
1/2+x,1/2-y,z
loop_
_atom_site_type_symbol
_atom_site_label
_atom_site_fract_x
_atom_site_fract_y
_atom_site_fract_z
Si Si1 0.698619 0.646587 0.454229
Si Si2 0.674297 0.394270 0.275231
Si Si3 0.242376 0.902314 0.629929
Si Si4 0.712696 0.777932 0.046330
Si Si5 0.869929 0.747478 0.380269
Si Si6 0.509334 0.106185 0.086792
Si Si7 0.415881 0.388651 0.288697
Si Si8 0.419442 0.606628 0.006990
O O1 0.750000 0.750000 0.500000
O O2 0.709449 0.616250 0.383272
O O3 0.777557 0.597912 0.577177
O O4 0.553883 0.628744 0.364053
O O5 0.696397 0.500000 0.270524
O O6 0.755636 0.324131 0.292498
O O7 0.525931 0.377152 0.148826
O O8 0.157043 0.815304 0.576898
O O9 0.355557 0.892243 0.772214
O O10 0.177477 0.000000 0.593936
O O11 0.811470 0.850132 0.154641
O O12 0.750000 0.750000 0.000000
O O13 0.581080 0.829994 0.941332
O O14 0.687078 0.683972 0.069532
O O15 0.888038 0.820170 0.331915
O O16 0.000000 0.697676 0.500000
O O17 0.466197 0.000000 0.053374
O O18 0.500000 0.137542 0.000000
O O19 0.401897 0.500000 0.291062
O O20 0.375174 0.500000 0.977120
O O21 0.500000 0.615943 0.000000
#
# Coordination Sequence:
#
# PCOD9215836 Si02
#       8
#     8   8   8   8   8   8   8   8
#     4  12  24  43  67  94 136 174 230 274 327 398
#     4  11  23  42  69  96 130 179 231 281 338 404
#     4  11  22  38  66  94 129 174 222 274 326 393
#     4  12  25  39  65  96 137 171 210 266 334 399
#     4  12  23  40  63  98 135 170 220 282 334 399
#     4  10  22  42  66  94 128 171 221 270 323 390
#     4  12  26  44  69 100 138 177 219 274 342 405
#     4  10  22  43  69  94 123 170 230 279 322 394
#
# _framework density 21.374438999999999
#
# number of rings (size 3 to 8) (size 9 to 14) (size 15 to 20)
#    0.000    0.750    2.500    5.250    1.750    3.750 
#    0.000    0.000    0.000    0.000    0.000    0.000 
#    0.000    0.000    0.000    0.000    0.000    0.000 
#
# Total GULP energy -178639.809031 kJ/mol
# GULP energy per Si atom -5582.494032 kJ/mol
# Density = 2.132579 g / cm^3
# Si number density = 21.374439 Si / 1000 Ang^3
#
#
#
# Elastic Constant Matrix: (Units=GPa)
#
#
# Indices 1 2 3 4 5 6 
#
# 1 92.9371 49.1355 14.8100 0.0000 -8.9337 0.0000
# 2 49.1355 137.2577 25.1509 0.0000 17.2853 0.0000
# 3 14.8100 25.1509 79.2265 0.0000 -15.2429 0.0000
# 4 0.0000 0.0000 0.0000 21.3716 0.0000 -12.1669
# 5 -8.9337 17.2853 -15.2429 0.0000 32.1734 0.0000
# 6 0.0000 0.0000 0.0000 -12.1669 0.0000 4.8957
#
#
#
# Elastic Compliance Matrix: (Units=1/GPa)
#
#
# Indices 1 2 3 4 5 6 
#
# 1 0.014807 -0.006452 0.000812 0.000000 0.007963 0.000000
# 2 -0.006452 0.011698 -0.004469 0.000000 -0.010194 0.000000
# 3 0.000812 -0.004469 0.015838 0.000000 0.010130 0.000000
# 4 0.000000 0.000000 0.000000 -0.112787 0.000001 -0.280304
# 5 0.007963 -0.010194 0.010130 0.000001 0.043569 0.000001
# 6 0.000000 0.000000 0.000000 -0.280304 0.000001 -0.492362
#
#
# Mechanical properties :
#
#
# Convention : Reuss Voigt Hill
#
# Bulk Modulus (GPa) = 45.19606 54.17934 49.68770
# Shear Modulus (GPa) = -10.16995 26.37644 8.10325
#
# Velocity S-wave (km/s) = -2.18365 3.51667 1.94919
# Velocity P-wave (km/s) = 3.85137 6.47241 5.32565
#
# Compressibility (1/GPa) = 0.02212582
#
# Stress axis : x y z
#
# Youngs Moduli (GPa) = 67.53406 85.48520 63.14050
#
# Poissons Ratio (x) = 0.55159 -0.05130
# Poissons Ratio (y) = 0.43576 0.28215
# Poissons Ratio (z) = -0.05487 0.38200
#
# Static dielectric constant tensor:
#      x y z
#    x 1.773600 0.000000 -0.017200 
#    y 0.000000 1.815380 0.000000 
#    z -0.017200 0.000000 1.860970 
# 
# From -- ./inp_files/278187.got.cif
#   From: 2010.05.17/outbox.cif.g08.bks.cpg/sg12_140_cif.got.tgz:278187.got - 2010.06.03 13:09:07.
