data_PCOD9215231
_publ_section_title
;
Structure prediction by ZEFSAII (Michael W. Deem and Ramdas Pophale) SiO2 
 PCOD9215231
Probable space group: C 2/M
;
_chemical_formula_sum "Si O2"
_cell_formula_units_Z 42
_cell_length_a 20.027860
_cell_length_b 16.687782
_cell_length_c 5.696031
_cell_angle_alpha 90.000000
_cell_angle_beta 100.514248
_cell_angle_gamma 90.000000
_cell_volume 1871.766204
_symmetry_space_group_name_H-M "C 2/M"
_symmetry_group_IT_number 12
_symmetry_cell_setting 'monoclinic'
loop_
_space_group_symop_operation_xyz
x,y,z
-x,y,-z
-x,-y,-z
x,-y,z
1/2+x,1/2+y,z
1/2-x,1/2+y,-z
1/2-x,1/2-y,-z
1/2+x,1/2-y,z
loop_
_atom_site_type_symbol
_atom_site_label
_atom_site_fract_x
_atom_site_fract_y
_atom_site_fract_z
Si Si1 0.441442 0.859531 0.655001
Si Si2 0.675848 0.908273 0.761433
Si Si3 0.000000 0.500000 0.000000
Si Si4 0.310780 0.643904 0.608665
Si Si5 0.962734 0.829836 0.730032
Si Si6 0.782163 0.306321 0.825187
O O1 0.500000 0.875452 0.500000
O O2 0.370297 0.872064 0.473342
O O3 0.453566 0.928891 0.848946
O O4 0.451995 0.767137 0.736751
O O5 0.755373 0.899598 0.738338
O O6 0.656865 0.000000 0.779193
O O7 0.666110 0.859722 0.995535
O O8 0.389813 0.624938 0.674110
O O9 0.275601 0.639880 0.331718
O O10 0.309208 0.738931 0.667721
O O11 0.000000 0.843534 0.500000
O O12 0.000000 0.851927 0.000000
O O13 0.750000 0.250000 0.000000
#
# Coordination Sequence:
#
# PCOD9215231 Si02
#       6
#     8   8   2   8   8   8
#     4  11  24  40  58  92 134 182 223 264 325 402
#     4  11  24  40  63  96 133 177 225 272 334 399
#     4  12  22  40  56  82 148 180 216 264 314 408
#     4  10  22  41  63  93 126 168 225 284 334 399
#     4  11  25  41  70 100 130 174 228 283 345 401
#     4   9  19  36  64  86 124 166 215 276 329 383
#
# _framework density 22.438699
#
# number of rings (size 3 to 8) (size 9 to 14) (size 15 to 20)
#    0.000    1.524    1.905    3.714   10.667    2.286 
#    0.000    0.000    0.000    1.143    0.000    0.000 
#    0.000    0.000    0.000    0.000    0.000    0.000 
#
# Total GULP energy -116926.870025 kJ/mol
# GULP energy per Si atom -5567.946192 kJ/mol
# Density = 2.238763 g / cm^3
# Si number density = 22.438699 Si / 1000 Ang^3
#
#
#
# Elastic Constant Matrix: (Units=GPa)
#
#
# Indices 1 2 3 4 5 6 
#
# 1 114.0577 -13.0722 24.5754 0.0000 14.8201 0.0000
# 2 -13.0722 20.9619 -2.5619 0.0000 -6.4570 0.0000
# 3 24.5754 -2.5619 143.3706 0.0000 23.8684 0.0000
# 4 0.0000 0.0000 0.0000 -3.4618 0.0000 -4.4007
# 5 14.8201 -6.4570 23.8684 0.0000 24.8926 0.0000
# 6 0.0000 0.0000 0.0000 -4.4007 0.0000 10.0519
#
#
#
# Elastic Compliance Matrix: (Units=1/GPa)
#
#
# Indices 1 2 3 4 5 6 
#
# 1 0.010040 0.004995 -0.001014 0.000000 -0.003710 0.000000
# 2 0.004995 0.054629 -0.002075 0.000000 0.013187 0.000000
# 3 -0.001014 -0.002075 0.008450 0.000000 -0.008036 0.000000
# 4 0.000000 0.000000 0.000000 -0.185584 0.000000 -0.081248
# 5 -0.003710 0.013187 -0.008036 0.000000 0.053507 0.000000
# 6 0.000000 0.000000 0.000000 -0.081248 0.000000 0.063914
#
#
# Mechanical properties :
#
#
# Convention : Reuss Voigt Hill
#
# Bulk Modulus (GPa) = 12.99897 32.91920 22.95908
# Shear Modulus (GPa) = 186.64895 24.25982 105.45438
#
# Velocity S-wave (km/s) = 9.13030 3.29167 6.86285
# Velocity P-wave (km/s) = 10.81459 5.39901 8.54707
#
# Compressibility (1/GPa) = 0.07692920
#
# Stress axis : x y z
#
# Youngs Moduli (GPa) = 99.59689 18.30540 118.34874
#
# Poissons Ratio (x) = -0.09143 0.12003
# Poissons Ratio (y) = -0.49746 0.24561
# Poissons Ratio (z) = 0.10101 0.03799
#
# Static dielectric constant tensor:
#      x y z
#    x 2.014110 0.000000 -0.035360 
#    y 0.000000 1.757990 0.000000 
#    z -0.035360 0.000000 1.876040 
# 
# From -- ./inp_files/20343.got.cif
#   From: 2010.05.17/outbox.cif.g08.bks.cpg/sg12_11_cif.got.tgz:20343.got - 2010.06.03 13:09:07.
