data_PCOD9215057
_publ_section_title
;
Structure prediction by ZEFSAII (Michael W. Deem and Ramdas Pophale) SiO2 
 PCOD9215057
Probable space group: C 2/M
;
_chemical_formula_sum "Si O2"
_cell_formula_units_Z 56
_cell_length_a 8.210184
_cell_length_b 18.751230
_cell_length_c 22.873538
_cell_angle_alpha 90.000000
_cell_angle_beta 117.560416
_cell_angle_gamma 90.000000
_cell_volume 3121.808234
_symmetry_space_group_name_H-M "C 2/M"
_symmetry_group_IT_number 12
_symmetry_cell_setting 'monoclinic'
loop_
_space_group_symop_operation_xyz
x,y,z
-x,y,-z
-x,-y,-z
x,-y,z
1/2+x,1/2+y,z
1/2-x,1/2+y,-z
1/2-x,1/2-y,-z
1/2+x,1/2-y,z
loop_
_atom_site_type_symbol
_atom_site_label
_atom_site_fract_x
_atom_site_fract_y
_atom_site_fract_z
Si Si1 0.296413 0.918588 0.303253
Si Si2 0.492601 0.701241 0.567395
Si Si3 0.294193 0.081368 0.443681
Si Si4 0.077189 0.707241 0.140534
Si Si5 0.692253 0.297216 0.046490
Si Si6 0.407804 0.800674 0.656249
Si Si7 0.519581 0.315525 0.771787
O O1 0.294288 0.915648 0.373470
O O2 0.458009 0.866178 0.309376
O O3 0.104937 0.885246 0.250501
O O4 0.322869 0.000000 0.289512
O O5 0.500000 0.716769 0.500000
O O6 0.347080 0.639085 0.555463
O O7 0.440448 0.770208 0.596608
O O8 0.694602 0.679768 0.623821
O O9 0.500000 0.094995 0.500000
O O10 0.245012 0.000000 0.453230
O O11 0.135820 0.744333 0.089620
O O12 0.262648 0.669542 0.193446
O O13 0.031626 0.769432 0.179453
O O14 0.883927 0.666262 0.098230
O O15 0.500000 0.337154 0.000000
O O16 0.750000 0.250000 0.000000
O O17 0.459212 0.735822 0.708148
#
# Coordination Sequence:
#
# PCOD9215057 Si02
#       7
#     8   8   8   8   8   8   8
#     4  11  23  39  57  77 109 147 182 234 290 334
#     4  12  23  35  57  80 103 133 187 231 283 340
#     4  10  22  41  58  76 107 141 178 232 300 349
#     4   9  17  26  51  78 108 152 179 216 267 310
#     4   8  14  26  43  77 121 146 170 217 270 312
#     4  12  22  37  55  79 109 138 181 232 275 336
#     4  11  18  34  52  77 107 146 185 218 264 333
#
# _framework density 17.938320000000001
#
# number of rings (size 3 to 8) (size 9 to 14) (size 15 to 20)
#    0.000    1.571    4.286    1.286    0.000    2.000 
#    0.000    0.000    0.000    0.000    0.000    0.000 
#    0.000   72.000    0.000    0.000    0.000    0.000 
#
# Total GULP energy -156174.989739 kJ/mol
# GULP energy per Si atom -5577.678205 kJ/mol
# Density = 1.789749 g / cm^3
# Si number density = 17.938320 Si / 1000 Ang^3
#
#
#
# Elastic Constant Matrix: (Units=GPa)
#
#
# Indices 1 2 3 4 5 6 
#
# 1 97.0649 29.2936 26.9734 0.0000 43.7802 0.0000
# 2 29.2936 81.9475 5.0243 0.0000 20.6033 0.0000
# 3 26.9734 5.0243 66.2349 0.0000 23.1646 0.0000
# 4 0.0000 0.0000 0.0000 0.9280 0.0000 -1.4974
# 5 43.7802 20.6033 23.1646 0.0000 61.1833 0.0000
# 6 0.0000 0.0000 0.0000 -1.4974 0.0000 17.3283
#
#
#
# Elastic Compliance Matrix: (Units=1/GPa)
#
#
# Indices 1 2 3 4 5 6 
#
# 1 0.016439 -0.003305 -0.003134 0.000000 -0.009464 0.000000
# 2 -0.003305 0.014020 0.001275 0.000000 -0.002839 0.000000
# 3 -0.003134 0.001275 0.018031 0.000000 -0.005013 0.000000
# 4 0.000000 0.000000 0.000000 1.252230 0.000000 0.108208
# 5 -0.009464 -0.002839 -0.005013 0.000000 0.025970 0.000000
# 6 0.000000 0.000000 0.000000 0.108208 0.000000 0.067060
#
#
# Mechanical properties :
#
#
# Convention : Reuss Voigt Hill
#
# Bulk Modulus (GPa) = 26.20387 40.87000 33.53693
# Shear Modulus (GPa) = 3.52908 28.15164 15.84036
#
# Velocity S-wave (km/s) = 1.40414 3.96581 2.97483
# Velocity P-wave (km/s) = 4.15551 6.61840 5.52592
#
# Compressibility (1/GPa) = 0.03816230
#
# Stress axis : x y z
#
# Youngs Moduli (GPa) = 60.82991 71.32668 55.46074
#
# Poissons Ratio (x) = 0.23573 0.17383
# Poissons Ratio (y) = 0.20104 -0.07073
# Poissons Ratio (z) = 0.19066 -0.09097
#
# Static dielectric constant tensor:
#      x y z
#    x 1.650860 0.000000 0.032750 
#    y 0.000000 1.564240 0.000000 
#    z 0.032750 0.000000 1.673780 
# 
# From -- ./inp_files/300430.got.cif
#   From: 2010.05.17/outbox.cif.g08.bks.cpg/sg12_151_cif.got.tgz:300430.got - 2010.06.03 13:09:07.
