data_PCOD9215670
_publ_section_title
;
Structure prediction by ZEFSAII (Michael W. Deem and Ramdas Pophale) SiO2 
 PCOD9215670
Probable space group: C 2/M
;
_chemical_formula_sum "Si O2"
_cell_formula_units_Z 56
_cell_length_a 20.856218
_cell_length_b 8.689387
_cell_length_c 17.739839
_cell_angle_alpha 90.000000
_cell_angle_beta 105.155881
_cell_angle_gamma 90.000000
_cell_volume 3103.128991
_symmetry_space_group_name_H-M "C 2/M"
_symmetry_group_IT_number 12
_symmetry_cell_setting 'monoclinic'
loop_
_space_group_symop_operation_xyz
x,y,z
-x,y,-z
-x,-y,-z
x,-y,z
1/2+x,1/2+y,z
1/2-x,1/2+y,-z
1/2-x,1/2-y,-z
1/2+x,1/2-y,z
loop_
_atom_site_type_symbol
_atom_site_label
_atom_site_fract_x
_atom_site_fract_y
_atom_site_fract_z
Si Si1 0.575771 0.683622 0.998402
Si Si2 0.059181 0.814991 0.262379
Si Si3 0.201832 0.685875 0.760911
Si Si4 0.153690 0.682837 0.161009
Si Si5 0.299177 0.184965 0.410913
Si Si6 0.346764 0.685042 0.575510
Si Si7 0.080222 0.315679 0.832728
O O1 0.584802 0.500000 0.006124
O O2 0.624848 0.765826 0.071623
O O3 0.500000 0.718604 0.000000
O O4 0.585761 0.739930 0.916511
O O5 0.108444 0.763502 0.210697
O O6 0.093482 0.767137 0.351591
O O7 0.987923 0.741171 0.225911
O O8 0.053625 0.000000 0.258986
O O9 0.210568 0.500000 0.764289
O O10 0.270957 0.762042 0.805629
O O11 0.185374 0.731401 0.669687
O O12 0.142594 0.725304 0.799334
O O13 0.148749 0.500000 0.167957
O O14 0.345551 0.251299 0.490673
O O15 0.223404 0.233350 0.407818
O O16 0.301469 0.000000 0.415687
O O17 0.346603 0.500000 0.572657
O O18 0.078164 0.500000 0.840403
#
# Coordination Sequence:
#
# PCOD9215670 Si02
#       7
#     8   8   8   8   8   8   8
#     4  11  23  40  63  87 117 157 193 235 295 351
#     4  11  21  38  60  85 120 158 194 238 296 351
#     4  10  22  42  61  84 122 161 192 235 298 353
#     4  12  24  37  62  92 117 149 198 248 285 340
#     4   9  17  33  56  82 115 152 191 236 288 343
#     4   9  18  32  55  85 114 148 194 240 285 340
#     4  11  24  40  62  89 118 153 197 245 289 344
#
# _framework density 18.046302000000001
#
# number of rings (size 3 to 8) (size 9 to 14) (size 15 to 20)
#    0.000    1.571    2.857    2.571    0.000    4.000 
#    0.000    0.714    0.000    4.286    0.000    0.000 
#    0.000    0.000    0.000    0.000    0.000    0.000 
#
# Total GULP energy -156429.862381 kJ/mol
# GULP energy per Si atom -5586.780799 kJ/mol
# Density = 1.800523 g / cm^3
# Si number density = 18.046302 Si / 1000 Ang^3
#
#
#
# Elastic Constant Matrix: (Units=GPa)
#
#
# Indices 1 2 3 4 5 6 
#
# 1 85.9811 19.0963 36.2838 0.0000 -4.2745 0.0000
# 2 19.0963 18.1389 11.3993 0.0000 -5.0203 0.0000
# 3 36.2838 11.3993 130.6620 0.0000 -0.7439 0.0000
# 4 0.0000 0.0000 0.0000 33.1643 0.0000 2.7916
# 5 -4.2745 -5.0203 -0.7439 0.0000 29.4060 0.0000
# 6 0.0000 0.0000 0.0000 2.7916 0.0000 23.1014
#
#
#
# Elastic Compliance Matrix: (Units=1/GPa)
#
#
# Indices 1 2 3 4 5 6 
#
# 1 0.016369 -0.015301 -0.003212 0.000000 -0.000314 0.000000
# 2 -0.015301 0.075618 -0.002288 0.000000 0.010628 0.000000
# 3 -0.003212 -0.002288 0.008741 0.000000 -0.000636 0.000000
# 4 0.000000 0.000000 0.000000 0.030463 0.000000 -0.003681
# 5 -0.000314 0.010628 -0.000636 0.000000 0.035759 0.000000
# 6 0.000000 0.000000 0.000000 -0.003681 0.000000 0.043732
#
#
# Mechanical properties :
#
#
# Convention : Reuss Voigt Hill
#
# Bulk Modulus (GPa) = 16.91305 40.92675 28.91990
# Shear Modulus (GPa) = 18.38288 28.33452 23.35870
#
# Velocity S-wave (km/s) = 3.19509 3.96675 3.60165
# Velocity P-wave (km/s) = 4.79624 6.61121 5.77546
#
# Compressibility (1/GPa) = 0.05912594
#
# Stress axis : x y z
#
# Youngs Moduli (GPa) = 61.09198 13.22445 114.39886
#
# Poissons Ratio (x) = 0.20234 0.36749
# Poissons Ratio (y) = 0.93476 0.26170
# Poissons Ratio (z) = 0.19625 0.03025
#
# Static dielectric constant tensor:
#      x y z
#    x 1.589210 0.000000 -0.000900 
#    y 0.000000 1.608190 0.000000 
#    z -0.000900 0.000000 1.610330 
# 
# From -- ./inp_files/275550.got.cif
#   From: 2010.05.17/outbox.cif.g08.bks.cpg/sg12_138_cif.got.tgz:275550.got - 2010.06.03 13:09:07.
