data_PCOD9215680
_publ_section_title
;
Structure prediction by ZEFSAII (Michael W. Deem and Ramdas Pophale) SiO2 
 PCOD9215680
Probable space group: C 2/M
;
_chemical_formula_sum "Si O2"
_cell_formula_units_Z 32
_cell_length_a 9.792950
_cell_length_b 8.304554
_cell_length_c 22.460042
_cell_angle_alpha 90.000000
_cell_angle_beta 132.157497
_cell_angle_gamma 90.000000
_cell_volume 1354.054013
_symmetry_space_group_name_H-M "C 2/M"
_symmetry_group_IT_number 12
_symmetry_cell_setting 'monoclinic'
loop_
_space_group_symop_operation_xyz
x,y,z
-x,y,-z
-x,-y,-z
x,-y,z
1/2+x,1/2+y,z
1/2-x,1/2+y,-z
1/2-x,1/2-y,-z
1/2+x,1/2-y,z
loop_
_atom_site_type_symbol
_atom_site_label
_atom_site_fract_x
_atom_site_fract_y
_atom_site_fract_z
Si Si1 0.389893 0.819225 0.845694
Si Si2 0.304494 0.307725 0.325816
Si Si3 0.064057 0.000000 0.087221
Si Si4 0.192327 0.311656 0.418722
Si Si5 0.654558 0.000000 0.992016
O O1 0.365542 0.785249 0.768779
O O2 0.327654 0.662188 0.863588
O O3 0.301311 0.000000 0.828850
O O4 0.592921 0.852872 0.931186
O O5 0.338083 0.500000 0.339728
O O6 0.287429 0.242062 0.387669
O O7 0.478117 0.223758 0.347145
O O8 0.870095 0.000000 0.067960
O O9 0.000000 0.000000 0.000000
O O10 0.229633 0.500000 0.429991
O O11 0.250000 0.250000 0.500000
O O12 0.500000 0.000000 0.000000
#
# Coordination Sequence:
#
# PCOD9215680 Si02
#       5
#     8   8   4   8   4
#     4   9  23  43  62  94 131 169 208 273 323 376
#     4  10  23  44  63  93 131 168 211 267 321 381
#     4  12  24  38  68  96 121 170 223 262 318 390
#     4  11  24  41  67  96 129 168 213 261 319 386
#     4  10  22  42  62  88 127 166 207 260 322 374
#
# _framework density 23.632736000000001
#
# number of rings (size 3 to 8) (size 9 to 14) (size 15 to 20)
#    0.750    1.000    0.000    3.000    1.750    9.000 
#    0.000    0.000    0.000    0.000    0.000    0.000 
#    0.000    0.000    0.000    0.000    0.000    0.000 
#
# Total GULP energy -89175.713829 kJ/mol
# GULP energy per Si atom -5573.482114 kJ/mol
# Density = 2.357895 g / cm^3
# Si number density = 23.632736 Si / 1000 Ang^3
#
#
#
# Elastic Constant Matrix: (Units=GPa)
#
#
# Indices 1 2 3 4 5 6 
#
# 1 55.2861 -8.8344 -0.9310 0.0000 -3.2093 0.0000
# 2 -8.8344 113.5375 30.0437 0.0000 -20.3625 0.0000
# 3 -0.9310 30.0437 111.3217 0.0000 -17.2407 0.0000
# 4 0.0000 0.0000 0.0000 39.8376 0.0000 -0.5707
# 5 -3.2093 -20.3625 -17.2407 0.0000 34.9684 0.0000
# 6 0.0000 0.0000 0.0000 -0.5707 0.0000 8.8824
#
#
#
# Elastic Compliance Matrix: (Units=1/GPa)
#
#
# Indices 1 2 3 4 5 6 
#
# 1 0.018566 0.001939 0.000077 0.000000 0.002871 0.000000
# 2 0.001939 0.010429 -0.001982 0.000000 0.005274 0.000000
# 3 0.000077 -0.001982 0.010113 0.000000 0.003839 0.000000
# 4 0.000000 0.000000 0.000000 0.025125 0.000000 0.001614
# 5 0.002871 0.005274 0.003839 0.000000 0.033825 0.000000
# 6 0.000000 0.000000 0.000000 0.001614 0.000000 0.112686
#
#
# Mechanical properties :
#
#
# Convention : Reuss Voigt Hill
#
# Bulk Modulus (GPa) = 25.52605 35.63355 30.57980
# Shear Modulus (GPa) = 22.34803 34.06215 28.20509
#
# Velocity S-wave (km/s) = 3.07846 3.80058 3.45842
# Velocity P-wave (km/s) = 4.84360 5.86259 5.37729
#
# Compressibility (1/GPa) = 0.03917567
#
# Stress axis : x y z
#
# Youngs Moduli (GPa) = 53.86322 95.88892 98.88276
#
# Poissons Ratio (x) = -0.18595 -0.00757
# Poissons Ratio (y) = -0.10445 0.19594
# Poissons Ratio (z) = -0.00412 0.19001
#
# Static dielectric constant tensor:
#      x y z
#    x 1.909700 0.000000 -0.016290 
#    y 0.000000 1.974830 0.000000 
#    z -0.016290 0.000000 1.906760 
# 
# From -- ./inp_files/260668.got.cif
#   From: 2010.05.17/outbox.cif.g08.bks.cpg/sg12_131_cif.got.tgz:260668.got - 2010.06.03 13:09:07.
