data_PCOD9215103
_publ_section_title
;
Structure prediction by ZEFSAII (Michael W. Deem and Ramdas Pophale) SiO2 
 PCOD9215103
Probable space group: C 2/M
;
_chemical_formula_sum "Si O2"
_cell_formula_units_Z 56
_cell_length_a 8.849046
_cell_length_b 22.483455
_cell_length_c 14.625059
_cell_angle_alpha 90.000000
_cell_angle_beta 69.567786
_cell_angle_gamma 90.000000
_cell_volume 2726.694698
_symmetry_space_group_name_H-M "C 2/M"
_symmetry_group_IT_number 12
_symmetry_cell_setting 'monoclinic'
loop_
_space_group_symop_operation_xyz
x,y,z
-x,y,-z
-x,-y,-z
x,-y,z
1/2+x,1/2+y,z
1/2-x,1/2+y,-z
1/2-x,1/2-y,-z
1/2+x,1/2-y,z
loop_
_atom_site_type_symbol
_atom_site_label
_atom_site_fract_x
_atom_site_fract_y
_atom_site_fract_z
Si Si1 0.455586 0.110696 0.406614
Si Si2 0.141294 0.334711 0.203959
Si Si3 0.988510 0.117387 0.284348
Si Si4 0.232554 0.500000 0.615837
Si Si5 0.658425 0.675455 0.408032
Si Si6 0.601732 0.430164 0.886312
Si Si7 0.863594 0.243865 0.248027
Si Si8 0.080892 0.000000 0.616279
O O1 0.500000 0.093718 0.500000
O O2 0.590556 0.142797 0.316581
O O3 0.301503 0.154077 0.443095
O O4 0.387362 0.055612 0.362843
O O5 0.233667 0.391277 0.142501
O O6 0.276775 0.283407 0.178617
O O7 0.982624 0.299256 0.204173
O O8 0.120828 0.126984 0.336295
O O9 0.004965 0.094561 0.176563
O O10 0.938474 0.186152 0.281021
O O11 0.877518 0.063305 0.346473
O O12 0.383313 0.500000 0.654110
O O13 0.332364 0.500000 0.499226
O O14 0.500000 0.683992 0.500000
O O15 0.723869 0.732524 0.343228
O O16 0.636211 0.500000 0.863418
O O17 0.500000 0.424162 0.000000
#
# Coordination Sequence:
#
# PCOD9215103 Si02
#       8
#     8   8   8   4   8   8   8   4
#     4  11  25  36  56  90 130 172 215 262 312 368
#     4  10  23  41  65  89 132 167 210 266 319 378
#     4  11  21  40  64  88 123 168 213 261 321 380
#     4  11  23  38  54  87 132 166 228 255 312 385
#     4  11  23  39  61  90 130 179 222 252 307 380
#     4  10  23  43  71 101 126 160 212 269 329 383
#     4  10  22  41  61  89 129 170 215 260 310 377
#     4  11  22  38  63  87 119 180 215 267 311 385
#
# _framework density 20.537686000000001
#
# number of rings (size 3 to 8) (size 9 to 14) (size 15 to 20)
#    0.000    1.429    3.571    1.071    9.000    1.143 
#    0.000    2.857    0.000    2.571    0.000    9.000 
#    0.000    0.000    0.000    0.000    0.000    0.000 
#
# Total GULP energy -155931.334315 kJ/mol
# GULP energy per Si atom -5568.976226 kJ/mol
# Density = 2.049094 g / cm^3
# Si number density = 20.537686 Si / 1000 Ang^3
#
#
#
# Elastic Constant Matrix: (Units=GPa)
#
#
# Indices 1 2 3 4 5 6 
#
# 1 66.9861 34.8373 31.7551 0.0000 -10.1640 0.0000
# 2 34.8373 138.4553 45.1300 0.0000 -17.1287 0.0000
# 3 31.7551 45.1300 71.3175 0.0000 -6.4270 0.0000
# 4 0.0000 0.0000 0.0000 14.7940 0.0000 -9.3728
# 5 -10.1640 -17.1287 -6.4270 0.0000 21.7678 0.0000
# 6 0.0000 0.0000 0.0000 -9.3728 0.0000 18.5557
#
#
#
# Elastic Compliance Matrix: (Units=1/GPa)
#
#
# Indices 1 2 3 4 5 6 
#
# 1 0.020284 -0.002040 -0.007224 0.000000 0.005733 0.000000
# 2 -0.002040 0.010024 -0.004941 0.000000 0.005476 0.000000
# 3 -0.007224 -0.004941 0.020250 0.000000 -0.001283 0.000000
# 4 0.000000 0.000000 0.000000 0.099408 0.000000 0.050213
# 5 0.005733 0.005476 -0.001283 0.000000 0.052547 0.000000
# 6 0.000000 0.000000 0.000000 0.050213 0.000000 0.079255
#
#
# Mechanical properties :
#
#
# Convention : Reuss Voigt Hill
#
# Bulk Modulus (GPa) = 45.15319 55.57816 50.36568
# Shear Modulus (GPa) = 15.74503 22.02591 18.88547
#
# Velocity S-wave (km/s) = 2.77183 3.27840 3.03570
# Velocity P-wave (km/s) = 5.68131 6.43823 6.07158
#
# Compressibility (1/GPa) = 0.02214683
#
# Stress axis : x y z
#
# Youngs Moduli (GPa) = 49.30028 99.76122 49.38290
#
# Poissons Ratio (x) = 0.20348 0.35676
# Poissons Ratio (y) = 0.10056 0.24402
# Poissons Ratio (z) = 0.35616 0.49297
#
# Static dielectric constant tensor:
#      x y z
#    x 1.842580 0.000000 0.012010 
#    y 0.000000 1.803030 0.000000 
#    z 0.012010 0.000000 1.692650 
# 
# From -- ./inp_files/198825.got.cif
#   From: 2010.05.17/outbox.cif.g08.bks.cpg/sg12_100_cif.got.tgz:198825.got - 2010.06.03 13:09:07.
