data_PCOD9215788
_publ_section_title
;
Structure prediction by ZEFSAII (Michael W. Deem and Ramdas Pophale) SiO2 
 PCOD9215788
Probable space group: C 2/M
;
_chemical_formula_sum "Si O2"
_cell_formula_units_Z 40
_cell_length_a 8.807345
_cell_length_b 23.284398
_cell_length_c 21.215646
_cell_angle_alpha 90.000000
_cell_angle_beta 27.123658
_cell_angle_gamma 90.000000
_cell_volume 1983.570914
_symmetry_space_group_name_H-M "C 2/M"
_symmetry_group_IT_number 12
_symmetry_cell_setting 'monoclinic'
loop_
_space_group_symop_operation_xyz
x,y,z
-x,y,-z
-x,-y,-z
x,-y,z
1/2+x,1/2+y,z
1/2-x,1/2+y,-z
1/2-x,1/2-y,-z
1/2+x,1/2-y,z
loop_
_atom_site_type_symbol
_atom_site_label
_atom_site_fract_x
_atom_site_fract_y
_atom_site_fract_z
Si Si1 0.872028 0.565413 0.388523
Si Si2 0.479873 0.826688 0.431392
Si Si3 0.260941 0.209336 0.287735
Si Si4 0.083396 0.309225 0.041560
Si Si5 0.678784 0.623996 0.869832
O O1 0.500000 0.577810 0.500000
O O2 0.121793 0.500000 0.590881
O O3 0.007719 0.610892 0.389627
O O4 0.108221 0.575285 0.241334
O O5 0.500000 0.826034 0.500000
O O6 0.726814 0.778141 0.310861
O O7 0.098642 0.810202 0.554714
O O8 0.303314 0.187230 0.199778
O O9 0.568382 0.178097 0.209832
O O10 0.250000 0.250000 0.000000
O O11 0.366819 0.356698 0.943817
O O12 0.000000 0.305614 0.000000
O O13 0.500000 0.606857 0.000000
#
# Coordination Sequence:
#
# PCOD9215788 Si02
#       5
#     8   8   8   8   8
#     4  11  24  44  67  91 125 170 222 264 307 373
#     4  11  25  37  64  91 130 166 206 264 316 375
#     4  10  23  39  58  98 129 163 204 255 326 387
#     4  11  23  36  58  88 130 167 202 249 318 381
#     4  10  22  42  65  93 129 164 209 261 320 383
#
# _framework density 20.165651
#
# number of rings (size 3 to 8) (size 9 to 14) (size 15 to 20)
#    0.000    1.400    2.000    3.000   14.000    0.800 
#    0.000    0.000    0.000    0.600    0.000    0.000 
#    0.000    0.000    0.000    0.000    0.000    0.000 
#
# Total GULP energy -111621.683432 kJ/mol
# GULP energy per Si atom -5581.084172 kJ/mol
# Density = 2.011975 g / cm^3
# Si number density = 20.165651 Si / 1000 Ang^3
#
#
#
# Elastic Constant Matrix: (Units=GPa)
#
#
# Indices 1 2 3 4 5 6 
#
# 1 106.7719 22.3873 25.3909 -0.0129 23.9420 0.0346
# 2 22.3873 85.4019 17.6861 -0.0003 12.2818 0.0040
# 3 25.3909 17.6861 103.2866 -0.0055 -2.3003 0.0039
# 4 -0.0129 -0.0003 -0.0055 12.9411 0.0056 9.8079
# 5 23.9420 12.2818 -2.3003 0.0056 26.3874 -0.0076
# 6 0.0346 0.0040 0.0039 9.8079 -0.0076 15.9495
#
#
#
# Elastic Compliance Matrix: (Units=1/GPa)
#
#
# Indices 1 2 3 4 5 6 
#
# 1 0.012951 -0.001060 -0.003259 0.000077 -0.011542 -0.000080
# 2 -0.001060 0.013198 -0.002119 0.000006 -0.005365 -0.000006
# 3 -0.003259 -0.002119 0.010955 -0.000012 0.004898 0.000014
# 4 0.000077 0.000006 -0.000012 0.144720 -0.000129 -0.088993
# 5 -0.011542 -0.005365 0.004898 -0.000129 0.051293 0.000129
# 6 -0.000080 -0.000006 0.000014 -0.088993 0.000129 0.117423
#
#
# Mechanical properties :
#
#
# Convention : Reuss Voigt Hill
#
# Bulk Modulus (GPa) = 41.27580 47.37656 44.32618
# Shear Modulus (GPa) = 13.45923 26.38867 19.92395
#
# Velocity S-wave (km/s) = 2.58628 3.62138 3.14668
# Velocity P-wave (km/s) = 5.42506 6.40551 5.93556
#
# Compressibility (1/GPa) = 0.02422727
#
# Stress axis : x y z
#
# Youngs Moduli (GPa) = 77.21283 75.77098 91.28322
#
# Poissons Ratio (x) = 0.08034 0.29752
# Poissons Ratio (y) = 0.08186 0.19341
# Poissons Ratio (z) = 0.25166 0.16054
#
# Static dielectric constant tensor:
#      x y z
#    x 1.984550 0.000010 0.464670 
#    y 0.000010 1.719490 0.000030 
#    z 0.464670 0.000030 2.686880 
# 
# From -- ./inp_files/259992.got.cif
#   From: 2010.05.17/outbox.cif.g08.bks.cpg/sg12_130_cif.got.tgz:259992.got - 2010.06.03 13:09:07.
