data_PCOD9215977
_publ_section_title
;
Structure prediction by ZEFSAII (Michael W. Deem and Ramdas Pophale) SiO2 
 PCOD9215977
Probable space group: C 2/M
;
_chemical_formula_sum "Si O2"
_cell_formula_units_Z 40
_cell_length_a 9.097999
_cell_length_b 13.888849
_cell_length_c 14.666855
_cell_angle_alpha 90.000000
_cell_angle_beta 67.443338
_cell_angle_gamma 90.000000
_cell_volume 1711.537172
_symmetry_space_group_name_H-M "C 2/M"
_symmetry_group_IT_number 12
_symmetry_cell_setting 'monoclinic'
loop_
_space_group_symop_operation_xyz
x,y,z
-x,y,-z
-x,-y,-z
x,-y,z
1/2+x,1/2+y,z
1/2-x,1/2+y,-z
1/2-x,1/2-y,-z
1/2+x,1/2-y,z
loop_
_atom_site_type_symbol
_atom_site_label
_atom_site_fract_x
_atom_site_fract_y
_atom_site_fract_z
Si Si1 0.318293 0.328047 0.558635
Si Si2 0.488995 0.104202 0.600617
Si Si3 0.666584 0.215622 0.928346
Si Si4 0.813991 0.113748 0.217302
Si Si5 0.885718 0.113621 0.735036
O O1 0.500000 0.363007 0.500000
O O2 0.250000 0.250000 0.500000
O O3 0.169133 0.399762 0.588928
O O4 0.333232 0.317809 0.664426
O O5 0.500000 0.157835 0.500000
O O6 0.368521 0.131970 0.708918
O O7 0.417939 0.000000 0.593401
O O8 0.640770 0.310315 0.871197
O O9 0.774439 0.142051 0.846041
O O10 0.500000 0.172170 0.000000
O O11 0.750000 0.250000 0.000000
O O12 0.931919 0.130104 0.275666
O O13 0.831650 0.000000 0.187294
O O14 0.871073 0.000000 0.715971
#
# Coordination Sequence:
#
# PCOD9215977 Si02
#       5
#     8   8   8   8   8
#     4  12  28  43  69 106 148 194 242 297 368 434
#     4  10  22  42  69 101 140 187 237 287 355 436
#     4  12  27  47  75 110 146 188 251 311 378 442
#     4  10  24  48  78 109 148 194 244 306 373 444
#     4  11  27  49  75 108 149 198 252 306 368 440
#
# _framework density 23.370804
#
# number of rings (size 3 to 8) (size 9 to 14) (size 15 to 20)
#    0.000    1.000    2.000    2.400   11.200    4.800 
#    0.000    0.000    0.000    0.000    0.000    0.000 
#    0.000    0.000    0.000    0.000    0.000    0.000 
#
# Total GULP energy -111420.020157 kJ/mol
# GULP energy per Si atom -5571.001008 kJ/mol
# Density = 2.331761 g / cm^3
# Si number density = 23.370804 Si / 1000 Ang^3
#
#
#
# Elastic Constant Matrix: (Units=GPa)
#
#
# Indices 1 2 3 4 5 6 
#
# 1 160.6823 8.7272 34.7206 0.0000 -10.4492 0.0000
# 2 8.7272 93.8058 5.3979 0.0000 12.8623 0.0000
# 3 34.7206 5.3979 111.4338 0.0000 -5.7539 0.0000
# 4 0.0000 0.0000 0.0000 11.0799 0.0000 -3.7254
# 5 -10.4492 12.8623 -5.7539 0.0000 61.3327 0.0000
# 6 0.0000 0.0000 0.0000 -3.7254 0.0000 15.1104
#
#
#
# Elastic Compliance Matrix: (Units=1/GPa)
#
#
# Indices 1 2 3 4 5 6 
#
# 1 0.006768 -0.000665 -0.002020 0.000000 0.001103 0.000000
# 2 -0.000665 0.011089 -0.000458 0.000000 -0.002482 0.000000
# 3 -0.002020 -0.000458 0.009659 0.000000 0.000658 0.000000
# 4 0.000000 0.000000 0.000000 0.098412 0.000000 0.024263
# 5 0.001103 -0.002482 0.000658 0.000000 0.017075 0.000000
# 6 0.000000 0.000000 0.000000 0.024263 0.000000 0.072161
#
#
# Mechanical properties :
#
#
# Convention : Reuss Voigt Hill
#
# Bulk Modulus (GPa) = 47.10076 51.51260 49.30668
# Shear Modulus (GPa) = 21.87939 38.64301 30.26120
#
# Velocity S-wave (km/s) = 3.06303 4.07070 3.60228
# Velocity P-wave (km/s) = 5.71900 6.64706 6.20042
#
# Compressibility (1/GPa) = 0.02123108
#
# Stress axis : x y z
#
# Youngs Moduli (GPa) = 147.76143 90.18107 103.52648
#
# Poissons Ratio (x) = 0.05994 0.20907
# Poissons Ratio (y) = 0.09821 0.04744
# Poissons Ratio (z) = 0.29841 0.04132
#
# Static dielectric constant tensor:
#      x y z
#    x 1.544500 0.000000 0.005010 
#    y 0.000000 1.995290 0.000000 
#    z 0.005010 0.000000 1.927820 
# 
# From -- ./inp_files/194443.got.cif
#   From: 2010.05.17/outbox.cif.g08.bks.cpg/sg12_98_cif.got.tgz:194443.got - 2010.06.03 13:09:07.
