data_PCOD9215979
_publ_section_title
;
Structure prediction by ZEFSAII (Michael W. Deem and Ramdas Pophale) SiO2 
 PCOD9215979
Probable space group: C 2/M
;
_chemical_formula_sum "Si O2"
_cell_formula_units_Z 64
_cell_length_a 14.774835
_cell_length_b 16.015274
_cell_length_c 13.977557
_cell_angle_alpha 90.000000
_cell_angle_beta 125.861556
_cell_angle_gamma 90.000000
_cell_volume 2680.442030
_symmetry_space_group_name_H-M "C 2/M"
_symmetry_group_IT_number 12
_symmetry_cell_setting 'monoclinic'
loop_
_space_group_symop_operation_xyz
x,y,z
-x,y,-z
-x,-y,-z
x,-y,z
1/2+x,1/2+y,z
1/2-x,1/2+y,-z
1/2-x,1/2-y,-z
1/2+x,1/2-y,z
loop_
_atom_site_type_symbol
_atom_site_label
_atom_site_fract_x
_atom_site_fract_y
_atom_site_fract_z
Si Si1 0.573933 0.600138 0.759364
Si Si2 0.159534 0.095389 0.333236
Si Si3 0.376678 0.361015 0.411402
Si Si4 0.272479 0.602758 0.966572
Si Si5 0.885812 0.189867 0.869210
Si Si6 0.400849 0.824579 0.504674
Si Si7 0.054011 0.407264 0.939063
Si Si8 0.134043 0.344903 0.296667
O O1 0.576287 0.500000 0.749484
O O2 0.445547 0.629548 0.672028
O O3 0.641522 0.638485 0.713930
O O4 0.629523 0.617162 0.895552
O O5 0.113986 0.108298 0.198144
O O6 0.280057 0.135190 0.413811
O O7 0.171217 0.000000 0.366280
O O8 0.500000 0.402789 0.500000
O O9 0.389483 0.268547 0.458941
O O10 0.256995 0.386430 0.380319
O O11 0.267324 0.500000 0.942881
O O12 0.292348 0.663500 0.889017
O O13 0.160150 0.630159 0.952425
O O14 0.865447 0.265451 0.778751
O O15 0.000000 0.197069 0.000000
O O16 0.500000 0.863101 0.500000
O O17 0.412057 0.823505 0.626431
O O18 0.091933 0.500000 0.991699
O O19 0.953869 0.407638 0.802902
O O20 0.000000 0.368568 0.000000
#
# Coordination Sequence:
#
# PCOD9215979 Si02
#       8
#     8   8   8   8   8   8   8   8
#     4  10  22  42  70 102 137 181 230 283 340 413
#     4  11  24  45  71  99 138 180 230 287 345 405
#     4  11  24  41  68  94 134 179 226 283 344 402
#     4  10  22  42  69 102 140 183 230 279 344 412
#     4  12  25  41  69 107 144 180 224 279 351 420
#     4  11  27  46  70  98 135 185 235 288 350 405
#     4  10  23  46  72 101 141 185 230 283 341 409
#     4  12  26  45  69 101 143 182 230 284 352 411
#
# _framework density 23.876659
#
# number of rings (size 3 to 8) (size 9 to 14) (size 15 to 20)
#    0.000    1.125    2.500    2.625    5.250    3.000 
#    0.000    1.875    0.000    0.000    0.000    0.000 
#    0.000    0.000    0.000    0.000    0.000    0.000 
#
# Total GULP energy -178576.101557 kJ/mol
# GULP energy per Si atom -5580.503174 kJ/mol
# Density = 2.382232 g / cm^3
# Si number density = 23.876659 Si / 1000 Ang^3
#
#
#
# Elastic Constant Matrix: (Units=GPa)
#
#
# Indices 1 2 3 4 5 6 
#
# 1 217.0934 31.5319 49.2320 0.0000 -4.8781 0.0000
# 2 31.5319 55.8491 21.8273 0.0000 -6.2582 0.0000
# 3 49.2320 21.8273 88.2082 0.0000 1.3006 0.0000
# 4 0.0000 0.0000 0.0000 38.4802 0.0000 -14.3579
# 5 -4.8781 -6.2582 1.3006 0.0000 58.1965 0.0000
# 6 0.0000 0.0000 0.0000 -14.3579 0.0000 40.8886
#
#
#
# Elastic Compliance Matrix: (Units=1/GPa)
#
#
# Indices 1 2 3 4 5 6 
#
# 1 0.005494 -0.002069 -0.002559 0.000000 0.000295 0.000000
# 2 -0.002069 0.020898 -0.004049 0.000000 0.002164 0.000000
# 3 -0.002559 -0.004049 0.013781 0.000000 -0.000958 0.000000
# 4 0.000000 0.000000 0.000000 0.029906 0.000000 0.010501
# 5 0.000295 0.002164 -0.000958 0.000000 0.017462 0.000000
# 6 0.000000 0.000000 0.000000 0.010501 0.000000 0.028144
#
#
# Mechanical properties :
#
#
# Convention : Reuss Voigt Hill
#
# Bulk Modulus (GPa) = 43.81958 62.92588 53.37273
# Shear Modulus (GPa) = 35.55093 44.75036 40.15065
#
# Velocity S-wave (km/s) = 3.86287 4.33394 4.10516
# Velocity P-wave (km/s) = 6.18773 7.17327 6.69865
#
# Compressibility (1/GPa) = 0.02282085
#
# Stress axis : x y z
#
# Youngs Moduli (GPa) = 182.02831 47.85115 72.56441
#
# Poissons Ratio (x) = 0.09898 0.18567
# Poissons Ratio (y) = 0.37654 0.29379
# Poissons Ratio (z) = 0.46575 0.19373
#
# Static dielectric constant tensor:
#      x y z
#    x 1.995590 0.000000 -0.015370 
#    y 0.000000 1.912080 0.000000 
#    z -0.015370 0.000000 1.926300 
# 
# From -- ./inp_files/216845.got.cif
#   From: 2010.05.17/outbox.cif.g08.bks.cpg/sg12_109_cif.got.tgz:216845.got - 2010.06.03 13:09:07.
