data_PCOD9215893
_publ_section_title
;
Structure prediction by ZEFSAII (Michael W. Deem and Ramdas Pophale) SiO2 
 PCOD9215893
Probable space group: C 2/M
;
_chemical_formula_sum "Si O2"
_cell_formula_units_Z 52
_cell_length_a 17.732472
_cell_length_b 18.430959
_cell_length_c 7.265856
_cell_angle_alpha 90.000000
_cell_angle_beta 72.772303
_cell_angle_gamma 90.000000
_cell_volume 2268.134999
_symmetry_space_group_name_H-M "C 2/M"
_symmetry_group_IT_number 12
_symmetry_cell_setting 'monoclinic'
loop_
_space_group_symop_operation_xyz
x,y,z
-x,y,-z
-x,-y,-z
x,-y,z
1/2+x,1/2+y,z
1/2-x,1/2+y,-z
1/2-x,1/2-y,-z
1/2+x,1/2-y,z
loop_
_atom_site_type_symbol
_atom_site_label
_atom_site_fract_x
_atom_site_fract_y
_atom_site_fract_z
Si Si1 0.828768 0.584259 0.563139
Si Si2 0.688804 0.697896 0.731967
Si Si3 0.889521 0.132864 0.558251
Si Si4 0.713859 0.865530 0.780564
Si Si5 0.419540 0.126989 0.829047
Si Si6 0.500000 0.500000 0.500000
Si Si7 0.000000 0.500000 0.000000
Si Si8 0.940119 0.792174 0.885938
O O1 0.814276 0.500000 0.618667
O O2 0.755704 0.637275 0.664168
O O3 0.836808 0.592755 0.338072
O O4 0.901347 0.613462 0.628892
O O5 0.629799 0.683495 0.603174
O O6 0.717869 0.780917 0.715732
O O7 0.643885 0.692510 0.957289
O O8 0.803847 0.108465 0.702061
O O9 0.934699 0.172509 0.691164
O O10 0.939085 0.063039 0.469907
O O11 0.666131 0.873874 0.003210
O O12 0.452825 0.206612 0.846492
O O13 0.470159 0.063542 0.877959
O O14 0.000000 0.818980 0.000000
#
# Coordination Sequence:
#
# PCOD9215893 Si02
#       8
#     8   8   8   8   8   2   2   8
#     4  11  22  37  63  96 125 158 205 265 325 378
#     4  10  22  42  67  96 118 162 225 278 314 368
#     4  11  23  43  65  93 134 167 217 264 318 382
#     4  10  23  42  71  92 118 165 223 274 319 369
#     4  11  23  43  66  93 130 164 210 271 325 382
#     4  12  28  42  60  96 142 188 194 260 342 394
#     4  12  24  42  60  92 138 164 190 264 336 390
#     4  11  22  41  66  92 124 176 220 254 317 392
#
# _framework density 22.926324000000001
#
# number of rings (size 3 to 8) (size 9 to 14) (size 15 to 20)
#    0.000    1.231    1.538    5.538    5.385    2.462 
#    4.154    2.692    0.000    0.000    0.000    0.000 
#    0.000    0.000    0.000    0.000    0.000    0.000 
#
# Total GULP energy -144922.557139 kJ/mol
# GULP energy per Si atom -5573.944505 kJ/mol
# Density = 2.287414 g / cm^3
# Si number density = 22.926324 Si / 1000 Ang^3
#
#
#
# Elastic Constant Matrix: (Units=GPa)
#
#
# Indices 1 2 3 4 5 6 
#
# 1 76.6497 15.9174 16.5084 0.0000 26.4283 0.0000
# 2 15.9174 98.1343 21.2387 0.0000 4.8909 0.0000
# 3 16.5084 21.2387 80.1449 0.0000 26.5789 0.0000
# 4 0.0000 0.0000 0.0000 -0.7869 0.0000 16.2841
# 5 26.4283 4.8909 26.5789 0.0000 44.9025 0.0000
# 6 0.0000 0.0000 0.0000 16.2841 0.0000 33.8181
#
#
#
# Elastic Compliance Matrix: (Units=1/GPa)
#
#
# Indices 1 2 3 4 5 6 
#
# 1 0.016860 -0.002335 0.000439 0.000000 -0.009929 0.000000
# 2 -0.002335 0.011148 -0.003144 0.000000 0.002021 0.000000
# 3 0.000439 -0.003144 0.016414 0.000000 -0.009632 0.000000
# 4 0.000000 0.000000 0.000000 -0.115901 0.000000 0.055809
# 5 -0.009929 0.002021 -0.009632 0.000000 0.033595 0.000000
# 6 0.000000 0.000000 0.000000 0.055809 0.000000 0.002697
#
#
# Mechanical properties :
#
#
# Convention : Reuss Voigt Hill
#
# Bulk Modulus (GPa) = 29.11781 40.25089 34.68435
# Shear Modulus (GPa) = -366.06630 29.00436 -168.53097
#
# Velocity S-wave (km/s) = -12.64980 3.56070 -8.58309
# Velocity P-wave (km/s) = 14.16433 5.87363 9.11397
#
# Compressibility (1/GPa) = 0.03434325
#
# Stress axis : x y z
#
# Youngs Moduli (GPa) = 59.31166 89.69844 60.92224
#
# Poissons Ratio (x) = 0.20943 -0.02672
# Poissons Ratio (y) = 0.13848 0.19151
# Poissons Ratio (z) = -0.02601 0.28197
#
# Static dielectric constant tensor:
#      x y z
#    x 1.932240 0.000000 -0.062030 
#    y 0.000000 1.742710 0.000000 
#    z -0.062030 0.000000 1.897410 
# 
# From -- ./inp_files/75255.got.cif
#   From: 2010.05.17/outbox.cif.g08.bks.cpg/sg12_38_cif.got.tgz:75255.got - 2010.06.03 13:09:07.
