data_PCOD9215135
_publ_section_title
;
Structure prediction by ZEFSAII (Michael W. Deem and Ramdas Pophale) SiO2 
 PCOD9215135
Probable space group: C 2/M
;
_chemical_formula_sum "Si O2"
_cell_formula_units_Z 48
_cell_length_a 9.475677
_cell_length_b 18.251816
_cell_length_c 29.749813
_cell_angle_alpha 90.000000
_cell_angle_beta 30.312794
_cell_angle_gamma 90.000000
_cell_volume 2596.877321
_symmetry_space_group_name_H-M "C 2/M"
_symmetry_group_IT_number 12
_symmetry_cell_setting 'monoclinic'
loop_
_space_group_symop_operation_xyz
x,y,z
-x,y,-z
-x,-y,-z
x,-y,z
1/2+x,1/2+y,z
1/2-x,1/2+y,-z
1/2-x,1/2-y,-z
1/2+x,1/2-y,z
loop_
_atom_site_type_symbol
_atom_site_label
_atom_site_fract_x
_atom_site_fract_y
_atom_site_fract_z
Si Si1 0.695366 0.219553 0.063991
Si Si2 0.642116 0.083293 0.812959
Si Si3 0.253452 0.163295 0.303498
Si Si4 0.722481 0.199685 0.247516
Si Si5 0.174102 0.327709 0.498214
Si Si6 0.227214 0.585256 0.324155
O O1 0.526215 0.143574 0.112673
O O2 0.508346 0.276876 0.144013
O O3 0.750000 0.250000 0.000000
O O4 0.000000 0.207230 0.000000
O O5 0.619275 0.106093 0.766907
O O6 0.967663 0.089761 0.736800
O O7 0.551335 0.000000 0.845494
O O8 0.479904 0.189913 0.277423
O O9 0.164104 0.232906 0.297425
O O10 0.971488 0.135601 0.404417
O O11 0.741899 0.128204 0.273055
O O12 0.250000 0.250000 0.500000
O O13 0.000000 0.318019 0.500000
O O14 0.992417 0.374772 0.582890
O O15 0.156828 0.500000 0.337583
#
# Coordination Sequence:
#
# PCOD9215135 Si02
#       6
#     8   8   8   8   8   8
#     4  11  22  39  64  92 117 153 203 258 308 374
#     4  10  22  41  62  88 123 161 201 252 312 367
#     4  11  21  37  63  89 121 163 206 252 296 361
#     4  11  22  40  62  89 123 159 205 253 313 363
#     4  12  23  37  62  93 121 161 212 255 295 349
#     4  11  24  41  60  87 127 169 206 250 304 363
#
# _framework density 18.483739
#
# number of rings (size 3 to 8) (size 9 to 14) (size 15 to 20)
#    0.000    1.000    3.333    6.000    0.000    2.000 
#    0.000    1.667    0.000    3.000    0.000    0.000 
#    0.000    0.000    0.000    0.000    0.000    0.000 
#
# Total GULP energy -134114.362283 kJ/mol
# GULP energy per Si atom -5588.098428 kJ/mol
# Density = 1.844167 g / cm^3
# Si number density = 18.483739 Si / 1000 Ang^3
#
#
#
# Elastic Constant Matrix: (Units=GPa)
#
#
# Indices 1 2 3 4 5 6 
#
# 1 80.4409 53.3408 30.9052 -0.0056 9.5732 0.0292
# 2 53.3408 152.9630 73.2775 -0.0237 18.1208 -0.0082
# 3 30.9052 73.2775 137.3547 -0.0395 13.2100 -0.0526
# 4 -0.0056 -0.0237 -0.0395 24.4126 -0.0235 -6.1881
# 5 9.5732 18.1208 13.2100 -0.0235 32.9952 -0.0137
# 6 0.0292 -0.0082 -0.0526 -6.1881 -0.0137 14.9270
#
#
#
# Elastic Compliance Matrix: (Units=1/GPa)
#
#
# Indices 1 2 3 4 5 6 
#
# 1 0.016323 -0.005127 -0.000783 -0.000016 -0.001607 -0.000045
# 2 -0.005127 0.010701 -0.004299 -0.000001 -0.002668 -0.000002
# 3 -0.000783 -0.004299 0.009881 0.000021 -0.001368 0.000041
# 4 -0.000016 -0.000001 0.000021 0.045772 0.000037 0.018975
# 5 -0.001607 -0.002668 -0.001368 0.000037 0.032787 0.000042
# 6 -0.000045 -0.000002 0.000041 0.018975 0.000042 0.074859
#
#
# Mechanical properties :
#
#
# Convention : Reuss Voigt Hill
#
# Bulk Modulus (GPa) = 60.64844 76.20060 68.42452
# Shear Modulus (GPa) = 23.12283 28.68264 25.90273
#
# Velocity S-wave (km/s) = 3.54076 3.94353 3.74756
# Velocity P-wave (km/s) = 7.04265 7.87722 7.47160
#
# Compressibility (1/GPa) = 0.01648847
#
# Stress axis : x y z
#
# Youngs Moduli (GPa) = 61.26287 93.45286 101.19930
#
# Poissons Ratio (x) = 0.47909 0.07926
# Poissons Ratio (y) = 0.31407 0.43501
# Poissons Ratio (z) = 0.04798 0.40171
#
# Static dielectric constant tensor:
#      x y z
#    x 1.619130 0.000020 0.008040 
#    y 0.000020 1.632030 -0.000030 
#    z 0.008040 -0.000030 1.644080 
# 
# From -- ./inp_files/256734.got.cif
#   From: 2010.05.17/outbox.cif.g08.bks.cpg/sg12_129_cif.got.tgz:256734.got - 2010.06.03 13:09:07.
