data_PCOD9215209
_publ_section_title
;
Structure prediction by ZEFSAII (Michael W. Deem and Ramdas Pophale) SiO2 
 PCOD9215209
Probable space group: C 2/M
;
_chemical_formula_sum "Si O2"
_cell_formula_units_Z 40
_cell_length_a 16.557780
_cell_length_b 18.215629
_cell_length_c 6.886934
_cell_angle_alpha 90.000000
_cell_angle_beta 113.198038
_cell_angle_gamma 90.000000
_cell_volume 1909.229074
_symmetry_space_group_name_H-M "C 2/M"
_symmetry_group_IT_number 12
_symmetry_cell_setting 'monoclinic'
loop_
_space_group_symop_operation_xyz
x,y,z
-x,y,-z
-x,-y,-z
x,-y,z
1/2+x,1/2+y,z
1/2-x,1/2+y,-z
1/2-x,1/2-y,-z
1/2+x,1/2-y,z
loop_
_atom_site_type_symbol
_atom_site_label
_atom_site_fract_x
_atom_site_fract_y
_atom_site_fract_z
Si Si1 0.904621 0.853061 0.417452
Si Si2 0.450042 0.918862 0.658327
Si Si3 0.238362 0.915232 0.421591
Si Si4 0.059171 0.737148 0.218961
Si Si5 0.818247 0.202953 0.946432
O O1 0.824422 0.892202 0.456404
O O2 0.924847 0.781092 0.569471
O O3 0.878570 0.829978 0.175780
O O4 0.000000 0.892956 0.500000
O O5 0.500000 0.919895 0.500000
O O6 0.343919 0.910316 0.550423
O O7 0.480236 0.842612 0.781015
O O8 0.467160 0.000000 0.761066
O O9 0.219061 0.000000 0.358756
O O10 0.215451 0.863411 0.218482
O O11 0.148041 0.738310 0.181627
O O12 0.000000 0.777865 0.000000
O O13 0.750000 0.250000 0.000000
#
# Coordination Sequence:
#
# PCOD9215209 Si02
#       5
#     8   8   8   8   8
#     4  11  22  41  65  92 124 162 207 256 312 368
#     4  10  22  41  63  89 127 170 207 252 312 372
#     4  10  24  43  62  92 130 161 205 260 307 370
#     4  11  22  37  63  93 123 157 208 259 300 364
#     4  11  23  39  65  94 122 166 209 256 309 369
#
# _framework density 20.950863999999999
#
# number of rings (size 3 to 8) (size 9 to 14) (size 15 to 20)
#    0.000    1.400    2.000    3.000    2.800    4.800 
#    0.000    2.000    0.000    0.000    0.000    0.000 
#    0.000    0.000    0.000    0.000    0.000    0.000 
#
# Total GULP energy -111386.602158 kJ/mol
# GULP energy per Si atom -5569.330108 kJ/mol
# Density = 2.090318 g / cm^3
# Si number density = 20.950864 Si / 1000 Ang^3
#
#
#
# Elastic Constant Matrix: (Units=GPa)
#
#
# Indices 1 2 3 4 5 6 
#
# 1 116.8372 9.1349 21.6467 0.0000 -36.5241 0.0000
# 2 9.1349 87.3686 27.6688 0.0000 -20.0477 0.0000
# 3 21.6467 27.6688 95.6221 0.0000 -21.1659 0.0000
# 4 0.0000 0.0000 0.0000 15.0961 0.0000 -1.5790
# 5 -36.5241 -20.0477 -21.1659 0.0000 37.6361 0.0000
# 6 0.0000 0.0000 0.0000 -1.5790 0.0000 9.5733
#
#
#
# Elastic Compliance Matrix: (Units=1/GPa)
#
#
# Indices 1 2 3 4 5 6 
#
# 1 0.012521 0.001796 -0.000517 0.000000 0.012817 0.000000
# 2 0.001796 0.013867 -0.002739 0.000000 0.007588 0.000000
# 3 -0.000517 -0.002739 0.012488 0.000000 0.005062 0.000000
# 4 0.000000 0.000000 0.000000 0.067405 0.000000 0.011118
# 5 0.012817 0.007588 0.005062 0.000000 0.045897 0.000000
# 6 0.000000 0.000000 0.000000 0.011118 0.000000 0.106291
#
#
# Mechanical properties :
#
#
# Convention : Reuss Voigt Hill
#
# Bulk Modulus (GPa) = 27.81321 46.30319 37.05820
# Shear Modulus (GPa) = 18.28986 28.55292 23.42139
#
# Velocity S-wave (km/s) = 2.95784 3.69569 3.34716
# Velocity P-wave (km/s) = 4.99694 6.35292 5.71529
#
# Compressibility (1/GPa) = 0.03595414
#
# Stress axis : x y z
#
# Youngs Moduli (GPa) = 79.86666 72.11497 80.07695
#
# Poissons Ratio (x) = -0.12948 0.04140
# Poissons Ratio (y) = -0.14340 0.21935
# Poissons Ratio (z) = 0.04129 0.19754
#
# Static dielectric constant tensor:
#      x y z
#    x 1.953340 0.000000 0.086570 
#    y 0.000000 1.790510 0.000000 
#    z 0.086570 0.000000 1.627300 
# 
# From -- ./inp_files/15119.got.cif
#   From: 2010.05.17/outbox.cif.g08.bks.cpg/sg12_8_cif.got.tgz:15119.got - 2010.06.03 13:09:07.
