data_PCOD9215166
_publ_section_title
;
Structure prediction by ZEFSAII (Michael W. Deem and Ramdas Pophale) SiO2 
 PCOD9215166
Probable space group: C 2/M
;
_chemical_formula_sum "Si O2"
_cell_formula_units_Z 50
_cell_length_a 18.539734
_cell_length_b 8.958156
_cell_length_c 27.211443
_cell_angle_alpha 90.000000
_cell_angle_beta 36.823526
_cell_angle_gamma 90.000000
_cell_volume 2708.668723
_symmetry_space_group_name_H-M "C 2/M"
_symmetry_group_IT_number 12
_symmetry_cell_setting 'monoclinic'
loop_
_space_group_symop_operation_xyz
x,y,z
-x,y,-z
-x,-y,-z
x,-y,z
1/2+x,1/2+y,z
1/2-x,1/2+y,-z
1/2-x,1/2-y,-z
1/2+x,1/2-y,z
loop_
_atom_site_type_symbol
_atom_site_label
_atom_site_fract_x
_atom_site_fract_y
_atom_site_fract_z
Si Si1 0.168540 0.821180 0.086619
Si Si2 0.302108 0.320687 0.397703
Si Si3 0.074788 0.179394 0.567068
Si Si4 0.697645 0.320919 0.273647
Si Si5 0.250014 0.165317 0.858070
Si Si6 0.610363 0.679639 0.758019
Si Si7 0.500000 0.500000 0.000000
O O1 0.207960 0.755861 0.117457
O O2 0.028075 0.785539 0.154659
O O3 0.180851 0.000000 0.079516
O O4 0.250000 0.750000 0.000000
O O5 0.292937 0.500000 0.403330
O O6 0.170767 0.251842 0.478139
O O7 0.383231 0.277306 0.400519
O O8 0.359814 0.277493 0.314416
O O9 0.936404 0.221972 0.635237
O O10 0.083894 0.000000 0.558426
O O11 0.702616 0.500000 0.268104
O O12 0.718903 0.251577 0.208466
O O13 0.798220 0.258944 0.255299
O O14 0.309131 0.000000 0.825572
O O15 0.107811 0.127563 0.938478
O O16 0.624765 0.500000 0.754748
#
# Coordination Sequence:
#
# PCOD9215166 Si02
#       7
#     8   8   8   8   8   8   2
#     4  11  24  41  63  88 119 155 196 242 293 345
#     4   9  18  36  60  83 109 149 198 235 286 350
#     4   9  19  36  58  84 116 150 187 241 293 344
#     4  11  23  38  59  87 120 155 196 238 293 348
#     4  10  22  41  63  85 116 154 190 239 290 348
#     4  10  23  40  58  82 119 158 193 243 293 342
#     4   8  24  40  66  84 120 150 196 238 300 344
#
# _framework density 18.459251999999999
#
# number of rings (size 3 to 8) (size 9 to 14) (size 15 to 20)
#    0.480    1.600    0.000    2.400    2.240    6.400 
#    0.000    7.200    0.000    0.000    0.000    0.000 
#    0.000    0.000    0.000    0.000    0.000    0.000 
#
# Total GULP energy -139273.103984 kJ/mol
# GULP energy per Si atom -5570.924159 kJ/mol
# Density = 1.841724 g / cm^3
# Si number density = 18.459252 Si / 1000 Ang^3
#
#
#
# Elastic Constant Matrix: (Units=GPa)
#
#
# Indices 1 2 3 4 5 6 
#
# 1 76.3981 44.0772 80.3439 0.0000 -10.7842 -0.0001
# 2 44.0772 50.5170 60.4453 0.0000 -7.7217 -0.0002
# 3 80.3439 60.4453 149.6629 0.0000 -14.7020 -0.0001
# 4 0.0000 0.0000 0.0000 33.8739 0.0000 -2.7639
# 5 -10.7842 -7.7217 -14.7020 0.0000 35.7785 0.0000
# 6 -0.0001 -0.0002 -0.0001 -2.7639 0.0000 28.5083
#
#
#
# Elastic Compliance Matrix: (Units=1/GPa)
#
#
# Indices 1 2 3 4 5 6 
#
# 1 0.035767 -0.015782 -0.012611 0.000000 0.002192 0.000000
# 2 -0.015782 0.045408 -0.009766 0.000000 0.001030 0.000000
# 3 -0.012611 -0.009766 0.017523 0.000000 0.001292 0.000000
# 4 0.000000 0.000000 0.000000 0.029757 0.000000 0.002885
# 5 0.002192 0.001030 0.001292 0.000000 0.029364 0.000000
# 6 0.000000 0.000000 0.000000 0.002885 0.000000 0.035357
#
#
# Mechanical properties :
#
#
# Convention : Reuss Voigt Hill
#
# Bulk Modulus (GPa) = 44.68429 71.81231 58.24830
# Shear Modulus (GPa) = 18.05353 25.74625 21.89989
#
# Velocity S-wave (km/s) = 3.13073 3.73870 3.44814
# Velocity P-wave (km/s) = 6.10968 7.59110 6.89032
#
# Compressibility (1/GPa) = 0.02237923
#
# Stress axis : x y z
#
# Youngs Moduli (GPa) = 27.95865 22.02248 57.06842
#
# Poissons Ratio (x) = 0.34757 0.71971
# Poissons Ratio (y) = 0.44126 0.55730
# Poissons Ratio (z) = 0.35260 0.21506
#
# Static dielectric constant tensor:
#      x y z
#    x 1.622580 0.000000 0.001340 
#    y 0.000000 1.626160 0.000000 
#    z 0.001340 0.000000 1.618820 
# 
# From -- ./inp_files/362694.got.cif
#   From: 2010.05.17/outbox.cif.g08.bks.cpg/sg12_182_cif.got.tgz:362694.got - 2010.06.03 13:09:07.
