data_PCOD9215984
_publ_section_title
;
Structure prediction by ZEFSAII (Michael W. Deem and Ramdas Pophale) SiO2 
 PCOD9215984
Probable space group: C 2/M
;
_chemical_formula_sum "Si O2"
_cell_formula_units_Z 56
_cell_length_a 14.273011
_cell_length_b 18.134021
_cell_length_c 11.961376
_cell_angle_alpha 90.000000
_cell_angle_beta 118.015497
_cell_angle_gamma 90.000000
_cell_volume 2733.148988
_symmetry_space_group_name_H-M "C 2/M"
_symmetry_group_IT_number 12
_symmetry_cell_setting 'monoclinic'
loop_
_space_group_symop_operation_xyz
x,y,z
-x,y,-z
-x,-y,-z
x,-y,z
1/2+x,1/2+y,z
1/2-x,1/2+y,-z
1/2-x,1/2-y,-z
1/2+x,1/2-y,z
loop_
_atom_site_type_symbol
_atom_site_label
_atom_site_fract_x
_atom_site_fract_y
_atom_site_fract_z
Si Si1 0.121424 0.295702 0.607607
Si Si2 0.112558 0.085824 0.536386
Si Si3 0.385842 0.841017 0.962426
Si Si4 0.193938 0.587703 0.494332
Si Si5 0.664953 0.786343 0.310741
Si Si6 0.322795 0.416591 0.173454
Si Si7 0.062066 0.768243 0.806669
O O1 0.156407 0.377785 0.589943
O O2 0.216198 0.246150 0.605839
O O3 0.117344 0.273731 0.734208
O O4 0.000000 0.285775 0.500000
O O5 0.183761 0.104324 0.469966
O O6 0.175597 0.089921 0.689273
O O7 0.000000 0.123199 0.500000
O O8 0.090934 0.000000 0.503194
O O9 0.346374 0.802915 0.826600
O O10 0.294118 0.898949 0.938037
O O11 0.500000 0.876074 0.000000
O O12 0.405295 0.778437 0.066026
O O13 0.175410 0.500000 0.473700
O O14 0.140975 0.639816 0.369647
O O15 0.564703 0.734444 0.280048
O O16 0.356498 0.500000 0.167002
O O17 0.397557 0.351890 0.170370
#
# Coordination Sequence:
#
# PCOD9215984 Si02
#       7
#     8   8   8   8   8   8   8
#     4  12  25  41  67  97 131 178 217 259 328 404
#     4   9  19  35  59  94 132 166 200 258 328 376
#     4  10  22  42  69  94 123 170 220 268 321 381
#     4  11  23  40  63  95 137 167 212 269 321 383
#     4  11  23  42  68  96 125 173 225 265 320 387
#     4  11  22  38  65  98 129 162 211 273 329 371
#     4  11  24  43  67  94 130 173 218 267 320 397
#
# _framework density 20.489187000000001
#
# number of rings (size 3 to 8) (size 9 to 14) (size 15 to 20)
#    0.000    1.286    4.286    0.857    2.000    1.714 
#    0.000    2.857    0.000    3.857    0.000    0.000 
#    0.000    0.000    0.000    0.000    0.000    0.000 
#
# Total GULP energy -156101.073792 kJ/mol
# GULP energy per Si atom -5575.038350 kJ/mol
# Density = 2.044255 g / cm^3
# Si number density = 20.489187 Si / 1000 Ang^3
#
#
#
# Elastic Constant Matrix: (Units=GPa)
#
#
# Indices 1 2 3 4 5 6 
#
# 1 126.4194 57.8432 35.3061 0.0000 22.3146 0.0000
# 2 57.8432 147.7026 44.7836 0.0000 4.4028 0.0000
# 3 35.3061 44.7836 56.4957 0.0000 6.6046 0.0000
# 4 0.0000 0.0000 0.0000 21.6748 0.0000 -4.3361
# 5 22.3146 4.4028 6.6046 0.0000 36.4700 0.0000
# 6 0.0000 0.0000 0.0000 -4.3361 0.0000 16.8497
#
#
#
# Elastic Compliance Matrix: (Units=1/GPa)
#
#
# Indices 1 2 3 4 5 6 
#
# 1 0.011505 -0.003106 -0.004035 0.000000 -0.005934 0.000000
# 2 -0.003106 0.009752 -0.006001 0.000000 0.001810 0.000000
# 3 -0.004035 -0.006001 0.025138 0.000000 -0.001359 0.000000
# 4 0.000000 0.000000 0.000000 0.048641 0.000000 0.012517
# 5 -0.005934 0.001810 -0.001359 0.000000 0.031078 0.000000
# 6 0.000000 0.000000 0.000000 0.012517 0.000000 0.062569
#
#
# Mechanical properties :
#
#
# Convention : Reuss Voigt Hill
#
# Bulk Modulus (GPa) = 49.72021 67.38708 58.55364
# Shear Modulus (GPa) = 22.55596 27.84455 25.20025
#
# Velocity S-wave (km/s) = 3.32154 3.69044 3.51084
# Velocity P-wave (km/s) = 6.24735 7.14980 6.71376
#
# Compressibility (1/GPa) = 0.02011255
#
# Stress axis : x y z
#
# Youngs Moduli (GPa) = 86.91612 102.54104 39.78055
#
# Poissons Ratio (x) = 0.31844 0.16050
# Poissons Ratio (y) = 0.26992 0.23873
# Poissons Ratio (z) = 0.35068 0.61538
#
# Static dielectric constant tensor:
#      x y z
#    x 1.814910 0.000000 0.028910 
#    y 0.000000 1.764900 0.000000 
#    z 0.028910 0.000000 1.743200 
# 
# From -- ./inp_files/146258.got.cif
#   From: 2010.05.17/outbox.cif.g08.bks.cpg/sg12_74_cif.got.tgz:146258.got - 2010.06.03 13:09:07.
