data_PCOD9215882
_publ_section_title
;
Structure prediction by ZEFSAII (Michael W. Deem and Ramdas Pophale) SiO2 
 PCOD9215882
Probable space group: C 2/M
;
_chemical_formula_sum "Si O2"
_cell_formula_units_Z 32
_cell_length_a 10.121414
_cell_length_b 16.222920
_cell_length_c 11.526857
_cell_angle_alpha 90.000000
_cell_angle_beta 42.271668
_cell_angle_gamma 90.000000
_cell_volume 1273.116460
_symmetry_space_group_name_H-M "C 2/M"
_symmetry_group_IT_number 12
_symmetry_cell_setting 'monoclinic'
loop_
_space_group_symop_operation_xyz
x,y,z
-x,y,-z
-x,-y,-z
x,-y,z
1/2+x,1/2+y,z
1/2-x,1/2+y,-z
1/2-x,1/2-y,-z
1/2+x,1/2-y,z
loop_
_atom_site_type_symbol
_atom_site_label
_atom_site_fract_x
_atom_site_fract_y
_atom_site_fract_z
Si Si1 0.069526 0.098918 0.760191
Si Si2 0.351549 0.786889 0.683180
Si Si3 0.125803 0.407706 0.017233
Si Si4 0.172415 0.343866 0.627859
O O1 0.170311 0.151187 0.797974
O O2 0.182499 0.120379 0.564557
O O3 0.082530 0.000000 0.771382
O O4 0.840816 0.125052 0.902454
O O5 0.500000 0.834408 0.500000
O O6 0.289061 0.705319 0.652704
O O7 0.502410 0.780518 0.691223
O O8 0.168710 0.500000 0.946064
O O9 0.973610 0.409937 0.221505
O O10 0.000000 0.361922 0.000000
#
# Coordination Sequence:
#
# PCOD9215882 Si02
#       4
#     8   8   8   8
#     4  10  22  42  67  94 128 167 211 266 319 371
#     4  10  23  41  65  98 127 166 218 257 310 389
#     4  10  24  42  64  99 128 162 219 262 310 387
#     4  11  24  43  67  93 131 171 207 263 321 370
#
# _framework density 25.135172000000001
#
# number of rings (size 3 to 8) (size 9 to 14) (size 15 to 20)
#    0.000    1.750    0.000    3.750    7.000    7.500 
#    0.000    6.250    0.000    0.000    0.000    0.000 
#    0.000    0.000    0.000    0.000    0.000    0.000 
#
# Total GULP energy -89106.139828 kJ/mol
# GULP energy per Si atom -5569.133739 kJ/mol
# Density = 2.507796 g / cm^3
# Si number density = 25.135172 Si / 1000 Ang^3
#
#
#
# Elastic Constant Matrix: (Units=GPa)
#
#
# Indices 1 2 3 4 5 6 
#
# 1 96.5699 -1.5923 36.9257 -0.0006 -44.2961 0.0006
# 2 -1.5923 69.1063 14.8885 -0.0006 -9.3481 0.0007
# 3 36.9257 14.8885 166.1408 -0.0026 -25.7243 0.0019
# 4 -0.0006 -0.0006 -0.0026 18.2841 0.0008 -0.1212
# 5 -44.2961 -9.3481 -25.7243 0.0008 50.2714 -0.0005
# 6 0.0006 0.0007 0.0019 -0.1212 -0.0005 6.5979
#
#
#
# Elastic Compliance Matrix: (Units=1/GPa)
#
#
# Indices 1 2 3 4 5 6 
#
# 1 0.018359 0.002965 -0.001907 0.000000 0.015752 0.000000
# 2 0.002965 0.015471 -0.001298 0.000000 0.004825 -0.000001
# 3 -0.001907 -0.001298 0.006800 0.000001 0.001558 -0.000002
# 4 0.000000 0.000000 0.000001 0.054699 -0.000001 0.001005
# 5 0.015752 0.004825 0.001558 -0.000001 0.035466 0.000001
# 6 0.000000 -0.000001 -0.000002 0.001005 0.000001 0.151582
#
#
# Mechanical properties :
#
#
# Convention : Reuss Voigt Hill
#
# Bulk Modulus (GPa) = 24.90735 48.02899 36.46817
# Shear Modulus (GPa) = 16.87812 33.80367 25.34089
#
# Velocity S-wave (km/s) = 2.59413 3.67123 3.17864
# Velocity P-wave (km/s) = 4.34782 6.09265 5.29263
#
# Compressibility (1/GPa) = 0.04014879
#
# Stress axis : x y z
#
# Youngs Moduli (GPa) = 54.47037 64.63648 147.04962
#
# Poissons Ratio (x) = -0.19162 0.28043
# Poissons Ratio (y) = -0.16149 0.19091
# Poissons Ratio (z) = 0.10388 0.08392
#
# Static dielectric constant tensor:
#      x y z
#    x 2.178320 0.000000 0.034350 
#    y 0.000000 2.040850 0.000000 
#    z 0.034350 0.000000 2.047830 
# 
# From -- ./inp_files/46201.got.cif
#   From: 2010.05.17/outbox.cif.g08.bks.cpg/sg12_24_cif.got.tgz:46201.got - 2010.06.03 13:09:07.
