data_PCOD9215791
_publ_section_title
;
Structure prediction by ZEFSAII (Michael W. Deem and Ramdas Pophale) SiO2 
 PCOD9215791
Probable space group: C 2/M
;
_chemical_formula_sum "Si O2"
_cell_formula_units_Z 44
_cell_length_a 13.621916
_cell_length_b 8.806391
_cell_length_c 16.608317
_cell_angle_alpha 90.000000
_cell_angle_beta 70.262195
_cell_angle_gamma 90.000000
_cell_volume 1875.278678
_symmetry_space_group_name_H-M "C 2/M"
_symmetry_group_IT_number 12
_symmetry_cell_setting 'monoclinic'
loop_
_space_group_symop_operation_xyz
x,y,z
-x,y,-z
-x,-y,-z
x,-y,z
1/2+x,1/2+y,z
1/2-x,1/2+y,-z
1/2-x,1/2-y,-z
1/2+x,1/2-y,z
loop_
_atom_site_type_symbol
_atom_site_label
_atom_site_fract_x
_atom_site_fract_y
_atom_site_fract_z
Si Si1 0.899193 0.172644 0.968753
Si Si2 0.535300 0.824579 0.804299
Si Si3 0.275635 0.679712 0.157866
Si Si4 0.115620 0.741848 0.461920
Si Si5 0.581156 0.669652 0.291146
Si Si6 0.795574 0.000000 0.450745
O O1 0.935945 0.286786 0.889312
O O2 0.881615 0.000000 0.943317
O O3 0.809345 0.215918 0.056921
O O4 0.000000 0.164690 0.000000
O O5 0.625849 0.716141 0.812136
O O6 0.504611 0.783616 0.721738
O O7 0.564228 0.000000 0.804672
O O8 0.250166 0.500000 0.170033
O O9 0.185131 0.786524 0.214213
O O10 0.112384 0.815786 0.374607
O O11 0.132225 0.867362 0.526131
O O12 0.212886 0.629861 0.440552
O O13 0.000000 0.671573 0.500000
O O14 0.544515 0.500000 0.282701
#
# Coordination Sequence:
#
# PCOD9215791 Si02
#       6
#     8   8   8   8   8   4
#     4   8  16  35  62  89 126 175 229 270 327 398
#     4  11  23  39  63  97 133 179 222 274 339 393
#     4  10  22  42  65  93 133 178 222 281 333 396
#     4  11  25  49  75 105 142 179 231 289 346 424
#     4  12  26  43  64  97 135 169 225 277 336 407
#     4  10  24  46  76 106 132 182 230 274 354 424
#
# _framework density 23.463177999999999
#
# number of rings (size 3 to 8) (size 9 to 14) (size 15 to 20)
#    0.000    1.636    0.909    4.364    2.545    7.636 
#    3.273    0.000    0.000    0.000    0.000    0.000 
#    0.000    0.000    0.000    0.000    0.000    0.000 
#
# Total GULP energy -122500.000695 kJ/mol
# GULP energy per Si atom -5568.181850 kJ/mol
# Density = 2.340978 g / cm^3
# Si number density = 23.463178 Si / 1000 Ang^3
#
#
#
# Elastic Constant Matrix: (Units=GPa)
#
#
# Indices 1 2 3 4 5 6 
#
# 1 76.1425 -9.0013 25.6347 0.0000 34.4314 0.0000
# 2 -9.0013 94.1858 13.0423 0.0000 10.0884 0.0000
# 3 25.6347 13.0423 53.6175 0.0000 14.1476 0.0000
# 4 0.0000 0.0000 0.0000 7.5672 0.0000 6.8402
# 5 34.4314 10.0884 14.1476 0.0000 24.9301 0.0000
# 6 0.0000 0.0000 0.0000 6.8402 0.0000 24.4222
#
#
#
# Elastic Compliance Matrix: (Units=1/GPa)
#
#
# Indices 1 2 3 4 5 6 
#
# 1 0.046852 0.012599 -0.008286 0.000000 -0.065105 0.000000
# 2 0.012599 0.014633 -0.004033 0.000000 -0.021033 0.000000
# 3 -0.008286 -0.004033 0.023690 0.000000 -0.000368 0.000000
# 4 0.000000 0.000000 0.000000 0.176947 0.000000 -0.049559
# 5 -0.065105 -0.021033 -0.000368 0.000000 0.138749 0.000000
# 6 0.000000 0.000000 0.000000 -0.049559 0.000000 0.054827
#
#
# Mechanical properties :
#
#
# Convention : Reuss Voigt Hill
#
# Bulk Modulus (GPa) = 11.66400 31.47746 21.57073
# Shear Modulus (GPa) = 10.33661 24.33525 17.33593
#
# Velocity S-wave (km/s) = 2.10120 3.22400 2.72114
# Velocity P-wave (km/s) = 3.29677 5.22530 4.36878
#
# Compressibility (1/GPa) = 0.08573389
#
# Stress axis : x y z
#
# Youngs Moduli (GPa) = 21.34362 68.34027 42.21129
#
# Poissons Ratio (x) = -0.86099 0.34977
# Poissons Ratio (y) = -0.26890 0.17024
# Poissons Ratio (z) = 0.17686 0.27562
#
# Static dielectric constant tensor:
#      x y z
#    x 1.954690 0.000000 -0.015820 
#    y 0.000000 1.798560 0.000000 
#    z -0.015820 0.000000 1.939450 
# 
# From -- ./inp_files/267127.got.cif
#   From: 2010.05.17/outbox.cif.g08.bks.cpg/sg12_134_cif.got.tgz:267127.got - 2010.06.03 13:09:07.
