data_PCOD9215779
_publ_section_title
;
Structure prediction by ZEFSAII (Michael W. Deem and Ramdas Pophale) SiO2 
 PCOD9215779
Probable space group: C 2/M
;
_chemical_formula_sum "Si O2"
_cell_formula_units_Z 28
_cell_length_a 19.007008
_cell_length_b 13.818265
_cell_length_c 5.158997
_cell_angle_alpha 90.000000
_cell_angle_beta 101.485623
_cell_angle_gamma 90.000000
_cell_volume 1327.845095
_symmetry_space_group_name_H-M "C 2/M"
_symmetry_group_IT_number 12
_symmetry_cell_setting 'monoclinic'
loop_
_space_group_symop_operation_xyz
x,y,z
-x,y,-z
-x,-y,-z
x,-y,z
1/2+x,1/2+y,z
1/2-x,1/2+y,-z
1/2-x,1/2-y,-z
1/2+x,1/2-y,z
loop_
_atom_site_type_symbol
_atom_site_label
_atom_site_fract_x
_atom_site_fract_y
_atom_site_fract_z
Si Si1 0.350748 0.000000 0.116000
Si Si2 0.148991 0.825369 0.440099
Si Si3 0.609471 0.214526 0.893337
Si Si4 0.242531 0.500000 0.452595
Si Si5 0.500000 0.324508 0.500000
O O1 0.391965 0.099617 0.096580
O O2 0.321505 0.000000 0.387391
O O3 0.285567 0.000000 0.861899
O O4 0.159025 0.753021 0.690956
O O5 0.209415 0.905231 0.466368
O O6 0.071199 0.875492 0.445862
O O7 0.138206 0.762828 0.175057
O O8 0.532643 0.256970 0.749234
#
# Coordination Sequence:
#
# PCOD9215779 Si02
#       5
#     4   8   8   4   4
#     4  12  26  41  63  97 125 166 210 244 316 374
#     4  10  22  42  65  92 126 162 204 262 305 364
#     4  10  22  42  65  92 126 162 204 262 305 364
#     4  12  26  41  63  97 125 166 210 244 316 374
#     4   8  22  42  66  92 120 164 206 256 318 352
#
# _framework density 21.086794999999999
#
# number of rings (size 3 to 8) (size 9 to 14) (size 15 to 20)
#    1.714    0.000    0.000    4.286    0.000    8.000 
#    0.000    2.857    0.000    0.000    0.000    0.000 
#    0.000    0.000    0.000    0.000    0.000    0.000 
#
# Total GULP energy -78087.954757 kJ/mol
# GULP energy per Si atom -5577.711054 kJ/mol
# Density = 2.103880 g / cm^3
# Si number density = 21.086795 Si / 1000 Ang^3
#
#
#
# Elastic Constant Matrix: (Units=GPa)
#
#
# Indices 1 2 3 4 5 6 
#
# 1 27.6402 -8.5999 -5.3874 0.0000 3.4635 0.0000
# 2 -8.5999 63.2468 20.9142 0.0000 -2.6162 0.0000
# 3 -5.3874 20.9142 112.8958 0.0000 -29.6762 0.0000
# 4 0.0000 0.0000 0.0000 -51.0266 0.0000 96.8004
# 5 3.4635 -2.6162 -29.6762 0.0000 20.2695 0.0000
# 6 0.0000 0.0000 0.0000 96.8004 0.0000 -141.8227
#
#
#
# Elastic Compliance Matrix: (Units=1/GPa)
#
#
# Indices 1 2 3 4 5 6 
#
# 1 0.038556 0.005303 -0.001129 0.000000 -0.007556 0.000000
# 2 0.005303 0.017763 -0.004346 0.000000 -0.004976 0.000000
# 3 -0.001129 -0.004346 0.015463 0.000000 0.022271 0.000000
# 4 0.000000 0.000000 0.000000 0.066472 0.000000 0.045370
# 5 -0.007556 -0.004976 0.022271 0.000000 0.082591 0.000000
# 6 0.000000 0.000000 0.000000 0.045370 0.000000 0.023916
#
#
# Mechanical properties :
#
#
# Convention : Reuss Voigt Hill
#
# Bulk Modulus (GPa) = 13.99766 24.18184 19.08975
# Shear Modulus (GPa) = 18.59310 -21.39222 -1.39956
#
# Velocity S-wave (km/s) = 2.97263 -3.18855 -0.81557
# Velocity P-wave (km/s) = 4.29355 1.43637 2.86107
#
# Compressibility (1/GPa) = 0.07144051
#
# Stress axis : x y z
#
# Youngs Moduli (GPa) = 25.93626 56.29571 64.66946
#
# Poissons Ratio (x) = -0.29855 0.07300
# Poissons Ratio (y) = -0.13755 0.28103
# Poissons Ratio (z) = 0.02928 0.24464
#
# Static dielectric constant tensor:
#      x y z
#    x 1.804620 0.000000 -0.016500 
#    y 0.000000 1.719670 0.000000 
#    z -0.016500 0.000000 1.728390 
# 
# From -- ./inp_files/19516.got.cif
#   From: 2010.05.17/outbox.cif.g08.bks.cpg/sg12_10_cif.got.tgz:19516.got - 2010.06.03 13:09:07.
