data_PCOD9215608
_publ_section_title
;
Structure prediction by ZEFSAII (Michael W. Deem and Ramdas Pophale) SiO2 
 PCOD9215608
Probable space group: C 2/M
;
_chemical_formula_sum "Si O2"
_cell_formula_units_Z 52
_cell_length_a 9.544938
_cell_length_b 17.434751
_cell_length_c 20.954552
_cell_angle_alpha 90.000000
_cell_angle_beta 48.683341
_cell_angle_gamma 90.000000
_cell_volume 2619.081003
_symmetry_space_group_name_H-M "C 2/M"
_symmetry_group_IT_number 12
_symmetry_cell_setting 'monoclinic'
loop_
_space_group_symop_operation_xyz
x,y,z
-x,y,-z
-x,-y,-z
x,-y,z
1/2+x,1/2+y,z
1/2-x,1/2+y,-z
1/2-x,1/2-y,-z
1/2+x,1/2-y,z
loop_
_atom_site_type_symbol
_atom_site_label
_atom_site_fract_x
_atom_site_fract_y
_atom_site_fract_z
Si Si1 0.969185 0.128318 0.805719
Si Si2 0.042224 0.175572 0.412319
Si Si3 0.731196 0.861969 0.182778
Si Si4 0.025048 0.500000 0.785380
Si Si5 0.576095 0.500000 0.403740
Si Si6 0.303303 0.754613 0.056691
Si Si7 0.427592 0.745752 0.323479
Si Si8 0.849323 0.500000 0.104870
O O1 0.875090 0.204458 0.861276
O O2 0.122953 0.103213 0.810656
O O3 0.056771 0.161991 0.714737
O O4 0.796496 0.070825 0.852655
O O5 0.255598 0.206661 0.345789
O O6 0.000000 0.181935 0.500000
O O7 0.923353 0.227828 0.400003
O O8 0.017135 0.086048 0.400020
O O9 0.829063 0.820125 0.093233
O O10 0.611297 0.797120 0.255540
O O11 0.594226 0.925565 0.196605
O O12 0.208108 0.500000 0.684845
O O13 0.063025 0.500000 0.850222
O O14 0.500000 0.500000 0.500000
O O15 0.500000 0.798530 0.000000
O O16 0.250000 0.750000 0.000000
O O17 0.000000 0.500000 0.000000
#
# Coordination Sequence:
#
# PCOD9215608 Si02
#       8
#     8   8   8   4   4   8   8   4
#     4  11  24  42  63  89 128 172 214 271 330 394
#     4  11  22  40  67 101 136 174 220 278 334 401
#     4  11  24  40  64  92 124 175 213 274 339 394
#     4  12  25  43  68  91 133 174 221 275 336 403
#     4  10  22  41  68  99 134 174 216 264 334 404
#     4  11  23  39  63  89 121 162 219 271 326 390
#     4  11  22  40  66  95 131 170 225 268 333 396
#     4  12  29  44  65  96 129 174 228 279 336 409
#
# _framework density 19.854292999999998
#
# number of rings (size 3 to 8) (size 9 to 14) (size 15 to 20)
#    0.000    0.923    4.615    2.308    4.308    0.000 
#    0.000    1.154    0.000    0.000    0.000    8.615 
#    0.000    0.000    0.000    0.000    0.000    0.000 
#
# Total GULP energy -144783.669885 kJ/mol
# GULP energy per Si atom -5568.602688 kJ/mol
# Density = 1.980910 g / cm^3
# Si number density = 19.854293 Si / 1000 Ang^3
#
#
#
# Elastic Constant Matrix: (Units=GPa)
#
#
# Indices 1 2 3 4 5 6 
#
# 1 133.6709 29.6790 36.2078 0.0003 20.7686 0.0004
# 2 29.6790 80.6851 25.9169 0.0005 16.8233 0.0003
# 3 36.2078 25.9169 96.5066 0.0016 11.7727 0.0008
# 4 0.0003 0.0005 0.0016 25.6656 -0.0004 -14.5003
# 5 20.7686 16.8233 11.7727 -0.0004 31.0113 -0.0005
# 6 0.0004 0.0003 0.0008 -14.5003 -0.0005 10.9170
#
#
#
# Elastic Compliance Matrix: (Units=1/GPa)
#
#
# Indices 1 2 3 4 5 6 
#
# 1 0.009194 -0.001691 -0.002470 -0.000001 -0.004302 -0.000001
# 2 -0.001691 0.015145 -0.002693 -0.000002 -0.006061 -0.000003
# 3 -0.002470 -0.002693 0.012197 -0.000005 -0.001515 -0.000007
# 4 -0.000001 -0.000002 -0.000005 0.156104 0.000009 0.207342
# 5 -0.004302 -0.006061 -0.001515 0.000009 0.038990 0.000013
# 6 -0.000001 -0.000003 -0.000007 0.207342 0.000013 0.366997
#
#
# Mechanical properties :
#
#
# Convention : Reuss Voigt Hill
#
# Bulk Modulus (GPa) = 43.81035 54.94113 49.37574
# Shear Modulus (GPa) = 8.06521 28.12270 18.09395
#
# Velocity S-wave (km/s) = 2.01768 3.76766 3.02211
# Velocity P-wave (km/s) = 5.24803 6.83076 6.09102
#
# Compressibility (1/GPa) = 0.02282566
#
# Stress axis : x y z
#
# Youngs Moduli (GPa) = 108.76411 66.02913 81.98790
#
# Poissons Ratio (x) = 0.11168 0.20255
# Poissons Ratio (y) = 0.18397 0.22081
# Poissons Ratio (z) = 0.26870 0.17783
#
# Static dielectric constant tensor:
#      x y z
#    x 1.672840 0.000000 0.023120 
#    y 0.000000 1.755650 0.000000 
#    z 0.023120 0.000000 1.770400 
# 
# From -- ./inp_files/301092.got.cif
#   From: 2010.05.17/outbox.cif.g08.bks.cpg/sg12_151_cif.got.tgz:301092.got - 2010.06.03 13:09:07.
