data_PCOD9215609
_publ_section_title
;
Structure prediction by ZEFSAII (Michael W. Deem and Ramdas Pophale) SiO2 
 PCOD9215609
Probable space group: C 2/M
;
_chemical_formula_sum "Si O2"
_cell_formula_units_Z 52
_cell_length_a 18.532143
_cell_length_b 23.086165
_cell_length_c 5.141810
_cell_angle_alpha 90.000000
_cell_angle_beta 109.588409
_cell_angle_gamma 90.000000
_cell_volume 2072.536211
_symmetry_space_group_name_H-M "C 2/M"
_symmetry_group_IT_number 12
_symmetry_cell_setting 'monoclinic'
loop_
_space_group_symop_operation_xyz
x,y,z
-x,y,-z
-x,-y,-z
x,-y,z
1/2+x,1/2+y,z
1/2-x,1/2+y,-z
1/2-x,1/2-y,-z
1/2+x,1/2-y,z
loop_
_atom_site_type_symbol
_atom_site_label
_atom_site_fract_x
_atom_site_fract_y
_atom_site_fract_z
Si Si1 0.709313 0.340181 0.520344
Si Si2 0.324160 0.066245 0.897634
Si Si3 0.415611 0.100732 0.520284
Si Si4 0.332867 0.789246 0.338739
Si Si5 0.944708 0.000000 0.187640
Si Si6 0.912190 0.884537 0.976528
Si Si7 0.946346 0.761978 0.182212
O O1 0.763646 0.382812 0.751512
O O2 0.683091 0.276598 0.588412
O O3 0.756188 0.323159 0.313248
O O4 0.637645 0.376786 0.338620
O O5 0.392077 0.070980 0.762151
O O6 0.294081 0.000000 0.849372
O O7 0.358925 0.078440 0.224167
O O8 0.500000 0.094004 0.500000
O O9 0.396196 0.168652 0.544813
O O10 0.373389 0.780746 0.108881
O O11 0.000000 0.000000 0.500000
O O12 0.894648 0.057664 0.110544
O O13 0.000000 0.000000 0.000000
O O14 0.909570 0.825633 0.131819
O O15 0.000000 0.887130 0.000000
O O16 0.000000 0.758505 0.500000
O O17 0.000000 0.754505 0.000000
#
# Coordination Sequence:
#
# PCOD9215609 Si02
#       7
#     8   8   8   8   4   8   8
#     4  10  24  45  73 106 150 202 242 311 380 448
#     4  11  26  47  72 105 149 196 251 303 369 452
#     4  11  25  45  75 110 144 191 245 309 376 445
#     4  10  23  44  70 107 152 192 247 301 381 460
#     4  10  22  42  66  94 132 176 236 308 362 422
#     4  10  22  41  68  99 135 185 245 300 361 433
#     4  11  23  40  67 100 139 183 236 301 364 436
#
# _framework density 25.090029999999999
#
# number of rings (size 3 to 8) (size 9 to 14) (size 15 to 20)
#    0.000    1.538    0.000    3.692    1.077   14.154 
#    0.000    0.000    1.692    0.000    0.000    0.000 
#    0.000    0.000    0.000    0.000    0.000    0.000 
#
# Total GULP energy -145306.504958 kJ/mol
# GULP energy per Si atom -5588.711729 kJ/mol
# Density = 2.503292 g / cm^3
# Si number density = 25.090030 Si / 1000 Ang^3
#
#
#
# Elastic Constant Matrix: (Units=GPa)
#
#
# Indices 1 2 3 4 5 6 
#
# 1 71.0117 21.4086 37.3939 0.0000 -21.2755 0.0000
# 2 21.4086 146.6292 30.3841 0.0000 1.0776 0.0000
# 3 37.3939 30.3841 114.0889 0.0000 -7.5600 0.0000
# 4 0.0000 0.0000 0.0000 -40.4249 0.0000 -23.9204
# 5 -21.2755 1.0776 -7.5600 0.0000 48.9978 0.0000
# 6 0.0000 0.0000 0.0000 -23.9204 0.0000 14.6631
#
#
#
# Elastic Compliance Matrix: (Units=1/GPa)
#
#
# Indices 1 2 3 4 5 6 
#
# 1 0.019876 -0.001817 -0.005512 0.000000 0.007820 0.000000
# 2 -0.001817 0.007395 -0.001452 0.000000 -0.001176 0.000000
# 3 -0.005512 -0.001452 0.010914 0.000000 -0.000678 0.000000
# 4 0.000000 0.000000 0.000000 -0.012587 0.000000 -0.020534
# 5 0.007820 -0.001176 -0.000678 0.000000 0.023726 0.000000
# 6 0.000000 0.000000 0.000000 -0.020534 0.000000 0.034701
#
#
# Mechanical properties :
#
#
# Convention : Reuss Voigt Hill
#
# Bulk Modulus (GPa) = 48.49309 56.67811 52.58560
# Shear Modulus (GPa) = 46.09994 20.81674 33.45834
#
# Velocity S-wave (km/s) = 4.29112 2.88354 3.65572
# Velocity P-wave (km/s) = 6.62731 5.80735 6.23083
#
# Compressibility (1/GPa) = 0.02062149
#
# Stress axis : x y z
#
# Youngs Moduli (GPa) = 50.31300 135.23221 91.62948
#
# Poissons Ratio (x) = 0.24574 0.50509
# Poissons Ratio (y) = 0.09143 0.13302
# Poissons Ratio (z) = 0.27734 0.19631
#
# Static dielectric constant tensor:
#      x y z
#    x 2.026460 0.000000 0.025570 
#    y 0.000000 2.100400 0.000000 
#    z 0.025570 0.000000 1.984780 
# 
# From -- ./inp_files/21966.got.cif
#   From: 2010.05.17/outbox.cif.g08.bks.cpg/sg12_11_cif.got.tgz:21966.got - 2010.06.03 13:09:07.
