data_PCOD9215298
_publ_section_title
;
Structure prediction by ZEFSAII (Michael W. Deem and Ramdas Pophale) SiO2 
 PCOD9215298
Probable space group: C 2/M
;
_chemical_formula_sum "Si O2"
_cell_formula_units_Z 48
_cell_length_a 9.033052
_cell_length_b 21.563603
_cell_length_c 12.747615
_cell_angle_alpha 90.000000
_cell_angle_beta 73.848793
_cell_angle_gamma 90.000000
_cell_volume 2385.042535
_symmetry_space_group_name_H-M "C 2/M"
_symmetry_group_IT_number 12
_symmetry_cell_setting 'monoclinic'
loop_
_space_group_symop_operation_xyz
x,y,z
-x,y,-z
-x,-y,-z
x,-y,z
1/2+x,1/2+y,z
1/2-x,1/2+y,-z
1/2-x,1/2-y,-z
1/2+x,1/2-y,z
loop_
_atom_site_type_symbol
_atom_site_label
_atom_site_fract_x
_atom_site_fract_y
_atom_site_fract_z
Si Si1 0.948355 0.568503 0.390785
Si Si2 0.649515 0.764883 0.416232
Si Si3 0.660920 0.072872 0.030551
Si Si4 0.369434 0.376190 0.608877
Si Si5 0.947350 0.071578 0.816997
Si Si6 0.274018 0.865528 0.773561
O O1 0.897946 0.500000 0.366029
O O2 0.801614 0.611959 0.400628
O O3 0.000000 0.566050 0.500000
O O4 0.102018 0.588001 0.301218
O O5 0.500000 0.795021 0.500000
O O6 0.750000 0.750000 0.500000
O O7 0.607689 0.697324 0.378549
O O8 0.712129 0.806354 0.307963
O O9 0.806839 0.080649 0.924847
O O10 0.668111 0.000000 0.068488
O O11 0.500000 0.078192 0.000000
O O12 0.674705 0.126915 0.115189
O O13 0.500000 0.395997 0.500000
O O14 0.389706 0.412416 0.712327
O O15 0.098195 0.112307 0.807297
O O16 0.995040 0.000000 0.814430
#
# Coordination Sequence:
#
# PCOD9215298 Si02
#       6
#     8   8   8   8   8   8
#     4  11  22  35  56  89 124 157 200 257 317 376
#     4  11  23  41  63  88 122 165 211 258 309 371
#     4  10  22  41  64  92 127 166 209 259 317 379
#     4  11  23  40  61  87 121 165 212 258 313 374
#     4  11  23  39  62  93 126 159 200 255 316 377
#     4  12  22  38  63  90 122 164 207 252 312 378
#
# _framework density 20.125429
#
# number of rings (size 3 to 8) (size 9 to 14) (size 15 to 20)
#    0.000    1.000    0.000    9.000    0.000    5.333 
#    0.000    0.833    0.000    2.000    0.000    0.000 
#    0.000    0.000    0.000    0.000    0.000    0.000 
#
# Total GULP energy -133941.722374 kJ/mol
# GULP energy per Si atom -5580.905099 kJ/mol
# Density = 2.007962 g / cm^3
# Si number density = 20.125429 Si / 1000 Ang^3
#
#
#
# Elastic Constant Matrix: (Units=GPa)
#
#
# Indices 1 2 3 4 5 6 
#
# 1 124.9259 16.4901 34.2867 0.0000 -4.9327 0.0000
# 2 16.4901 64.4583 29.6278 0.0000 -8.5924 0.0000
# 3 34.2867 29.6278 112.9287 0.0000 -4.2453 0.0000
# 4 0.0000 0.0000 0.0000 34.1346 0.0000 3.9452
# 5 -4.9327 -8.5924 -4.2453 0.0000 37.5989 0.0000
# 6 0.0000 0.0000 0.0000 3.9452 0.0000 27.0100
#
#
#
# Elastic Compliance Matrix: (Units=1/GPa)
#
#
# Indices 1 2 3 4 5 6 
#
# 1 0.008824 -0.001082 -0.002371 0.000000 0.000643 0.000000
# 2 -0.001082 0.018251 -0.004327 0.000000 0.003541 0.000000
# 3 -0.002371 -0.004327 0.010707 0.000000 -0.000091 0.000000
# 4 0.000000 0.000000 0.000000 0.029799 0.000000 -0.004353
# 5 0.000643 0.003541 -0.000091 0.000000 0.027480 0.000000
# 6 0.000000 0.000000 0.000000 -0.004353 0.000000 0.037659
#
#
# Mechanical properties :
#
#
# Convention : Reuss Voigt Hill
#
# Bulk Modulus (GPa) = 44.99945 51.45800 48.22873
# Shear Modulus (GPa) = 32.11585 34.54259 33.32922
#
# Velocity S-wave (km/s) = 3.99906 4.14740 4.07391
# Velocity P-wave (km/s) = 6.61297 6.96841 6.79301
#
# Compressibility (1/GPa) = 0.02222249
#
# Stress axis : x y z
#
# Youngs Moduli (GPa) = 113.33169 54.79019 93.39881
#
# Poissons Ratio (x) = 0.05927 0.22145
# Poissons Ratio (y) = 0.12261 0.40412
# Poissons Ratio (z) = 0.26871 0.23707
#
# Static dielectric constant tensor:
#      x y z
#    x 1.698100 0.000000 0.060300 
#    y 0.000000 1.746040 0.000000 
#    z 0.060300 0.000000 1.696550 
# 
# From -- ./inp_files/122408.got.cif
#   From: 2010.05.17/outbox.cif.g08.bks.cpg/sg12_62_cif.got.tgz:122408.got - 2010.06.03 13:09:07.
