data_PCOD9215953
_publ_section_title
;
Structure prediction by ZEFSAII (Michael W. Deem and Ramdas Pophale) SiO2 
 PCOD9215953
Probable space group: C 2/M
;
_chemical_formula_sum "Si O2"
_cell_formula_units_Z 36
_cell_length_a 12.748628
_cell_length_b 21.800797
_cell_length_c 6.221351
_cell_angle_alpha 90.000000
_cell_angle_beta 67.798147
_cell_angle_gamma 90.000000
_cell_volume 1600.903222
_symmetry_space_group_name_H-M "C 2/M"
_symmetry_group_IT_number 12
_symmetry_cell_setting 'monoclinic'
loop_
_space_group_symop_operation_xyz
x,y,z
-x,y,-z
-x,-y,-z
x,-y,z
1/2+x,1/2+y,z
1/2-x,1/2+y,-z
1/2-x,1/2-y,-z
1/2+x,1/2-y,z
loop_
_atom_site_type_symbol
_atom_site_label
_atom_site_fract_x
_atom_site_fract_y
_atom_site_fract_z
Si Si1 0.586530 0.568174 0.595957
Si Si2 0.500000 0.259537 0.000000
Si Si3 0.799915 0.849795 0.154044
Si Si4 0.689794 0.069340 0.865776
Si Si5 0.911714 0.341563 0.387472
O O1 0.500000 0.600584 0.500000
O O2 0.541294 0.500000 0.680032
O O3 0.618963 0.602568 0.785107
O O4 0.700351 0.562890 0.370679
O O5 0.388737 0.297954 0.014084
O O6 0.459125 0.217348 0.227646
O O7 0.707253 0.827821 0.400755
O O8 0.729948 0.886035 0.026559
O O9 0.604278 0.105159 0.776430
O O10 0.656444 0.000000 0.959470
O O11 0.000000 0.361514 0.500000
#
# Coordination Sequence:
#
# PCOD9215953 Si02
#       5
#     8   4   8   8   8
#     4   9  18  34  59  95 134 168 208 262 327 393
#     4  12  26  44  66  96 134 174 220 268 320 386
#     4  11  23  41  68  98 131 171 216 268 326 386
#     4  10  22  42  68  98 130 167 215 270 330 390
#     4  11  26  45  65  95 132 175 222 269 322 381
#
# _framework density 22.487304999999999
#
# number of rings (size 3 to 8) (size 9 to 14) (size 15 to 20)
#    0.000    1.556    0.000    4.000    0.000    9.333 
#    0.000    8.333    0.000    0.000    0.000    0.000 
#    0.000    0.000    0.000    0.000    0.000    0.000 
#
# Total GULP energy -100615.468595 kJ/mol
# GULP energy per Si atom -5589.748255 kJ/mol
# Density = 2.243612 g / cm^3
# Si number density = 22.487305 Si / 1000 Ang^3
#
#
#
# Elastic Constant Matrix: (Units=GPa)
#
#
# Indices 1 2 3 4 5 6 
#
# 1 140.3583 70.6744 62.0245 0.0000 26.3202 0.0000
# 2 70.6744 129.5786 76.6352 0.0000 10.0183 0.0000
# 3 62.0245 76.6352 112.2748 0.0000 10.7653 0.0000
# 4 0.0000 0.0000 0.0000 59.1062 0.0000 20.4484
# 5 26.3202 10.0183 10.7653 0.0000 65.5452 0.0000
# 6 0.0000 0.0000 0.0000 20.4484 0.0000 50.5172
#
#
#
# Elastic Compliance Matrix: (Units=1/GPa)
#
#
# Indices 1 2 3 4 5 6 
#
# 1 0.011128 -0.003965 -0.003120 0.000000 -0.003350 0.000000
# 2 -0.003965 0.014373 -0.007683 0.000000 0.000657 0.000000
# 3 -0.003120 -0.007683 0.015892 0.000000 -0.000183 0.000000
# 4 0.000000 0.000000 0.000000 0.019674 0.000000 -0.007964
# 5 -0.003350 0.000657 -0.000183 0.000000 0.016532 0.000000
# 6 0.000000 0.000000 0.000000 -0.007964 0.000000 0.023019
#
#
# Mechanical properties :
#
#
# Convention : Reuss Voigt Hill
#
# Bulk Modulus (GPa) = 84.33914 88.98667 86.66290
# Shear Modulus (GPa) = 37.28392 46.55889 41.92141
#
# Velocity S-wave (km/s) = 4.07627 4.55516 4.32235
# Velocity P-wave (km/s) = 7.72925 8.20511 7.97073
#
# Compressibility (1/GPa) = 0.01185689
#
# Stress axis : x y z
#
# Youngs Moduli (GPa) = 89.86230 69.57364 62.92501
#
# Poissons Ratio (x) = 0.27589 0.19631
# Poissons Ratio (y) = 0.35634 0.48346
# Poissons Ratio (z) = 0.28034 0.53454
#
# Static dielectric constant tensor:
#      x y z
#    x 1.835560 0.000000 -0.019510 
#    y 0.000000 1.863780 0.000000 
#    z -0.019510 0.000000 1.825110 
# 
# From -- ./inp_files/6950.got.cif
#   From: 2010.05.17/outbox.cif.g08.bks.cpg/sg12_4_cif.got.tgz:6950.got - 2010.06.03 13:09:07.
