data_PCOD9215560
_publ_section_title
;
Structure prediction by ZEFSAII (Michael W. Deem and Ramdas Pophale) SiO2 
 PCOD9215560
Probable space group: C 2/M
;
_chemical_formula_sum "Si O2"
_cell_formula_units_Z 44
_cell_length_a 9.010751
_cell_length_b 22.000825
_cell_length_c 14.156482
_cell_angle_alpha 90.000000
_cell_angle_beta 129.658076
_cell_angle_gamma 90.000000
_cell_volume 2160.582507
_symmetry_space_group_name_H-M "C 2/M"
_symmetry_group_IT_number 12
_symmetry_cell_setting 'monoclinic'
loop_
_space_group_symop_operation_xyz
x,y,z
-x,y,-z
-x,-y,-z
x,-y,z
1/2+x,1/2+y,z
1/2-x,1/2+y,-z
1/2-x,1/2-y,-z
1/2+x,1/2-y,z
loop_
_atom_site_type_symbol
_atom_site_label
_atom_site_fract_x
_atom_site_fract_y
_atom_site_fract_z
Si Si1 0.806000 0.390170 0.980482
Si Si2 0.610409 0.625055 0.251230
Si Si3 0.791960 0.198523 0.899433
Si Si4 0.737221 0.500000 0.093753
Si Si5 0.000000 0.231556 0.500000
Si Si6 0.899951 0.745732 0.662971
Si Si7 0.829265 0.500000 0.352661
O O1 0.613902 0.393558 0.839542
O O2 0.772139 0.330655 0.028782
O O3 0.800300 0.442962 0.056466
O O4 0.000000 0.391105 0.000000
O O5 0.666057 0.648635 0.167273
O O6 0.645644 0.684045 0.330501
O O7 0.723345 0.564623 0.325494
O O8 0.605407 0.235149 0.793486
O O9 0.000000 0.229161 0.000000
O O10 0.833418 0.500000 0.237312
O O11 0.500000 0.500000 0.000000
O O12 0.058750 0.266150 0.429767
O O13 0.212128 0.205212 0.614053
O O14 0.000000 0.500000 0.500000
#
# Coordination Sequence:
#
# PCOD9215560 Si02
#       7
#     8   8   8   4   4   8   4
#     4  11  23  37  69 104 135 175 224 286 356 405
#     4  11  23  43  67  97 136 176 226 283 341 416
#     4  10  22  41  67  99 136 179 219 283 351 410
#     4  12  19  46  71  93 135 179 235 282 341 415
#     4  10  24  40  62  88 128 194 226 270 334 418
#     4  11  23  42  64  94 136 177 233 279 339 412
#     4  12  26  42  74 100 126 184 232 282 330 418
#
# _framework density 20.364878999999998
#
# number of rings (size 3 to 8) (size 9 to 14) (size 15 to 20)
#    0.000    1.091    5.455    0.818    3.818    3.636 
#    0.000    0.000    0.000    1.636    0.000    0.000 
#    0.000    0.000    0.000    0.000    0.000    0.000 
#
# Total GULP energy -122513.776538 kJ/mol
# GULP energy per Si atom -5568.808024 kJ/mol
# Density = 2.031853 g / cm^3
# Si number density = 20.364879 Si / 1000 Ang^3
#
#
#
# Elastic Constant Matrix: (Units=GPa)
#
#
# Indices 1 2 3 4 5 6 
#
# 1 176.9943 44.0152 72.2709 0.0000 22.3882 0.0000
# 2 44.0152 81.2971 53.5039 0.0000 14.9912 0.0000
# 3 72.2709 53.5039 165.1966 0.0000 21.2269 0.0000
# 4 0.0000 0.0000 0.0000 9.3191 0.0000 4.4194
# 5 22.3882 14.9912 21.2269 0.0000 34.0340 0.0000
# 6 0.0000 0.0000 0.0000 4.4194 0.0000 23.2547
#
#
#
# Elastic Compliance Matrix: (Units=1/GPa)
#
#
# Indices 1 2 3 4 5 6 
#
# 1 0.007402 -0.002059 -0.002242 0.000000 -0.002564 0.000000
# 2 -0.002059 0.016737 -0.004073 0.000000 -0.003477 0.000000
# 3 -0.002242 -0.004073 0.008624 0.000000 -0.002110 0.000000
# 4 0.000000 0.000000 0.000000 0.117936 0.000000 -0.022413
# 5 -0.002564 -0.003477 -0.002110 0.000000 0.033917 0.000000
# 6 0.000000 0.000000 0.000000 -0.022413 0.000000 0.047262
#
#
# Mechanical properties :
#
#
# Convention : Reuss Voigt Hill
#
# Bulk Modulus (GPa) = 62.44068 84.78534 73.61301
# Shear Modulus (GPa) = 19.68781 30.23475 24.96128
#
# Velocity S-wave (km/s) = 3.11264 3.85730 3.50480
# Velocity P-wave (km/s) = 6.60648 7.84613 7.25284
#
# Compressibility (1/GPa) = 0.01601520
#
# Stress axis : x y z
#
# Youngs Moduli (GPa) = 135.10534 59.74649 115.94876
#
# Poissons Ratio (x) = 0.12303 0.25993
# Poissons Ratio (y) = 0.27821 0.47228
# Poissons Ratio (z) = 0.30287 0.24336
#
# Static dielectric constant tensor:
#      x y z
#    x 1.738230 0.000000 0.053190 
#    y 0.000000 1.768470 0.000000 
#    z 0.053190 0.000000 1.860160 
# 
# From -- ./inp_files/198627.got.cif
#   From: 2010.05.17/outbox.cif.g08.bks.cpg/sg12_100_cif.got.tgz:198627.got - 2010.06.03 13:09:07.
