data_PCOD9215086
_publ_section_title
;
Structure prediction by ZEFSAII (Michael W. Deem and Ramdas Pophale) SiO2 
 PCOD9215086
Probable space group: C 2/M
;
_chemical_formula_sum "Si O2"
_cell_formula_units_Z 52
_cell_length_a 20.981194
_cell_length_b 18.881906
_cell_length_c 15.001697
_cell_angle_alpha 90.000000
_cell_angle_beta 25.919865
_cell_angle_gamma 90.000000
_cell_volume 2597.830350
_symmetry_space_group_name_H-M "C 2/M"
_symmetry_group_IT_number 12
_symmetry_cell_setting 'monoclinic'
loop_
_space_group_symop_operation_xyz
x,y,z
-x,y,-z
-x,-y,-z
x,-y,z
1/2+x,1/2+y,z
1/2-x,1/2+y,-z
1/2-x,1/2-y,-z
1/2+x,1/2-y,z
loop_
_atom_site_type_symbol
_atom_site_label
_atom_site_fract_x
_atom_site_fract_y
_atom_site_fract_z
Si Si1 0.080545 0.630881 0.305451
Si Si2 0.338817 0.283183 0.066929
Si Si3 0.259340 0.624019 0.835849
Si Si4 0.962786 0.081911 0.416915
Si Si5 0.858927 0.839214 0.385861
Si Si6 0.308380 0.799371 0.560433
Si Si7 0.372115 0.000000 0.888751
O O1 0.225462 0.673762 0.148158
O O2 0.111542 0.562210 0.208570
O O3 0.000000 0.612995 0.500000
O O4 0.968635 0.681438 0.392980
O O5 0.314408 0.199852 0.082150
O O6 0.295586 0.300870 0.223049
O O7 0.500095 0.307146 0.840188
O O8 0.338343 0.601064 0.644570
O O9 0.395057 0.627163 0.735281
O O10 0.155143 0.562722 0.001680
O O11 0.907602 0.096884 0.387368
O O12 0.008126 0.000000 0.370610
O O13 0.742437 0.851784 0.454553
O O14 0.803818 0.778301 0.522589
#
# Coordination Sequence:
#
# PCOD9215086 Si02
#       7
#     8   8   8   8   8   8   4
#     4  10  23  40  63  89 124 162 207 263 313 369
#     4  11  22  39  67  96 121 159 218 264 313 364
#     4  11  21  35  62  93 127 159 205 266 310 373
#     4  11  21  38  58  92 133 168 198 253 320 378
#     4  11  22  38  65  89 127 165 205 254 315 371
#     4  10  22  41  60  92 125 163 205 261 309 373
#     4  12  21  37  58  91 122 158 205 254 322 371
#
# _framework density 20.016703
#
# number of rings (size 3 to 8) (size 9 to 14) (size 15 to 20)
#    0.000    1.231    3.077    3.923    4.308    1.846 
#    1.385    0.000    0.000    1.846    0.000    0.000 
#    0.000    0.000    0.000    0.000    0.000    0.000 
#
# Total GULP energy -144817.029161 kJ/mol
# GULP energy per Si atom -5569.885737 kJ/mol
# Density = 1.997114 g / cm^3
# Si number density = 20.016703 Si / 1000 Ang^3
#
#
#
# Elastic Constant Matrix: (Units=GPa)
#
#
# Indices 1 2 3 4 5 6 
#
# 1 87.9492 0.1249 23.8852 -0.0003 11.9674 0.0003
# 2 0.1249 60.1732 -4.6015 -0.0002 15.9698 0.0003
# 3 23.8852 -4.6015 40.9062 0.0001 9.3946 0.0001
# 4 -0.0003 -0.0002 0.0001 20.2091 0.0002 12.4304
# 5 11.9674 15.9698 9.3946 0.0002 23.1912 -0.0001
# 6 0.0003 0.0003 0.0001 12.4304 -0.0001 25.0632
#
#
#
# Elastic Compliance Matrix: (Units=1/GPa)
#
#
# Indices 1 2 3 4 5 6 
#
# 1 0.013913 0.000739 -0.006919 0.000001 -0.004885 0.000000
# 2 0.000739 0.021839 0.006138 0.000001 -0.017906 -0.000001
# 3 -0.006919 0.006138 0.032335 0.000000 -0.013755 0.000000
# 4 0.000001 0.000001 0.000000 0.071204 -0.000002 -0.035315
# 5 -0.004885 -0.017906 -0.013755 -0.000002 0.063543 0.000002
# 6 0.000000 -0.000001 0.000000 -0.035315 0.000002 0.057414
#
#
# Mechanical properties :
#
#
# Convention : Reuss Voigt Hill
#
# Bulk Modulus (GPa) = 14.70539 25.31620 20.01079
# Shear Modulus (GPa) = 17.66780 25.00070 21.33425
#
# Velocity S-wave (km/s) = 2.97417 3.53794 3.26824
# Velocity P-wave (km/s) = 4.37684 5.41889 4.92550
#
# Compressibility (1/GPa) = 0.06800229
#
# Stress axis : x y z
#
# Youngs Moduli (GPa) = 71.87581 45.79027 30.92577
#
# Poissons Ratio (x) = -0.03382 0.21397
# Poissons Ratio (y) = -0.05309 -0.18981
# Poissons Ratio (z) = 0.49729 -0.28105
#
# Static dielectric constant tensor:
#      x y z
#    x 1.792660 0.000000 -0.012960 
#    y 0.000000 1.670700 0.000000 
#    z -0.012960 0.000000 1.723220 
# 
# From -- ./inp_files/234437.got.cif
#   From: 2010.05.17/outbox.cif.g08.bks.cpg/sg12_118_cif.got.tgz:234437.got - 2010.06.03 13:09:07.
