data_PCOD9215413
_publ_section_title
;
Structure prediction by ZEFSAII (Michael W. Deem and Ramdas Pophale) SiO2 
 PCOD9215413
Probable space group: C 2/M
;
_chemical_formula_sum "Si O2"
_cell_formula_units_Z 48
_cell_length_a 9.752741
_cell_length_b 27.713798
_cell_length_c 15.892342
_cell_angle_alpha 90.000000
_cell_angle_beta 148.796426
_cell_angle_gamma 90.000000
_cell_volume 2225.398408
_symmetry_space_group_name_H-M "C 2/M"
_symmetry_group_IT_number 12
_symmetry_cell_setting 'monoclinic'
loop_
_space_group_symop_operation_xyz
x,y,z
-x,y,-z
-x,-y,-z
x,-y,z
1/2+x,1/2+y,z
1/2-x,1/2+y,-z
1/2-x,1/2-y,-z
1/2+x,1/2-y,z
loop_
_atom_site_type_symbol
_atom_site_label
_atom_site_fract_x
_atom_site_fract_y
_atom_site_fract_z
Si Si1 0.567825 0.054608 0.437950
Si Si2 0.634051 0.552903 0.661198
Si Si3 0.313755 0.320220 0.669777
Si Si4 0.765746 0.862574 0.822890
Si Si5 0.547178 0.778254 0.830373
Si Si6 0.211859 0.647768 0.185953
O O1 0.500000 0.063562 0.500000
O O2 0.443227 0.096655 0.314893
O O3 0.882851 0.052938 0.591450
O O4 0.471831 0.000000 0.365761
O O5 0.500000 0.559539 0.500000
O O6 0.762474 0.500000 0.730607
O O7 0.816593 0.597359 0.780701
O O8 0.383579 0.340560 0.798615
O O9 0.395029 0.264593 0.704301
O O10 0.493704 0.347243 0.696538
O O11 0.000000 0.325433 0.500000
O O12 0.663433 0.816970 0.824782
O O13 0.000000 0.885604 0.000000
O O14 0.349974 0.808410 0.785055
O O15 0.750000 0.750000 0.000000
O O16 0.000000 0.650437 0.000000
#
# Coordination Sequence:
#
# PCOD9215413 Si02
#       6
#     8   8   8   8   8   8
#     4  10  22  42  67  96 135 176 218 278 342 399
#     4  10  22  41  65  95 131 169 216 275 333 394
#     4  12  27  43  66  99 133 175 231 280 330 398
#     4  12  23  40  68  95 134 178 224 283 330 407
#     4  12  25  44  64  94 134 178 222 276 345 386
#     4  12  24  42  70  95 132 177 219 275 332 402
#
# _framework density 21.56917
#
# number of rings (size 3 to 8) (size 9 to 14) (size 15 to 20)
#    0.000    0.667    3.333    4.500    0.000    5.333 
#    0.000    0.000    0.000   10.000    0.000    0.000 
#    0.000    0.000    0.000    0.000    0.000    0.000 
#
# Total GULP energy -134192.364876 kJ/mol
# GULP energy per Si atom -5591.348536 kJ/mol
# Density = 2.152008 g / cm^3
# Si number density = 21.569170 Si / 1000 Ang^3
#
#
#
# Elastic Constant Matrix: (Units=GPa)
#
#
# Indices 1 2 3 4 5 6 
#
# 1 89.3907 17.1569 -5.3722 0.0000 -4.4238 0.0000
# 2 17.1569 166.8076 32.5688 0.0000 -9.1545 0.0000
# 3 -5.3722 32.5688 38.3194 0.0000 1.4278 0.0000
# 4 0.0000 0.0000 0.0000 27.7283 0.0000 -28.1493
# 5 -4.4238 -9.1545 1.4278 0.0000 26.3900 0.0000
# 6 0.0000 0.0000 0.0000 -28.1493 0.0000 29.0311
#
#
#
# Elastic Compliance Matrix: (Units=1/GPa)
#
#
# Indices 1 2 3 4 5 6 
#
# 1 0.011767 -0.001748 0.003091 0.000000 0.001199 0.000000
# 2 -0.001748 0.007665 -0.006861 0.000000 0.002737 0.000000
# 3 0.003091 -0.006861 0.032496 0.000000 -0.003620 0.000000
# 4 0.000000 0.000000 0.000000 2.303952 0.000001 2.233968
# 5 0.001199 0.002737 -0.003620 0.000001 0.039239 0.000001
# 6 0.000000 0.000000 0.000000 2.233968 0.000001 2.200556
#
#
# Mechanical properties :
#
#
# Convention : Reuss Voigt Hill
#
# Bulk Modulus (GPa) = 24.45525 42.58053 33.51789
# Shear Modulus (GPa) = 1.08217 33.30749 17.19483
#
# Velocity S-wave (km/s) = 0.70909 3.93392 2.82653
# Velocity P-wave (km/s) = 3.46887 6.35756 5.12111
#
# Compressibility (1/GPa) = 0.04089101
#
# Stress axis : x y z
#
# Youngs Moduli (GPa) = 84.98035 130.46984 30.77267
#
# Poissons Ratio (x) = 0.22806 -0.09511
# Poissons Ratio (y) = 0.14854 0.21114
# Poissons Ratio (z) = -0.26265 0.89521
#
# Static dielectric constant tensor:
#      x y z
#    x 2.075490 0.000000 0.280080 
#    y 0.000000 1.800730 0.000000 
#    z 0.280080 0.000000 2.071880 
# 
# From -- ./inp_files/200235.got.cif
#   From: 2010.05.17/outbox.cif.g08.bks.cpg/sg12_101_cif.got.tgz:200235.got - 2010.06.03 13:09:07.
