data_PCOD9215379
_publ_section_title
;
Structure prediction by ZEFSAII (Michael W. Deem and Ramdas Pophale) SiO2 
 PCOD9215379
Probable space group: C 2/M
;
_chemical_formula_sum "Si O2"
_cell_formula_units_Z 40
_cell_length_a 24.371741
_cell_length_b 8.275637
_cell_length_c 8.504994
_cell_angle_alpha 90.000000
_cell_angle_beta 96.528119
_cell_angle_gamma 90.000000
_cell_volume 1704.264283
_symmetry_space_group_name_H-M "C 2/M"
_symmetry_group_IT_number 12
_symmetry_cell_setting 'monoclinic'
loop_
_space_group_symop_operation_xyz
x,y,z
-x,y,-z
-x,-y,-z
x,-y,z
1/2+x,1/2+y,z
1/2-x,1/2+y,-z
1/2-x,1/2-y,-z
1/2+x,1/2-y,z
loop_
_atom_site_type_symbol
_atom_site_label
_atom_site_fract_x
_atom_site_fract_y
_atom_site_fract_z
Si Si1 0.577745 0.818175 0.940378
Si Si2 0.112117 0.806415 0.278170
Si Si3 0.561879 0.683194 0.586469
Si Si4 0.192791 0.185155 0.913619
Si Si5 0.241573 0.193068 0.323839
O O1 0.558545 0.749674 0.764192
O O2 0.643343 0.801589 0.936558
O O3 0.558563 0.000000 0.944543
O O4 0.573420 0.743085 0.115883
O O5 0.095481 0.741781 0.447497
O O6 0.176934 0.769791 0.263148
O O7 0.107457 0.000000 0.286821
O O8 0.500000 0.679737 0.500000
O O9 0.583101 0.500000 0.614374
O O10 0.209489 0.204912 0.740272
O O11 0.180401 0.000000 0.953031
O O12 0.250000 0.250000 0.000000
O O13 0.250000 0.250000 0.500000
O O14 0.249465 0.000000 0.301862
#
# Coordination Sequence:
#
# PCOD9215379 Si02
#       5
#     8   8   8   8   8
#     4  12  25  41  66  97 132 173 216 267 328 390
#     4  10  22  41  65  92 126 170 218 267 322 386
#     4  10  23  45  71  97 127 167 218 275 332 389
#     4  12  23  38  60  89 127 166 210 257 310 380
#     4  11  22  36  58  89 127 171 215 263 315 376
#
# _framework density 23.470537
#
# number of rings (size 3 to 8) (size 9 to 14) (size 15 to 20)
#    0.000    1.000    2.000    5.400    0.000    4.400 
#    0.000    4.000    0.000    0.000    0.000    0.000 
#    0.000    0.000    0.000    0.000    0.000    0.000 
#
# Total GULP energy -111459.828806 kJ/mol
# GULP energy per Si atom -5572.991440 kJ/mol
# Density = 2.341712 g / cm^3
# Si number density = 23.470537 Si / 1000 Ang^3
#
#
#
# Elastic Constant Matrix: (Units=GPa)
#
#
# Indices 1 2 3 4 5 6 
#
# 1 66.0689 13.1976 18.6529 0.0000 -10.8986 0.0000
# 2 13.1976 75.3592 32.1720 0.0000 4.0314 0.0000
# 3 18.6529 32.1720 178.1856 0.0000 14.6273 0.0000
# 4 0.0000 0.0000 0.0000 35.4134 0.0000 -1.9745
# 5 -10.8986 4.0314 14.6273 0.0000 45.4349 0.0000
# 6 0.0000 0.0000 0.0000 -1.9745 0.0000 7.2559
#
#
#
# Elastic Compliance Matrix: (Units=1/GPa)
#
#
# Indices 1 2 3 4 5 6 
#
# 1 0.016915 -0.002487 -0.001718 0.000000 0.004831 0.000000
# 2 -0.002487 0.014753 -0.002308 0.000000 -0.001163 0.000000
# 3 -0.001718 -0.002308 0.006395 0.000000 -0.002266 0.000000
# 4 0.000000 0.000000 0.000000 0.028673 0.000000 0.007803
# 5 0.004831 -0.001163 -0.002266 0.000000 0.024001 0.000000
# 6 0.000000 0.000000 0.000000 0.007803 0.000000 0.139943
#
#
# Mechanical properties :
#
#
# Convention : Reuss Voigt Hill
#
# Bulk Modulus (GPa) = 39.94304 49.73986 44.84145
# Shear Modulus (GPa) = 19.83727 34.66023 27.24875
#
# Velocity S-wave (km/s) = 2.91038 3.84703 3.41101
# Velocity P-wave (km/s) = 5.32439 6.40088 5.88729
#
# Compressibility (1/GPa) = 0.02503565
#
# Stress axis : x y z
#
# Youngs Moduli (GPa) = 59.12068 67.78371 156.37927
#
# Poissons Ratio (x) = 0.16859 0.26869
# Poissons Ratio (y) = 0.14704 0.36090
# Poissons Ratio (z) = 0.10158 0.15644
#
# Static dielectric constant tensor:
#      x y z
#    x 1.866620 0.000000 0.068550 
#    y 0.000000 1.741830 0.000000 
#    z 0.068550 0.000000 1.681190 
# 
# From -- ./inp_files/101213.got.cif
#   From: 2010.05.17/outbox.cif.g08.bks.cpg/sg12_51_cif.got.tgz:101213.got - 2010.06.03 13:09:07.
