data_PCOD9215786
_publ_section_title
;
Structure prediction by ZEFSAII (Michael W. Deem and Ramdas Pophale) SiO2 
 PCOD9215786
Probable space group: C 2/M
;
_chemical_formula_sum "Si O2"
_cell_formula_units_Z 64
_cell_length_a 12.178275
_cell_length_b 13.590130
_cell_length_c 29.853443
_cell_angle_alpha 90.000000
_cell_angle_beta 141.728830
_cell_angle_gamma 90.000000
_cell_volume 3060.298895
_symmetry_space_group_name_H-M "C 2/M"
_symmetry_group_IT_number 12
_symmetry_cell_setting 'monoclinic'
loop_
_space_group_symop_operation_xyz
x,y,z
-x,y,-z
-x,-y,-z
x,-y,z
1/2+x,1/2+y,z
1/2-x,1/2+y,-z
1/2-x,1/2-y,-z
1/2+x,1/2-y,z
loop_
_atom_site_type_symbol
_atom_site_label
_atom_site_fract_x
_atom_site_fract_y
_atom_site_fract_z
Si Si1 0.213017 0.887260 0.035870
Si Si2 0.686597 0.205999 0.082505
Si Si3 0.874111 0.612251 0.845519
Si Si4 0.982843 0.882769 0.114152
Si Si5 0.354762 0.116717 0.492859
Si Si6 0.306437 0.116972 0.719506
Si Si7 0.601034 0.882962 0.740060
Si Si8 0.982122 0.254924 0.617272
O O1 0.197007 0.820790 0.074090
O O2 0.413801 0.884339 0.083126
O O3 0.171997 0.000000 0.032805
O O4 0.093037 0.846049 0.957522
O O5 0.699307 0.177055 0.138024
O O6 0.854765 0.160478 0.110702
O O7 0.500000 0.169961 0.000000
O O8 0.814631 0.500000 0.834119
O O9 0.833107 0.636608 0.780955
O O10 0.189748 0.864146 0.187022
O O11 0.957454 0.000000 0.105289
O O12 0.500000 0.126351 0.500000
O O13 0.178397 0.178865 0.425030
O O14 0.428214 0.167782 0.561482
O O15 0.318658 0.000000 0.487454
O O16 0.482178 0.134869 0.746306
O O17 0.148074 0.188549 0.654468
O O18 0.264146 0.000000 0.701336
O O19 0.530179 0.815882 0.677098
O O20 0.582162 0.000000 0.723613
#
# Coordination Sequence:
#
# PCOD9215786 Si02
#       8
#     8   8   8   8   8   8   8   8
#     4  10  23  42  61  88 124 167 219 274 341 398
#     4  12  24  38  67  92 122 162 224 284 338 399
#     4  10  23  43  64  89 125 169 216 274 339 397
#     4  10  22  42  65  93 127 168 218 279 344 395
#     4  10  22  42  68 103 144 177 209 255 310 373
#     4  10  23  43  65  94 132 173 219 271 329 388
#     4  10  23  44  67  94 133 174 219 273 324 386
#     4  11  22  40  71 103 133 175 221 259 308 378
#
# _framework density 20.912989
#
# number of rings (size 3 to 8) (size 9 to 14) (size 15 to 20)
#    0.000    1.625    1.250    2.250    1.750    2.750 
#    2.250    2.500    0.000    6.750    0.000    0.000 
#    0.000    0.000    0.000    0.000    0.000    0.000 
#
# Total GULP energy -179060.947317 kJ/mol
# GULP energy per Si atom -5595.654604 kJ/mol
# Density = 2.086539 g / cm^3
# Si number density = 20.912989 Si / 1000 Ang^3
#
#
#
# Elastic Constant Matrix: (Units=GPa)
#
#
# Indices 1 2 3 4 5 6 
#
# 1 140.4136 70.0631 41.1934 0.0000 6.2871 0.0000
# 2 70.0631 131.8374 60.6347 0.0000 -1.7112 0.0000
# 3 41.1934 60.6347 102.3437 0.0000 7.7038 0.0000
# 4 0.0000 0.0000 0.0000 32.6419 0.0000 -3.1471
# 5 6.2871 -1.7112 7.7038 0.0000 33.5349 0.0000
# 6 0.0000 0.0000 0.0000 -3.1471 0.0000 31.8738
#
#
#
# Elastic Compliance Matrix: (Units=1/GPa)
#
#
# Indices 1 2 3 4 5 6 
#
# 1 0.009908 -0.004839 -0.000979 0.000000 -0.001880 0.000000
# 2 -0.004839 0.012921 -0.005928 0.000000 0.002928 0.000000
# 3 -0.000979 -0.005928 0.013927 0.000000 -0.003318 0.000000
# 4 0.000000 0.000000 0.000000 0.030930 0.000000 0.003054
# 5 -0.001880 0.002928 -0.003318 0.000000 0.031084 0.000000
# 6 0.000000 0.000000 0.000000 0.003054 0.000000 0.031675
#
#
# Mechanical properties :
#
#
# Convention : Reuss Voigt Hill
#
# Bulk Modulus (GPa) = 75.39794 79.81969 77.60881
# Shear Modulus (GPa) = 31.57363 33.12368 32.34865
#
# Velocity S-wave (km/s) = 3.88978 3.98412 3.93723
# Velocity P-wave (km/s) = 7.50368 7.70809 7.60657
#
# Compressibility (1/GPa) = 0.01326296
#
# Stress axis : x y z
#
# Youngs Moduli (GPa) = 100.92782 77.39110 71.80282
#
# Poissons Ratio (x) = 0.37453 0.07032
# Poissons Ratio (y) = 0.48844 0.42564
# Poissons Ratio (z) = 0.09884 0.45877
#
# Static dielectric constant tensor:
#      x y z
#    x 1.737720 0.000000 0.009370 
#    y 0.000000 1.773560 0.000000 
#    z 0.009370 0.000000 1.739540 
# 
# From -- ./inp_files/358468.got.cif
#   From: 2010.05.17/outbox.cif.g08.bks.cpg/sg12_180_cif.got.tgz:358468.got - 2010.06.03 13:09:07.
