data_PCOD9215553
_publ_section_title
;
Structure prediction by ZEFSAII (Michael W. Deem and Ramdas Pophale) SiO2 
 PCOD9215553
Probable space group: C 2/M
;
_chemical_formula_sum "Si O2"
_cell_formula_units_Z 64
_cell_length_a 9.816189
_cell_length_b 17.685994
_cell_length_c 30.527873
_cell_angle_alpha 90.000000
_cell_angle_beta 36.386500
_cell_angle_gamma 90.000000
_cell_volume 3144.064644
_symmetry_space_group_name_H-M "C 2/M"
_symmetry_group_IT_number 12
_symmetry_cell_setting 'monoclinic'
loop_
_space_group_symop_operation_xyz
x,y,z
-x,y,-z
-x,-y,-z
x,-y,z
1/2+x,1/2+y,z
1/2-x,1/2+y,-z
1/2-x,1/2-y,-z
1/2+x,1/2-y,z
loop_
_atom_site_type_symbol
_atom_site_label
_atom_site_fract_x
_atom_site_fract_y
_atom_site_fract_z
Si Si1 0.866180 0.087863 0.691721
Si Si2 0.561936 0.324655 0.411963
Si Si3 0.824935 0.087908 0.309706
Si Si4 0.877922 0.152217 0.843077
Si Si5 0.894232 0.410566 0.940202
Si Si6 0.076173 0.328558 0.158783
Si Si7 0.878235 0.323507 0.412204
Si Si8 0.557415 0.414257 0.883426
O O1 0.895741 0.109029 0.633533
O O2 0.672692 0.141304 0.762667
O O3 0.098318 0.099630 0.659822
O O4 0.799072 0.000000 0.714334
O O5 0.772418 0.313542 0.391161
O O6 0.336678 0.337848 0.499960
O O7 0.507441 0.250893 0.396791
O O8 0.565261 0.110863 0.367157
O O9 0.990821 0.137214 0.236201
O O10 0.865318 0.000000 0.289030
O O11 0.613830 0.128852 0.905339
O O12 0.909261 0.238785 0.849063
O O13 0.989899 0.099913 0.851038
O O14 0.941944 0.500000 0.921473
O O15 0.856193 0.370217 0.903671
O O16 0.671026 0.403792 0.028306
O O17 0.252494 0.355847 0.150131
O O18 0.640780 0.500000 0.868598
#
# Coordination Sequence:
#
# PCOD9215553 Si02
#       8
#     8   8   8   8   8   8   8   8
#     4  11  24  42  65  91 128 176 220 267 328 396
#     4  10  22  41  67  98 133 171 213 266 325 386
#     4  11  24  42  65  91 128 176 220 267 328 396
#     4  12  25  41  65  95 128 168 217 273 325 386
#     4  11  23  45  67  87 128 175 212 261 331 401
#     4  12  25  41  65  95 128 168 217 273 325 386
#     4  10  22  41  67  98 133 171 213 266 325 386
#     4  11  25  41  65  97 126 165 216 269 329 393
#
# _framework density 20.355816999999998
#
# number of rings (size 3 to 8) (size 9 to 14) (size 15 to 20)
#    0.000    1.000    1.250    5.250    1.750    7.500 
#    0.000    2.500    0.000    0.000    0.000    0.000 
#    0.000    0.000    0.000    0.000    0.000    0.000 
#
# Total GULP energy -179021.541316 kJ/mol
# GULP energy per Si atom -5594.423166 kJ/mol
# Density = 2.030949 g / cm^3
# Si number density = 20.355817 Si / 1000 Ang^3
#
#
#
# Elastic Constant Matrix: (Units=GPa)
#
#
# Indices 1 2 3 4 5 6 
#
# 1 130.5348 18.7663 29.2092 0.0007 -0.7523 0.0036
# 2 18.7663 95.6947 24.7031 0.0064 -3.0909 0.0044
# 3 29.2092 24.7031 30.9331 0.0048 2.0470 0.0064
# 4 0.0007 0.0064 0.0048 18.7744 0.0004 -4.7043
# 5 -0.7523 -3.0909 2.0470 0.0004 26.8692 -0.0009
# 6 0.0036 0.0044 0.0064 -4.7043 -0.0009 35.2820
#
#
#
# Elastic Compliance Matrix: (Units=1/GPa)
#
#
# Indices 1 2 3 4 5 6 
#
# 1 0.009771 0.000655 -0.009822 0.000002 0.001097 0.000001
# 2 0.000655 0.013354 -0.011443 -0.000002 0.002426 0.000000
# 3 -0.009822 -0.011443 0.051104 -0.000011 -0.005485 -0.000008
# 4 0.000002 -0.000002 -0.000011 0.055105 0.000000 0.007347
# 5 0.001097 0.002426 -0.005485 0.000000 0.037945 0.000002
# 6 0.000001 0.000000 -0.000008 0.007347 0.000002 0.029323
#
#
# Mechanical properties :
#
#
# Convention : Reuss Voigt Hill
#
# Bulk Modulus (GPa) = 30.29571 44.72443 37.51007
# Shear Modulus (GPa) = 20.09450 28.48405 24.28927
#
# Velocity S-wave (km/s) = 3.14532 3.74479 3.45807
# Velocity P-wave (km/s) = 5.30152 6.38098 5.86614
#
# Compressibility (1/GPa) = 0.03300797
#
# Stress axis : x y z
#
# Youngs Moduli (GPa) = 102.34623 74.88460 19.56803
#
# Poissons Ratio (x) = -0.04903 0.19219
# Poissons Ratio (y) = -0.06701 0.22392
# Poissons Ratio (z) = 1.00522 0.85692
#
# Static dielectric constant tensor:
#      x y z
#    x 1.710600 0.000000 0.002760 
#    y 0.000000 1.690890 0.000000 
#    z 0.002760 0.000000 1.693930 
# 
# From -- ./inp_files/372893.got.cif
#   From: 2010.05.17/outbox.cif.g08.bks.cpg/sg12_187_cif.got.tgz:372893.got - 2010.06.03 13:09:07.
