data_PCOD9215714
_publ_section_title
;
Structure prediction by ZEFSAII (Michael W. Deem and Ramdas Pophale) SiO2 
 PCOD9215714
Probable space group: C 2/M
;
_chemical_formula_sum "Si O2"
_cell_formula_units_Z 36
_cell_length_a 8.253407
_cell_length_b 18.589251
_cell_length_c 14.498884
_cell_angle_alpha 90.000000
_cell_angle_beta 45.498804
_cell_angle_gamma 90.000000
_cell_volume 1586.583282
_symmetry_space_group_name_H-M "C 2/M"
_symmetry_group_IT_number 12
_symmetry_cell_setting 'monoclinic'
loop_
_space_group_symop_operation_xyz
x,y,z
-x,y,-z
-x,-y,-z
x,-y,z
1/2+x,1/2+y,z
1/2-x,1/2+y,-z
1/2-x,1/2-y,-z
1/2+x,1/2-y,z
loop_
_atom_site_type_symbol
_atom_site_label
_atom_site_fract_x
_atom_site_fract_y
_atom_site_fract_z
Si Si1 0.962795 0.605792 0.908458
Si Si2 0.000000 0.118846 0.000000
Si Si3 0.765005 0.580803 0.373077
Si Si4 0.030697 0.727216 0.642075
Si Si5 0.555755 0.265313 0.819862
O O1 0.172470 0.582553 0.760292
O O2 0.959139 0.693065 0.903684
O O3 0.729569 0.581780 0.948587
O O4 0.000000 0.584960 0.000000
O O5 0.941453 0.169631 0.110739
O O6 0.500000 0.595198 0.500000
O O7 0.815327 0.500000 0.387721
O O8 0.921463 0.644073 0.351324
O O9 0.250000 0.750000 0.500000
O O10 0.930515 0.770754 0.771803
O O11 0.805208 0.738940 0.672758
#
# Coordination Sequence:
#
# PCOD9215714 Si02
#       5
#     8   4   8   8   8
#     4  11  22  37  63  97 128 167 215 261 323 387
#     4  12  20  36  57  96 133 166 200 272 330 382
#     4  10  22  42  64  86 124 172 215 263 323 388
#     4  11  21  35  60  94 119 158 211 267 322 380
#     4  11  19  34  56  86 128 156 198 261 323 375
#
# _framework density 22.690268
#
# number of rings (size 3 to 8) (size 9 to 14) (size 15 to 20)
#    0.000    1.111    5.556    5.333    0.000    0.444 
#    0.000    0.556    0.000    2.667    0.000    0.000 
#    0.000    0.000    0.000    0.000    0.000    0.000 
#
# Total GULP energy -100287.800794 kJ/mol
# GULP energy per Si atom -5571.544489 kJ/mol
# Density = 2.263862 g / cm^3
# Si number density = 22.690268 Si / 1000 Ang^3
#
#
#
# Elastic Constant Matrix: (Units=GPa)
#
#
# Indices 1 2 3 4 5 6 
#
# 1 94.7253 26.3891 55.5747 0.0006 4.1569 -0.0003
# 2 26.3891 92.9614 14.3281 0.0001 7.9727 -0.0001
# 3 55.5747 14.3281 149.8455 0.0021 0.2017 -0.0013
# 4 0.0006 0.0001 0.0021 -270.8435 -0.0009 161.3410
# 5 4.1569 7.9727 0.2017 -0.0009 48.2172 0.0005
# 6 -0.0003 -0.0001 -0.0013 161.3410 0.0005 -97.4493
#
#
#
# Elastic Compliance Matrix: (Units=1/GPa)
#
#
# Indices 1 2 3 4 5 6 
#
# 1 0.014460 -0.003268 -0.005049 0.000000 -0.000685 0.000000
# 2 -0.003268 0.011815 0.000084 0.000000 -0.001672 0.000000
# 3 -0.005049 0.000084 0.008538 0.000000 0.000386 0.000000
# 4 0.000000 0.000000 0.000000 -0.268753 0.000000 -0.444958
# 5 -0.000685 -0.001672 0.000386 0.000000 0.021073 0.000000
# 6 0.000000 0.000000 0.000000 -0.444958 0.000000 -0.746952
#
#
# Mechanical properties :
#
#
# Convention : Reuss Voigt Hill
#
# Bulk Modulus (GPa) = 54.50435 58.90176 56.70306
# Shear Modulus (GPa) = -5.33483 -47.93245 -26.63364
#
# Velocity S-wave (km/s) = -1.53501 -4.60114 -3.42978
# Velocity P-wave (km/s) = 4.57510 1.48727 3.05937
#
# Compressibility (1/GPa) = 0.01834716
#
# Stress axis : x y z
#
# Youngs Moduli (GPa) = 69.15764 84.63700 117.12764
#
# Poissons Ratio (x) = 0.27657 0.59143
# Poissons Ratio (y) = 0.22598 -0.00989
# Poissons Ratio (z) = 0.34921 -0.00714
#
# Static dielectric constant tensor:
#      x y z
#    x 1.866820 0.000000 -0.042740 
#    y 0.000000 1.900380 0.000000 
#    z -0.042740 0.000000 1.867780 
# 
# From -- ./inp_files/119734.got.cif
#   From: 2010.05.17/outbox.cif.g08.bks.cpg/sg12_60_cif.got.tgz:119734.got - 2010.06.03 13:09:07.
