data_PCOD9215317
_publ_section_title
;
Structure prediction by ZEFSAII (Michael W. Deem and Ramdas Pophale) SiO2 
 PCOD9215317
Probable space group: C 2/M
;
_chemical_formula_sum "Si O2"
_cell_formula_units_Z 48
_cell_length_a 29.282242
_cell_length_b 8.916015
_cell_length_c 14.708813
_cell_angle_alpha 90.000000
_cell_angle_beta 38.236648
_cell_angle_gamma 90.000000
_cell_volume 2376.735711
_symmetry_space_group_name_H-M "C 2/M"
_symmetry_group_IT_number 12
_symmetry_cell_setting 'monoclinic'
loop_
_space_group_symop_operation_xyz
x,y,z
-x,y,-z
-x,-y,-z
x,-y,z
1/2+x,1/2+y,z
1/2-x,1/2+y,-z
1/2-x,1/2-y,-z
1/2+x,1/2-y,z
loop_
_atom_site_type_symbol
_atom_site_label
_atom_site_fract_x
_atom_site_fract_y
_atom_site_fract_z
Si Si1 0.775282 0.180635 0.864745
Si Si2 0.427591 0.821523 0.552307
Si Si3 0.841635 0.675549 0.111235
Si Si4 0.491425 0.824529 0.120218
Si Si5 0.751642 0.822805 0.398627
Si Si6 0.397757 0.322623 0.416422
O O1 0.853792 0.248481 0.710549
O O2 0.711767 0.214306 0.889000
O O3 0.781254 0.000000 0.861786
O O4 0.750000 0.250000 0.000000
O O5 0.500000 0.798070 0.500000
O O6 0.441200 0.746705 0.433152
O O7 0.415760 0.000000 0.560739
O O8 0.828668 0.500000 0.154242
O O9 0.821228 0.773251 0.230635
O O10 0.928467 0.691594 0.958258
O O11 0.434559 0.723657 0.263923
O O12 0.468513 0.000000 0.162395
O O13 0.500000 0.789977 0.000000
O O14 0.750000 0.750000 0.500000
O O15 0.681953 0.754123 0.455166
O O16 0.746263 0.000000 0.414403
O O17 0.390979 0.500000 0.435286
#
# Coordination Sequence:
#
# PCOD9215317 Si02
#       6
#     8   8   8   8   8   8
#     4  11  24  42  66  96 132 169 214 267 323 387
#     4  11  25  45  69  96 128 168 217 270 327 389
#     4  10  22  41  64  93 129 168 213 266 320 380
#     4  10  22  41  65  93 129 173 216 261 318 380
#     4  12  24  40  66  95 128 169 214 264 321 382
#     4  12  25  42  65  96 133 169 214 267 321 386
#
# _framework density 20.195767
#
# number of rings (size 3 to 8) (size 9 to 14) (size 15 to 20)
#    0.000    1.000    1.667    5.000    2.333    4.333 
#    0.000    0.000    0.000    0.000    0.000    0.000 
#    0.000    0.000    0.000    0.000    0.000    0.000 
#
# Total GULP energy -134266.200698 kJ/mol
# GULP energy per Si atom -5594.425029 kJ/mol
# Density = 2.014980 g / cm^3
# Si number density = 20.195767 Si / 1000 Ang^3
#
#
#
# Elastic Constant Matrix: (Units=GPa)
#
#
# Indices 1 2 3 4 5 6 
#
# 1 72.9228 32.6271 11.9132 0.0000 5.3473 0.0000
# 2 32.6271 92.1815 30.7086 0.0003 4.0281 0.0000
# 3 11.9132 30.7086 62.9248 0.0002 7.8732 0.0000
# 4 0.0000 0.0003 0.0002 35.6027 0.0000 5.9871
# 5 5.3473 4.0281 7.8732 0.0000 34.6925 0.0000
# 6 0.0000 0.0000 0.0000 5.9871 0.0000 26.8822
#
#
#
# Elastic Compliance Matrix: (Units=1/GPa)
#
#
# Indices 1 2 3 4 5 6 
#
# 1 0.016413 -0.005697 -0.000096 0.000000 -0.001847 0.000000
# 2 -0.005697 0.014931 -0.006280 0.000000 0.000569 0.000000
# 3 -0.000096 -0.006280 0.019434 0.000000 -0.003666 0.000000
# 4 0.000000 0.000000 0.000000 0.029181 0.000000 -0.006499
# 5 -0.001847 0.000569 -0.003666 0.000000 0.029875 0.000000
# 6 0.000000 0.000000 0.000000 -0.006499 0.000000 0.038647
#
#
# Mechanical properties :
#
#
# Convention : Reuss Voigt Hill
#
# Bulk Modulus (GPa) = 37.54728 42.05854 39.80291
# Shear Modulus (GPa) = 27.54774 29.62085 28.58429
#
# Velocity S-wave (km/s) = 3.69729 3.83389 3.76621
# Velocity P-wave (km/s) = 6.07113 6.36152 6.21802
#
# Compressibility (1/GPa) = 0.02663309
#
# Stress axis : x y z
#
# Youngs Moduli (GPa) = 60.92727 66.97266 51.45746
#
# Poissons Ratio (x) = 0.38151 0.00496
# Poissons Ratio (y) = 0.34707 0.32313
# Poissons Ratio (z) = 0.00587 0.42056
#
# Static dielectric constant tensor:
#      x y z
#    x 1.717920 0.000000 0.021640 
#    y 0.000000 1.676750 0.000000 
#    z 0.021640 0.000000 1.660730 
# 
# From -- ./inp_files/244622.got.cif
#   From: 2010.05.17/outbox.cif.g08.bks.cpg/sg12_123_cif.got.tgz:244622.got - 2010.06.03 13:09:07.
