data_PCOD9215731
_publ_section_title
;
Structure prediction by ZEFSAII (Michael W. Deem and Ramdas Pophale) SiO2 
 PCOD9215731
Probable space group: C 2/M
;
_chemical_formula_sum "Si O2"
_cell_formula_units_Z 52
_cell_length_a 16.744882
_cell_length_b 20.333485
_cell_length_c 7.898490
_cell_angle_alpha 90.000000
_cell_angle_beta 54.035459
_cell_angle_gamma 90.000000
_cell_volume 2176.660908
_symmetry_space_group_name_H-M "C 2/M"
_symmetry_group_IT_number 12
_symmetry_cell_setting 'monoclinic'
loop_
_space_group_symop_operation_xyz
x,y,z
-x,y,-z
-x,-y,-z
x,-y,z
1/2+x,1/2+y,z
1/2-x,1/2+y,-z
1/2-x,1/2-y,-z
1/2+x,1/2-y,z
loop_
_atom_site_type_symbol
_atom_site_label
_atom_site_fract_x
_atom_site_fract_y
_atom_site_fract_z
Si Si1 0.000000 0.873074 0.000000
Si Si2 0.629384 0.261071 0.966740
Si Si3 0.691648 0.320726 0.246259
Si Si4 0.190688 0.426050 0.477741
Si Si5 0.678381 0.926678 0.099740
Si Si6 0.505820 0.160094 0.686345
Si Si7 0.606102 0.426297 0.566753
O O1 0.090763 0.822954 0.911520
O O2 0.979735 0.916727 0.188839
O O3 0.653139 0.285485 0.126999
O O4 0.543099 0.208665 0.117241
O O5 0.730088 0.229698 0.767182
O O6 0.609123 0.360190 0.450919
O O7 0.761431 0.378698 0.092153
O O8 0.147566 0.500000 0.557635
O O9 0.214972 0.422053 0.247482
O O10 0.288950 0.423060 0.465746
O O11 0.112205 0.367910 0.604797
O O12 0.566116 0.902718 0.238447
O O13 0.687872 0.000000 0.025774
O O14 0.500000 0.188374 0.500000
O O15 0.598750 0.500000 0.498616
#
# Coordination Sequence:
#
# PCOD9215731 Si02
#       7
#     4   8   8   8   8   8   8
#     4  12  27  44  64  92 129 164 216 264 320 374
#     4  10  24  41  61  93 128 168 208 258 313 379
#     4  10  22  42  64  90 126 165 214 258 314 378
#     4   9  18  34  59  92 125 163 207 256 314 371
#     4   9  16  32  58  88 123 162 205 258 314 370
#     4   9  18  32  58  88 126 161 207 253 309 376
#     4  11  25  44  67  92 124 165 216 270 317 371
#
# _framework density 23.889800999999999
#
# number of rings (size 3 to 8) (size 9 to 14) (size 15 to 20)
#    0.000    2.154    0.000    2.077    4.308    3.692 
#    0.000    3.077    0.000    4.615    0.000    0.000 
#    0.000    0.000    0.000    0.000    0.000    0.000 
#
# Total GULP energy -145346.187797 kJ/mol
# GULP energy per Si atom -5590.237992 kJ/mol
# Density = 2.383543 g / cm^3
# Si number density = 23.889801 Si / 1000 Ang^3
#
#
#
# Elastic Constant Matrix: (Units=GPa)
#
#
# Indices 1 2 3 4 5 6 
#
# 1 56.2912 19.9663 -7.9409 0.0000 5.7787 0.0000
# 2 19.9663 91.7572 23.9239 0.0000 -2.1521 0.0000
# 3 -7.9409 23.9239 59.7773 0.0000 -3.3776 0.0000
# 4 0.0000 0.0000 0.0000 26.5121 0.0000 1.5679
# 5 5.7787 -2.1521 -3.3776 0.0000 12.3007 0.0000
# 6 0.0000 0.0000 0.0000 1.5679 0.0000 9.9105
#
#
#
# Elastic Compliance Matrix: (Units=1/GPa)
#
#
# Indices 1 2 3 4 5 6 
#
# 1 0.021660 -0.006197 0.004796 0.000000 -0.009943 0.000000
# 2 -0.006197 0.013949 -0.006200 0.000000 0.003649 0.000000
# 3 0.004796 -0.006200 0.019968 0.000000 0.002146 0.000000
# 4 0.000000 0.000000 0.000000 0.038075 0.000000 -0.006024
# 5 -0.009943 0.003649 0.002146 0.000000 0.087195 0.000000
# 6 0.000000 0.000000 0.000000 -0.006024 0.000000 0.101857
#
#
# Mechanical properties :
#
#
# Convention : Reuss Voigt Hill
#
# Bulk Modulus (GPa) = 24.76749 31.08047 27.92398
# Shear Modulus (GPa) = 16.05843 21.20308 18.63076
#
# Velocity S-wave (km/s) = 2.59547 2.98239 2.79563
# Velocity P-wave (km/s) = 4.40135 4.98976 4.70476
#
# Compressibility (1/GPa) = 0.04037551
#
# Stress axis : x y z
#
# Youngs Moduli (GPa) = 46.16823 71.69121 50.07965
#
# Poissons Ratio (x) = 0.44425 -0.24016
# Poissons Ratio (y) = 0.28609 0.31047
# Poissons Ratio (z) = -0.22140 0.44445
#
# Static dielectric constant tensor:
#      x y z
#    x 1.930290 0.000000 0.014170 
#    y 0.000000 1.941140 0.000000 
#    z 0.014170 0.000000 1.936000 
# 
# From -- ./inp_files/77938.got.cif
#   From: 2010.05.17/outbox.cif.g08.bks.cpg/sg12_39_cif.got.tgz:77938.got - 2010.06.03 13:09:07.
