data_PCOD9215160
_publ_section_title
;
Structure prediction by ZEFSAII (Michael W. Deem and Ramdas Pophale) SiO2 
 PCOD9215160
Probable space group: C 2/M
;
_chemical_formula_sum "Si O2"
_cell_formula_units_Z 36
_cell_length_a 11.810285
_cell_length_b 26.782913
_cell_length_c 9.512077
_cell_angle_alpha 90.000000
_cell_angle_beta 141.116624
_cell_angle_gamma 90.000000
_cell_volume 1888.736754
_symmetry_space_group_name_H-M "C 2/M"
_symmetry_group_IT_number 12
_symmetry_cell_setting 'monoclinic'
loop_
_space_group_symop_operation_xyz
x,y,z
-x,y,-z
-x,-y,-z
x,-y,z
1/2+x,1/2+y,z
1/2-x,1/2+y,-z
1/2-x,1/2-y,-z
1/2+x,1/2-y,z
loop_
_atom_site_type_symbol
_atom_site_label
_atom_site_fract_x
_atom_site_fract_y
_atom_site_fract_z
Si Si1 0.318419 0.802107 0.899578
Si Si2 0.216988 0.412265 0.215300
Si Si3 0.000000 0.870593 0.000000
Si Si4 0.339317 0.195133 0.243810
Si Si5 0.015914 0.942646 0.282385
O O1 0.255008 0.852253 0.761822
O O2 0.186748 0.755073 0.773678
O O3 0.500000 0.784698 0.000000
O O4 0.364759 0.816689 0.104407
O O5 0.332282 0.433123 0.194939
O O6 0.317173 0.433362 0.449452
O O7 0.000000 0.421494 0.000000
O O8 0.166595 0.834514 0.129865
O O9 0.027081 0.905247 0.162644
O O10 0.500000 0.180251 0.500000
O O11 0.018177 0.000000 0.237982
#
# Coordination Sequence:
#
# PCOD9215160 Si02
#       5
#     8   8   4   8   8
#     4  10  22  41  62  98 128 169 212 252 312 383
#     4  10  22  41  67  97 126 160 213 265 317 377
#     4  12  25  44  60  96 132 170 211 266 312 386
#     4  11  25  40  63  94 135 172 209 254 318 382
#     4  11  25  43  67  91 124 171 218 269 321 365
#
# _framework density 19.060359999999999
#
# number of rings (size 3 to 8) (size 9 to 14) (size 15 to 20)
#    0.000    1.333    3.333    1.667    9.333    2.667 
#    0.000    0.000    0.000    4.000    0.000    0.000 
#    0.000    0.000    0.000    0.000    0.000    0.000 
#
# Total GULP energy -100529.786601 kJ/mol
# GULP energy per Si atom -5584.988144 kJ/mol
# Density = 1.901698 g / cm^3
# Si number density = 19.060360 Si / 1000 Ang^3
#
#
#
# Elastic Constant Matrix: (Units=GPa)
#
#
# Indices 1 2 3 4 5 6 
#
# 1 113.6542 9.4677 70.6373 0.0000 -3.8153 0.0000
# 2 9.4677 80.9110 29.4520 0.0000 -1.5145 0.0000
# 3 70.6373 29.4520 109.8106 0.0000 3.9339 0.0000
# 4 0.0000 0.0000 0.0000 -36.3718 0.0000 5.8250
# 5 -3.8153 -1.5145 3.9339 0.0000 25.5180 0.0000
# 6 0.0000 0.0000 0.0000 5.8250 0.0000 16.8486
#
#
#
# Elastic Compliance Matrix: (Units=1/GPa)
#
#
# Indices 1 2 3 4 5 6 
#
# 1 0.015332 0.002133 -0.010580 0.000000 0.004050 0.000000
# 2 0.002133 0.014042 -0.005208 0.000000 0.001955 0.000000
# 3 -0.010580 -0.005208 0.017473 0.000000 -0.004585 0.000000
# 4 0.000000 0.000000 0.000000 -0.026051 0.000000 0.009007
# 5 0.004050 0.001955 -0.004585 0.000000 0.040616 0.000000
# 6 0.000000 0.000000 0.000000 0.009007 0.000000 0.056238
#
#
# Mechanical properties :
#
#
# Convention : Reuss Voigt Hill
#
# Bulk Modulus (GPa) = 51.18412 58.16556 54.67484
# Shear Modulus (GPa) = 33.00885 14.18687 23.59786
#
# Velocity S-wave (km/s) = 4.16601 2.73117 3.52242
# Velocity P-wave (km/s) = 7.07481 6.36620 6.72983
#
# Compressibility (1/GPa) = 0.01953731
#
# Stress axis : x y z
#
# Youngs Moduli (GPa) = 65.22098 71.21441 57.22961
#
# Poissons Ratio (x) = -0.15189 0.60549
# Poissons Ratio (y) = -0.13911 0.29807
# Poissons Ratio (z) = 0.69004 0.37090
#
# Static dielectric constant tensor:
#      x y z
#    x 1.647180 0.000000 0.003920 
#    y 0.000000 1.655100 0.000000 
#    z 0.003920 0.000000 1.646070 
# 
# From -- ./inp_files/52942.got.cif
#   From: 2010.05.17/outbox.cif.g08.bks.cpg/sg12_27_cif.got.tgz:52942.got - 2010.06.03 13:09:07.
