data_PCOD9215202
_publ_section_title
;
Structure prediction by ZEFSAII (Michael W. Deem and Ramdas Pophale) SiO2 
 PCOD9215202
Probable space group: C 2/M
;
_chemical_formula_sum "Si O2"
_cell_formula_units_Z 40
_cell_length_a 18.719179
_cell_length_b 10.720794
_cell_length_c 18.180497
_cell_angle_alpha 90.000000
_cell_angle_beta 149.062854
_cell_angle_gamma 90.000000
_cell_volume 1875.706766
_symmetry_space_group_name_H-M "C 2/M"
_symmetry_group_IT_number 12
_symmetry_cell_setting 'monoclinic'
loop_
_space_group_symop_operation_xyz
x,y,z
-x,y,-z
-x,-y,-z
x,-y,z
1/2+x,1/2+y,z
1/2-x,1/2+y,-z
1/2-x,1/2-y,-z
1/2+x,1/2-y,z
loop_
_atom_site_type_symbol
_atom_site_label
_atom_site_fract_x
_atom_site_fract_y
_atom_site_fract_z
Si Si1 0.362381 0.641215 0.328598
Si Si2 0.402788 0.643877 0.065803
Si Si3 0.907983 0.727913 0.225185
Si Si4 0.201707 0.365816 0.505939
Si Si5 0.167348 0.856897 0.215361
O O1 0.500000 0.660314 0.500000
O O2 0.311937 0.500000 0.297482
O O3 0.401396 0.659635 0.277689
O O4 0.251208 0.748788 0.248589
O O5 0.429451 0.500000 0.107669
O O6 0.433721 0.725962 0.164954
O O7 0.506154 0.673691 0.090035
O O8 0.241485 0.662566 0.905850
O O9 0.035395 0.643370 0.362783
O O10 0.242422 0.500000 0.509091
O O11 0.250000 0.250000 0.500000
O O12 0.264983 0.358885 0.643007
O O13 0.179199 0.000000 0.196133
#
# Coordination Sequence:
#
# PCOD9215202 Si02
#       5
#     8   8   8   8   8
#     4  11  24  41  64  95 128 165 205 258 316 367
#     4  10  22  41  63  89 124 165 207 254 311 371
#     4  11  22  40  63  93 125 162 210 256 309 371
#     4  11  22  37  62  94 125 163 210 260 309 363
#     4  10  22  41  63  91 125 165 207 254 309 371
#
# _framework density 21.325294
#
# number of rings (size 3 to 8) (size 9 to 14) (size 15 to 20)
#    0.000    1.400    4.000    1.200    0.000    4.400 
#    0.000    5.000    0.000    0.000    0.000    0.000 
#    0.000    0.000    0.000    0.000    0.000    0.000 
#
# Total GULP energy -111788.944861 kJ/mol
# GULP energy per Si atom -5589.447243 kJ/mol
# Density = 2.127676 g / cm^3
# Si number density = 21.325294 Si / 1000 Ang^3
#
#
#
# Elastic Constant Matrix: (Units=GPa)
#
#
# Indices 1 2 3 4 5 6 
#
# 1 86.0312 56.1881 15.6571 0.0000 9.4368 0.0000
# 2 56.1881 142.0640 11.7377 0.0000 17.5415 0.0000
# 3 15.6571 11.7377 87.6370 -0.0001 22.4283 0.0000
# 4 0.0000 0.0000 -0.0001 9.8295 0.0000 3.7557
# 5 9.4368 17.5415 22.4283 0.0000 30.7050 0.0000
# 6 0.0000 0.0000 0.0000 3.7557 0.0000 38.4182
#
#
#
# Elastic Compliance Matrix: (Units=1/GPa)
#
#
# Indices 1 2 3 4 5 6 
#
# 1 0.016024 -0.006181 -0.002064 0.000000 0.000114 0.000000
# 2 -0.006181 0.009959 0.000911 0.000000 -0.004455 0.000000
# 3 -0.002064 0.000911 0.014302 0.000000 -0.010333 0.000000
# 4 0.000000 0.000000 0.000000 0.105682 0.000000 -0.010331
# 5 0.000114 -0.004455 -0.010333 0.000000 0.042625 0.000000
# 6 0.000000 0.000000 0.000000 -0.010331 0.000000 0.027039
#
#
# Mechanical properties :
#
#
# Convention : Reuss Voigt Hill
#
# Bulk Modulus (GPa) = 39.04002 53.65534 46.34768
# Shear Modulus (GPa) = 20.93468 31.26716 26.10092
#
# Velocity S-wave (km/s) = 3.13658 3.83325 3.50228
# Velocity P-wave (km/s) = 5.60929 6.69379 6.17539
#
# Compressibility (1/GPa) = 0.02561474
#
# Stress axis : x y z
#
# Youngs Moduli (GPa) = 62.40705 100.41541 69.92098
#
# Poissons Ratio (x) = 0.62069 0.14433
# Poissons Ratio (y) = 0.38575 -0.06367
# Poissons Ratio (z) = 0.12882 -0.09143
#
# Static dielectric constant tensor:
#      x y z
#    x 1.780800 0.000000 0.010580 
#    y 0.000000 1.750500 0.000000 
#    z 0.010580 0.000000 1.792130 
# 
# From -- ./inp_files/277225.got.cif
#   From: 2010.05.17/outbox.cif.g08.bks.cpg/sg12_139_cif.got.tgz:277225.got - 2010.06.03 13:09:07.
