data_PCOD9215763
_publ_section_title
;
Structure prediction by ZEFSAII (Michael W. Deem and Ramdas Pophale) SiO2 
 PCOD9215763
Probable space group: C 2/M
;
_chemical_formula_sum "Si O2"
_cell_formula_units_Z 60
_cell_length_a 16.693368
_cell_length_b 24.906856
_cell_length_c 11.417759
_cell_angle_alpha 90.000000
_cell_angle_beta 45.628594
_cell_angle_gamma 90.000000
_cell_volume 3393.450482
_symmetry_space_group_name_H-M "C 2/M"
_symmetry_group_IT_number 12
_symmetry_cell_setting 'monoclinic'
loop_
_space_group_symop_operation_xyz
x,y,z
-x,y,-z
-x,-y,-z
x,-y,z
1/2+x,1/2+y,z
1/2-x,1/2+y,-z
1/2-x,1/2-y,-z
1/2+x,1/2-y,z
loop_
_atom_site_type_symbol
_atom_site_label
_atom_site_fract_x
_atom_site_fract_y
_atom_site_fract_z
Si Si1 0.831315 0.364513 0.418824
Si Si2 0.000000 0.262832 0.000000
Si Si3 0.427015 0.678212 0.752250
Si Si4 0.756043 0.143478 0.107913
Si Si5 0.065454 0.300949 0.160498
Si Si6 0.872017 0.436173 0.594334
Si Si7 0.211196 0.216669 0.706155
Si Si8 0.172699 0.169531 0.402760
O O1 0.852200 0.415008 0.482145
O O2 0.746901 0.327166 0.577673
O O3 0.768795 0.369504 0.357952
O O4 0.945387 0.329912 0.296299
O O5 0.080023 0.229072 0.834990
O O6 0.920623 0.294745 0.993600
O O7 0.424435 0.742048 0.789188
O O8 0.554114 0.662749 0.590379
O O9 0.356048 0.667982 0.705731
O O10 0.369678 0.644538 0.915874
O O11 0.657753 0.160769 0.121072
O O12 0.713903 0.093193 0.228319
O O13 0.766572 0.191672 0.189997
O O14 0.861053 0.500000 0.612549
O O15 0.000000 0.421040 0.500000
O O16 0.281416 0.270517 0.619017
#
# Coordination Sequence:
#
# PCOD9215763 Si02
#       8
#     8   4   8   8   8   8   8   8
#     4  11  22  34  55  80 112 150 193 234 283 331
#     4  12  22  28  46  78 124 154 192 220 266 328
#     4  11  22  34  52  77 124 161 196 217 268 345
#     4  11  22  35  54  81 111 154 192 235 277 331
#     4  12  20  32  48  80 117 159 187 227 269 343
#     4  10  22  42  65  85 107 141 191 248 299 335
#     4  11  20  31  47  75 113 157 190 224 268 329
#     4  11  21  34  50  78 117 160 188 223 271 347
#
# _framework density 17.681118000000001
#
# number of rings (size 3 to 8) (size 9 to 14) (size 15 to 20)
#    0.000    0.933    6.667    2.400    0.000    0.000 
#    0.000    0.000    0.000    2.400    0.000    4.667 
#    0.000    0.000    0.000    0.000    0.000    0.000 
#
# Total GULP energy -167354.414942 kJ/mol
# GULP energy per Si atom -5578.480498 kJ/mol
# Density = 1.764088 g / cm^3
# Si number density = 17.681118 Si / 1000 Ang^3
#
#
#
# Elastic Constant Matrix: (Units=GPa)
#
#
# Indices 1 2 3 4 5 6 
#
# 1 112.2667 21.3266 19.9758 0.0000 5.6797 0.0000
# 2 21.3266 57.3037 26.8822 0.0000 -1.3004 0.0000
# 3 19.9758 26.8822 96.5261 0.0000 -5.1657 0.0000
# 4 0.0000 0.0000 0.0000 16.0518 0.0000 0.1048
# 5 5.6797 -1.3004 -5.1657 0.0000 28.9170 0.0000
# 6 0.0000 0.0000 0.0000 0.1048 0.0000 16.3081
#
#
#
# Elastic Compliance Matrix: (Units=1/GPa)
#
#
# Indices 1 2 3 4 5 6 
#
# 1 0.009845 -0.003109 -0.001295 0.000000 -0.002305 0.000000
# 2 -0.003109 0.021055 -0.005187 0.000000 0.000631 0.000000
# 3 -0.001295 -0.005187 0.012190 0.000000 0.002199 0.000000
# 4 0.000000 0.000000 0.000000 0.062301 0.000000 -0.000400
# 5 -0.002305 0.000631 0.002199 0.000000 0.035456 0.000000
# 6 0.000000 0.000000 0.000000 -0.000400 0.000000 0.061322
#
#
# Mechanical properties :
#
#
# Convention : Reuss Voigt Hill
#
# Bulk Modulus (GPa) = 41.82455 44.71843 43.27149
# Shear Modulus (GPa) = 21.80364 25.44949 23.62657
#
# Velocity S-wave (km/s) = 3.51545 3.79801 3.65945
# Velocity P-wave (km/s) = 6.33909 6.67680 6.51014
#
# Compressibility (1/GPa) = 0.02390940
#
# Stress axis : x y z
#
# Youngs Moduli (GPa) = 101.57510 47.49381 82.03422
#
# Poissons Ratio (x) = 0.14765 0.10623
# Poissons Ratio (y) = 0.31578 0.42549
# Poissons Ratio (z) = 0.13153 0.24634
#
# Static dielectric constant tensor:
#      x y z
#    x 1.702240 0.000000 0.006190 
#    y 0.000000 1.562660 0.000000 
#    z 0.006190 0.000000 1.678480 
# 
# From -- ./inp_files/149300.got.cif
#   From: 2010.05.17/outbox.cif.g08.bks.cpg/sg12_75_cif.got.tgz:149300.got - 2010.06.03 13:09:07.
