data_PCOD9215270
_publ_section_title
;
Structure prediction by ZEFSAII (Michael W. Deem and Ramdas Pophale) SiO2 
 PCOD9215270
Probable space group: C 2/M
;
_chemical_formula_sum "Si O2"
_cell_formula_units_Z 40
_cell_length_a 18.140366
_cell_length_b 8.848236
_cell_length_c 26.063095
_cell_angle_alpha 90.000000
_cell_angle_beta 30.059551
_cell_angle_gamma 90.000000
_cell_volume 2095.461207
_symmetry_space_group_name_H-M "C 2/M"
_symmetry_group_IT_number 12
_symmetry_cell_setting 'monoclinic'
loop_
_space_group_symop_operation_xyz
x,y,z
-x,y,-z
-x,-y,-z
x,-y,z
1/2+x,1/2+y,z
1/2-x,1/2+y,-z
1/2-x,1/2-y,-z
1/2+x,1/2-y,z
loop_
_atom_site_type_symbol
_atom_site_label
_atom_site_fract_x
_atom_site_fract_y
_atom_site_fract_z
Si Si1 0.335756 0.819783 0.696962
Si Si2 0.839478 0.180242 0.493333
Si Si3 0.163170 0.680231 0.704880
Si Si4 0.338360 0.680939 0.899127
Si Si5 0.827267 0.319185 0.107664
O O1 0.499979 0.753438 0.600021
O O2 0.251306 0.752779 0.698821
O O3 0.249923 0.767605 0.799569
O O4 0.340780 0.000000 0.690896
O O5 0.750000 0.250000 0.500000
O O6 0.750662 0.207901 0.599398
O O7 0.853968 0.000000 0.477761
O O8 0.152537 0.500000 0.719075
O O9 0.001060 0.750141 0.799376
O O10 0.346585 0.500000 0.899640
O O11 0.252780 0.714630 0.897804
O O12 0.250000 0.750000 0.000000
O O13 0.814751 0.500000 0.124576
O O14 0.000000 0.282364 0.000000
#
# Coordination Sequence:
#
# PCOD9215270 Si02
#       5
#     8   8   8   8   8
#     4  12  25  40  63  93 124 160 203 253 306 362
#     4  11  24  42  65  92 124 162 203 250 303 360
#     4  11  24  42  63  88 122 163 206 253 305 360
#     4  11  23  39  63  93 125 162 203 250 303 362
#     4  10  22  41  64  90 123 163 204 249 304 363
#
# _framework density 19.088877
#
# number of rings (size 3 to 8) (size 9 to 14) (size 15 to 20)
#    0.000    1.000    0.000    6.600    0.000   12.400 
#    0.000    0.000    0.000    0.000    0.000    0.000 
#    0.000    0.000    0.000    0.000    0.000    0.000 
#
# Total GULP energy -111969.374201 kJ/mol
# GULP energy per Si atom -5598.468710 kJ/mol
# Density = 1.904543 g / cm^3
# Si number density = 19.088877 Si / 1000 Ang^3
#
#
#
# Elastic Constant Matrix: (Units=GPa)
#
#
# Indices 1 2 3 4 5 6 
#
# 1 223.0533 123.9482 135.6559 0.0000 -11.1604 0.0000
# 2 123.9482 132.2303 126.1917 0.0000 9.6409 -0.0001
# 3 135.6559 126.1917 192.3449 0.0000 -12.6181 0.0000
# 4 0.0000 0.0000 0.0000 36.3832 0.0000 -3.5998
# 5 -11.1604 9.6409 -12.6181 0.0000 43.3413 0.0000
# 6 0.0000 -0.0001 0.0000 -3.5998 0.0000 34.9032
#
#
#
# Elastic Compliance Matrix: (Units=1/GPa)
#
#
# Indices 1 2 3 4 5 6 
#
# 1 0.010364 -0.008883 -0.001200 0.000000 0.004295 0.000000
# 2 -0.008883 0.031488 -0.015295 0.000000 -0.013744 0.000000
# 3 -0.001200 -0.015295 0.016600 0.000000 0.007926 0.000000
# 4 0.000000 0.000000 0.000000 0.027769 0.000000 0.002864
# 5 0.004295 -0.013744 0.007926 0.000000 0.029544 0.000000
# 6 0.000000 0.000000 0.000000 0.002864 0.000000 0.028946
#
#
# Mechanical properties :
#
#
# Convention : Reuss Voigt Hill
#
# Bulk Modulus (GPa) = 129.93736 146.58001 138.25869
# Shear Modulus (GPa) = 25.24866 33.71438 29.48152
#
# Velocity S-wave (km/s) = 3.64083 4.20715 3.93419
# Velocity P-wave (km/s) = 9.26777 10.02771 9.65522
#
# Compressibility (1/GPa) = 0.00769602
#
# Stress axis : x y z
#
# Youngs Moduli (GPa) = 96.48697 31.75840 60.24256
#
# Poissons Ratio (x) = 0.28211 0.07228
# Poissons Ratio (y) = 0.85711 0.92140
# Poissons Ratio (z) = 0.11576 0.48574
#
# Static dielectric constant tensor:
#      x y z
#    x 1.623680 0.000000 0.002920 
#    y 0.000000 1.635630 0.000000 
#    z 0.002920 0.000000 1.622280 
# 
# From -- ./inp_files/151614.got.cif
#   From: 2010.05.17/outbox.cif.g08.bks.cpg/sg12_76_cif.got.tgz:151614.got - 2010.06.03 13:09:07.
