data_PCOD9215911
_publ_section_title
;
Structure prediction by ZEFSAII (Michael W. Deem and Ramdas Pophale) SiO2 
 PCOD9215911
Probable space group: C 2/M
;
_chemical_formula_sum "Si O2"
_cell_formula_units_Z 40
_cell_length_a 8.359712
_cell_length_b 14.234500
_cell_length_c 25.069397
_cell_angle_alpha 90.000000
_cell_angle_beta 146.176377
_cell_angle_gamma 90.000000
_cell_volume 1660.544100
_symmetry_space_group_name_H-M "C 2/M"
_symmetry_group_IT_number 12
_symmetry_cell_setting 'monoclinic'
loop_
_space_group_symop_operation_xyz
x,y,z
-x,y,-z
-x,-y,-z
x,-y,z
1/2+x,1/2+y,z
1/2-x,1/2+y,-z
1/2-x,1/2-y,-z
1/2+x,1/2-y,z
loop_
_atom_site_type_symbol
_atom_site_label
_atom_site_fract_x
_atom_site_fract_y
_atom_site_fract_z
Si Si1 0.731879 0.354364 0.017706
Si Si2 0.383314 0.395712 0.821281
Si Si3 0.266061 0.112772 0.638187
Si Si4 0.668297 0.288012 0.403993
Si Si5 0.386940 0.389400 0.225301
O O1 0.042519 0.383076 0.124782
O O2 0.500000 0.364617 0.000000
O O3 0.750000 0.250000 0.000000
O O4 0.612337 0.402007 0.931298
O O5 0.332833 0.500000 0.786486
O O6 0.500360 0.347442 0.800337
O O7 0.066257 0.370129 0.753447
O O8 0.329916 0.173974 0.602465
O O9 0.014049 0.167780 0.598575
O O10 0.212010 0.000000 0.617698
O O11 0.522414 0.330942 0.310700
O O12 0.000000 0.317405 0.500000
O O13 0.452148 0.500000 0.252791
#
# Coordination Sequence:
#
# PCOD9215911 Si02
#       5
#     8   8   8   8   8
#     4  12  24  39  63  95 135 181 231 288 353 429
#     4  10  22  42  67  98 137 178 224 282 351 428
#     4  11  25  46  73 105 143 187 238 299 366 434
#     4  12  26  47  73 104 143 188 244 303 361 426
#     4  11  24  43  69 101 140 187 239 296 360 431
#
# _framework density 24.088488999999999
#
# number of rings (size 3 to 8) (size 9 to 14) (size 15 to 20)
#    0.000    0.800    0.000    7.200    0.000    6.800 
#    0.000    3.000    0.000    0.000    0.000    0.000 
#    0.000    0.000    0.000    0.000    0.000    0.000 
#
# Total GULP energy -111738.809906 kJ/mol
# GULP energy per Si atom -5586.940495 kJ/mol
# Density = 2.403366 g / cm^3
# Si number density = 24.088489 Si / 1000 Ang^3
#
#
#
# Elastic Constant Matrix: (Units=GPa)
#
#
# Indices 1 2 3 4 5 6 
#
# 1 138.9731 40.9913 58.4569 -0.0001 3.5161 -0.0001
# 2 40.9913 170.8184 24.3293 -0.0003 3.7078 0.0001
# 3 58.4569 24.3293 165.8258 -0.0012 8.4218 0.0007
# 4 -0.0001 -0.0003 -0.0012 11.7952 0.0008 3.2642
# 5 3.5161 3.7078 8.4218 0.0008 49.2653 0.0002
# 6 -0.0001 0.0001 0.0007 3.2642 0.0002 28.2838
#
#
#
# Elastic Compliance Matrix: (Units=1/GPa)
#
#
# Indices 1 2 3 4 5 6 
#
# 1 0.008922 -0.001729 -0.002891 0.000000 -0.000012 0.000000
# 2 -0.001729 0.006319 -0.000302 0.000000 -0.000300 0.000000
# 3 -0.002891 -0.000302 0.007144 0.000001 -0.000992 0.000000
# 4 0.000000 0.000000 0.000001 0.087578 -0.000002 -0.010107
# 5 -0.000012 -0.000300 -0.000992 -0.000002 0.020491 0.000000
# 6 0.000000 0.000000 0.000000 -0.010107 0.000000 0.036522
#
#
# Mechanical properties :
#
#
# Convention : Reuss Voigt Hill
#
# Bulk Modulus (GPa) = 79.74114 80.35246 80.04680
# Shear Modulus (GPa) = 27.62419 41.32484 34.47452
#
# Velocity S-wave (km/s) = 3.39009 4.14640 3.78717
# Velocity P-wave (km/s) = 6.96411 7.50688 7.24058
#
# Compressibility (1/GPa) = 0.01254058
#
# Stress axis : x y z
#
# Youngs Moduli (GPa) = 112.08348 158.26167 139.97279
#
# Poissons Ratio (x) = 0.27363 0.40464
# Poissons Ratio (y) = 0.19379 0.04231
# Poissons Ratio (z) = 0.32402 0.04784
#
# Static dielectric constant tensor:
#      x y z
#    x 3.030290 0.000000 -0.784770 
#    y 0.000000 1.885610 0.000000 
#    z -0.784770 0.000000 2.572700 
# 
# From -- ./inp_files/372686.got.cif
#   From: 2010.05.17/outbox.cif.g08.bks.cpg/sg12_187_cif.got.tgz:372686.got - 2010.06.03 13:09:07.
