data_PCOD9215443
_publ_section_title
;
Structure prediction by ZEFSAII (Michael W. Deem and Ramdas Pophale) SiO2 
 PCOD9215443
Probable space group: C 2/M
;
_chemical_formula_sum "Si O2"
_cell_formula_units_Z 48
_cell_length_a 19.963605
_cell_length_b 14.713212
_cell_length_c 12.428659
_cell_angle_alpha 90.000000
_cell_angle_beta 44.988635
_cell_angle_gamma 90.000000
_cell_volume 2580.890467
_symmetry_space_group_name_H-M "C 2/M"
_symmetry_group_IT_number 12
_symmetry_cell_setting 'monoclinic'
loop_
_space_group_symop_operation_xyz
x,y,z
-x,y,-z
-x,-y,-z
x,-y,z
1/2+x,1/2+y,z
1/2-x,1/2+y,-z
1/2-x,1/2-y,-z
1/2+x,1/2-y,z
loop_
_atom_site_type_symbol
_atom_site_label
_atom_site_fract_x
_atom_site_fract_y
_atom_site_fract_z
Si Si1 0.782665 0.303150 0.226457
Si Si2 0.566932 0.311456 0.818749
Si Si3 0.891157 0.305436 0.653596
Si Si4 0.518771 0.000000 0.759838
Si Si5 0.666723 0.500000 0.663962
Si Si6 0.650740 0.000000 0.397605
Si Si7 0.797867 0.500000 0.304774
Si Si8 0.582502 0.806396 0.129246
O O1 0.844222 0.250657 0.246659
O O2 0.680246 0.258489 0.330463
O O3 0.781062 0.408742 0.257415
O O4 0.838407 0.291021 0.050976
O O5 0.604271 0.409498 0.742170
O O6 0.505002 0.259970 0.799861
O O7 0.500000 0.320074 0.000000
O O8 0.867077 0.409360 0.650052
O O9 0.880683 0.291394 0.792746
O O10 0.000000 0.288661 0.500000
O O11 0.595413 0.000000 0.768936
O O12 0.456766 0.090847 0.835381
O O13 0.577901 0.000000 0.581055
O O14 0.743589 0.500000 0.673437
O O15 0.727786 0.500000 0.486063
#
# Coordination Sequence:
#
# PCOD9215443 Si02
#       8
#     8   8   8   4   4   4   4   8
#     4  11  24  43  61  93 127 166 205 249 313 365
#     4  10  22  41  66  91 123 163 207 255 305 367
#     4  12  24  41  65  91 128 161 209 256 308 364
#     4  11  20  38  65  98 122 151 207 262 314 350
#     4  11  23  39  64  93 127 158 209 253 308 367
#     4  11  22  39  62  96 119 161 199 270 311 347
#     4  11  25  37  65  95 127 161 203 257 306 369
#     4  11  23  39  67  94 125 161 205 256 307 370
#
# _framework density 18.598231999999999
#
# number of rings (size 3 to 8) (size 9 to 14) (size 15 to 20)
#    0.000    1.000    5.000    2.000    2.333    1.333 
#    0.000    1.250    0.000    0.000    0.000    0.000 
#    0.000    0.000    0.000    0.000    0.000    0.000 
#
# Total GULP energy -134239.161489 kJ/mol
# GULP energy per Si atom -5593.298395 kJ/mol
# Density = 1.855590 g / cm^3
# Si number density = 18.598232 Si / 1000 Ang^3
#
#
#
# Elastic Constant Matrix: (Units=GPa)
#
#
# Indices 1 2 3 4 5 6 
#
# 1 108.6435 44.2500 31.1061 0.0000 -8.2129 0.0000
# 2 44.2500 118.7957 19.8112 0.0000 -15.1164 0.0000
# 3 31.1061 19.8112 27.1306 0.0000 -1.6431 0.0000
# 4 0.0000 0.0000 0.0000 13.2550 0.0000 -11.1162
# 5 -8.2129 -15.1164 -1.6431 0.0000 28.1678 0.0000
# 6 0.0000 0.0000 0.0000 -11.1162 0.0000 27.7172
#
#
#
# Elastic Compliance Matrix: (Units=1/GPa)
#
#
# Indices 1 2 3 4 5 6 
#
# 1 0.014689 -0.002774 -0.014699 0.000000 0.001937 0.000000
# 2 -0.002774 0.010788 -0.004411 0.000000 0.004723 0.000000
# 3 -0.014699 -0.004411 0.056730 0.000000 -0.003344 0.000000
# 4 0.000000 0.000000 0.000000 0.113678 0.000000 0.045591
# 5 0.001937 0.004723 -0.003344 0.000000 0.038406 0.000000
# 6 0.000000 0.000000 0.000000 0.045591 0.000000 0.054363
#
#
# Mechanical properties :
#
#
# Convention : Reuss Voigt Hill
#
# Bulk Modulus (GPa) = 26.01495 49.43383 37.72439
# Shear Modulus (GPa) = 14.48294 24.45482 19.46888
#
# Velocity S-wave (km/s) = 2.79359 3.63009 3.23896
# Velocity P-wave (km/s) = 4.94204 6.64888 5.85796
#
# Compressibility (1/GPa) = 0.03843944
#
# Stress axis : x y z
#
# Youngs Moduli (GPa) = 68.07809 92.69873 17.62744
#
# Poissons Ratio (x) = 0.25713 0.25910
# Poissons Ratio (y) = 0.18883 0.07776
# Poissons Ratio (z) = 1.00066 0.40890
#
# Static dielectric constant tensor:
#      x y z
#    x 1.626010 0.000000 0.002510 
#    y 0.000000 1.597680 0.000000 
#    z 0.002510 0.000000 1.636120 
# 
# From -- ./inp_files/167604.got.cif
#   From: 2010.05.17/outbox.cif.g08.bks.cpg/sg12_84_cif.got.tgz:167604.got - 2010.06.03 13:09:07.
