data_PCOD9215686
_publ_section_title
;
Structure prediction by ZEFSAII (Michael W. Deem and Ramdas Pophale) SiO2 
 PCOD9215686
Probable space group: C 2/M
;
_chemical_formula_sum "Si O2"
_cell_formula_units_Z 64
_cell_length_a 11.835685
_cell_length_b 28.712572
_cell_length_c 18.053744
_cell_angle_alpha 90.000000
_cell_angle_beta 148.770708
_cell_angle_gamma 90.000000
_cell_volume 3180.911471
_symmetry_space_group_name_H-M "C 2/M"
_symmetry_group_IT_number 12
_symmetry_cell_setting 'monoclinic'
loop_
_space_group_symop_operation_xyz
x,y,z
-x,y,-z
-x,-y,-z
x,-y,z
1/2+x,1/2+y,z
1/2-x,1/2+y,-z
1/2-x,1/2-y,-z
1/2+x,1/2-y,z
loop_
_atom_site_type_symbol
_atom_site_label
_atom_site_fract_x
_atom_site_fract_y
_atom_site_fract_z
Si Si1 0.634198 0.102494 0.357394
Si Si2 0.219168 0.636321 0.152503
Si Si3 0.417153 0.316207 0.552823
Si Si4 0.056450 0.087567 0.851706
Si Si5 0.819138 0.446460 0.457371
Si Si6 0.484945 0.791932 0.572287
Si Si7 0.038845 0.446104 0.152988
Si Si8 0.190326 0.146488 0.162148
O O1 0.797299 0.145831 0.433911
O O2 0.694303 0.080119 0.471416
O O3 0.630454 0.068227 0.285207
O O4 0.388156 0.121240 0.230094
O O5 0.361703 0.664125 0.290228
O O6 0.361365 0.626524 0.159743
O O7 0.144428 0.588396 0.151213
O O8 0.000000 0.660100 0.000000
O O9 0.460762 0.263523 0.553419
O O10 0.232859 0.310902 0.512504
O O11 0.903029 0.056071 0.714022
O O12 0.916232 0.111051 0.838231
O O13 0.277142 0.063011 0.004104
O O14 0.876504 0.500000 0.506495
O O15 0.000000 0.428140 0.500000
O O16 0.500000 0.812937 0.500000
O O17 0.693499 0.809645 0.734177
O O18 0.083526 0.500000 0.161897
O O19 0.000000 0.160561 0.000000
#
# Coordination Sequence:
#
# PCOD9215686 Si02
#       8
#     8   8   8   8   8   8   8   8
#     4  11  22  40  65  90 132 164 204 259 314 380
#     4  10  23  40  64  87 121 171 215 252 300 368
#     4  10  22  42  62  93 124 160 204 253 320 365
#     4  11  21  41  64  89 124 168 208 259 310 368
#     4  11  22  35  59  95 126 162 210 261 310 368
#     4  10  23  39  69  95 123 157 202 259 313 390
#     4  11  25  42  61  90 128 174 217 256 304 365
#     4  11  22  40  66  97 125 159 202 254 330 374
#
# _framework density 20.120018999999999
#
# number of rings (size 3 to 8) (size 9 to 14) (size 15 to 20)
#    0.000    1.375    3.750    1.500    3.500    3.250 
#    0.000    1.250    0.000    5.250    0.000    0.000 
#    0.000    0.000    0.000    0.000    0.000    0.000 
#
# Total GULP energy -178649.986496 kJ/mol
# GULP energy per Si atom -5582.812078 kJ/mol
# Density = 2.007422 g / cm^3
# Si number density = 20.120019 Si / 1000 Ang^3
#
#
#
# Elastic Constant Matrix: (Units=GPa)
#
#
# Indices 1 2 3 4 5 6 
#
# 1 58.8068 24.4172 40.7379 0.0002 -9.5644 -0.0005
# 2 24.4172 64.3808 33.1210 0.0000 6.2004 0.0004
# 3 40.7379 33.1210 132.2125 0.0000 -3.8775 -0.0005
# 4 0.0002 0.0000 0.0000 21.9422 0.0001 6.3533
# 5 -9.5644 6.2004 -3.8775 0.0001 31.5677 -0.0004
# 6 -0.0005 0.0004 -0.0005 6.3533 -0.0004 41.4172
#
#
#
# Elastic Compliance Matrix: (Units=1/GPa)
#
#
# Indices 1 2 3 4 5 6 
#
# 1 0.025475 -0.007542 -0.005711 0.000000 0.008498 0.000000
# 2 -0.007542 0.020599 -0.003033 0.000000 -0.006704 0.000000
# 3 -0.005711 -0.003033 0.010086 0.000000 0.000104 0.000000
# 4 0.000000 0.000000 0.000000 0.047693 0.000000 -0.007316
# 5 0.008498 -0.006704 0.000104 0.000000 0.035582 0.000001
# 6 0.000000 0.000000 0.000000 -0.007316 0.000001 0.025267
#
#
# Mechanical properties :
#
#
# Convention : Reuss Voigt Hill
#
# Bulk Modulus (GPa) = 42.39448 50.21693 46.30570
# Shear Modulus (GPa) = 24.37412 29.46037 26.91724
#
# Velocity S-wave (km/s) = 3.48435 3.83068 3.66161
# Velocity P-wave (km/s) = 6.10771 6.67670 6.39853
#
# Compressibility (1/GPa) = 0.02358798
#
# Stress axis : x y z
#
# Youngs Moduli (GPa) = 39.25480 48.54615 99.14665
#
# Poissons Ratio (x) = 0.36614 0.56620
# Poissons Ratio (y) = 0.29606 0.30071
# Poissons Ratio (z) = 0.22417 0.14724
#
# Static dielectric constant tensor:
#      x y z
#    x 1.717290 0.000000 0.021580 
#    y 0.000000 1.700090 0.000000 
#    z 0.021580 0.000000 1.663070 
# 
# From -- ./inp_files/266304.got.cif
#   From: 2010.05.17/outbox.cif.g08.bks.cpg/sg12_134_cif.got.tgz:266304.got - 2010.06.03 13:09:07.
