data_PCOD9215358
_publ_section_title
;
Structure prediction by ZEFSAII (Michael W. Deem and Ramdas Pophale) SiO2 
 PCOD9215358
Probable space group: C 2/M
;
_chemical_formula_sum "Si O2"
_cell_formula_units_Z 64
_cell_length_a 11.671701
_cell_length_b 24.643663
_cell_length_c 11.904753
_cell_angle_alpha 90.000000
_cell_angle_beta 97.219537
_cell_angle_gamma 90.000000
_cell_volume 3397.057949
_symmetry_space_group_name_H-M "C 2/M"
_symmetry_group_IT_number 12
_symmetry_cell_setting 'monoclinic'
loop_
_space_group_symop_operation_xyz
x,y,z
-x,y,-z
-x,-y,-z
x,-y,z
1/2+x,1/2+y,z
1/2-x,1/2+y,-z
1/2-x,1/2-y,-z
1/2+x,1/2-y,z
loop_
_atom_site_type_symbol
_atom_site_label
_atom_site_fract_x
_atom_site_fract_y
_atom_site_fract_z
Si Si1 0.770672 0.162721 0.585479
Si Si2 0.565849 0.843180 0.202796
Si Si3 0.772147 0.778143 0.120121
Si Si4 0.635671 0.438900 0.541278
Si Si5 0.809493 0.662030 0.184098
Si Si6 0.628133 0.624249 0.971840
Si Si7 0.247009 0.437343 0.207580
Si Si8 0.907132 0.732818 0.583625
O O1 0.813049 0.110446 0.523241
O O2 0.711668 0.141829 0.692493
O O3 0.866658 0.208773 0.625866
O O4 0.689623 0.197623 0.492981
O O5 0.653698 0.806782 0.140803
O O6 0.434690 0.851678 0.147863
O O7 0.637214 0.898953 0.219250
O O8 0.552577 0.808226 0.314827
O O9 0.805251 0.727598 0.200178
O O10 0.869770 0.822949 0.110499
O O11 0.750000 0.750000 0.000000
O O12 0.500000 0.438814 0.500000
O O13 0.679470 0.500000 0.517985
O O14 0.666258 0.430105 0.676177
O O15 0.710768 0.640431 0.087129
O O16 0.689596 0.579904 0.900249
O O17 0.500000 0.611820 0.000000
O O18 0.213258 0.500000 0.197939
O O19 0.000000 0.744868 0.500000
#
# Coordination Sequence:
#
# PCOD9215358 Si02
#       8
#     8   8   8   8   8   8   8   8
#     4  11  22  36  59  92 126 161 203 247 311 366
#     4  11  21  40  61  88 128 160 211 252 307 375
#     4   9  21  36  55  84 120 166 200 243 300 365
#     4  10  22  41  65  91 121 162 208 254 308 374
#     4  11  23  37  61  90 127 171 199 255 311 366
#     4  10  24  40  61  92 122 158 211 260 312 366
#     4  10  23  45  68  87 118 166 211 259 313 367
#     4  11  21  35  56  91 127 164 196 252 305 371
#
# _framework density 18.839831
#
# number of rings (size 3 to 8) (size 9 to 14) (size 15 to 20)
#    0.000    1.625    3.750    0.375    5.250    4.250 
#    2.250    2.500    0.000    2.250    0.000    0.000 
#    0.000    0.000    0.000    0.000    0.000    0.000 
#
# Total GULP energy -178353.913538 kJ/mol
# GULP energy per Si atom -5573.559798 kJ/mol
# Density = 1.879695 g / cm^3
# Si number density = 18.839831 Si / 1000 Ang^3
#
#
#
# Elastic Constant Matrix: (Units=GPa)
#
#
# Indices 1 2 3 4 5 6 
#
# 1 109.1896 44.8222 28.0945 0.0000 -2.8849 0.0000
# 2 44.8222 106.5829 35.2725 0.0000 -4.6235 0.0000
# 3 28.0945 35.2725 65.3323 0.0000 -7.6356 0.0000
# 4 0.0000 0.0000 0.0000 22.8103 0.0000 -4.8224
# 5 -2.8849 -4.6235 -7.6356 0.0000 32.3336 0.0000
# 6 0.0000 0.0000 0.0000 -4.8224 0.0000 39.3447
#
#
#
# Elastic Compliance Matrix: (Units=1/GPa)
#
#
# Indices 1 2 3 4 5 6 
#
# 1 0.011487 -0.003893 -0.002863 0.000000 -0.000208 0.000000
# 2 -0.003893 0.012743 -0.005177 0.000000 0.000252 0.000000
# 3 -0.002863 -0.005177 0.019761 0.000000 0.003671 0.000000
# 4 0.000000 0.000000 0.000000 0.045006 0.000000 0.005516
# 5 -0.000208 0.000252 0.003671 0.000000 0.031812 0.000000
# 6 0.000000 0.000000 0.000000 0.005516 0.000000 0.026093
#
#
# Mechanical properties :
#
#
# Convention : Reuss Voigt Hill
#
# Bulk Modulus (GPa) = 49.68100 55.27591 52.47845
# Shear Modulus (GPa) = 28.17284 30.42541 29.29912
#
# Velocity S-wave (km/s) = 3.87122 4.02301 3.94784
# Velocity P-wave (km/s) = 6.81243 7.14024 6.97826
#
# Compressibility (1/GPa) = 0.02012842
#
# Stress axis : x y z
#
# Youngs Moduli (GPa) = 87.05260 78.47165 50.60402
#
# Poissons Ratio (x) = 0.30545 0.14486
# Poissons Ratio (y) = 0.33885 0.26196
# Poissons Ratio (z) = 0.24919 0.40623
#
# Static dielectric constant tensor:
#      x y z
#    x 1.683710 0.000000 0.024990 
#    y 0.000000 1.669740 0.000000 
#    z 0.024990 0.000000 1.665800 
# 
# From -- ./inp_files/135406.got.cif
#   From: 2010.05.17/outbox.cif.g08.bks.cpg/sg12_68_cif.got.tgz:135406.got - 2010.06.03 13:09:07.
