data_PCOD9215936
_publ_section_title
;
Structure prediction by ZEFSAII (Michael W. Deem and Ramdas Pophale) SiO2 
 PCOD9215936
Probable space group: C 2/M
;
_chemical_formula_sum "Si O2"
_cell_formula_units_Z 40
_cell_length_a 28.808759
_cell_length_b 14.602175
_cell_length_c 9.397473
_cell_angle_alpha 90.000000
_cell_angle_beta 151.222502
_cell_angle_gamma 90.000000
_cell_volume 1903.127241
_symmetry_space_group_name_H-M "C 2/M"
_symmetry_group_IT_number 12
_symmetry_cell_setting 'monoclinic'
loop_
_space_group_symop_operation_xyz
x,y,z
-x,y,-z
-x,-y,-z
x,-y,z
1/2+x,1/2+y,z
1/2-x,1/2+y,-z
1/2-x,1/2-y,-z
1/2+x,1/2-y,z
loop_
_atom_site_type_symbol
_atom_site_label
_atom_site_fract_x
_atom_site_fract_y
_atom_site_fract_z
Si Si1 0.399363 0.202118 0.315725
Si Si2 0.403976 0.770958 0.650411
Si Si3 0.259732 0.105643 0.444621
Si Si4 0.115214 0.100324 0.819265
Si Si5 0.268632 0.392621 0.302177
O O1 0.500000 0.197041 0.500000
O O2 0.418213 0.186960 0.532385
O O3 0.356581 0.305456 0.181220
O O4 0.321032 0.134875 0.037558
O O5 0.328027 0.830861 0.535121
O O6 0.359607 0.670172 0.511044
O O7 0.500000 0.766886 0.000000
O O8 0.257198 0.130648 0.602847
O O9 0.292185 0.000000 0.522448
O O10 0.155049 0.109880 0.087168
O O11 0.000000 0.097530 0.500000
O O12 0.151341 0.000000 0.863938
O O13 0.289302 0.500000 0.349367
#
# Coordination Sequence:
#
# PCOD9215936 Si02
#       5
#     8   8   8   8   8
#     4  11  24  43  67  96 127 172 214 265 324 374
#     4  12  26  42  66  97 131 171 216 265 318 382
#     4  10  22  42  68  95 127 170 213 263 324 383
#     4   9  19  35  63  96 129 166 209 257 318 388
#     4  11  25  44  67  96 132 170 213 265 322 380
#
# _framework density 21.018038000000001
#
# number of rings (size 3 to 8) (size 9 to 14) (size 15 to 20)
#    0.000    1.400    2.000    2.400    5.600    2.800 
#    0.000    0.000    0.000    0.000    0.000    0.000 
#    0.000    0.000    0.000    0.000    0.000    0.000 
#
# Total GULP energy -111786.250912 kJ/mol
# GULP energy per Si atom -5589.312546 kJ/mol
# Density = 2.097020 g / cm^3
# Si number density = 21.018038 Si / 1000 Ang^3
#
#
#
# Elastic Constant Matrix: (Units=GPa)
#
#
# Indices 1 2 3 4 5 6 
#
# 1 104.8032 34.6659 72.8556 0.0000 -27.5463 0.0000
# 2 34.6659 56.7314 24.9273 0.0000 -6.8761 0.0000
# 3 72.8556 24.9273 181.0866 0.0000 -19.0720 0.0000
# 4 0.0000 0.0000 0.0000 22.5977 0.0000 -10.3162
# 5 -27.5463 -6.8761 -19.0720 0.0000 33.8859 0.0000
# 6 0.0000 0.0000 0.0000 -10.3162 0.0000 3.6138
#
#
#
# Elastic Compliance Matrix: (Units=1/GPa)
#
#
# Indices 1 2 3 4 5 6 
#
# 1 0.018541 -0.007731 -0.005287 0.000000 0.010528 0.000000
# 2 -0.007731 0.022187 -0.000140 0.000000 -0.001861 0.000000
# 3 -0.005287 -0.000140 0.007667 0.000000 -0.000010 0.000000
# 4 0.000000 0.000000 0.000000 -0.145948 0.000000 -0.416635
# 5 0.010528 -0.001861 -0.000010 0.000000 0.037686 0.000000
# 6 0.000000 0.000000 0.000000 -0.416635 0.000000 -0.912642
#
#
# Mechanical properties :
#
#
# Convention : Reuss Voigt Hill
#
# Bulk Modulus (GPa) = 45.28804 67.50208 56.39506
# Shear Modulus (GPa) = -5.32575 26.03096 10.35261
#
# Velocity S-wave (km/s) = -1.59355 3.52306 2.22177
# Velocity P-wave (km/s) = 4.26710 6.98106 5.78547
#
# Compressibility (1/GPa) = 0.02208088
#
# Stress axis : x y z
#
# Youngs Moduli (GPa) = 53.93475 45.07224 130.42470
#
# Poissons Ratio (x) = 0.34843 0.68949
# Poissons Ratio (y) = 0.41695 0.01824
# Poissons Ratio (z) = 0.28513 0.00630
#
# Static dielectric constant tensor:
#      x y z
#    x 1.755170 0.000000 -0.018990 
#    y 0.000000 1.783780 0.000000 
#    z -0.018990 0.000000 1.733140 
# 
# From -- ./inp_files/58956.got.cif
#   From: 2010.05.17/outbox.cif.g08.bks.cpg/sg12_30_cif.got.tgz:58956.got - 2010.06.03 13:09:07.
