data_PCOD9215124
_publ_section_title
;
Structure prediction by ZEFSAII (Michael W. Deem and Ramdas Pophale) SiO2 
 PCOD9215124
Probable space group: C 2/M
;
_chemical_formula_sum "Si O2"
_cell_formula_units_Z 48
_cell_length_a 31.057010
_cell_length_b 8.590102
_cell_length_c 15.217826
_cell_angle_alpha 90.000000
_cell_angle_beta 140.149090
_cell_angle_gamma 90.000000
_cell_volume 2601.523346
_symmetry_space_group_name_H-M "C 2/M"
_symmetry_group_IT_number 12
_symmetry_cell_setting 'monoclinic'
loop_
_space_group_symop_operation_xyz
x,y,z
-x,y,-z
-x,-y,-z
x,-y,z
1/2+x,1/2+y,z
1/2-x,1/2+y,-z
1/2-x,1/2-y,-z
1/2+x,1/2-y,z
loop_
_atom_site_type_symbol
_atom_site_label
_atom_site_fract_x
_atom_site_fract_y
_atom_site_fract_z
Si Si1 0.331217 0.187035 0.349108
Si Si2 0.565148 0.188526 0.844065
Si Si3 0.819244 0.813351 0.649342
Si Si4 0.417817 0.313341 0.647975
Si Si5 0.071516 0.689521 0.652560
Si Si6 0.684491 0.813286 0.160996
O O1 0.376114 0.243324 0.501313
O O2 0.368812 0.238318 0.318807
O O3 0.256647 0.252455 0.242216
O O4 0.328828 0.000000 0.346880
O O5 0.493568 0.252769 0.762751
O O6 0.577679 0.239527 0.763029
O O7 0.561761 0.000000 0.839021
O O8 0.625329 0.236692 0.002456
O O9 0.750000 0.750000 0.500000
O O10 0.879303 0.769630 0.677270
O O11 0.828089 0.747816 0.760580
O O12 0.815274 0.000000 0.647045
O O13 0.416916 0.500000 0.639310
O O14 0.070988 0.500000 0.651551
O O15 0.000000 0.739947 0.500000
O O16 0.686437 0.000000 0.166015
#
# Coordination Sequence:
#
# PCOD9215124 Si02
#       6
#     8   8   8   8   8   8
#     4  11  21  36  63  89 116 158 202 242 294 357
#     4  10  22  41  62  86 121 162 198 241 298 357
#     4  11  23  39  62  88 118 157 199 246 298 353
#     4  11  23  38  60  90 120 150 196 252 299 350
#     4   9  17  34  61  89 115 152 203 245 287 352
#     4  11  24  40  59  88 125 157 196 249 299 350
#
# _framework density 18.450728999999999
#
# number of rings (size 3 to 8) (size 9 to 14) (size 15 to 20)
#    0.000    1.500    3.333    2.000    0.000    4.667 
#    0.000    5.833    0.000    0.000    0.000    0.000 
#    0.000    0.000    0.000    0.000    0.000    0.000 
#
# Total GULP energy -134113.784223 kJ/mol
# GULP energy per Si atom -5588.074343 kJ/mol
# Density = 1.840873 g / cm^3
# Si number density = 18.450729 Si / 1000 Ang^3
#
#
#
# Elastic Constant Matrix: (Units=GPa)
#
#
# Indices 1 2 3 4 5 6 
#
# 1 222.8231 46.8801 122.9576 0.0000 -1.8560 0.0000
# 2 46.8801 34.8086 41.8481 0.0000 0.2171 0.0000
# 3 122.9576 41.8481 193.0690 0.0000 -1.8887 0.0000
# 4 0.0000 0.0000 0.0000 23.2339 0.0000 4.3743
# 5 -1.8560 0.2171 -1.8887 0.0000 34.6635 0.0000
# 6 0.0000 0.0000 0.0000 4.3743 0.0000 27.6625
#
#
#
# Elastic Compliance Matrix: (Units=1/GPa)
#
#
# Indices 1 2 3 4 5 6 
#
# 1 0.007777 -0.006119 -0.003624 0.000000 0.000257 0.000000
# 2 -0.006119 0.043684 -0.005581 0.000000 -0.000905 0.000000
# 3 -0.003624 -0.005581 0.008700 0.000000 0.000315 0.000000
# 4 0.000000 0.000000 0.000000 0.044361 0.000000 -0.007015
# 5 0.000257 -0.000905 0.000315 0.000000 0.028885 0.000000
# 6 0.000000 0.000000 0.000000 -0.007015 0.000000 0.037259
#
#
# Mechanical properties :
#
#
# Convention : Reuss Voigt Hill
#
# Bulk Modulus (GPa) = 33.88184 97.11916 65.50050
# Shear Modulus (GPa) = 23.67947 33.04630 28.36289
#
# Velocity S-wave (km/s) = 3.58633 4.23668 3.92500
# Velocity P-wave (km/s) = 5.96257 8.75693 7.49120
#
# Compressibility (1/GPa) = 0.02951434
#
# Stress axis : x y z
#
# Youngs Moduli (GPa) = 128.57981 22.89157 114.93812
#
# Poissons Ratio (x) = 0.14007 0.41656
# Poissons Ratio (y) = 0.78675 0.64143
# Poissons Ratio (z) = 0.46600 0.12775
#
# Static dielectric constant tensor:
#      x y z
#    x 1.629650 0.000000 -0.008360 
#    y 0.000000 1.631600 0.000000 
#    z -0.008360 0.000000 1.597730 
# 
# From -- ./inp_files/230413.got.cif
#   From: 2010.05.17/outbox.cif.g08.bks.cpg/sg12_116_cif.got.tgz:230413.got - 2010.06.03 13:09:07.
