data_PCOD9215577
_publ_section_title
;
Structure prediction by ZEFSAII (Michael W. Deem and Ramdas Pophale) SiO2 
 PCOD9215577
Probable space group: C 2/M
;
_chemical_formula_sum "Si O2"
_cell_formula_units_Z 64
_cell_length_a 17.207933
_cell_length_b 13.776834
_cell_length_c 15.549789
_cell_angle_alpha 90.000000
_cell_angle_beta 50.140324
_cell_angle_gamma 90.000000
_cell_volume 2829.742256
_symmetry_space_group_name_H-M "C 2/M"
_symmetry_group_IT_number 12
_symmetry_cell_setting 'monoclinic'
loop_
_space_group_symop_operation_xyz
x,y,z
-x,y,-z
-x,-y,-z
x,-y,z
1/2+x,1/2+y,z
1/2-x,1/2+y,-z
1/2-x,1/2-y,-z
1/2+x,1/2-y,z
loop_
_atom_site_type_symbol
_atom_site_label
_atom_site_fract_x
_atom_site_fract_y
_atom_site_fract_z
Si Si1 0.074828 0.607138 0.338118
Si Si2 0.711665 0.386730 0.265312
Si Si3 0.167913 0.883354 0.606933
Si Si4 0.818831 0.382802 0.360408
Si Si5 0.551264 0.886896 0.158958
Si Si6 0.695852 0.386011 0.780818
Si Si7 0.497889 0.691643 0.598792
Si Si8 0.886322 0.713953 0.047529
O O1 0.031951 0.500000 0.384459
O O2 0.098929 0.611712 0.219478
O O3 0.182006 0.619366 0.308604
O O4 0.996725 0.692437 0.411075
O O5 0.687697 0.500000 0.285264
O O6 0.741049 0.352117 0.340561
O O7 0.617037 0.331406 0.292191
O O8 0.811709 0.365504 0.140637
O O9 0.272090 0.854074 0.485002
O O10 0.158491 0.852943 0.712784
O O11 0.077535 0.849427 0.609158
O O12 0.166873 0.000000 0.609575
O O13 0.819292 0.500000 0.358212
O O14 0.933811 0.356569 0.256982
O O15 0.552716 0.000000 0.125501
O O16 0.605819 0.810682 0.058493
O O17 0.669847 0.500000 0.813147
O O18 0.653251 0.316073 0.885645
O O19 0.500000 0.649996 0.500000
O O20 0.000000 0.699912 0.000000
#
# Coordination Sequence:
#
# PCOD9215577 Si02
#       8
#     8   8   8   8   8   8   8   8
#     4  10  24  47  68  93 135 180 233 288 337 402
#     4  11  22  39  62  99 144 177 217 278 348 410
#     4  10  22  41  71 103 141 186 225 277 341 415
#     4   9  18  36  63 100 138 175 218 269 339 407
#     4  10  22  41  68 103 137 175 225 286 350 408
#     4  10  24  48  70  96 138 187 237 281 336 410
#     4  12  24  40  67 107 140 179 229 283 345 410
#     4  12  24  40  70 101 133 176 230 283 343 406
#
# _framework density 22.616900000000001
#
# number of rings (size 3 to 8) (size 9 to 14) (size 15 to 20)
#    0.000    1.500    3.750    0.750    1.750    3.000 
#    0.000    4.375    0.000    0.000    0.000    0.000 
#    0.000    0.000    0.000    0.000    0.000    0.000 
#
# Total GULP energy -178912.113694 kJ/mol
# GULP energy per Si atom -5591.003553 kJ/mol
# Density = 2.256542 g / cm^3
# Si number density = 22.616900 Si / 1000 Ang^3
#
#
#
# Elastic Constant Matrix: (Units=GPa)
#
#
# Indices 1 2 3 4 5 6 
#
# 1 94.3882 27.5099 23.3936 0.0000 7.2362 0.0000
# 2 27.5099 111.3603 45.7145 0.0000 12.7279 0.0000
# 3 23.3936 45.7145 94.0764 0.0000 14.3237 0.0000
# 4 0.0000 0.0000 0.0000 10.9577 0.0000 -0.7188
# 5 7.2362 12.7279 14.3237 0.0000 38.2789 0.0000
# 6 0.0000 0.0000 0.0000 -0.7188 0.0000 26.2099
#
#
#
# Elastic Compliance Matrix: (Units=1/GPa)
#
#
# Indices 1 2 3 4 5 6 
#
# 1 0.011702 -0.002063 -0.001776 0.000000 -0.000862 0.000000
# 2 -0.002063 0.011698 -0.004919 0.000000 -0.001659 0.000000
# 3 -0.001776 -0.004919 0.013957 0.000000 -0.003251 0.000000
# 4 0.000000 0.000000 0.000000 0.091425 0.000000 0.002507
# 5 -0.000862 -0.001659 -0.003251 0.000000 0.028055 0.000000
# 6 0.000000 0.000000 0.000000 0.002507 0.000000 0.038222
#
#
# Mechanical properties :
#
#
# Convention : Reuss Voigt Hill
#
# Bulk Modulus (GPa) = 50.40203 54.78456 52.59330
# Shear Modulus (GPa) = 22.81133 28.63642 25.72388
#
# Velocity S-wave (km/s) = 3.17929 3.56216 3.37616
# Velocity P-wave (km/s) = 5.98420 6.41826 6.20503
#
# Compressibility (1/GPa) = 0.01984047
#
# Stress axis : x y z
#
# Youngs Moduli (GPa) = 85.45444 85.48130 71.65072
#
# Poissons Ratio (x) = 0.17637 0.12726
# Poissons Ratio (y) = 0.17631 0.35245
# Poissons Ratio (z) = 0.15178 0.42048
#
# Static dielectric constant tensor:
#      x y z
#    x 1.820530 0.000000 0.025450 
#    y 0.000000 1.883880 0.000000 
#    z 0.025450 0.000000 1.855170 
# 
# From -- ./inp_files/225678.got.cif
#   From: 2010.05.17/outbox.cif.g08.bks.cpg/sg12_113_cif.got.tgz:225678.got - 2010.06.03 13:09:07.
