data_PCOD9215643
_publ_section_title
;
Structure prediction by ZEFSAII (Michael W. Deem and Ramdas Pophale) SiO2 
 PCOD9215643
Probable space group: C 2/M
;
_chemical_formula_sum "Si O2"
_cell_formula_units_Z 56
_cell_length_a 27.084144
_cell_length_b 17.716279
_cell_length_c 9.170584
_cell_angle_alpha 90.000000
_cell_angle_beta 36.717917
_cell_angle_gamma 90.000000
_cell_volume 2630.847192
_symmetry_space_group_name_H-M "C 2/M"
_symmetry_group_IT_number 12
_symmetry_cell_setting 'monoclinic'
loop_
_space_group_symop_operation_xyz
x,y,z
-x,y,-z
-x,-y,-z
x,-y,z
1/2+x,1/2+y,z
1/2-x,1/2+y,-z
1/2-x,1/2-y,-z
1/2+x,1/2-y,z
loop_
_atom_site_type_symbol
_atom_site_label
_atom_site_fract_x
_atom_site_fract_y
_atom_site_fract_z
Si Si1 0.286197 0.127607 0.002248
Si Si2 0.976535 0.500000 0.221509
Si Si3 0.132813 0.087564 0.559214
Si Si4 0.147293 0.636850 0.467418
Si Si5 0.224532 0.834482 0.612269
Si Si6 0.122932 0.225793 0.109886
Si Si7 0.446409 0.283866 0.407887
Si Si8 0.587213 0.000000 0.212306
O O1 0.290350 0.131856 0.817799
O O2 0.312250 0.207332 0.010827
O O3 0.359702 0.071968 0.872556
O O4 0.202479 0.096770 0.268399
O O5 0.921432 0.572926 0.388397
O O6 0.061658 0.500000 0.106404
O O7 0.000000 0.500000 0.000000
O O8 0.178840 0.120690 0.592750
O O9 0.058906 0.142169 0.680531
O O10 0.110494 0.000000 0.629600
O O11 0.193425 0.628923 0.512058
O O12 0.105116 0.718540 0.550171
O O13 0.250000 0.750000 0.500000
O O14 0.164195 0.827824 0.893863
O O15 0.096038 0.198712 0.334554
O O16 0.036529 0.247789 0.236004
O O17 0.500000 0.000000 0.500000
#
# Coordination Sequence:
#
# PCOD9215643 Si02
#       8
#     8   4   8   8   8   8   8   4
#     4  11  21  39  70  95 127 172 216 270 317 394
#     4  12  28  38  60 102 147 174 203 264 330 403
#     4  12  26  44  65  96 130 176 222 267 328 394
#     4  11  23  41  63  96 133 172 214 263 322 392
#     4  12  24  42  61  94 130 167 210 264 334 392
#     4  10  22  41  70  96 124 161 222 278 324 385
#     4  10  22  44  69  97 123 171 227 271 323 380
#     4  12  22  40  60 100 139 174 207 250 336 391
#
# _framework density 21.285920000000001
#
# number of rings (size 3 to 8) (size 9 to 14) (size 15 to 20)
#    0.000    0.857    5.000    1.714    5.000    4.000 
#    0.000    3.571    0.000    0.000    0.000    0.000 
#    0.000    0.000    0.000    0.000    0.000    0.000 
#
# Total GULP energy -156518.944515 kJ/mol
# GULP energy per Si atom -5589.962304 kJ/mol
# Density = 2.123747 g / cm^3
# Si number density = 21.285920 Si / 1000 Ang^3
#
#
#
# Elastic Constant Matrix: (Units=GPa)
#
#
# Indices 1 2 3 4 5 6 
#
# 1 104.9104 24.8087 -10.5290 0.0000 15.5003 0.0000
# 2 24.8087 92.6735 -2.9858 0.0000 15.0604 0.0000
# 3 -10.5290 -2.9858 34.5342 0.0000 3.8973 0.0000
# 4 0.0000 0.0000 0.0000 -2.5327 0.0000 25.0877
# 5 15.5003 15.0604 3.8973 0.0000 23.9140 0.0000
# 6 0.0000 0.0000 0.0000 25.0877 0.0000 -1.7492
#
#
#
# Elastic Compliance Matrix: (Units=1/GPa)
#
#
# Indices 1 2 3 4 5 6 
#
# 1 0.011390 -0.001792 0.004099 0.000000 -0.006922 0.000000
# 2 -0.001792 0.012430 0.001305 0.000000 -0.006879 0.000000
# 3 0.004099 0.001305 0.031287 0.000000 -0.008577 0.000000
# 4 0.000000 0.000000 0.000000 0.002799 0.000000 0.040143
# 5 -0.006922 -0.006879 -0.008577 0.000000 0.052033 0.000000
# 6 0.000000 0.000000 0.000000 0.040143 0.000000 0.004053
#
#
# Mechanical properties :
#
#
# Convention : Reuss Voigt Hill
#
# Bulk Modulus (GPa) = 16.04362 28.30068 22.17215
# Shear Modulus (GPa) = 39.20150 18.64802 28.92476
#
# Velocity S-wave (km/s) = 4.29612 2.96306 3.69028
# Velocity P-wave (km/s) = 5.67119 5.00307 5.34757
#
# Compressibility (1/GPa) = 0.06233005
#
# Stress axis : x y z
#
# Youngs Moduli (GPa) = 87.79800 80.44847 31.96188
#
# Poissons Ratio (x) = 0.14417 -0.13100
# Poissons Ratio (y) = 0.15734 -0.04170
# Poissons Ratio (z) = -0.35987 -0.10496
#
# Static dielectric constant tensor:
#      x y z
#    x 1.810500 0.000000 -0.012860 
#    y 0.000000 1.717420 0.000000 
#    z -0.012860 0.000000 1.796940 
# 
# From -- ./inp_files/105998.got.cif
#   From: 2010.05.17/outbox.cif.g08.bks.cpg/sg12_53_cif.got.tgz:105998.got - 2010.06.03 13:09:07.
