data_PCOD9215704
_publ_section_title
;
Structure prediction by ZEFSAII (Michael W. Deem and Ramdas Pophale) SiO2 
 PCOD9215704
Probable space group: C 2/M
;
_chemical_formula_sum "Si O2"
_cell_formula_units_Z 48
_cell_length_a 13.165308
_cell_length_b 28.192879
_cell_length_c 15.233941
_cell_angle_alpha 90.000000
_cell_angle_beta 26.815193
_cell_angle_gamma 90.000000
_cell_volume 2550.757827
_symmetry_space_group_name_H-M "C 2/M"
_symmetry_group_IT_number 12
_symmetry_cell_setting 'monoclinic'
loop_
_space_group_symop_operation_xyz
x,y,z
-x,y,-z
-x,-y,-z
x,-y,z
1/2+x,1/2+y,z
1/2-x,1/2+y,-z
1/2-x,1/2-y,-z
1/2+x,1/2-y,z
loop_
_atom_site_type_symbol
_atom_site_label
_atom_site_fract_x
_atom_site_fract_y
_atom_site_fract_z
Si Si1 0.577959 0.943798 0.717318
Si Si2 0.919937 0.632289 0.965181
Si Si3 0.401531 0.610758 0.336554
Si Si4 0.529258 0.221785 0.198498
Si Si5 0.573683 0.556157 0.037905
Si Si6 0.629026 0.204359 0.491802
O O1 0.540198 0.915529 0.837165
O O2 0.770349 0.919210 0.511054
O O3 0.615622 0.000000 0.699745
O O4 0.339226 0.937137 0.850701
O O5 0.974594 0.672689 0.851565
O O6 0.651821 0.624577 0.174085
O O7 0.000000 0.645698 0.000000
O O8 0.437603 0.580202 0.220959
O O9 0.265666 0.657588 0.414692
O O10 0.532153 0.214328 0.301005
O O11 0.307608 0.252625 0.348152
O O12 0.750000 0.250000 0.000000
O O13 0.529181 0.500000 0.074423
O O14 0.500000 0.574953 0.000000
O O15 0.500000 0.198461 0.500000
#
# Coordination Sequence:
#
# PCOD9215704 Si02
#       6
#     8   8   8   8   8   8
#     4  10  22  42  63  90 130 165 209 266 313 375
#     4  11  25  43  68  91 124 169 216 265 319 371
#     4  11  22  40  61  95 126 163 209 260 310 377
#     4  11  24  46  63  93 130 165 213 258 311 377
#     4   9  20  36  58  89 125 168 208 248 305 371
#     4  11  26  40  66  98 130 165 207 257 315 378
#
# _framework density 18.817938000000002
#
# number of rings (size 3 to 8) (size 9 to 14) (size 15 to 20)
#    0.000    1.500    3.333    0.500    4.667    1.667 
#    0.000    3.333    0.000    0.000    0.000    0.000 
#    0.000    0.000    0.000    0.000    0.000    0.000 
#
# Total GULP energy -134098.717705 kJ/mol
# GULP energy per Si atom -5587.446571 kJ/mol
# Density = 1.877511 g / cm^3
# Si number density = 18.817938 Si / 1000 Ang^3
#
#
#
# Elastic Constant Matrix: (Units=GPa)
#
#
# Indices 1 2 3 4 5 6 
#
# 1 95.1389 22.8395 43.6257 0.0009 21.1145 -0.0021
# 2 22.8395 99.0881 55.0779 0.0040 8.2817 -0.0025
# 3 43.6257 55.0779 129.4476 -0.0071 26.0205 0.0051
# 4 0.0009 0.0040 -0.0071 39.8060 0.0045 12.0801
# 5 21.1145 8.2817 26.0205 0.0045 13.4874 -0.0026
# 6 -0.0021 -0.0025 0.0051 12.0801 -0.0026 15.1761
#
#
#
# Elastic Compliance Matrix: (Units=1/GPa)
#
#
# Indices 1 2 3 4 5 6 
#
# 1 0.016387 -0.001853 0.000317 0.000005 -0.025127 -0.000006
# 2 -0.001853 0.013594 -0.006640 -0.000007 0.007363 0.000011
# 3 0.000317 -0.006640 0.015883 0.000013 -0.027061 -0.000021
# 4 0.000005 -0.000007 0.000013 0.033123 -0.000044 -0.026366
# 5 -0.025127 0.007363 -0.027061 -0.000044 0.161165 0.000070
# 6 -0.000006 0.000011 -0.000021 -0.026366 0.000070 0.086880
#
#
# Mechanical properties :
#
#
# Convention : Reuss Voigt Hill
#
# Bulk Modulus (GPa) = 33.88453 62.97341 48.42897
# Shear Modulus (GPa) = 14.15537 27.16935 20.66236
#
# Velocity S-wave (km/s) = 2.74565 3.80386 3.31722
# Velocity P-wave (km/s) = 5.30067 7.26840 6.36108
#
# Compressibility (1/GPa) = 0.02951200
#
# Stress axis : x y z
#
# Youngs Moduli (GPa) = 61.02351 73.55927 62.95976
#
# Poissons Ratio (x) = 0.13631 -0.01993
# Poissons Ratio (y) = 0.11308 0.41804
# Poissons Ratio (z) = -0.01932 0.48842
#
# Static dielectric constant tensor:
#      x y z
#    x 1.621800 0.000000 0.001080 
#    y 0.000000 1.655400 0.000000 
#    z 0.001080 0.000000 1.629000 
# 
# From -- ./inp_files/13053.got.cif
#   From: 2010.05.17/outbox.cif.g08.bks.cpg/sg12_7_cif.got.tgz:13053.got - 2010.06.03 13:09:07.
