data_PCOD9215090
_publ_section_title
;
Structure prediction by ZEFSAII (Michael W. Deem and Ramdas Pophale) SiO2 
 PCOD9215090
Probable space group: C 2/M
;
_chemical_formula_sum "Si O2"
_cell_formula_units_Z 40
_cell_length_a 8.796108
_cell_length_b 27.610731
_cell_length_c 13.300002
_cell_angle_alpha 90.000000
_cell_angle_beta 31.053699
_cell_angle_gamma 90.000000
_cell_volume 1666.234782
_symmetry_space_group_name_H-M "C 2/M"
_symmetry_group_IT_number 12
_symmetry_cell_setting 'monoclinic'
loop_
_space_group_symop_operation_xyz
x,y,z
-x,y,-z
-x,-y,-z
x,-y,z
1/2+x,1/2+y,z
1/2-x,1/2+y,-z
1/2-x,1/2-y,-z
1/2+x,1/2-y,z
loop_
_atom_site_type_symbol
_atom_site_label
_atom_site_fract_x
_atom_site_fract_y
_atom_site_fract_z
Si Si1 0.339267 0.782379 0.698917
Si Si2 0.797848 0.108606 0.211652
Si Si3 0.204424 0.446095 0.605974
Si Si4 0.338562 0.188285 0.280614
Si Si5 0.145524 0.409879 0.023719
O O1 0.500000 0.780035 0.500000
O O2 0.182833 0.833962 0.783804
O O3 0.531861 0.789148 0.689823
O O4 0.164752 0.732005 0.797961
O O5 0.470166 0.089100 0.373703
O O6 0.000000 0.098183 0.000000
O O7 0.001107 0.087244 0.184005
O O8 0.500000 0.431204 0.500000
O O9 0.250660 0.500000 0.537492
O O10 0.973781 0.447604 0.828401
O O11 0.522704 0.142252 0.136771
O O12 0.000000 0.174784 0.500000
O O13 0.000000 0.417191 0.000000
#
# Coordination Sequence:
#
# PCOD9215090 Si02
#       5
#     8   8   8   8   8
#     4  11  23  37  62  89 129 177 221 265 317 374
#     4  10  22  41  60  96 130 168 213 261 325 378
#     4  10  22  45  74  95 124 167 212 267 328 389
#     4  11  23  40  58  91 131 178 225 265 311 378
#     4  11  25  39  64  96 135 172 212 266 323 380
#
# _framework density 24.006219000000002
#
# number of rings (size 3 to 8) (size 9 to 14) (size 15 to 20)
#    0.000    1.400    4.000    3.000    5.600    5.600 
#    0.000    0.000    0.000    3.000    0.000    0.000 
#    0.000    0.000    0.000    0.000    0.000    0.000 
#
# Total GULP energy -111534.956441 kJ/mol
# GULP energy per Si atom -5576.747822 kJ/mol
# Density = 2.395158 g / cm^3
# Si number density = 24.006219 Si / 1000 Ang^3
#
#
#
# Elastic Constant Matrix: (Units=GPa)
#
#
# Indices 1 2 3 4 5 6 
#
# 1 34.9931 -8.8779 11.1621 0.0000 -10.5877 0.0000
# 2 -8.8779 114.7417 9.4405 0.0000 -17.7971 0.0000
# 3 11.1621 9.4405 79.3868 0.0000 -16.9916 0.0000
# 4 0.0000 0.0000 0.0000 228.0701 0.0000 -539.0469
# 5 -10.5877 -17.7971 -16.9916 0.0000 48.7474 0.0000
# 6 0.0000 0.0000 0.0000 -539.0469 0.0000 1366.5788
#
#
#
# Elastic Compliance Matrix: (Units=1/GPa)
#
#
# Indices 1 2 3 4 5 6 
#
# 1 0.032946 0.003984 -0.003526 0.000000 0.007381 0.000000
# 2 0.003984 0.009732 -0.000834 0.000000 0.004128 0.000000
# 3 -0.003526 -0.000834 0.014007 0.000000 0.003812 0.000000
# 4 0.000000 0.000000 0.000000 0.064754 0.000000 0.025542
# 5 0.007381 0.004128 0.003812 0.000000 0.024953 0.000000
# 6 0.000000 0.000000 0.000000 0.025542 0.000000 0.010807
#
#
# Mechanical properties :
#
#
# Convention : Reuss Voigt Hill
#
# Bulk Modulus (GPa) = 17.87845 28.06346 22.97096
# Shear Modulus (GPa) = 28.31319 343.17238 185.74279
#
# Velocity S-wave (km/s) = 3.43798 11.96920 8.80572
# Velocity P-wave (km/s) = 4.81905 14.23837 10.62907
#
# Compressibility (1/GPa) = 0.05593326
#
# Stress axis : x y z
#
# Youngs Moduli (GPa) = 30.35274 102.75015 71.39042
#
# Poissons Ratio (x) = -0.40937 0.25175
# Poissons Ratio (y) = -0.12093 0.05954
# Poissons Ratio (z) = 0.10703 0.08570
#
# Static dielectric constant tensor:
#      x y z
#    x 2.052280 0.000000 -0.098700 
#    y 0.000000 1.984940 0.000000 
#    z -0.098700 0.000000 2.001240 
# 
# From -- ./inp_files/41474.got.cif
#   From: 2010.05.17/outbox.cif.g08.bks.cpg/sg12_21_cif.got.tgz:41474.got - 2010.06.03 13:09:07.
