data_PCOD9215080
_publ_section_title
;
Structure prediction by ZEFSAII (Michael W. Deem and Ramdas Pophale) SiO2 
 PCOD9215080
Probable space group: C 2/M
;
_chemical_formula_sum "Si O2"
_cell_formula_units_Z 56
_cell_length_a 26.883586
_cell_length_b 17.360419
_cell_length_c 6.545812
_cell_angle_alpha 90.000000
_cell_angle_beta 119.478815
_cell_angle_gamma 90.000000
_cell_volume 2659.490956
_symmetry_space_group_name_H-M "C 2/M"
_symmetry_group_IT_number 12
_symmetry_cell_setting 'monoclinic'
loop_
_space_group_symop_operation_xyz
x,y,z
-x,y,-z
-x,-y,-z
x,-y,z
1/2+x,1/2+y,z
1/2-x,1/2+y,-z
1/2-x,1/2-y,-z
1/2+x,1/2-y,z
loop_
_atom_site_type_symbol
_atom_site_label
_atom_site_fract_x
_atom_site_fract_y
_atom_site_fract_z
Si Si1 0.608327 0.229012 0.482943
Si Si2 0.732968 0.912627 0.431062
Si Si3 0.712968 0.303565 0.783330
Si Si4 0.332627 0.590976 0.957551
Si Si5 0.947334 0.695073 0.237078
Si Si6 0.559661 0.341223 0.072845
Si Si7 0.595845 0.087252 0.190425
O O1 0.673891 0.247142 0.567776
O O2 0.603968 0.217066 0.714843
O O3 0.578776 0.303559 0.325960
O O4 0.582378 0.152592 0.329329
O O5 0.748688 0.854834 0.284521
O O6 0.774511 0.896663 0.707459
O O7 0.664951 0.912000 0.326810
O O8 0.747811 0.000000 0.396420
O O9 0.750000 0.250000 0.000000
O O10 0.674979 0.359564 0.851411
O O11 0.337090 0.500000 0.011413
O O12 0.387756 0.616079 0.932548
O O13 0.000000 0.687668 0.500000
O O14 0.954374 0.767047 0.098905
O O15 0.931342 0.620412 0.072784
O O16 0.500000 0.384096 0.000000
O O17 0.577120 0.000000 0.195243
#
# Coordination Sequence:
#
# PCOD9215080 Si02
#       7
#     8   8   8   8   8   8   8
#     4  11  22  38  63  89 121 162 208 258 313 372
#     4  10  22  41  60  86 130 167 199 254 316 370
#     4  12  23  36  64  96 123 167 216 255 305 380
#     4  11  24  41  63  94 132 169 210 261 321 380
#     4  11  22  40  64  92 120 162 209 265 318 367
#     4  11  22  40  66  90 121 163 214 263 317 380
#     4  10  24  41  60  91 127 165 209 257 315 380
#
# _framework density 21.056660999999998
#
# number of rings (size 3 to 8) (size 9 to 14) (size 15 to 20)
#    0.000    1.143    4.286    2.143    2.000    2.286 
#    0.000    4.286    0.000    1.286    0.000    0.000 
#    0.000    0.000    0.000    0.000    0.000    0.000 
#
# Total GULP energy -156290.889783 kJ/mol
# GULP energy per Si atom -5581.817492 kJ/mol
# Density = 2.100873 g / cm^3
# Si number density = 21.056661 Si / 1000 Ang^3
#
#
#
# Elastic Constant Matrix: (Units=GPa)
#
#
# Indices 1 2 3 4 5 6 
#
# 1 45.2713 8.4608 -10.4117 0.0000 4.8227 0.0000
# 2 8.4608 94.0975 23.7259 0.0000 -2.4001 0.0000
# 3 -10.4117 23.7259 69.5668 0.0000 12.9243 0.0000
# 4 0.0000 0.0000 0.0000 30.0408 0.0000 -6.3838
# 5 4.8227 -2.4001 12.9243 0.0000 42.5663 0.0000
# 6 0.0000 0.0000 0.0000 -6.3838 0.0000 3.9000
#
#
#
# Elastic Compliance Matrix: (Units=1/GPa)
#
#
# Indices 1 2 3 4 5 6 
#
# 1 0.024669 -0.003825 0.005888 0.000000 -0.004798 0.000000
# 2 -0.003825 0.012378 -0.005304 0.000000 0.002742 0.000000
# 3 0.005888 -0.005304 0.018275 0.000000 -0.006515 0.000000
# 4 0.000000 0.000000 0.000000 0.051043 0.000000 0.083552
# 5 -0.004798 0.002742 -0.006515 0.000000 0.026169 0.000000
# 6 0.000000 0.000000 0.000000 0.083552 0.000000 0.393178
#
#
# Mechanical properties :
#
#
# Convention : Reuss Voigt Hill
#
# Bulk Modulus (GPa) = 20.47429 28.05395 24.26412
# Shear Modulus (GPa) = 9.11618 27.77879 18.44749
#
# Velocity S-wave (km/s) = 2.08297 3.63608 2.96309
# Velocity P-wave (km/s) = 3.94075 5.56597 4.82232
#
# Compressibility (1/GPa) = 0.04884175
#
# Stress axis : x y z
#
# Youngs Moduli (GPa) = 40.53619 80.78595 54.71933
#
# Poissons Ratio (x) = 0.30902 -0.32220
# Poissons Ratio (y) = 0.15506 0.29021
# Poissons Ratio (z) = -0.23869 0.42845
#
# Static dielectric constant tensor:
#      x y z
#    x 1.822700 0.000000 0.017070 
#    y 0.000000 1.739490 0.000000 
#    z 0.017070 0.000000 1.753480 
# 
# From -- ./inp_files/28826.got.cif
#   From: 2010.05.17/outbox.cif.g08.bks.cpg/sg12_15_cif.got.tgz:28826.got - 2010.06.03 13:09:07.
