data_PCOD9215963
_publ_section_title
;
Structure prediction by ZEFSAII (Michael W. Deem and Ramdas Pophale) SiO2 
 PCOD9215963
Probable space group: C 2/M
;
_chemical_formula_sum "Si O2"
_cell_formula_units_Z 44
_cell_length_a 22.358886
_cell_length_b 15.213709
_cell_length_c 16.968851
_cell_angle_alpha 90.000000
_cell_angle_beta 21.459318
_cell_angle_gamma 90.000000
_cell_volume 2111.686733
_symmetry_space_group_name_H-M "C 2/M"
_symmetry_group_IT_number 12
_symmetry_cell_setting 'monoclinic'
loop_
_space_group_symop_operation_xyz
x,y,z
-x,y,-z
-x,-y,-z
x,-y,z
1/2+x,1/2+y,z
1/2-x,1/2+y,-z
1/2-x,1/2-y,-z
1/2+x,1/2-y,z
loop_
_atom_site_type_symbol
_atom_site_label
_atom_site_fract_x
_atom_site_fract_y
_atom_site_fract_z
Si Si1 0.339976 0.183834 0.644296
Si Si2 0.047258 0.500000 0.534159
Si Si3 0.195432 0.000000 0.267277
Si Si4 0.463020 0.599498 0.952471
Si Si5 0.306794 0.848900 0.248190
Si Si6 0.724436 0.856983 0.533272
Si Si7 0.043715 0.500000 0.188063
O O1 0.500000 0.200488 0.500000
O O2 0.360725 0.092455 0.572106
O O3 0.297059 0.261411 0.638702
O O4 0.180473 0.166891 0.893727
O O5 0.000000 0.500000 0.500000
O O6 0.921400 0.500000 0.760823
O O7 0.252880 0.916800 0.247789
O O8 0.000000 0.000000 0.500000
O O9 0.295345 0.000000 0.063056
O O10 0.402682 0.500000 0.016409
O O11 0.622824 0.609978 0.704681
O O12 0.500000 0.613114 0.000000
O O13 0.273093 0.881540 0.377383
O O14 0.500000 0.831365 0.000000
O O15 0.750000 0.750000 0.500000
O O16 0.565845 0.912315 0.696871
#
# Coordination Sequence:
#
# PCOD9215963 Si02
#       7
#     8   4   4   8   8   8   4
#     4  11  23  43  66  97 143 182 219 281 357 417
#     4  10  22  42  68  98 144 178 217 273 355 428
#     4  12  28  50  71 100 141 188 234 290 345 412
#     4  11  22  38  64  96 132 174 224 283 339 409
#     4  12  24  47  72  98 133 182 240 289 338 403
#     4  12  24  40  71 103 132 175 235 292 340 398
#     4  12  23  45  72 103 136 181 234 288 347 410
#
# _framework density 20.836424000000001
#
# number of rings (size 3 to 8) (size 9 to 14) (size 15 to 20)
#    0.000    0.545    3.636    6.273    0.000    0.000 
#    6.545    0.909    0.000    0.000    0.000    0.000 
#    0.000    0.000    0.000    0.000    0.000    0.000 
#
# Total GULP energy -122865.864524 kJ/mol
# GULP energy per Si atom -5584.812024 kJ/mol
# Density = 2.078900 g / cm^3
# Si number density = 20.836424 Si / 1000 Ang^3
#
#
#
# Elastic Constant Matrix: (Units=GPa)
#
#
# Indices 1 2 3 4 5 6 
#
# 1 124.8956 28.2797 75.6071 -0.0009 15.0871 -0.0056
# 2 28.2797 106.0799 7.3954 0.0007 -3.8584 0.0005
# 3 75.6071 7.3954 155.0098 -0.0021 13.9673 -0.0053
# 4 -0.0009 0.0007 -0.0021 45.6862 0.0013 47.6570
# 5 15.0871 -3.8584 13.9673 0.0013 51.0608 0.0051
# 6 -0.0056 0.0005 -0.0053 47.6570 0.0051 168.8608
#
#
#
# Elastic Compliance Matrix: (Units=1/GPa)
#
#
# Indices 1 2 3 4 5 6 
#
# 1 0.012422 -0.002999 -0.005705 0.000000 -0.002336 0.000000
# 2 -0.002999 0.010219 0.000847 0.000000 0.001427 0.000000
# 3 -0.005705 0.000847 0.009264 0.000000 -0.000784 0.000000
# 4 0.000000 0.000000 0.000000 0.031021 0.000000 -0.008755
# 5 -0.002336 0.001427 -0.000784 0.000000 0.020597 -0.000001
# 6 0.000000 0.000000 0.000000 -0.008755 -0.000001 0.008393
#
#
# Mechanical properties :
#
#
# Convention : Reuss Voigt Hill
#
# Bulk Modulus (GPa) = 61.76516 67.61663 64.69090
# Shear Modulus (GPa) = 44.23703 71.43510 57.83606
#
# Velocity S-wave (km/s) = 4.61267 5.86159 5.27423
# Velocity P-wave (km/s) = 7.62077 8.85057 8.25859
#
# Compressibility (1/GPa) = 0.01619036
#
# Stress axis : x y z
#
# Youngs Moduli (GPa) = 80.50531 97.85556 107.94221
#
# Poissons Ratio (x) = 0.29344 0.61582
# Poissons Ratio (y) = 0.24141 -0.09138
# Poissons Ratio (z) = 0.45929 -0.08284
#
# Static dielectric constant tensor:
#      x y z
#    x 1.750430 0.000000 -0.017770 
#    y 0.000000 1.857210 0.000000 
#    z -0.017770 0.000000 1.771100 
# 
# From -- ./inp_files/290029.got.cif
#   From: 2010.05.17/outbox.cif.g08.bks.cpg/sg12_146_cif.got.tgz:290029.got - 2010.06.03 13:09:07.
