data_PCOD9215381
_publ_section_title
;
Structure prediction by ZEFSAII (Michael W. Deem and Ramdas Pophale) SiO2 
 PCOD9215381
Probable space group: C 2/M
;
_chemical_formula_sum "Si O2"
_cell_formula_units_Z 52
_cell_length_a 14.867128
_cell_length_b 9.413981
_cell_length_c 24.860510
_cell_angle_alpha 90.000000
_cell_angle_beta 138.901411
_cell_angle_gamma 90.000000
_cell_volume 2287.238841
_symmetry_space_group_name_H-M "C 2/M"
_symmetry_group_IT_number 12
_symmetry_cell_setting 'monoclinic'
loop_
_space_group_symop_operation_xyz
x,y,z
-x,y,-z
-x,-y,-z
x,-y,z
1/2+x,1/2+y,z
1/2-x,1/2+y,-z
1/2-x,1/2-y,-z
1/2+x,1/2-y,z
loop_
_atom_site_type_symbol
_atom_site_label
_atom_site_fract_x
_atom_site_fract_y
_atom_site_fract_z
Si Si1 0.156049 0.842306 0.181049
Si Si2 0.154947 0.165351 0.998109
Si Si3 0.204880 0.000000 0.464061
Si Si4 0.232313 0.339383 0.649062
Si Si5 0.462808 0.838979 0.708988
Si Si6 0.452658 0.216165 0.581213
Si Si7 0.779281 0.167597 0.148841
O O1 0.186655 0.838237 0.257645
O O2 0.229290 0.711156 0.185397
O O3 0.997422 0.832791 0.094012
O O4 0.203773 0.000000 0.182568
O O5 0.194670 0.000000 0.022387
O O6 0.250000 0.250000 0.000000
O O7 0.176195 0.249298 0.063107
O O8 0.323133 0.877625 0.507066
O O9 0.093839 0.876110 0.430693
O O10 0.247299 0.500000 0.633180
O O11 0.311759 0.225826 0.648768
O O12 0.077153 0.305590 0.595763
O O13 0.495709 0.837604 0.660345
O O14 0.570960 0.737915 0.787744
O O15 0.469114 0.000000 0.731828
O O16 0.282253 0.500000 0.140339
#
# Coordination Sequence:
#
# PCOD9215381 Si02
#       7
#     8   8   4   8   8   8   8
#     4  10  22  41  65  92 129 176 225 277 338 394
#     4  11  23  40  62  92 134 177 225 283 336 392
#     4  10  24  44  76 100 136 180 218 266 338 410
#     4  11  23  42  69 101 136 177 225 278 337 402
#     4  12  25  43  69 101 135 177 227 280 336 399
#     4  11  23  47  72 100 138 179 219 272 336 404
#     4  12  25  40  64  95 130 178 229 279 334 396
#
# _framework density 22.734836000000001
#
# number of rings (size 3 to 8) (size 9 to 14) (size 15 to 20)
#    0.000    0.923    3.077    3.692    3.231    4.923 
#    0.000    4.615    0.000    0.000    0.000    0.000 
#    0.000    0.000    0.000    0.000    0.000    0.000 
#
# Total GULP energy -145029.798246 kJ/mol
# GULP energy per Si atom -5578.069163 kJ/mol
# Density = 2.268309 g / cm^3
# Si number density = 22.734836 Si / 1000 Ang^3
#
#
#
# Elastic Constant Matrix: (Units=GPa)
#
#
# Indices 1 2 3 4 5 6 
#
# 1 47.5112 22.7739 18.7677 0.0000 20.4830 0.0000
# 2 22.7739 221.0945 49.6630 0.0000 21.6698 0.0000
# 3 18.7677 49.6630 93.7312 0.0000 1.1250 0.0000
# 4 0.0000 0.0000 0.0000 25.7423 0.0000 2.1061
# 5 20.4830 21.6698 1.1250 0.0000 44.2573 0.0000
# 6 0.0000 0.0000 0.0000 2.1061 0.0000 40.7843
#
#
#
# Elastic Compliance Matrix: (Units=1/GPa)
#
#
# Indices 1 2 3 4 5 6 
#
# 1 0.029050 -0.000500 -0.005395 0.000000 -0.013063 0.000000
# 2 -0.000500 0.005422 -0.002744 0.000000 -0.002353 0.000000
# 3 -0.005395 -0.002744 0.013161 0.000000 0.003506 0.000000
# 4 0.000000 0.000000 0.000000 0.039011 0.000000 -0.002015
# 5 -0.013063 -0.002353 0.003506 0.000000 0.029704 0.000000
# 6 0.000000 0.000000 0.000000 -0.002015 0.000000 0.024623
#
#
# Mechanical properties :
#
#
# Convention : Reuss Voigt Hill
#
# Bulk Modulus (GPa) = 32.94445 60.52734 46.73589
# Shear Modulus (GPa) = 29.69688 40.23225 34.96457
#
# Velocity S-wave (km/s) = 3.61810 4.21126 3.92590
# Velocity P-wave (km/s) = 5.65477 7.09417 6.41497
#
# Compressibility (1/GPa) = 0.03035413
#
# Stress axis : x y z
#
# Youngs Moduli (GPa) = 34.42320 184.44983 75.98253
#
# Poissons Ratio (x) = 0.09226 0.40992
# Poissons Ratio (y) = 0.01722 0.20851
# Poissons Ratio (z) = 0.18571 0.50616
#
# Static dielectric constant tensor:
#      x y z
#    x 1.920290 0.000000 -0.054770 
#    y 0.000000 1.798380 0.000000 
#    z -0.054770 0.000000 1.906490 
# 
# From -- ./inp_files/375707.got.cif
#   From: 2010.05.17/outbox.cif.g08.bks.cpg/sg12_188_cif.got.tgz:375707.got - 2010.06.03 13:09:07.
