data_PCOD9215451
_publ_section_title
;
Structure prediction by ZEFSAII (Michael W. Deem and Ramdas Pophale) SiO2 
 PCOD9215451
Probable space group: C 2/M
;
_chemical_formula_sum "Si O2"
_cell_formula_units_Z 48
_cell_length_a 17.801170
_cell_length_b 12.986538
_cell_length_c 18.078991
_cell_angle_alpha 90.000000
_cell_angle_beta 29.243375
_cell_angle_gamma 90.000000
_cell_volume 2041.732253
_symmetry_space_group_name_H-M "C 2/M"
_symmetry_group_IT_number 12
_symmetry_cell_setting 'monoclinic'
loop_
_space_group_symop_operation_xyz
x,y,z
-x,y,-z
-x,-y,-z
x,-y,z
1/2+x,1/2+y,z
1/2-x,1/2+y,-z
1/2-x,1/2-y,-z
1/2+x,1/2-y,z
loop_
_atom_site_type_symbol
_atom_site_label
_atom_site_fract_x
_atom_site_fract_y
_atom_site_fract_z
Si Si1 0.819460 0.612799 0.675687
Si Si2 0.270464 0.379215 0.074400
Si Si3 0.482725 0.227196 0.808380
Si Si4 0.231488 0.825459 0.354262
Si Si5 0.973171 0.877991 0.688781
Si Si6 0.340307 0.885946 0.110433
O O1 0.754094 0.500000 0.713082
O O2 0.787706 0.629621 0.790473
O O3 0.757962 0.707528 0.681889
O O4 0.000000 0.610568 0.500000
O O5 0.311492 0.500000 0.028023
O O6 0.137984 0.346071 0.130228
O O7 0.406084 0.299578 0.937231
O O8 0.621451 0.159970 0.720199
O O9 0.535650 0.309864 0.701879
O O10 0.075076 0.847938 0.530921
O O11 0.247219 0.890328 0.266818
O O12 0.792805 0.851025 0.831387
O O13 0.983193 0.000000 0.692623
O O14 0.385526 0.000000 0.044684
O O15 0.500000 0.833569 0.000000
#
# Coordination Sequence:
#
# PCOD9215451 Si02
#       6
#     8   8   8   8   8   8
#     4  10  22  41  66  92 126 173 221 271 323 385
#     4  10  23  43  65  92 131 177 222 271 330 389
#     4  11  25  40  65  97 132 177 218 271 332 395
#     4  12  24  39  67  97 131 169 218 272 332 392
#     4  11  24  45  68  95 137 177 218 271 331 397
#     4  10  23  40  65  97 128 169 219 272 328 387
#
# _framework density 23.509450000000001
#
# number of rings (size 3 to 8) (size 9 to 14) (size 15 to 20)
#    0.000    1.333    0.000    5.000    7.000    4.000 
#    0.000    3.333    0.000    0.000    0.000    0.000 
#    0.000    0.000    0.000    0.000    0.000    0.000 
#
# Total GULP energy -134162.327912 kJ/mol
# GULP energy per Si atom -5590.096996 kJ/mol
# Density = 2.345594 g / cm^3
# Si number density = 23.509450 Si / 1000 Ang^3
#
#
#
# Elastic Constant Matrix: (Units=GPa)
#
#
# Indices 1 2 3 4 5 6 
#
# 1 57.1898 -23.4327 6.6216 0.0024 -6.5739 0.0018
# 2 -23.4327 61.9242 -10.7570 0.0046 3.4820 0.0026
# 3 6.6216 -10.7570 99.8924 0.0051 19.3640 0.0013
# 4 0.0024 0.0046 0.0051 23.0247 -0.0019 -5.5000
# 5 -6.5739 3.4820 19.3640 -0.0019 50.1720 -0.0003
# 6 0.0018 0.0026 0.0013 -5.5000 -0.0003 -12.1984
#
#
#
# Elastic Compliance Matrix: (Units=1/GPa)
#
#
# Indices 1 2 3 4 5 6 
#
# 1 0.021040 0.007624 -0.001087 -0.000002 0.002647 0.000005
# 2 0.007624 0.019402 0.001785 -0.000003 -0.001036 0.000007
# 3 -0.001087 0.001785 0.011162 -0.000002 -0.004574 0.000003
# 4 -0.000002 -0.000003 -0.000002 0.039209 0.000002 -0.017678
# 5 0.002647 -0.001036 -0.004574 0.000002 0.022116 -0.000002
# 6 0.000005 0.000007 0.000003 -0.017678 -0.000002 -0.074007
#
#
# Mechanical properties :
#
#
# Convention : Reuss Voigt Hill
#
# Bulk Modulus (GPa) = 14.65259 18.20779 16.43019
# Shear Modulus (GPa) = 111.04809 28.63796 69.84303
#
# Velocity S-wave (km/s) = 6.88027 3.49398 5.45646
# Velocity P-wave (km/s) = 8.32848 4.90295 6.83383
#
# Compressibility (1/GPa) = 0.06824733
#
# Stress axis : x y z
#
# Youngs Moduli (GPa) = 47.52954 51.54089 89.59191
#
# Poissons Ratio (x) = -0.39294 0.09737
# Poissons Ratio (y) = -0.36236 -0.15991
# Poissons Ratio (z) = 0.05166 -0.09199
#
# Static dielectric constant tensor:
#      x y z
#    x 1.879960 0.000000 0.021220 
#    y 0.000000 1.944120 0.000000 
#    z 0.021220 0.000000 1.872760 
# 
# From -- ./inp_files/278042.got.cif
#   From: 2010.05.17/outbox.cif.g08.bks.cpg/sg12_140_cif.got.tgz:278042.got - 2010.06.03 13:09:07.
