data_PCOD9215780
_publ_section_title
;
Structure prediction by ZEFSAII (Michael W. Deem and Ramdas Pophale) SiO2 
 PCOD9215780
Probable space group: C 2/M
;
_chemical_formula_sum "Si O2"
_cell_formula_units_Z 32
_cell_length_a 22.526381
_cell_length_b 10.890380
_cell_length_c 7.420154
_cell_angle_alpha 90.000000
_cell_angle_beta 129.118136
_cell_angle_gamma 90.000000
_cell_volume 1412.288156
_symmetry_space_group_name_H-M "C 2/M"
_symmetry_group_IT_number 12
_symmetry_cell_setting 'monoclinic'
loop_
_space_group_symop_operation_xyz
x,y,z
-x,y,-z
-x,-y,-z
x,-y,z
1/2+x,1/2+y,z
1/2-x,1/2+y,-z
1/2-x,1/2-y,-z
1/2+x,1/2-y,z
loop_
_atom_site_type_symbol
_atom_site_label
_atom_site_fract_x
_atom_site_fract_y
_atom_site_fract_z
Si Si1 0.668618 0.283384 0.759794
Si Si2 0.197788 0.131982 0.432737
Si Si3 0.938019 0.138586 0.111129
Si Si4 0.539528 0.133091 0.380218
O O1 0.679754 0.368797 0.609441
O O2 0.612292 0.337970 0.804055
O O3 0.626764 0.165136 0.593090
O O4 0.750000 0.250000 0.000000
O O5 0.250000 0.250000 0.500000
O O6 0.121852 0.144806 0.167150
O O7 0.233536 0.000000 0.451097
O O8 0.999109 0.248329 0.215585
O O9 0.970975 0.000000 0.180152
O O10 0.500000 0.124904 0.500000
O O11 0.469169 0.000000 0.726398
#
# Coordination Sequence:
#
# PCOD9215780 Si02
#       4
#     8   8   8   8
#     4  11  22  40  66  95 127 166 212 261 322 372
#     4  11  24  41  63  96 128 166 214 264 317 378
#     4  10  22  42  65  92 127 166 211 261 316 379
#     4   9  21  40  64  94 126 165 211 261 316 376
#
# _framework density 22.658266999999999
#
# number of rings (size 3 to 8) (size 9 to 14) (size 15 to 20)
#    0.000    1.750    2.500    0.750    0.000   10.500 
#    0.000    3.750    0.000    0.000    0.000    0.000 
#    0.000    0.000    0.000    0.000    0.000    0.000 
#
# Total GULP energy -89414.473938 kJ/mol
# GULP energy per Si atom -5588.404621 kJ/mol
# Density = 2.260670 g / cm^3
# Si number density = 22.658267 Si / 1000 Ang^3
#
#
#
# Elastic Constant Matrix: (Units=GPa)
#
#
# Indices 1 2 3 4 5 6 
#
# 1 77.4572 48.7863 35.6027 0.0000 -5.6013 0.0000
# 2 48.7863 247.3719 90.1398 0.0000 28.4342 0.0000
# 3 35.6027 90.1398 139.6224 0.0000 -0.8222 0.0000
# 4 0.0000 0.0000 0.0000 25.2840 0.0000 7.1964
# 5 -5.6013 28.4342 -0.8222 0.0000 42.7861 0.0000
# 6 0.0000 0.0000 0.0000 7.1964 0.0000 6.8451
#
#
#
# Elastic Compliance Matrix: (Units=1/GPa)
#
#
# Indices 1 2 3 4 5 6 
#
# 1 0.015979 -0.002775 -0.002260 0.000000 0.003893 0.000000
# 2 -0.002775 0.006379 -0.003438 0.000000 -0.004669 0.000000
# 3 -0.002260 -0.003438 0.009971 0.000000 0.002181 0.000000
# 4 0.000000 0.000000 0.000000 0.056439 0.000000 -0.059335
# 5 0.003893 -0.004669 0.002181 0.000000 0.027026 0.000000
# 6 0.000000 0.000000 0.000000 -0.059335 0.000000 0.208470
#
#
# Mechanical properties :
#
#
# Convention : Reuss Voigt Hill
#
# Bulk Modulus (GPa) = 65.01028 90.38991 77.70009
# Shear Modulus (GPa) = 14.43676 34.31123 24.37399
#
# Velocity S-wave (km/s) = 2.52693 3.89561 3.28338
# Velocity P-wave (km/s) = 6.10473 7.75975 6.98145
#
# Compressibility (1/GPa) = 0.01538218
#
# Stress axis : x y z
#
# Youngs Moduli (GPa) = 62.58391 156.75465 100.29057
#
# Poissons Ratio (x) = 0.43504 0.22663
# Poissons Ratio (y) = 0.17369 0.34483
# Poissons Ratio (z) = 0.14143 0.53898
#
# Static dielectric constant tensor:
#      x y z
#    x 1.871190 0.000000 -0.006590 
#    y 0.000000 2.005340 0.000000 
#    z -0.006590 0.000000 1.802380 
# 
# From -- ./inp_files/83032.got.cif
#   From: 2010.05.17/outbox.cif.g08.bks.cpg/sg12_42_cif.got.tgz:83032.got - 2010.06.03 13:09:07.
