data_PCOD9215061
_publ_section_title
;
Structure prediction by ZEFSAII (Michael W. Deem and Ramdas Pophale) SiO2 
 PCOD9215061
Probable space group: C 2/M
;
_chemical_formula_sum "Si O2"
_cell_formula_units_Z 34
_cell_length_a 19.149134
_cell_length_b 12.639704
_cell_length_c 7.315473
_cell_angle_alpha 90.000000
_cell_angle_beta 102.359430
_cell_angle_gamma 90.000000
_cell_volume 1729.596557
_symmetry_space_group_name_H-M "C 2/M"
_symmetry_group_IT_number 12
_symmetry_cell_setting 'monoclinic'
loop_
_space_group_symop_operation_xyz
x,y,z
-x,y,-z
-x,-y,-z
x,-y,z
1/2+x,1/2+y,z
1/2-x,1/2+y,-z
1/2-x,1/2-y,-z
1/2+x,1/2-y,z
loop_
_atom_site_type_symbol
_atom_site_label
_atom_site_fract_x
_atom_site_fract_y
_atom_site_fract_z
Si Si1 0.903627 0.188335 0.612403
Si Si2 0.147001 0.711486 0.798169
Si Si3 0.500000 0.500000 0.500000
Si Si4 0.497570 0.883091 0.720633
Si Si5 0.197610 0.120837 0.124568
O O1 0.872573 0.234020 0.405351
O O2 0.945765 0.285171 0.733241
O O3 0.840884 0.147978 0.707233
O O4 0.957255 0.093699 0.591907
O O5 0.217773 0.641395 0.815375
O O6 0.078121 0.645136 0.822525
O O7 0.165628 0.802084 0.953600
O O8 0.500000 0.886333 0.500000
O O9 0.475131 0.000000 0.771165
O O10 0.183101 0.000000 0.066354
#
# Coordination Sequence:
#
# PCOD9215061 Si02
#       5
#     8   8   2   8   8
#     4  11  22  41  62  91 121 159 200 247 305 356
#     4  10  22  41  58  88 119 155 203 250 295 357
#     4  12  20  40  64  92 128 154 198 254 296 366
#     4   9  18  37  63  84 115 154 199 247 297 349
#     4  11  24  38  61  88 121 161 202 243 304 361
#
# _framework density 19.657762999999999
#
# number of rings (size 3 to 8) (size 9 to 14) (size 15 to 20)
#    0.000    1.647    4.706    1.412    1.647    1.882 
#    0.000    9.412    0.000    0.000    0.000    0.000 
#    0.000    0.000    0.000    0.000    0.000    0.000 
#
# Total GULP energy -94691.843105 kJ/mol
# GULP energy per Si atom -5570.108418 kJ/mol
# Density = 1.961302 g / cm^3
# Si number density = 19.657763 Si / 1000 Ang^3
#
#
#
# Elastic Constant Matrix: (Units=GPa)
#
#
# Indices 1 2 3 4 5 6 
#
# 1 -24.4707 -1.1485 18.4571 0.0000 33.2090 0.0000
# 2 -1.1485 116.7455 9.1821 0.0000 16.7995 0.0000
# 3 18.4571 9.1821 50.1149 0.0000 -0.3361 0.0000
# 4 0.0000 0.0000 0.0000 0.9925 0.0000 7.8208
# 5 33.2090 16.7995 -0.3361 0.0000 21.7212 0.0000
# 6 0.0000 0.0000 0.0000 7.8208 0.0000 -3.0076
#
#
#
# Elastic Compliance Matrix: (Units=1/GPa)
#
#
# Indices 1 2 3 4 5 6 
#
# 1 -0.010930 -0.003259 0.004752 0.000000 0.019305 0.000000
# 2 -0.003259 0.008835 -0.000431 0.000000 -0.001857 0.000000
# 3 0.004752 -0.000431 0.018238 0.000000 -0.006650 0.000000
# 4 0.000000 0.000000 0.000000 0.046884 0.000000 0.121914
# 5 0.019305 -0.001857 -0.006650 0.000000 0.017857 0.000000
# 6 0.000000 0.000000 0.000000 0.121914 0.000000 -0.015472
#
#
# Mechanical properties :
#
#
# Convention : Reuss Voigt Hill
#
# Bulk Modulus (GPa) = 54.74299 21.70788 38.22544
# Shear Modulus (GPa) = 72.07005 11.66782 41.86893
#
# Velocity S-wave (km/s) = 6.06152 2.43893 4.62008
# Velocity P-wave (km/s) = 8.76914 4.35867 6.92444
#
# Compressibility (1/GPa) = 0.01826718
#
# Stress axis : x y z
#
# Youngs Moduli (GPa) = -91.49241 113.19091 54.82955
#
# Poissons Ratio (x) = 0.36891 -0.26055
# Poissons Ratio (y) = -0.29819 0.02362
# Poissons Ratio (z) = 0.43477 0.04876
#
# Static dielectric constant tensor:
#      x y z
#    x 1.676240 0.000000 0.005730 
#    y 0.000000 1.674550 0.000000 
#    z 0.005730 0.000000 1.686220 
# 
# From -- ./inp_files/70950.got.cif
#   From: 2010.05.17/outbox.cif.g08.bks.cpg/sg12_36_cif.got.tgz:70950.got - 2010.06.03 13:09:07.
