data_PCOD9215264
_publ_section_title
;
Structure prediction by ZEFSAII (Michael W. Deem and Ramdas Pophale) SiO2 
 PCOD9215264
Probable space group: C 2/M
;
_chemical_formula_sum "Si O2"
_cell_formula_units_Z 48
_cell_length_a 15.650358
_cell_length_b 28.615330
_cell_length_c 12.317658
_cell_angle_alpha 90.000000
_cell_angle_beta 26.587576
_cell_angle_gamma 90.000000
_cell_volume 2468.922613
_symmetry_space_group_name_H-M "C 2/M"
_symmetry_group_IT_number 12
_symmetry_cell_setting 'monoclinic'
loop_
_space_group_symop_operation_xyz
x,y,z
-x,y,-z
-x,-y,-z
x,-y,z
1/2+x,1/2+y,z
1/2-x,1/2+y,-z
1/2-x,1/2-y,-z
1/2+x,1/2-y,z
loop_
_atom_site_type_symbol
_atom_site_label
_atom_site_fract_x
_atom_site_fract_y
_atom_site_fract_z
Si Si1 0.339788 0.805977 0.775055
Si Si2 0.257837 0.500000 0.672409
Si Si3 0.375311 0.899531 0.243572
Si Si4 0.017740 0.243538 0.753003
Si Si5 0.167497 0.398592 0.092663
Si Si6 0.501693 0.655557 0.377376
Si Si7 0.203818 0.000000 0.109234
O O1 0.500000 0.800166 0.500000
O O2 0.430792 0.787061 0.785351
O O3 0.310216 0.861986 0.832488
O O4 0.145524 0.774620 0.973418
O O5 0.160824 0.453812 0.737368
O O6 0.474392 0.500000 0.381252
O O7 0.245941 0.500000 0.817950
O O8 0.178190 0.873388 0.456673
O O9 0.500000 0.881678 0.000000
O O10 0.468947 0.893453 0.254667
O O11 0.250000 0.250000 0.500000
O O12 0.991265 0.199850 0.705054
O O13 0.321600 0.379069 0.832370
O O14 0.218538 0.453588 0.039984
O O15 0.500000 0.673179 0.500000
#
# Coordination Sequence:
#
# PCOD9215264 Si02
#       7
#     8   4   8   8   8   8   4
#     4  10  23  44  63  88 122 158 198 251 301 358
#     4  11  20  31  52  82 127 158 194 241 315 356
#     4  12  20  31  51  84 122 158 192 235 300 363
#     4  10  22  41  64  90 115 151 202 245 301 359
#     4  11  22  36  57  82 120 158 199 244 299 358
#     4  11  20  34  53  85 120 151 187 239 296 359
#     4  11  19  34  54  82 117 162 196 250 294 359
#
# _framework density 19.441679000000001
#
# number of rings (size 3 to 8) (size 9 to 14) (size 15 to 20)
#    0.000    1.167    5.000    2.250    0.000    0.667 
#    3.000    0.417    0.000    0.000    0.000    1.167 
#    0.000    0.000    0.000    0.000    0.000    0.000 
#
# Total GULP energy -133626.443842 kJ/mol
# GULP energy per Si atom -5567.768493 kJ/mol
# Density = 1.939743 g / cm^3
# Si number density = 19.441679 Si / 1000 Ang^3
#
#
#
# Elastic Constant Matrix: (Units=GPa)
#
#
# Indices 1 2 3 4 5 6 
#
# 1 33.4566 10.0872 27.3375 0.0046 -21.2602 0.0000
# 2 10.0872 110.9830 18.7757 -0.0019 0.5856 0.0009
# 3 27.3375 18.7757 106.4047 0.0033 -11.6059 0.0019
# 4 0.0046 -0.0019 0.0033 46.8869 -0.0023 -7.7409
# 5 -21.2602 0.5856 -11.6059 -0.0023 36.0985 -0.0005
# 6 0.0000 0.0009 0.0019 -7.7409 -0.0005 10.0392
#
#
#
# Elastic Compliance Matrix: (Units=1/GPa)
#
#
# Indices 1 2 3 4 5 6 
#
# 1 0.060862 -0.003763 -0.011458 -0.000003 0.032222 0.000002
# 2 -0.003763 0.009538 -0.001010 0.000001 -0.002696 0.000000
# 3 -0.011458 -0.001010 0.012214 0.000000 -0.002805 -0.000003
# 4 -0.000003 0.000001 0.000000 0.024439 0.000000 0.018844
# 5 0.032222 -0.002696 -0.002805 0.000000 0.045821 0.000003
# 6 0.000002 0.000000 -0.000003 0.018844 0.000003 0.114139
#
#
# Mechanical properties :
#
#
# Convention : Reuss Voigt Hill
#
# Bulk Modulus (GPa) = 19.93986 40.36057 30.15022
# Shear Modulus (GPa) = 15.81312 31.58120 23.69716
#
# Velocity S-wave (km/s) = 2.85504 4.03477 3.49504
# Velocity P-wave (km/s) = 4.59857 6.52002 5.64170
#
# Compressibility (1/GPa) = 0.05015079
#
# Stress axis : x y z
#
# Youngs Moduli (GPa) = 16.43057 104.84867 81.87192
#
# Poissons Ratio (x) = 0.39458 0.93810
# Poissons Ratio (y) = 0.06183 0.08270
# Poissons Ratio (z) = 0.18826 0.10591
#
# Static dielectric constant tensor:
#      x y z
#    x 1.532410 0.000020 0.080890 
#    y 0.000020 1.535660 0.000000 
#    z 0.080890 0.000000 1.836690 
# 
# From -- ./inp_files/149692.got.cif
#   From: 2010.05.17/outbox.cif.g08.bks.cpg/sg12_75_cif.got.tgz:149692.got - 2010.06.03 13:09:07.
