data_PCOD9215821
_publ_section_title
;
Structure prediction by ZEFSAII (Michael W. Deem and Ramdas Pophale) SiO2 
 PCOD9215821
Probable space group: C 2/M
;
_chemical_formula_sum "Si O2"
_cell_formula_units_Z 64
_cell_length_a 19.551581
_cell_length_b 17.734749
_cell_length_c 22.805179
_cell_angle_alpha 90.000000
_cell_angle_beta 156.124626
_cell_angle_gamma 90.000000
_cell_volume 3200.558480
_symmetry_space_group_name_H-M "C 2/M"
_symmetry_group_IT_number 12
_symmetry_cell_setting 'monoclinic'
loop_
_space_group_symop_operation_xyz
x,y,z
-x,y,-z
-x,-y,-z
x,-y,z
1/2+x,1/2+y,z
1/2-x,1/2+y,-z
1/2-x,1/2-y,-z
1/2+x,1/2-y,z
loop_
_atom_site_type_symbol
_atom_site_label
_atom_site_fract_x
_atom_site_fract_y
_atom_site_fract_z
Si Si1 0.531244 0.320098 0.175146
Si Si2 0.888353 0.290310 0.967381
Si Si3 0.194848 0.586030 0.672796
Si Si4 0.806016 0.587731 0.101936
Si Si5 0.352393 0.590256 0.432277
Si Si6 0.025545 0.583693 0.887268
Si Si7 0.890901 0.678461 0.283982
Si Si8 0.726028 0.736558 0.551187
O O1 0.491883 0.270564 0.086709
O O2 0.678718 0.378120 0.274632
O O3 0.604011 0.264772 0.282279
O O4 0.358276 0.366144 0.049088
O O5 0.860622 0.358687 0.988991
O O6 0.715960 0.252946 0.812600
O O7 0.000000 0.313972 0.000000
O O8 0.242932 0.500000 0.721329
O O9 0.201479 0.632883 0.737572
O O10 0.000000 0.588076 0.500000
O O11 0.763260 0.500000 0.080479
O O12 0.940742 0.589233 0.155359
O O13 0.882841 0.627834 0.219235
O O14 0.500000 0.605845 0.500000
O O15 0.366393 0.500000 0.461241
O O16 0.333595 0.654333 0.469210
O O17 0.172467 0.597366 0.258105
O O18 0.068480 0.500000 0.939991
O O19 0.074918 0.705300 0.447529
O O20 0.750000 0.750000 0.500000
#
# Coordination Sequence:
#
# PCOD9215821 Si02
#       8
#     8   8   8   8   8   8   8   8
#     4  11  23  41  65  93 130 172 223 271 324 395
#     4  11  23  38  62  93 122 162 209 266 323 384
#     4  11  22  39  60  92 128 168 213 267 328 391
#     4  10  23  43  65  92 132 180 220 268 333 407
#     4  10  23  44  72 100 134 182 229 280 339 407
#     4  10  22  42  66  91 126 171 216 271 336 395
#     4  11  24  38  64  94 129 169 216 267 332 399
#     4  12  26  42  68 103 135 178 222 279 344 402
#
# _framework density 19.996510000000001
#
# number of rings (size 3 to 8) (size 9 to 14) (size 15 to 20)
#    0.000    1.250    3.750    1.500    5.250    1.250 
#    0.000    4.375    0.000    0.000    0.000    0.000 
#    0.000    0.000    0.000    0.000    0.000    0.000 
#
# Total GULP energy -178576.440532 kJ/mol
# GULP energy per Si atom -5580.513767 kJ/mol
# Density = 1.995100 g / cm^3
# Si number density = 19.996510 Si / 1000 Ang^3
#
#
#
# Elastic Constant Matrix: (Units=GPa)
#
#
# Indices 1 2 3 4 5 6 
#
# 1 55.2432 33.5441 3.2899 -0.0033 2.0346 -0.0014
# 2 33.5441 121.5110 26.7192 -0.0018 2.2292 0.0058
# 3 3.2899 26.7192 70.9427 0.0285 -0.8101 -0.0083
# 4 -0.0033 -0.0018 0.0285 -101.3930 -0.0131 58.1704
# 5 2.0346 2.2292 -0.8101 -0.0131 23.3937 0.0069
# 6 -0.0014 0.0058 -0.0083 58.1704 0.0069 0.3208
#
#
#
# Elastic Compliance Matrix: (Units=1/GPa)
#
#
# Indices 1 2 3 4 5 6 
#
# 1 0.021906 -0.006321 0.001351 0.000001 -0.001256 0.000003
# 2 -0.006321 0.010819 -0.003789 -0.000002 -0.000612 -0.000001
# 3 0.001351 -0.003789 0.015469 0.000003 0.000779 -0.000003
# 4 0.000001 -0.000002 0.000003 -0.000094 -0.000005 0.017027
# 5 -0.001256 -0.000612 0.000779 -0.000005 0.042941 0.000001
# 6 0.000003 -0.000001 -0.000003 0.017027 0.000001 0.029679
#
#
# Mechanical properties :
#
#
# Convention : Reuss Voigt Hill
#
# Bulk Modulus (GPa) = 32.59938 41.64479 37.12209
# Shear Modulus (GPa) = 33.67819 -3.25945 15.20937
#
# Velocity S-wave (km/s) = 4.10836 -1.27810 2.76089
# Velocity P-wave (km/s) = 6.23239 4.32356 5.36358
#
# Compressibility (1/GPa) = 0.03067543
#
# Stress axis : x y z
#
# Youngs Moduli (GPa) = 45.64978 92.42949 64.64512
#
# Poissons Ratio (x) = 0.58427 -0.08731
# Poissons Ratio (y) = 0.28856 0.24492
# Poissons Ratio (z) = -0.06165 0.35018
#
# Static dielectric constant tensor:
#      x y z
#    x 1.694760 0.000020 0.015470 
#    y 0.000020 1.859580 0.000000 
#    z 0.015470 0.000000 1.693930 
# 
# From -- ./inp_files/347886.got.cif
#   From: 2010.05.17/outbox.cif.g08.bks.cpg/sg12_174_cif.got.tgz:347886.got - 2010.06.03 13:09:07.
