data_PCOD9215868
_publ_section_title
;
Structure prediction by ZEFSAII (Michael W. Deem and Ramdas Pophale) SiO2 
 PCOD9215868
Probable space group: C 2/M
;
_chemical_formula_sum "Si O2"
_cell_formula_units_Z 48
_cell_length_a 14.835219
_cell_length_b 26.788855
_cell_length_c 9.540857
_cell_angle_alpha 90.000000
_cell_angle_beta 141.050465
_cell_angle_gamma 90.000000
_cell_volume 2383.606207
_symmetry_space_group_name_H-M "C 2/M"
_symmetry_group_IT_number 12
_symmetry_cell_setting 'monoclinic'
loop_
_space_group_symop_operation_xyz
x,y,z
-x,y,-z
-x,-y,-z
x,-y,z
1/2+x,1/2+y,z
1/2-x,1/2+y,-z
1/2-x,1/2-y,-z
1/2+x,1/2-y,z
loop_
_atom_site_type_symbol
_atom_site_label
_atom_site_fract_x
_atom_site_fract_y
_atom_site_fract_z
Si Si1 0.722404 0.371724 0.376941
Si Si2 0.830946 0.758945 0.748259
Si Si3 0.224856 0.059018 0.121788
Si Si4 0.771738 0.201600 0.118466
Si Si5 0.007688 0.117780 0.668885
Si Si6 0.540115 0.132984 0.698728
O O1 0.686128 0.318983 0.257143
O O2 0.688511 0.415846 0.227060
O O3 0.636488 0.376069 0.416809
O O4 0.892747 0.374733 0.600991
O O5 0.750000 0.750000 0.500000
O O6 0.741772 0.722654 0.742368
O O7 0.000000 0.749380 0.000000
O O8 0.372657 0.084104 0.245117
O O9 0.233216 0.000000 0.139328
O O10 0.105365 0.079346 0.871955
O O11 0.913172 0.171401 0.247136
O O12 0.750000 0.250000 0.000000
O O13 0.643706 0.164836 0.920686
O O14 0.000000 0.100283 0.500000
O O15 0.500000 0.158600 0.500000
#
# Coordination Sequence:
#
# PCOD9215868 Si02
#       6
#     8   8   8   8   8   8
#     4  11  22  40  64  93 126 162 213 266 317 385
#     4  12  24  39  62  93 130 174 223 271 321 385
#     4  10  22  42  67  92 120 158 208 267 328 389
#     4  11  22  37  58  85 123 168 211 258 317 380
#     4  11  24  40  59  88 127 166 207 262 324 389
#     4   9  20  38  62  92 124 159 207 266 321 385
#
# _framework density 20.137554000000002
#
# number of rings (size 3 to 8) (size 9 to 14) (size 15 to 20)
#    0.000    1.333    0.000    7.500    0.000    6.667 
#    0.000    2.500    0.000    1.000    0.000    0.000 
#    0.000    0.000    0.000    0.000    0.000    0.000 
#
# Total GULP energy -133979.328770 kJ/mol
# GULP energy per Si atom -5582.472032 kJ/mol
# Density = 2.009172 g / cm^3
# Si number density = 20.137554 Si / 1000 Ang^3
#
#
#
# Elastic Constant Matrix: (Units=GPa)
#
#
# Indices 1 2 3 4 5 6 
#
# 1 197.1305 59.6301 80.5771 0.0000 2.0339 0.0000
# 2 59.6301 126.9014 29.0656 0.0000 -14.1462 0.0000
# 3 80.5771 29.0656 94.1137 0.0000 -9.2437 0.0000
# 4 0.0000 0.0000 0.0000 6.1246 0.0000 -6.0536
# 5 2.0339 -14.1462 -9.2437 0.0000 36.3904 0.0000
# 6 0.0000 0.0000 0.0000 -6.0536 0.0000 23.6051
#
#
#
# Elastic Compliance Matrix: (Units=1/GPa)
#
#
# Indices 1 2 3 4 5 6 
#
# 1 0.008867 -0.002940 -0.007019 0.000000 -0.003421 0.000000
# 2 -0.002940 0.009721 -0.000100 0.000000 0.003918 0.000000
# 3 -0.007019 -0.000100 0.017128 0.000000 0.004704 0.000000
# 4 0.000000 0.000000 0.000000 0.218716 0.000000 0.056091
# 5 -0.003421 0.003918 0.004704 0.000000 0.030389 0.000000
# 6 0.000000 0.000000 0.000000 0.056091 0.000000 0.056749
#
#
# Mechanical properties :
#
#
# Convention : Reuss Voigt Hill
#
# Bulk Modulus (GPa) = 64.11601 84.07680 74.09641
# Shear Modulus (GPa) = 13.62816 29.81553 21.72184
#
# Velocity S-wave (km/s) = 2.60427 3.85202 3.28788
# Velocity P-wave (km/s) = 6.39931 7.85022 7.16160
#
# Compressibility (1/GPa) = 0.01559673
#
# Stress axis : x y z
#
# Youngs Moduli (GPa) = 112.78315 102.86635 58.38320
#
# Poissons Ratio (x) = 0.30243 0.40981
# Poissons Ratio (y) = 0.33159 0.00586
# Poissons Ratio (z) = 0.79166 0.01032
#
# Static dielectric constant tensor:
#      x y z
#    x 1.735780 0.000000 0.016850 
#    y 0.000000 1.676010 0.000000 
#    z 0.016850 0.000000 1.764420 
# 
# From -- ./inp_files/67433.got.cif
#   From: 2010.05.17/outbox.cif.g08.bks.cpg/sg12_34_cif.got.tgz:67433.got - 2010.06.03 13:09:07.
