data_PCOD9215740
_publ_section_title
;
Structure prediction by ZEFSAII (Michael W. Deem and Ramdas Pophale) SiO2 
 PCOD9215740
Probable space group: C 2/M
;
_chemical_formula_sum "Si O2"
_cell_formula_units_Z 40
_cell_length_a 13.286102
_cell_length_b 25.723585
_cell_length_c 5.473907
_cell_angle_alpha 90.000000
_cell_angle_beta 74.489090
_cell_angle_gamma 90.000000
_cell_volume 1802.661010
_symmetry_space_group_name_H-M "C 2/M"
_symmetry_group_IT_number 12
_symmetry_cell_setting 'monoclinic'
loop_
_space_group_symop_operation_xyz
x,y,z
-x,y,-z
-x,-y,-z
x,-y,z
1/2+x,1/2+y,z
1/2-x,1/2+y,-z
1/2-x,1/2-y,-z
1/2+x,1/2-y,z
loop_
_atom_site_type_symbol
_atom_site_label
_atom_site_fract_x
_atom_site_fract_y
_atom_site_fract_z
Si Si1 0.242640 0.622025 0.833004
Si Si2 0.117135 0.790257 0.512935
Si Si3 0.434486 0.060517 0.296753
Si Si4 0.266523 0.796689 0.802460
Si Si5 0.055389 0.937707 0.211502
O O1 0.314504 0.667281 0.674754
O O2 0.162544 0.598358 0.692320
O O3 0.323981 0.578609 0.865900
O O4 0.191128 0.651943 0.095574
O O5 0.151281 0.804636 0.764343
O O6 0.157001 0.730832 0.442469
O O7 0.000000 0.793565 0.500000
O O8 0.500000 0.072560 0.500000
O O9 0.399955 0.000000 0.345208
O O10 0.500000 0.063187 0.000000
O O11 0.250000 0.750000 0.000000
O O12 0.000000 0.919631 0.500000
O O13 0.047762 0.000000 0.215590
O O14 0.000000 0.918208 0.000000
#
# Coordination Sequence:
#
# PCOD9215740 Si02
#       5
#     8   8   8   8   8
#     4  11  23  38  66  96 127 172 228 271 329 400
#     4  10  22  42  64  91 133 173 216 277 342 406
#     4  10  24  46  68  96 135 178 224 280 339 393
#     4   9  22  42  58  92 127 171 224 270 336 396
#     4  10  23  40  62  99 139 174 212 263 330 397
#
# _framework density 22.189418
#
# number of rings (size 3 to 8) (size 9 to 14) (size 15 to 20)
#    0.000    2.000    0.000    1.200    8.400    2.400 
#   10.800    6.000    0.000    0.000    0.000    0.000 
#    0.000    0.000    0.000    0.000    0.000    0.000 
#
# Total GULP energy -111582.045912 kJ/mol
# GULP energy per Si atom -5579.102296 kJ/mol
# Density = 2.213891 g / cm^3
# Si number density = 22.189418 Si / 1000 Ang^3
#
#
#
# Elastic Constant Matrix: (Units=GPa)
#
#
# Indices 1 2 3 4 5 6 
#
# 1 169.5611 74.0813 49.6495 0.0000 45.4590 0.0000
# 2 74.0813 75.1925 40.0078 0.0000 12.0197 0.0000
# 3 49.6495 40.0078 96.3459 0.0000 39.7798 0.0000
# 4 0.0000 0.0000 0.0000 21.3058 0.0000 -0.3445
# 5 45.4590 12.0197 39.7798 0.0000 41.6151 0.0000
# 6 0.0000 0.0000 0.0000 -0.3445 0.0000 33.5522
#
#
#
# Elastic Compliance Matrix: (Units=1/GPa)
#
#
# Indices 1 2 3 4 5 6 
#
# 1 0.016346 -0.016388 0.006277 0.000000 -0.019123 0.000000
# 2 -0.016388 0.033737 -0.014756 0.000000 0.022262 0.000000
# 3 0.006277 -0.014756 0.023696 0.000000 -0.025245 0.000000
# 4 0.000000 0.000000 0.000000 0.046943 0.000000 0.000482
# 5 -0.019123 0.022262 -0.025245 0.000000 0.062621 0.000000
# 6 0.000000 0.000000 0.000000 0.000482 0.000000 0.029809
#
#
# Mechanical properties :
#
#
# Convention : Reuss Voigt Hill
#
# Bulk Modulus (GPa) = 41.58870 74.28630 57.93750
# Shear Modulus (GPa) = 18.45692 31.11869 24.78781
#
# Velocity S-wave (km/s) = 2.88720 3.74894 3.34593
# Velocity P-wave (km/s) = 5.46789 7.23121 6.41047
#
# Compressibility (1/GPa) = 0.02404500
#
# Stress axis : x y z
#
# Youngs Moduli (GPa) = 61.17651 29.64080 42.20200
#
# Poissons Ratio (x) = 0.48574 -0.26490
# Poissons Ratio (y) = 1.00253 0.62275
# Poissons Ratio (z) = -0.38400 0.43739
#
# Static dielectric constant tensor:
#      x y z
#    x 1.793850 0.000000 0.008040 
#    y 0.000000 1.811170 0.000000 
#    z 0.008040 0.000000 2.229470 
# 
# From -- ./inp_files/7573.got.cif
#   From: 2010.05.17/outbox.cif.g08.bks.cpg/sg12_4_cif.got.tgz:7573.got - 2010.06.03 13:09:07.
