data_PCOD9215542
_publ_section_title
;
Structure prediction by ZEFSAII (Michael W. Deem and Ramdas Pophale) SiO2 
 PCOD9215542
Probable space group: C 2/M
;
_chemical_formula_sum "Si O2"
_cell_formula_units_Z 32
_cell_length_a 11.192037
_cell_length_b 16.553831
_cell_length_c 7.808580
_cell_angle_alpha 90.000000
_cell_angle_beta 52.194143
_cell_angle_gamma 90.000000
_cell_volume 1143.029865
_symmetry_space_group_name_H-M "C 2/M"
_symmetry_group_IT_number 12
_symmetry_cell_setting 'monoclinic'
loop_
_space_group_symop_operation_xyz
x,y,z
-x,y,-z
-x,-y,-z
x,-y,z
1/2+x,1/2+y,z
1/2-x,1/2+y,-z
1/2-x,1/2-y,-z
1/2+x,1/2-y,z
loop_
_atom_site_type_symbol
_atom_site_label
_atom_site_fract_x
_atom_site_fract_y
_atom_site_fract_z
Si Si1 0.269838 0.091877 0.943358
Si Si2 0.884660 0.912256 0.284512
Si Si3 0.842555 0.615756 0.231000
Si Si4 0.498540 0.242253 0.295746
O O1 0.166219 0.098209 0.866828
O O2 0.370045 0.175016 0.851375
O O3 0.338040 0.000000 0.860700
O O4 0.226952 0.096039 0.181882
O O5 0.729546 0.916856 0.531762
O O6 0.978435 0.835605 0.266218
O O7 0.960119 0.000000 0.240525
O O8 0.873681 0.706113 0.271181
O O9 0.000000 0.588902 0.000000
O O10 0.500000 0.239562 0.500000
#
# Coordination Sequence:
#
# PCOD9215542 Si02
#       4
#     8   8   8   8
#     4  10  23  43  70  98 128 170 220 274 327 380
#     4  11  24  44  69  96 132 174 219 268 323 390
#     4  10  22  41  67  97 129 167 216 272 325 378
#     4  11  23  42  66  98 135 171 216 267 328 387
#
# _framework density 27.995768000000002
#
# number of rings (size 3 to 8) (size 9 to 14) (size 15 to 20)
#    0.000    1.500    2.500    1.500    0.000   11.000 
#    9.000    0.000    0.000    6.750    0.000    0.000 
#    0.000    0.000    0.000    0.000    0.000    0.000 
#
# Total GULP energy -89107.764222 kJ/mol
# GULP energy per Si atom -5569.235264 kJ/mol
# Density = 2.793205 g / cm^3
# Si number density = 27.995768 Si / 1000 Ang^3
#
#
#
# Elastic Constant Matrix: (Units=GPa)
#
#
# Indices 1 2 3 4 5 6 
#
# 1 139.8653 82.8446 29.3652 0.0000 39.3928 0.0000
# 2 82.8446 244.2147 45.0681 0.0000 18.3764 0.0000
# 3 29.3652 45.0681 192.0523 0.0000 25.9030 0.0000
# 4 0.0000 0.0000 0.0000 27.0121 0.0000 15.6726
# 5 39.3928 18.3764 25.9030 0.0000 57.4483 0.0000
# 6 0.0000 0.0000 0.0000 15.6726 0.0000 61.3704
#
#
#
# Elastic Compliance Matrix: (Units=1/GPa)
#
#
# Indices 1 2 3 4 5 6 
#
# 1 0.010852 -0.003191 -0.000047 0.000000 -0.006399 0.000000
# 2 -0.003191 0.005270 -0.000869 0.000000 0.000894 0.000000
# 3 -0.000047 -0.000869 0.005724 0.000000 -0.002270 0.000000
# 4 0.000000 0.000000 0.000000 0.043460 0.000000 -0.011099
# 5 -0.006399 0.000894 -0.002270 0.000000 0.022533 0.000000
# 6 0.000000 0.000000 0.000000 -0.011099 0.000000 0.019129
#
#
# Mechanical properties :
#
#
# Convention : Reuss Voigt Hill
#
# Bulk Modulus (GPa) = 73.36149 98.96533 86.16341
# Shear Modulus (GPa) = 41.76128 57.08979 49.42553
#
# Velocity S-wave (km/s) = 3.86644 4.52068 4.20630
# Velocity P-wave (km/s) = 6.79661 7.91679 7.37799
#
# Compressibility (1/GPa) = 0.01363113
#
# Stress axis : x y z
#
# Youngs Moduli (GPa) = 92.14735 189.73774 174.68989
#
# Poissons Ratio (x) = 0.60547 0.00828
# Poissons Ratio (y) = 0.29405 0.15189
# Poissons Ratio (z) = 0.00437 0.16497
#
# Static dielectric constant tensor:
#      x y z
#    x 2.490660 0.000000 -0.182370 
#    y 0.000000 2.205550 0.000000 
#    z -0.182370 0.000000 2.137100 
# 
# From -- ./inp_files/57693.got.cif
#   From: 2010.05.17/outbox.cif.g08.bks.cpg/sg12_29_cif.got.tgz:57693.got - 2010.06.03 13:09:07.
