data_PCOD9215020
_publ_section_title
;
Structure prediction by ZEFSAII (Michael W. Deem and Ramdas Pophale) SiO2 
 PCOD9215020
Probable space group: C 2/M
;
_chemical_formula_sum "Si O2"
_cell_formula_units_Z 48
_cell_length_a 13.237947
_cell_length_b 25.067452
_cell_length_c 9.074255
_cell_angle_alpha 90.000000
_cell_angle_beta 41.610086
_cell_angle_gamma 90.000000
_cell_volume 1999.621133
_symmetry_space_group_name_H-M "C 2/M"
_symmetry_group_IT_number 12
_symmetry_cell_setting 'monoclinic'
loop_
_space_group_symop_operation_xyz
x,y,z
-x,y,-z
-x,-y,-z
x,-y,z
1/2+x,1/2+y,z
1/2-x,1/2+y,-z
1/2-x,1/2-y,-z
1/2+x,1/2-y,z
loop_
_atom_site_type_symbol
_atom_site_label
_atom_site_fract_x
_atom_site_fract_y
_atom_site_fract_z
Si Si1 0.601598 0.121800 0.259642
Si Si2 0.841547 0.854413 0.513631
Si Si3 0.917587 0.942537 0.247155
Si Si4 0.047452 0.695858 0.800197
Si Si5 0.305038 0.439255 0.819111
Si Si6 0.590979 0.688745 0.048799
O O1 0.500000 0.098010 0.500000
O O2 0.490563 0.162562 0.299487
O O3 0.667629 0.078217 0.075022
O O4 0.747330 0.159916 0.138171
O O5 0.728887 0.803734 0.625253
O O6 0.823484 0.893164 0.674543
O O7 0.809475 0.894909 0.412670
O O8 0.006204 0.831212 0.289515
O O9 0.048869 0.941615 0.230325
O O10 0.840618 0.000000 0.333401
O O11 0.000000 0.937872 0.000000
O O12 0.938926 0.747698 0.915634
O O13 0.000000 0.664613 0.000000
O O14 0.288892 0.500000 0.776813
O O15 0.500000 0.673569 0.000000
#
# Coordination Sequence:
#
# PCOD9215020 Si02
#       6
#     8   8   8   8   8   8
#     4  12  26  47  71 102 147 192 242 303 361 434
#     4  12  22  42  74 103 144 185 235 306 359 428
#     4  10  22  40  68 106 145 188 243 296 355 429
#     4  11  25  46  68 105 146 184 239 297 366 440
#     4  11  25  45  72 108 148 195 248 300 367 435
#     4  11  25  46  74 107 141 190 243 298 366 431
#
# _framework density 24.004546000000001
#
# number of rings (size 3 to 8) (size 9 to 14) (size 15 to 20)
#    0.000    0.833    3.333    3.500    2.333    3.000 
#    3.000    2.500    0.000    0.000    0.000    0.000 
#    0.000    0.000    0.000    0.000    0.000    0.000 
#
# Total GULP energy -133863.697875 kJ/mol
# GULP energy per Si atom -5577.654078 kJ/mol
# Density = 2.394991 g / cm^3
# Si number density = 24.004546 Si / 1000 Ang^3
#
#
#
# Elastic Constant Matrix: (Units=GPa)
#
#
# Indices 1 2 3 4 5 6 
#
# 1 75.8033 21.3454 34.8162 0.0000 -0.1695 0.0000
# 2 21.3454 91.2800 19.0291 0.0000 3.5267 0.0000
# 3 34.8162 19.0291 163.1111 0.0000 5.2606 0.0000
# 4 0.0000 0.0000 0.0000 18.4091 0.0000 17.4017
# 5 -0.1695 3.5267 5.2606 0.0000 37.1766 0.0000
# 6 0.0000 0.0000 0.0000 17.4017 0.0000 16.4517
#
#
#
# Elastic Compliance Matrix: (Units=1/GPa)
#
#
# Indices 1 2 3 4 5 6 
#
# 1 0.015403 -0.003015 -0.002961 0.000000 0.000775 0.000000
# 2 -0.003015 0.011847 -0.000705 0.000000 -0.001038 0.000000
# 3 -0.002961 -0.000705 0.006875 0.000000 -0.000919 0.000000
# 4 0.000000 0.000000 0.000000381.049809 -0.000001**********
# 5 0.000775 -0.001038 -0.000919 -0.000001 0.027131 0.000001
# 6 0.000000 0.000000 0.000000********** 0.000001426.386222
#
#
# Mechanical properties :
#
#
# Convention : Reuss Voigt Hill
#
# Bulk Modulus (GPa) = 48.16211 53.39730 50.77971
# Shear Modulus (GPa) = 0.00619 31.40773 15.70696
#
# Velocity S-wave (km/s) = 0.05084 3.62112 2.56077
# Velocity P-wave (km/s) = 4.48450 6.30684 5.47207
#
# Compressibility (1/GPa) = 0.02076321
#
# Stress axis : x y z
#
# Youngs Moduli (GPa) = 64.92401 84.40709 145.45978
#
# Poissons Ratio (x) = 0.25445 0.43071
# Poissons Ratio (y) = 0.19571 0.10258
# Poissons Ratio (z) = 0.19224 0.05953
#
# Static dielectric constant tensor:
#      x y z
#    x 1.988870 0.000000 -0.020070 
#    y 0.000000 1.999460 0.000000 
#    z -0.020070 0.000000 1.981800 
# 
# From -- ./inp_files/67335.got.cif
#   From: 2010.05.17/outbox.cif.g08.bks.cpg/sg12_34_cif.got.tgz:67335.got - 2010.06.03 13:09:07.
