data_PCOD9215697
_publ_section_title
;
Structure prediction by ZEFSAII (Michael W. Deem and Ramdas Pophale) SiO2 
 PCOD9215697
Probable space group: C 2/M
;
_chemical_formula_sum "Si O2"
_cell_formula_units_Z 44
_cell_length_a 9.860225
_cell_length_b 9.485554
_cell_length_c 26.850397
_cell_angle_alpha 90.000000
_cell_angle_beta 123.474105
_cell_angle_gamma 90.000000
_cell_volume 2094.771608
_symmetry_space_group_name_H-M "C 2/M"
_symmetry_group_IT_number 12
_symmetry_cell_setting 'monoclinic'
loop_
_space_group_symop_operation_xyz
x,y,z
-x,y,-z
-x,-y,-z
x,-y,z
1/2+x,1/2+y,z
1/2-x,1/2+y,-z
1/2-x,1/2-y,-z
1/2+x,1/2-y,z
loop_
_atom_site_type_symbol
_atom_site_label
_atom_site_fract_x
_atom_site_fract_y
_atom_site_fract_z
Si Si1 0.305890 0.834084 0.832718
Si Si2 0.428541 0.664676 0.764867
Si Si3 0.785986 0.335946 0.374169
Si Si4 0.679919 0.000000 0.981376
Si Si5 0.887720 0.835329 0.557332
Si Si6 0.172462 0.228753 0.051892
O O1 0.400283 0.760901 0.807042
O O2 0.331471 0.757238 0.890556
O O3 0.112735 0.821999 0.783044
O O4 0.343511 0.000000 0.846302
O O5 0.404745 0.500000 0.773898
O O6 0.303918 0.700049 0.695473
O O7 0.840136 0.500000 0.382596
O O8 0.660012 0.326129 0.394133
O O9 0.938674 0.236731 0.415351
O O10 0.692053 0.124111 0.940881
O O11 0.684305 0.123091 0.025738
O O12 0.750000 0.750000 0.500000
O O13 0.888476 0.000000 0.543146
O O14 0.000000 0.163179 0.000000
#
# Coordination Sequence:
#
# PCOD9215697 Si02
#       6
#     8   8   8   4   8   8
#     4  11  25  41  63  91 125 157 209 260 309 374
#     4  10  24  43  63  89 120 166 208 254 308 365
#     4  10  22  42  63  87 128 166 208 256 306 360
#     4  10  24  40  60  86 120 154 200 242 324 372
#     4  11  23  39  65  98 131 167 207 254 305 360
#     4  11  24  39  62  87 119 157 198 254 315 376
#
# _framework density 21.004677000000001
#
# number of rings (size 3 to 8) (size 9 to 14) (size 15 to 20)
#    0.000    1.455    0.909    2.727    6.364    6.545 
#    0.000    0.000    0.000    0.000    0.000    0.000 
#    0.000    0.000    0.000    0.000    0.000    0.000 
#
# Total GULP energy -122609.758503 kJ/mol
# GULP energy per Si atom -5573.170841 kJ/mol
# Density = 2.095687 g / cm^3
# Si number density = 21.004677 Si / 1000 Ang^3
#
#
#
# Elastic Constant Matrix: (Units=GPa)
#
#
# Indices 1 2 3 4 5 6 
#
# 1 51.8498 15.1321 -9.5889 0.0000 3.2377 0.0000
# 2 15.1321 88.2499 15.9915 0.0000 -5.3066 0.0000
# 3 -9.5889 15.9915 69.1004 0.0000 -5.7349 0.0000
# 4 0.0000 0.0000 0.0000 -10.8486 0.0000 22.4315
# 5 3.2377 -5.3066 -5.7349 0.0000 39.6174 0.0000
# 6 0.0000 0.0000 0.0000 22.4315 0.0000 5.0097
#
#
#
# Elastic Compliance Matrix: (Units=1/GPa)
#
#
# Indices 1 2 3 4 5 6 
#
# 1 0.021420 -0.004480 0.003860 0.000000 -0.001792 0.000000
# 2 -0.004480 0.012821 -0.003457 0.000000 0.001583 0.000000
# 3 0.003860 -0.003457 0.015934 0.000000 0.001528 0.000000
# 4 0.000000 0.000000 0.000000 -0.008986 0.000000 0.040234
# 5 -0.001792 0.001583 0.001528 0.000000 0.025821 0.000000
# 6 0.000000 0.000000 0.000000 0.040234 0.000000 0.019459
#
#
# Mechanical properties :
#
#
# Convention : Reuss Voigt Hill
#
# Bulk Modulus (GPa) = 23.79744 28.02992 25.91368
# Shear Modulus (GPa) = 46.02741 19.26673 32.64707
#
# Velocity S-wave (km/s) = 4.68620 3.03191 3.94671
# Velocity P-wave (km/s) = 6.37455 5.06263 5.75609
#
# Compressibility (1/GPa) = 0.04202133
#
# Stress axis : x y z
#
# Youngs Moduli (GPa) = 46.68575 77.99487 62.75744
#
# Poissons Ratio (x) = 0.34943 -0.24227
# Poissons Ratio (y) = 0.20916 0.21698
# Poissons Ratio (z) = -0.18023 0.26967
#
# Static dielectric constant tensor:
#      x y z
#    x 1.813420 0.000000 0.040790 
#    y 0.000000 1.715400 0.000000 
#    z 0.040790 0.000000 1.736170 
# 
# From -- ./inp_files/303657.got.cif
#   From: 2010.05.17/outbox.cif.g08.bks.cpg/sg12_152_cif.got.tgz:303657.got - 2010.06.03 13:09:07.
