data_PCOD9215353
_publ_section_title
;
Structure prediction by ZEFSAII (Michael W. Deem and Ramdas Pophale) SiO2 
 PCOD9215353
Probable space group: C 2/M
;
_chemical_formula_sum "Si O2"
_cell_formula_units_Z 56
_cell_length_a 26.184944
_cell_length_b 7.873778
_cell_length_c 12.749464
_cell_angle_alpha 90.000000
_cell_angle_beta 109.863634
_cell_angle_gamma 90.000000
_cell_volume 2472.221502
_symmetry_space_group_name_H-M "C 2/M"
_symmetry_group_IT_number 12
_symmetry_cell_setting 'monoclinic'
loop_
_space_group_symop_operation_xyz
x,y,z
-x,y,-z
-x,-y,-z
x,-y,z
1/2+x,1/2+y,z
1/2-x,1/2+y,-z
1/2-x,1/2-y,-z
1/2+x,1/2-y,z
loop_
_atom_site_type_symbol
_atom_site_label
_atom_site_fract_x
_atom_site_fract_y
_atom_site_fract_z
Si Si1 0.631926 0.792066 0.294901
Si Si2 0.253244 0.694753 0.335596
Si Si3 0.459067 0.694418 0.387558
Si Si4 0.601076 0.296385 0.846448
Si Si5 0.278752 0.804437 0.126926
Si Si6 0.437971 0.794796 0.952122
Si Si7 0.370518 0.802771 0.474798
O O1 0.694196 0.735302 0.323540
O O2 0.594389 0.733995 0.173051
O O3 0.612676 0.743427 0.397509
O O4 0.632854 0.000000 0.293514
O O5 0.256188 0.500000 0.373740
O O6 0.259129 0.701105 0.213863
O O7 0.305726 0.787655 0.418130
O O8 0.500000 0.776575 0.500000
O O9 0.477543 0.500000 0.385038
O O10 0.447196 0.767260 0.264198
O O11 0.401328 0.699404 0.406984
O O12 0.604806 0.500000 0.836701
O O13 0.657315 0.217903 0.846917
O O14 0.590816 0.255155 0.959941
O O15 0.266283 0.000000 0.140704
O O16 0.250000 0.750000 0.000000
O O17 0.438802 0.000000 0.947754
O O18 0.500000 0.733499 0.000000
O O19 0.385216 0.000000 0.471484
#
# Coordination Sequence:
#
# PCOD9215353 Si02
#       7
#     8   8   8   8   8   8   8
#     4   9  21  39  59  88 123 161 203 255 307 364
#     4  11  21  38  61  87 125 165 204 250 308 370
#     4  10  23  42  63  89 124 165 207 255 316 373
#     4  11  23  41  64  91 126 162 207 260 313 372
#     4  12  24  39  62  92 126 163 207 255 309 370
#     4  10  22  41  65  90 122 164 211 260 314 369
#     4  11  22  38  62  92 124 158 205 256 310 371
#
# _framework density 22.651692000000001
#
# number of rings (size 3 to 8) (size 9 to 14) (size 15 to 20)
#    0.000    1.429    1.429    3.857    2.000    2.286 
#    0.000    4.286    0.000    0.000    0.000    0.000 
#    0.000    0.000    0.000    0.000    0.000    0.000 
#
# Total GULP energy -156599.130741 kJ/mol
# GULP energy per Si atom -5592.826098 kJ/mol
# Density = 2.260014 g / cm^3
# Si number density = 22.651692 Si / 1000 Ang^3
#
#
#
# Elastic Constant Matrix: (Units=GPa)
#
#
# Indices 1 2 3 4 5 6 
#
# 1 30.7390 -4.1132 -2.9897 0.0000 5.2516 0.0000
# 2 -4.1132 48.9516 -3.5904 0.0000 6.4075 0.0000
# 3 -2.9897 -3.5904 154.8885 0.0000 9.5074 0.0000
# 4 0.0000 0.0000 0.0000 21.5298 0.0000 1.5016
# 5 5.2516 6.4075 9.5074 0.0000 42.0650 0.0000
# 6 0.0000 0.0000 0.0000 1.5016 0.0000 5.0614
#
#
#
# Elastic Compliance Matrix: (Units=1/GPa)
#
#
# Indices 1 2 3 4 5 6 
#
# 1 0.033973 0.003589 0.001047 0.000000 -0.005025 0.000000
# 2 0.003589 0.021296 0.000801 0.000000 -0.003873 0.000000
# 3 0.001047 0.000801 0.006602 0.000000 -0.001745 0.000000
# 4 0.000000 0.000000 0.000000 0.047429 0.000000 -0.014071
# 5 -0.005025 -0.003873 -0.001745 0.000000 0.025384 0.000000
# 6 0.000000 0.000000 0.000000 -0.014071 0.000000 0.201747
#
#
# Mechanical properties :
#
#
# Convention : Reuss Voigt Hill
#
# Bulk Modulus (GPa) = 13.74677 23.68807 18.71742
# Shear Modulus (GPa) = 14.29370 30.08274 22.18822
#
# Velocity S-wave (km/s) = 2.51474 3.64821 3.13315
# Velocity P-wave (km/s) = 3.80970 5.31282 4.62276
#
# Compressibility (1/GPa) = 0.07274438
#
# Stress axis : x y z
#
# Youngs Moduli (GPa) = 29.43556 46.95814 151.46604
#
# Poissons Ratio (x) = -0.16854 -0.15864
# Poissons Ratio (y) = -0.10565 -0.12127
# Poissons Ratio (z) = -0.03083 -0.03760
#
# Static dielectric constant tensor:
#      x y z
#    x 1.876560 0.000000 -0.026590 
#    y 0.000000 1.834310 0.000000 
#    z -0.026590 0.000000 1.896910 
# 
# From -- ./inp_files/180872.got.cif
#   From: 2010.05.17/outbox.cif.g08.bks.cpg/sg12_91_cif.got.tgz:180872.got - 2010.06.03 13:09:07.
