data_PCOD9215726
_publ_section_title
;
Structure prediction by ZEFSAII (Michael W. Deem and Ramdas Pophale) SiO2 
 PCOD9215726
Probable space group: C 2/M
;
_chemical_formula_sum "Si O2"
_cell_formula_units_Z 44
_cell_length_a 9.506940
_cell_length_b 9.632391
_cell_length_c 26.092271
_cell_angle_alpha 90.000000
_cell_angle_beta 57.002642
_cell_angle_gamma 90.000000
_cell_volume 2003.969667
_symmetry_space_group_name_H-M "C 2/M"
_symmetry_group_IT_number 12
_symmetry_cell_setting 'monoclinic'
loop_
_space_group_symop_operation_xyz
x,y,z
-x,y,-z
-x,-y,-z
x,-y,z
1/2+x,1/2+y,z
1/2-x,1/2+y,-z
1/2-x,1/2-y,-z
1/2+x,1/2-y,z
loop_
_atom_site_type_symbol
_atom_site_label
_atom_site_fract_x
_atom_site_fract_y
_atom_site_fract_z
Si Si1 0.029471 0.662352 0.757291
Si Si2 0.620829 0.660250 0.370608
Si Si3 0.685359 0.500000 0.007488
Si Si4 0.818295 0.279746 0.055162
Si Si5 0.214715 0.664522 0.819204
Si Si6 0.696790 0.837190 0.560074
O O1 0.985292 0.500000 0.761000
O O2 0.205697 0.683268 0.693834
O O3 0.063771 0.695310 0.810319
O O4 0.880281 0.757052 0.767631
O O5 0.567446 0.500000 0.371587
O O6 0.476404 0.768684 0.386360
O O7 0.667963 0.673137 0.421280
O O8 0.694315 0.622239 0.961349
O O9 0.687841 0.377689 0.051613
O O10 0.816528 0.293417 0.116294
O O11 0.000000 0.334540 0.000000
O O12 0.241507 0.500000 0.811534
O O13 0.750000 0.750000 0.500000
O O14 0.675253 0.000000 0.552348
#
# Coordination Sequence:
#
# PCOD9215726 Si02
#       6
#     8   8   4   8   8   8
#     4  10  24  44  65  90 121 167 205 253 309 359
#     4  10  22  42  64  89 128 164 208 255 304 361
#     4  10  24  40  62  86 118 154 198 238 320 366
#     4  11  24  40  62  87 119 155 196 251 310 370
#     4  11  25  40  63  92 122 155 209 254 303 372
#     4  11  23  38  63  97 129 166 208 253 304 360
#
# _framework density 21.956420000000001
#
# number of rings (size 3 to 8) (size 9 to 14) (size 15 to 20)
#    0.000    1.455    0.909    2.727    6.364    5.091 
#    0.000    0.000    0.000    0.000    0.000    0.000 
#    0.000    0.000    0.000    0.000    0.000    0.000 
#
# Total GULP energy -122633.274190 kJ/mol
# GULP energy per Si atom -5574.239736 kJ/mol
# Density = 2.190645 g / cm^3
# Si number density = 21.956420 Si / 1000 Ang^3
#
#
#
# Elastic Constant Matrix: (Units=GPa)
#
#
# Indices 1 2 3 4 5 6 
#
# 1 50.5824 36.8126 2.6621 0.0000 1.3279 0.0000
# 2 36.8126 128.3611 14.7459 0.0000 -1.1774 0.0000
# 3 2.6621 14.7459 64.9807 0.0000 10.2001 0.0000
# 4 0.0000 0.0000 0.0000 31.6695 0.0000 -5.3432
# 5 1.3279 -1.1774 10.2001 0.0000 31.3520 0.0000
# 6 0.0000 0.0000 0.0000 -5.3432 0.0000 11.9584
#
#
#
# Elastic Compliance Matrix: (Units=1/GPa)
#
#
# Indices 1 2 3 4 5 6 
#
# 1 0.025087 -0.007311 0.000887 0.000000 -0.001626 0.000000
# 2 -0.007311 0.010156 -0.002227 0.000000 0.001416 0.000000
# 3 0.000887 -0.002227 0.016732 0.000000 -0.005565 0.000000
# 4 0.000000 0.000000 0.000000 0.034151 0.000000 0.015259
# 5 -0.001626 0.001416 -0.005565 0.000000 0.033828 0.000000
# 6 0.000000 0.000000 0.000000 0.015259 0.000000 0.090441
#
#
# Mechanical properties :
#
#
# Convention : Reuss Voigt Hill
#
# Bulk Modulus (GPa) = 28.84307 39.15171 33.99739
# Shear Modulus (GPa) = 20.89812 27.64289 24.27051
#
# Velocity S-wave (km/s) = 3.08847 3.55207 3.32835
# Velocity P-wave (km/s) = 5.08756 5.89010 5.50347
#
# Compressibility (1/GPa) = 0.03467037
#
# Stress axis : x y z
#
# Youngs Moduli (GPa) = 39.86160 98.46190 59.76635
#
# Poissons Ratio (x) = 0.71989 -0.05299
# Poissons Ratio (y) = 0.29144 0.13312
# Poissons Ratio (z) = -0.03534 0.21932
#
# Static dielectric constant tensor:
#      x y z
#    x 1.847450 0.000000 -0.021490 
#    y 0.000000 1.629540 0.000000 
#    z -0.021490 0.000000 1.844350 
# 
# From -- ./inp_files/334609.got.cif
#   From: 2010.05.17/outbox.cif.g08.bks.cpg/sg12_168_cif.got.tgz:334609.got - 2010.06.03 13:09:07.
