data_PCOD9215019
_publ_section_title
;
Structure prediction by ZEFSAII (Michael W. Deem and Ramdas Pophale) SiO2 
 PCOD9215019
Probable space group: C 2/M
;
_chemical_formula_sum "Si O2"
_cell_formula_units_Z 44
_cell_length_a 15.471871
_cell_length_b 23.025686
_cell_length_c 13.560989
_cell_angle_alpha 90.000000
_cell_angle_beta 22.564992
_cell_angle_gamma 90.000000
_cell_volume 1853.846834
_symmetry_space_group_name_H-M "C 2/M"
_symmetry_group_IT_number 12
_symmetry_cell_setting 'monoclinic'
loop_
_space_group_symop_operation_xyz
x,y,z
-x,y,-z
-x,-y,-z
x,-y,z
1/2+x,1/2+y,z
1/2-x,1/2+y,-z
1/2-x,1/2-y,-z
1/2+x,1/2-y,z
loop_
_atom_site_type_symbol
_atom_site_label
_atom_site_fract_x
_atom_site_fract_y
_atom_site_fract_z
Si Si1 0.568049 0.396860 0.776270
Si Si2 0.000000 0.404968 0.000000
Si Si3 0.500000 0.709044 0.500000
Si Si4 0.092744 0.769742 0.009531
Si Si5 0.168063 0.666661 0.676526
Si Si6 0.794913 0.000000 0.984128
Si Si7 0.638397 0.000000 0.456174
Si Si8 0.345761 0.500000 0.569990
O O1 0.454765 0.337396 0.930733
O O2 0.724215 0.372027 0.522657
O O3 0.366942 0.440091 0.959181
O O4 0.717121 0.440491 0.686906
O O5 0.047747 0.365013 0.044485
O O6 0.814304 0.445395 0.245216
O O7 0.350195 0.674621 0.575119
O O8 0.349130 0.750333 0.729744
O O9 0.943164 0.728273 0.237345
O O10 0.000000 0.753733 0.000000
O O11 0.975396 0.000000 0.705514
O O12 0.525192 0.000000 0.274197
O O13 0.500000 0.000000 0.500000
O O14 0.500000 0.500000 0.500000
#
# Coordination Sequence:
#
# PCOD9215019 Si02
#       8
#     8   4   4   8   8   4   4   4
#     4  11  26  46  71  98 145 175 242 295 352 408
#     4  11  22  40  64  96 148 177 216 268 356 403
#     4  10  22  40  68 104 144 184 234 262 366 432
#     4  10  23  42  69 101 141 185 229 289 354 420
#     4  11  22  42  68 107 143 188 217 290 340 438
#     4  11  26  43  67 109 128 182 243 293 343 419
#     4  11  30  52  75  99 133 191 249 308 357 408
#     4  11  26  38  68  99 141 189 223 271 349 425
#
# _framework density 23.734431000000001
#
# number of rings (size 3 to 8) (size 9 to 14) (size 15 to 20)
#    0.000    1.273    4.545    0.545    6.364    5.818 
#    1.636    0.000    0.000    0.000    0.000    0.000 
#    0.000    0.000    0.000    0.000    0.000    0.000 
#
# Total GULP energy -122560.856154 kJ/mol
# GULP energy per Si atom -5570.948007 kJ/mol
# Density = 2.368041 g / cm^3
# Si number density = 23.734431 Si / 1000 Ang^3
#
#
#
# Elastic Constant Matrix: (Units=GPa)
#
#
# Indices 1 2 3 4 5 6 
#
# 1 47.5498 31.8559 8.9699 -0.0520 0.9422 -0.0268
# 2 31.8559 189.1550 39.5960 -0.1957 0.2319 0.0473
# 3 8.9699 39.5960 108.5867 -0.6306 17.2712 0.2423
# 4 -0.0520 -0.1957 -0.6306 76.3611 0.1353 -1.4865
# 5 0.9422 0.2319 17.2712 0.1353 23.4459 0.0055
# 6 -0.0268 0.0473 0.2423 -1.4865 0.0055 22.6946
#
#
#
# Elastic Compliance Matrix: (Units=1/GPa)
#
#
# Indices 1 2 3 4 5 6 
#
# 1 0.023742 -0.003905 -0.000444 0.000004 -0.000589 0.000041
# 2 -0.003905 0.006425 -0.002305 -0.000008 0.001792 0.000006
# 3 -0.000444 -0.002305 0.011419 0.000101 -0.008371 -0.000109
# 4 0.000004 -0.000008 0.000101 0.013113 -0.000150 0.000858
# 5 -0.000589 0.001792 -0.008371 -0.000150 0.048825 0.000063
# 6 0.000041 0.000006 -0.000109 0.000858 0.000063 0.044121
#
#
# Mechanical properties :
#
#
# Convention : Reuss Voigt Hill
#
# Bulk Modulus (GPa) = 35.36334 56.23722 45.80028
# Shear Modulus (GPa) = 29.34650 42.15831 35.75240
#
# Velocity S-wave (km/s) = 3.52014 4.21913 3.88539
# Velocity P-wave (km/s) = 5.60837 6.89061 6.28229
#
# Compressibility (1/GPa) = 0.02827787
#
# Stress axis : x y z
#
# Youngs Moduli (GPa) = 42.11947 155.65123 87.57471
#
# Poissons Ratio (x) = 0.60779 0.03887
# Poissons Ratio (y) = 0.16447 0.20188
# Poissons Ratio (z) = 0.01869 0.35880
#
# Static dielectric constant tensor:
#      x y z
#    x 1.952360 -0.000160 0.050690 
#    y -0.000160 1.901720 0.000380 
#    z 0.050690 0.000380 2.016360 
# 
# From -- ./inp_files/228098.got.cif
#   From: 2010.05.17/outbox.cif.g08.bks.cpg/sg12_115_cif.got.tgz:228098.got - 2010.06.03 13:09:07.
