data_PCOD9215814
_publ_section_title
;
Structure prediction by ZEFSAII (Michael W. Deem and Ramdas Pophale) SiO2 
 PCOD9215814
Probable space group: C 2/M
;
_chemical_formula_sum "Si O2"
_cell_formula_units_Z 48
_cell_length_a 16.730853
_cell_length_b 16.586371
_cell_length_c 23.320513
_cell_angle_alpha 90.000000
_cell_angle_beta 158.995304
_cell_angle_gamma 90.000000
_cell_volume 2319.687260
_symmetry_space_group_name_H-M "C 2/M"
_symmetry_group_IT_number 12
_symmetry_cell_setting 'monoclinic'
loop_
_space_group_symop_operation_xyz
x,y,z
-x,y,-z
-x,-y,-z
x,-y,z
1/2+x,1/2+y,z
1/2-x,1/2+y,-z
1/2-x,1/2-y,-z
1/2+x,1/2-y,z
loop_
_atom_site_type_symbol
_atom_site_label
_atom_site_fract_x
_atom_site_fract_y
_atom_site_fract_z
Si Si1 0.341924 0.744867 0.784918
Si Si2 0.758173 0.671870 0.110914
Si Si3 0.605071 0.000000 0.632531
Si Si4 0.506184 0.315370 0.777017
Si Si5 0.540686 0.830270 0.414010
Si Si6 0.092653 0.000000 0.996114
Si Si7 0.948386 0.595416 0.034395
O O1 0.396392 0.688431 0.766337
O O2 0.085924 0.731072 0.628654
O O3 0.504608 0.704602 0.941920
O O4 0.403217 0.839503 0.830633
O O5 0.918897 0.682824 0.272403
O O6 0.871238 0.729044 0.140429
O O7 0.736823 0.578787 0.083008
O O8 0.500000 0.000000 0.500000
O O9 0.523905 0.920339 0.610351
O O10 0.872240 0.000000 0.810179
O O11 0.696162 0.378570 0.884491
O O12 0.303469 0.320477 0.596353
O O13 0.000000 0.000000 0.000000
O O14 0.983540 0.500000 0.069480
O O15 0.000000 0.607499 0.000000
#
# Coordination Sequence:
#
# PCOD9215814 Si02
#       7
#     8   8   4   8   8   4   8
#     4  11  21  42  64  95 127 164 213 258 325 381
#     4  11  21  39  61  92 124 170 210 249 311 386
#     4  12  24  38  60 102 125 162 200 261 337 371
#     4  11  25  41  61 100 128 162 212 267 327 374
#     4  12  23  40  66  91 133 164 206 259 322 388
#     4  12  20  40  64  92 125 158 213 258 315 395
#     4  10  22  42  66  90 123 172 222 262 306 377
#
# _framework density 20.692443999999998
#
# number of rings (size 3 to 8) (size 9 to 14) (size 15 to 20)
#    0.000    0.833    3.333    6.500    1.167    0.667 
#    7.500    0.000    1.833    1.000    0.000    0.000 
#    0.000    0.000    0.000    0.000    0.000    0.000 
#
# Total GULP energy -133894.341149 kJ/mol
# GULP energy per Si atom -5578.930881 kJ/mol
# Density = 2.064535 g / cm^3
# Si number density = 20.692444 Si / 1000 Ang^3
#
#
#
# Elastic Constant Matrix: (Units=GPa)
#
#
# Indices 1 2 3 4 5 6 
#
# 1 50.5470 17.2469 12.9011 0.2750 -10.6993 -0.1207
# 2 17.2469 146.7323 22.4093 0.0997 15.6427 -0.0224
# 3 12.9011 22.4093 97.6587 0.3790 1.8675 -0.1262
# 4 0.2750 0.0997 0.3790 -53.8595 -0.0315 34.2182
# 5 -10.6993 15.6427 1.8675 -0.0315 38.2551 0.0195
# 6 -0.1207 -0.0224 -0.1262 34.2182 0.0195 7.1340
#
#
#
# Elastic Compliance Matrix: (Units=1/GPa)
#
#
# Indices 1 2 3 4 5 6 
#
# 1 0.023178 -0.003188 -0.002482 0.000072 0.007908 -0.000029
# 2 -0.003188 0.007817 -0.001295 -0.000009 -0.004025 0.000000
# 3 -0.002482 -0.001295 0.010878 0.000039 -0.000695 -0.000037
# 4 0.000072 -0.000009 0.000039 -0.004587 0.000007 0.022003
# 5 0.007908 -0.004025 -0.000695 0.000007 0.030032 -0.000006
# 6 -0.000029 0.000000 -0.000037 0.022003 -0.000006 0.034634
#
#
# Mechanical properties :
#
#
# Convention : Reuss Voigt Hill
#
# Bulk Modulus (GPa) = 35.78893 44.45028 40.11960
# Shear Modulus (GPa) = 39.93709 14.46463 27.20086
#
# Velocity S-wave (km/s) = 4.39798 2.64678 3.62958
# Velocity P-wave (km/s) = 6.56680 5.55596 6.08241
#
# Compressibility (1/GPa) = 0.02794160
#
# Stress axis : x y z
#
# Youngs Moduli (GPa) = 43.14392 127.92919 91.92891
#
# Poissons Ratio (x) = 0.40789 0.22815
# Poissons Ratio (y) = 0.13756 0.11909
# Poissons Ratio (z) = 0.10708 0.16573
#
# Static dielectric constant tensor:
#      x y z
#    x 1.779340 0.001810 -0.002370 
#    y 0.001810 2.059520 -0.000200 
#    z -0.002370 -0.000200 1.736720 
# 
# From -- ./inp_files/344511.got.cif
#   From: 2010.05.17/outbox.cif.g08.bks.cpg/sg12_173_cif.got.tgz:344511.got - 2010.06.03 13:09:07.
