data_PCOD9215834
_publ_section_title
;
Structure prediction by ZEFSAII (Michael W. Deem and Ramdas Pophale) SiO2 
 PCOD9215834
Probable space group: C 2/M
;
_chemical_formula_sum "Si O2"
_cell_formula_units_Z 56
_cell_length_a 25.666288
_cell_length_b 8.768784
_cell_length_c 14.802525
_cell_angle_alpha 90.000000
_cell_angle_beta 121.514319
_cell_angle_gamma 90.000000
_cell_volume 2840.125268
_symmetry_space_group_name_H-M "C 2/M"
_symmetry_group_IT_number 12
_symmetry_cell_setting 'monoclinic'
loop_
_space_group_symop_operation_xyz
x,y,z
-x,y,-z
-x,-y,-z
x,-y,z
1/2+x,1/2+y,z
1/2-x,1/2+y,-z
1/2-x,1/2-y,-z
1/2+x,1/2-y,z
loop_
_atom_site_type_symbol
_atom_site_label
_atom_site_fract_x
_atom_site_fract_y
_atom_site_fract_z
Si Si1 0.458394 0.316465 0.376654
Si Si2 0.181487 0.817735 0.704870
Si Si3 0.275660 0.681420 0.930760
Si Si4 0.611955 0.681550 0.218388
Si Si5 0.506150 0.182201 0.232530
Si Si6 0.759628 0.318471 0.607256
Si Si7 0.905307 0.317422 0.989487
O O1 0.500000 0.274206 0.500000
O O2 0.462377 0.500000 0.368734
O O3 0.388128 0.278530 0.335495
O O4 0.481327 0.238422 0.306068
O O5 0.227506 0.726511 0.810111
O O6 0.202122 0.788485 0.620821
O O7 0.189605 0.000000 0.728543
O O8 0.282330 0.500000 0.943328
O O9 0.340571 0.755996 0.966272
O O10 0.250000 0.750000 0.000000
O O11 0.614464 0.500000 0.217790
O O12 0.569044 0.738226 0.260654
O O13 0.679783 0.747813 0.293110
O O14 0.584850 0.745095 0.099923
O O15 0.514125 0.000000 0.240450
O O16 0.456817 0.220738 0.109737
O O17 0.767612 0.500000 0.608405
O O18 0.750000 0.250000 0.500000
O O19 0.903174 0.500000 0.977783
#
# Coordination Sequence:
#
# PCOD9215834 Si02
#       7
#     8   8   8   8   8   8   8
#     4  10  23  43  67  95 127 168 215 266 320 383
#     4  10  22  42  66  93 130 170 212 264 324 382
#     4  12  24  38  62  93 128 170 216 264 320 383
#     4  12  25  42  67  98 131 171 218 267 323 387
#     4  11  25  43  65  95 130 172 215 266 326 387
#     4  11  24  42  67  98 134 173 217 267 323 385
#     4  11  23  42  65  94 132 168 211 266 326 390
#
# _framework density 19.717438999999999
#
# number of rings (size 3 to 8) (size 9 to 14) (size 15 to 20)
#    0.000    1.000    1.429    5.143    2.000    7.714 
#    0.000    0.000    0.000    0.000    0.000    0.000 
#    0.000    0.000    0.000    0.000    0.000    0.000 
#
# Total GULP energy -156700.632850 kJ/mol
# GULP energy per Si atom -5596.451173 kJ/mol
# Density = 1.967256 g / cm^3
# Si number density = 19.717439 Si / 1000 Ang^3
#
#
#
# Elastic Constant Matrix: (Units=GPa)
#
#
# Indices 1 2 3 4 5 6 
#
# 1 135.4559 43.2985 27.4426 0.0000 -19.0684 0.0000
# 2 43.2985 66.4674 31.9981 0.0000 -12.7435 0.0000
# 3 27.4426 31.9981 76.8602 0.0000 -23.5941 0.0000
# 4 0.0000 0.0000 0.0000 29.0579 0.0000 -14.0942
# 5 -19.0684 -12.7435 -23.5941 0.0000 36.8247 0.0000
# 6 0.0000 0.0000 0.0000 -14.0942 0.0000 23.2591
#
#
#
# Elastic Compliance Matrix: (Units=1/GPa)
#
#
# Indices 1 2 3 4 5 6 
#
# 1 0.009629 -0.005615 -0.000207 0.000000 0.002910 0.000000
# 2 -0.005615 0.022193 -0.007182 0.000000 0.000171 0.000000
# 3 -0.000207 -0.007182 0.019019 0.000000 0.009593 0.000000
# 4 0.000000 0.000000 0.000000 0.048739 0.000000 0.029534
# 5 0.002910 0.000171 0.009593 0.000000 0.034869 0.000000
# 6 0.000000 0.000000 0.000000 0.029534 0.000000 0.060891
#
#
# Mechanical properties :
#
#
# Convention : Reuss Voigt Hill
#
# Bulk Modulus (GPa) = 40.26817 53.80688 47.03752
# Shear Modulus (GPa) = 21.77459 29.56462 25.66961
#
# Velocity S-wave (km/s) = 3.32675 3.87643 3.61206
# Velocity P-wave (km/s) = 5.93493 6.88359 6.42679
#
# Compressibility (1/GPa) = 0.02483351
#
# Stress axis : x y z
#
# Youngs Moduli (GPa) = 103.85402 45.05943 52.57769
#
# Poissons Ratio (x) = 0.25300 0.01088
# Poissons Ratio (y) = 0.58313 0.37761
# Poissons Ratio (z) = 0.02150 0.32362
#
# Static dielectric constant tensor:
#      x y z
#    x 1.674940 0.000000 -0.001370 
#    y 0.000000 1.659150 0.000000 
#    z -0.001370 0.000000 1.666540 
# 
# From -- ./inp_files/239025.got.cif
#   From: 2010.05.17/outbox.cif.g08.bks.cpg/sg12_120_cif.got.tgz:239025.got - 2010.06.03 13:09:07.
