data_PCOD9215024
_publ_section_title
;
Structure prediction by ZEFSAII (Michael W. Deem and Ramdas Pophale) SiO2 
 PCOD9215024
Probable space group: C 2/M
;
_chemical_formula_sum "Si O2"
_cell_formula_units_Z 48
_cell_length_a 16.180976
_cell_length_b 31.440929
_cell_length_c 8.318852
_cell_angle_alpha 90.000000
_cell_angle_beta 148.005723
_cell_angle_gamma 90.000000
_cell_volume 2242.351852
_symmetry_space_group_name_H-M "C 2/M"
_symmetry_group_IT_number 12
_symmetry_cell_setting 'monoclinic'
loop_
_space_group_symop_operation_xyz
x,y,z
-x,y,-z
-x,-y,-z
x,-y,z
1/2+x,1/2+y,z
1/2-x,1/2+y,-z
1/2-x,1/2-y,-z
1/2+x,1/2-y,z
loop_
_atom_site_type_symbol
_atom_site_label
_atom_site_fract_x
_atom_site_fract_y
_atom_site_fract_z
Si Si1 0.295737 0.736804 0.395734
Si Si2 0.219418 0.872001 0.961857
Si Si3 0.668837 0.047250 0.701393
Si Si4 0.418125 0.645996 0.615821
Si Si5 0.473178 0.809132 0.259048
Si Si6 0.134125 0.611285 0.348151
O O1 0.250000 0.750000 0.500000
O O2 0.404164 0.696243 0.603343
O O3 0.396297 0.774044 0.478133
O O4 0.150208 0.718474 0.052555
O O5 0.144816 0.865897 0.664661
O O6 0.101078 0.862808 0.912142
O O7 0.252294 0.921443 0.040512
O O8 0.363639 0.838972 0.193211
O O9 0.500000 0.042390 0.500000
O O10 0.654719 0.075050 0.516018
O O11 0.736719 0.000000 0.789575
O O12 0.299852 0.622746 0.540461
O O13 0.563739 0.844971 0.305117
O O14 0.000000 0.597633 0.000000
#
# Coordination Sequence:
#
# PCOD9215024 Si02
#       6
#     8   8   8   8   8   8
#     4  11  20  36  61  97 128 174 230 275 313 375
#     4  10  22  45  63  93 133 176 215 272 338 395
#     4  11  24  43  71 102 129 163 218 278 339 406
#     4  10  22  40  68  93 132 179 221 262 329 395
#     4  11  22  39  66  89 134 176 229 268 323 390
#     4  12  20  42  69  94 127 177 218 267 329 402
#
# _framework density 21.406096000000002
#
# number of rings (size 3 to 8) (size 9 to 14) (size 15 to 20)
#    0.000    1.167    6.667    0.500    0.000    3.000 
#    3.000    9.167    0.000    0.000    0.000    0.000 
#    0.000    0.000    0.000    0.000    0.000    0.000 
#
# Total GULP energy -133967.825907 kJ/mol
# GULP energy per Si atom -5581.992746 kJ/mol
# Density = 2.135737 g / cm^3
# Si number density = 21.406096 Si / 1000 Ang^3
#
#
#
# Elastic Constant Matrix: (Units=GPa)
#
#
# Indices 1 2 3 4 5 6 
#
# 1 147.2033 62.4390 44.4759 0.0000 27.4604 0.0000
# 2 62.4390 183.7028 45.3370 0.0000 5.8410 0.0000
# 3 44.4759 45.3370 57.7424 0.0000 9.4732 0.0000
# 4 0.0000 0.0000 0.0000 40.8699 0.0000 -37.1337
# 5 27.4604 5.8410 9.4732 0.0000 39.8132 0.0000
# 6 0.0000 0.0000 0.0000 -37.1337 0.0000 62.5492
#
#
#
# Elastic Compliance Matrix: (Units=1/GPa)
#
#
# Indices 1 2 3 4 5 6 
#
# 1 0.010321 -0.001977 -0.005492 0.000000 -0.005522 0.000000
# 2 -0.001977 0.007134 -0.004298 0.000000 0.001340 0.000000
# 3 -0.005492 -0.004298 0.025181 0.000000 -0.001573 0.000000
# 4 0.000000 0.000000 0.000000 0.053122 0.000000 0.031537
# 5 -0.005522 0.001340 -0.001573 0.000000 0.029104 0.000000
# 6 0.000000 0.000000 0.000000 0.031537 0.000000 0.034710
#
#
# Mechanical properties :
#
#
# Convention : Reuss Voigt Hill
#
# Bulk Modulus (GPa) = 52.34950 77.01693 64.68322
# Shear Modulus (GPa) = 26.38902 44.40623 35.39763
#
# Velocity S-wave (km/s) = 3.51491 4.55957 4.07089
# Velocity P-wave (km/s) = 6.40166 7.98603 7.23733
#
# Compressibility (1/GPa) = 0.01910238
#
# Stress axis : x y z
#
# Youngs Moduli (GPa) = 96.88607 140.17873 39.71273
#
# Poissons Ratio (x) = 0.27717 0.21809
# Poissons Ratio (y) = 0.19157 0.17068
# Poissons Ratio (z) = 0.53206 0.60248
#
# Static dielectric constant tensor:
#      x y z
#    x 1.869750 0.000000 0.031620 
#    y 0.000000 1.809400 0.000000 
#    z 0.031620 0.000000 2.159600 
# 
# From -- ./inp_files/80816.got.cif
#   From: 2010.05.17/outbox.cif.g08.bks.cpg/sg12_41_cif.got.tgz:80816.got - 2010.06.03 13:09:07.
