data_PCOD9215147
_publ_section_title
;
Structure prediction by ZEFSAII (Michael W. Deem and Ramdas Pophale) SiO2 
 PCOD9215147
Probable space group: C 2/M
;
_chemical_formula_sum "Si O2"
_cell_formula_units_Z 40
_cell_length_a 32.440436
_cell_length_b 10.941882
_cell_length_c 9.214976
_cell_angle_alpha 90.000000
_cell_angle_beta 36.305845
_cell_angle_gamma 90.000000
_cell_volume 1936.710018
_symmetry_space_group_name_H-M "C 2/M"
_symmetry_group_IT_number 12
_symmetry_cell_setting 'monoclinic'
loop_
_space_group_symop_operation_xyz
x,y,z
-x,y,-z
-x,-y,-z
x,-y,z
1/2+x,1/2+y,z
1/2-x,1/2+y,-z
1/2-x,1/2-y,-z
1/2+x,1/2-y,z
loop_
_atom_site_type_symbol
_atom_site_label
_atom_site_fract_x
_atom_site_fract_y
_atom_site_fract_z
Si Si1 0.107274 0.500000 0.281427
Si Si2 0.194048 0.138274 0.002084
Si Si3 0.309017 0.356272 0.314931
Si Si4 0.841856 0.290305 0.668415
Si Si5 0.927241 0.272419 0.150286
Si Si6 0.047203 0.500000 0.137993
O O1 0.148611 0.385680 0.228272
O O2 0.097458 0.500000 0.136455
O O3 0.030479 0.500000 0.573449
O O4 0.164227 0.156666 0.927079
O O5 0.265117 0.214084 0.818113
O O6 0.218735 0.000000 0.939461
O O7 0.146042 0.166238 0.276397
O O8 0.286099 0.500000 0.398337
O O9 0.250000 0.250000 0.500000
O O10 0.372444 0.322927 0.240230
O O11 0.891919 0.324625 0.396138
O O12 0.940492 0.380828 0.996995
O O13 0.000000 0.219232 0.000000
#
# Coordination Sequence:
#
# PCOD9215147 Si02
#       6
#     4   8   8   8   8   4
#     4  11  21  40  61 100 133 176 224 282 337 418
#     4  10  22  41  62  90 130 173 221 276 342 408
#     4  11  25  45  68  99 138 182 230 286 346 412
#     4  11  21  38  63  94 129 171 222 282 341 399
#     4  12  24  42  67 100 138 180 229 287 345 410
#     4  11  24  37  68  97 138 179 227 275 355 413
#
# _framework density 20.653583000000001
#
# number of rings (size 3 to 8) (size 9 to 14) (size 15 to 20)
#    0.000    1.000    5.000    2.100    1.400    1.200 
#    1.800    0.000    0.000    2.400    0.000    0.000 
#    0.000    0.000    0.000    0.000    0.000    0.000 
#
# Total GULP energy -111486.731292 kJ/mol
# GULP energy per Si atom -5574.336565 kJ/mol
# Density = 2.060657 g / cm^3
# Si number density = 20.653583 Si / 1000 Ang^3
#
#
#
# Elastic Constant Matrix: (Units=GPa)
#
#
# Indices 1 2 3 4 5 6 
#
# 1 154.0054 40.3234 35.7205 0.0000 4.7522 0.0000
# 2 40.3234 83.8683 23.8422 0.0000 1.8203 0.0000
# 3 35.7205 23.8422 68.5527 0.0000 12.9873 0.0000
# 4 0.0000 0.0000 0.0000 18.3241 0.0000 2.7904
# 5 4.7522 1.8203 12.9873 0.0000 38.7500 0.0000
# 6 0.0000 0.0000 0.0000 2.7904 0.0000 36.3449
#
#
#
# Elastic Compliance Matrix: (Units=1/GPa)
#
#
# Indices 1 2 3 4 5 6 
#
# 1 0.007996 -0.002944 -0.003185 0.000000 0.000225 0.000000
# 2 -0.002944 0.014351 -0.003628 0.000000 0.000903 0.000000
# 3 -0.003185 -0.003628 0.018583 0.000000 -0.005667 0.000000
# 4 0.000000 0.000000 0.000000 0.055218 0.000000 -0.004239
# 5 0.000225 0.000903 -0.005667 0.000000 0.027636 0.000000
# 6 0.000000 0.000000 0.000000 -0.004239 0.000000 0.027840
#
#
# Mechanical properties :
#
#
# Convention : Reuss Voigt Hill
#
# Bulk Modulus (GPa) = 46.69711 56.24428 51.47070
# Shear Modulus (GPa) = 28.04649 32.45318 30.24983
#
# Velocity S-wave (km/s) = 3.68903 3.96828 3.83120
# Velocity P-wave (km/s) = 6.38780 6.94893 6.67427
#
# Compressibility (1/GPa) = 0.02141460
#
# Stress axis : x y z
#
# Youngs Moduli (GPa) = 125.06433 69.68333 53.81402
#
# Poissons Ratio (x) = 0.20513 0.17141
# Poissons Ratio (y) = 0.36816 0.19525
# Poissons Ratio (z) = 0.39836 0.25283
#
# Static dielectric constant tensor:
#      x y z
#    x 1.740060 0.000000 0.022390 
#    y 0.000000 1.818550 0.000000 
#    z 0.022390 0.000000 1.793670 
# 
# From -- ./inp_files/109725.got.cif
#   From: 2010.05.17/outbox.cif.g08.bks.cpg/sg12_55_cif.got.tgz:109725.got - 2010.06.03 13:09:07.
