data_PCOD9215316
_publ_section_title
;
Structure prediction by ZEFSAII (Michael W. Deem and Ramdas Pophale) SiO2 
 PCOD9215316
Probable space group: C 2/M
;
_chemical_formula_sum "Si O2"
_cell_formula_units_Z 42
_cell_length_a 13.626210
_cell_length_b 12.360366
_cell_length_c 11.806811
_cell_angle_alpha 90.000000
_cell_angle_beta 79.418103
_cell_angle_gamma 90.000000
_cell_volume 1954.742839
_symmetry_space_group_name_H-M "C 2/M"
_symmetry_group_IT_number 12
_symmetry_cell_setting 'monoclinic'
loop_
_space_group_symop_operation_xyz
x,y,z
-x,y,-z
-x,-y,-z
x,-y,z
1/2+x,1/2+y,z
1/2-x,1/2+y,-z
1/2-x,1/2-y,-z
1/2+x,1/2-y,z
loop_
_atom_site_type_symbol
_atom_site_label
_atom_site_fract_x
_atom_site_fract_y
_atom_site_fract_z
Si Si1 0.640090 0.336915 0.145141
Si Si2 0.267649 0.881368 0.905106
Si Si3 0.500000 0.000000 0.500000
Si Si4 0.577634 0.377655 0.784943
Si Si5 0.326070 0.376836 0.598342
Si Si6 0.602829 0.799015 0.586455
O O1 0.650259 0.208156 0.133641
O O2 0.530319 0.374532 0.133466
O O3 0.658949 0.370822 0.270058
O O4 0.725097 0.377694 0.041534
O O5 0.170918 0.857917 0.847529
O O6 0.304601 0.000000 0.868748
O O7 0.534188 0.902503 0.580832
O O8 0.590492 0.500000 0.735100
O O9 0.575768 0.283930 0.692114
O O10 0.351023 0.500000 0.556526
O O11 0.386741 0.280778 0.524571
O O12 0.212192 0.349213 0.589607
#
# Coordination Sequence:
#
# PCOD9215316 Si02
#       6
#     8   8   2   8   8   8
#     4  11  22  39  66  94 128 163 214 263 317 373
#     4  10  22  41  64  93 128 168 212 261 317 378
#     4  12  24  44  58  92 134 166 202 260 328 382
#     4  11  22  42  67  97 126 168 216 265 312 381
#     4  11  22  42  65  92 124 166 215 260 310 376
#     4  11  24  41  62  95 125 167 207 262 320 380
#
# _framework density 21.486203
#
# number of rings (size 3 to 8) (size 9 to 14) (size 15 to 20)
#    0.000    1.143    2.857    4.000    0.000    1.524 
#    6.857    2.857    0.000    2.286    0.000    0.000 
#    0.000    0.000    0.000    0.000    0.000    0.000 
#
# Total GULP energy -117095.931807 kJ/mol
# GULP energy per Si atom -5575.996753 kJ/mol
# Density = 2.143730 g / cm^3
# Si number density = 21.486203 Si / 1000 Ang^3
#
#
#
# Elastic Constant Matrix: (Units=GPa)
#
#
# Indices 1 2 3 4 5 6 
#
# 1 24.0719 29.1506 5.6841 0.0000 6.1552 0.0000
# 2 29.1506 196.8382 41.4956 0.0000 5.3959 0.0000
# 3 5.6841 41.4956 84.2286 0.0000 13.0503 0.0000
# 4 0.0000 0.0000 0.0000 -96.6446 0.0000 20.8912
# 5 6.1552 5.3959 13.0503 0.0000 21.3837 0.0000
# 6 0.0000 0.0000 0.0000 20.8912 0.0000 30.2852
#
#
#
# Elastic Compliance Matrix: (Units=1/GPa)
#
#
# Indices 1 2 3 4 5 6 
#
# 1 0.054857 -0.008285 0.002763 0.000000 -0.015386 0.000000
# 2 -0.008285 0.006922 -0.003258 0.000000 0.002626 0.000000
# 3 0.002763 -0.003258 0.014674 0.000000 -0.008929 0.000000
# 4 0.000000 0.000000 0.000000 -0.009004 0.000000 0.006211
# 5 -0.015386 0.002626 -0.008929 0.000000 0.055980 0.000000
# 6 0.000000 0.000000 0.000000 0.006211 0.000000 0.028735
#
#
# Mechanical properties :
#
#
# Convention : Reuss Voigt Hill
#
# Bulk Modulus (GPa) = 16.97950 50.86659 33.92304
# Shear Modulus (GPa) = 26.40564 6.25876 16.33220
#
# Velocity S-wave (km/s) = 3.50945 1.70858 2.76003
# Velocity P-wave (km/s) = 4.93370 5.25526 5.09702
#
# Compressibility (1/GPa) = 0.05889456
#
# Stress axis : x y z
#
# Youngs Moduli (GPa) = 18.22935 144.46567 68.14549
#
# Poissons Ratio (x) = 1.19686 -0.18832
# Poissons Ratio (y) = 0.15102 0.22202
# Poissons Ratio (z) = -0.05038 0.47067
#
# Static dielectric constant tensor:
#      x y z
#    x 1.769470 0.000000 0.001330 
#    y 0.000000 1.777320 0.000000 
#    z 0.001330 0.000000 1.781500 
# 
# From -- ./inp_files/140927.got.cif
#   From: 2010.05.17/outbox.cif.g08.bks.cpg/sg12_71_cif.got.tgz:140927.got - 2010.06.03 13:09:07.
