data_PCOD9215681
_publ_section_title
;
Structure prediction by ZEFSAII (Michael W. Deem and Ramdas Pophale) SiO2 
 PCOD9215681
Probable space group: C 2/M
;
_chemical_formula_sum "Si O2"
_cell_formula_units_Z 20
_cell_length_a 6.793545
_cell_length_b 13.942140
_cell_length_c 8.371598
_cell_angle_alpha 90.000000
_cell_angle_beta 75.687943
_cell_angle_gamma 90.000000
_cell_volume 768.319373
_symmetry_space_group_name_H-M "C 2/M"
_symmetry_group_IT_number 12
_symmetry_cell_setting 'monoclinic'
loop_
_space_group_symop_operation_xyz
x,y,z
-x,y,-z
-x,-y,-z
x,-y,z
1/2+x,1/2+y,z
1/2-x,1/2+y,-z
1/2-x,1/2-y,-z
1/2+x,1/2-y,z
loop_
_atom_site_type_symbol
_atom_site_label
_atom_site_fract_x
_atom_site_fract_y
_atom_site_fract_z
Si Si1 0.102892 0.667060 0.724817
Si Si2 0.000000 0.833648 0.500000
Si Si3 0.235725 0.890176 0.983831
O O1 0.059261 0.763111 0.634649
O O2 0.289709 0.616555 0.593278
O O3 0.190721 0.676693 0.886260
O O4 0.885427 0.619025 0.802445
O O5 0.259669 0.000000 0.038495
O O6 0.000000 0.876161 0.000000
#
# Coordination Sequence:
#
# PCOD9215681 Si02
#       3
#     8   4   8
#     4  10  22  42  62  88 130 156 198 254 296 368
#     4  10  24  40  60  96 126 156 196 244 322 358
#     4  10  23  43  65  88 117 165 211 246 292 356
#
# _framework density 26.030843999999998
#
# number of rings (size 3 to 8) (size 9 to 14) (size 15 to 20)
#    0.000    2.000    0.000    2.400   11.200    6.400 
#    0.000    8.000    0.000    0.000    0.000    0.000 
#    0.000    0.000    0.000    0.000    0.000    0.000 
#
# Total GULP energy -55894.868551 kJ/mol
# GULP energy per Si atom -5589.486855 kJ/mol
# Density = 2.597160 g / cm^3
# Si number density = 26.030844 Si / 1000 Ang^3
#
#
#
# Elastic Constant Matrix: (Units=GPa)
#
#
# Indices 1 2 3 4 5 6 
#
# 1 211.4894 35.0927 92.5342 0.0000 -51.8683 0.0000
# 2 35.0927 82.5981 45.8719 0.0000 -0.1407 0.0000
# 3 92.5342 45.8719 174.7819 0.0000 -54.0745 0.0000
# 4 0.0000 0.0000 0.0000 14.1729 0.0000 -7.5833
# 5 -51.8683 -0.1407 -54.0745 0.0000 96.6817 0.0000
# 6 0.0000 0.0000 0.0000 -7.5833 0.0000 -6.7808
#
#
#
# Elastic Compliance Matrix: (Units=1/GPa)
#
#
# Indices 1 2 3 4 5 6 
#
# 1 0.006558 -0.001434 -0.002428 0.000000 0.002158 0.000000
# 2 -0.001434 0.015000 -0.004122 0.000000 -0.003053 0.000000
# 3 -0.002428 -0.004122 0.009292 0.000000 0.003888 0.000000
# 4 0.000000 0.000000 0.000000 0.044143 0.000000 -0.049367
# 5 0.002158 -0.003053 0.003888 0.000000 0.013671 0.000000
# 6 0.000000 0.000000 0.000000 -0.049367 0.000000 -0.092265
#
#
# Mechanical properties :
#
#
# Convention : Reuss Voigt Hill
#
# Bulk Modulus (GPa) = 67.19755 90.65188 78.92471
# Shear Modulus (GPa) = 288.56262 40.50614 164.53438
#
# Velocity S-wave (km/s) = 10.54015 3.94900 7.95894
# Velocity P-wave (km/s) = 13.19079 7.46279 10.71658
#
# Compressibility (1/GPa) = 0.01488149
#
# Stress axis : x y z
#
# Youngs Moduli (GPa) = 152.48741 66.66572 107.62406
#
# Poissons Ratio (x) = 0.09561 0.26129
# Poissons Ratio (y) = 0.21870 0.44364
# Poissons Ratio (z) = 0.37021 0.27480
#
# Static dielectric constant tensor:
#      x y z
#    x 2.087120 0.000000 -0.044310 
#    y 0.000000 2.027390 0.000000 
#    z -0.044310 0.000000 2.039480 
# 
# From -- ./inp_files/36262.got.cif
#   From: 2010.05.17/outbox.cif.g08.bks.cpg/sg12_19_cif.got.tgz:36262.got - 2010.06.03 13:09:07.
