data_PCOD9215368
_publ_section_title
;
Structure prediction by ZEFSAII (Michael W. Deem and Ramdas Pophale) SiO2 
 PCOD9215368
Probable space group: C 2/M
;
_chemical_formula_sum "Si O2"
_cell_formula_units_Z 64
_cell_length_a 14.692588
_cell_length_b 7.782797
_cell_length_c 28.133429
_cell_angle_alpha 90.000000
_cell_angle_beta 121.891267
_cell_angle_gamma 90.000000
_cell_volume 2731.436289
_symmetry_space_group_name_H-M "C 2/M"
_symmetry_group_IT_number 12
_symmetry_cell_setting 'monoclinic'
loop_
_space_group_symop_operation_xyz
x,y,z
-x,y,-z
-x,-y,-z
x,-y,z
1/2+x,1/2+y,z
1/2-x,1/2+y,-z
1/2-x,1/2-y,-z
1/2+x,1/2-y,z
loop_
_atom_site_type_symbol
_atom_site_label
_atom_site_fract_x
_atom_site_fract_y
_atom_site_fract_z
Si Si1 0.075230 0.298084 0.928395
Si Si2 0.110677 0.793586 0.236205
Si Si3 0.025489 0.300770 0.657948
Si Si4 0.789851 0.304187 0.944795
Si Si5 0.155857 0.755726 0.147645
Si Si6 0.290140 0.294370 0.360545
Si Si7 0.292539 0.793688 0.563508
Si Si8 0.385724 0.698490 0.218037
O O1 0.041288 0.500000 0.921353
O O2 0.125415 0.240713 0.992716
O O3 0.969751 0.189553 0.887160
O O4 0.324748 0.214378 0.080146
O O5 0.152386 0.691902 0.201698
O O6 0.182241 0.749510 0.301637
O O7 0.987230 0.756188 0.213717
O O8 0.122678 0.000000 0.230060
O O9 0.011503 0.500000 0.668551
O O10 0.912787 0.231528 0.607709
O O11 0.112510 0.288920 0.640624
O O12 0.070599 0.205352 0.716371
O O13 0.768026 0.500000 0.952994
O O14 0.837913 0.304994 0.905530
O O15 0.280652 0.814519 0.183940
O O16 0.303992 0.500000 0.363372
O O17 0.279197 0.235004 0.411843
O O18 0.250000 0.750000 0.500000
O O19 0.296221 0.000000 0.567024
O O20 0.352560 0.500000 0.197643
#
# Coordination Sequence:
#
# PCOD9215368 Si02
#       8
#     8   8   8   8   8   8   8   8
#     4  10  22  41  65  92 123 164 213 265 322 383
#     4  11  25  42  62  92 129 170 213 263 321 382
#     4  11  23  42  65  95 132 170 215 264 317 376
#     4  10  22  42  65  90 124 165 211 265 324 386
#     4  12  23  37  63  95 126 164 215 260 317 387
#     4  11  23  42  67  96 129 170 217 263 317 380
#     4  10  24  44  68  98 132 172 217 266 319 375
#     4  11  23  39  61  90 126 170 214 259 320 384
#
# _framework density 23.430897000000002
#
# number of rings (size 3 to 8) (size 9 to 14) (size 15 to 20)
#    0.000    1.250    2.500    3.000    0.000    6.500 
#    0.000    3.750    0.000    3.750    0.000    0.000 
#    0.000    0.000    0.000    0.000    0.000    0.000 
#
# Total GULP energy -178463.516218 kJ/mol
# GULP energy per Si atom -5576.984882 kJ/mol
# Density = 2.337757 g / cm^3
# Si number density = 23.430897 Si / 1000 Ang^3
#
#
#
# Elastic Constant Matrix: (Units=GPa)
#
#
# Indices 1 2 3 4 5 6 
#
# 1 142.4407 5.5324 26.0636 0.0000 -15.1265 0.0000
# 2 5.5324 65.3590 -6.1218 0.0000 1.8647 0.0000
# 3 26.0636 -6.1218 99.4498 0.0000 -19.0263 0.0000
# 4 0.0000 0.0000 0.0000 -42.9366 0.0000 -5.5899
# 5 -15.1265 1.8647 -19.0263 0.0000 49.9531 0.0000
# 6 0.0000 0.0000 0.0000 -5.5899 0.0000 3.3347
#
#
#
# Elastic Compliance Matrix: (Units=1/GPa)
#
#
# Indices 1 2 3 4 5 6 
#
# 1 0.007543 -0.000846 -0.001711 0.000000 0.001664 0.000000
# 2 -0.000846 0.015486 0.001095 0.000000 -0.000417 0.000000
# 3 -0.001711 0.001095 0.011287 0.000000 0.003740 0.000000
# 4 0.000000 0.000000 0.000000 -0.019118 0.000000 -0.032047
# 5 0.001664 -0.000417 0.003740 0.000000 0.021963 0.000000
# 6 0.000000 0.000000 0.000000 -0.032047 0.000000 0.246160
#
#
# Mechanical properties :
#
#
# Convention : Reuss Voigt Hill
#
# Bulk Modulus (GPa) = 31.85443 39.79975 35.82709
# Shear Modulus (GPa) = 16.85156 20.85526 18.85341
#
# Velocity S-wave (km/s) = 2.68470 2.98665 2.83969
# Velocity P-wave (km/s) = 4.82024 5.37739 5.10642
#
# Compressibility (1/GPa) = 0.03139281
#
# Stress axis : x y z
#
# Youngs Moduli (GPa) = 132.57226 64.57354 88.60092
#
# Poissons Ratio (x) = 0.05464 0.15156
# Poissons Ratio (y) = 0.11218 -0.09704
# Poissons Ratio (z) = 0.22677 -0.07072
#
# Static dielectric constant tensor:
#      x y z
#    x 1.841710 0.000000 0.004000 
#    y 0.000000 1.937620 0.000000 
#    z 0.004000 0.000000 1.858360 
# 
# From -- ./inp_files/375626.got.cif
#   From: 2010.05.17/outbox.cif.g08.bks.cpg/sg12_188_cif.got.tgz:375626.got - 2010.06.03 13:09:07.
