data_PCOD9215665
_publ_section_title
;
Structure prediction by ZEFSAII (Michael W. Deem and Ramdas Pophale) SiO2 
 PCOD9215665
Probable space group: C 2/M
;
_chemical_formula_sum "Si O2"
_cell_formula_units_Z 52
_cell_length_a 18.756477
_cell_length_b 12.271483
_cell_length_c 12.045204
_cell_angle_alpha 90.000000
_cell_angle_beta 64.938691
_cell_angle_gamma 90.000000
_cell_volume 2511.430635
_symmetry_space_group_name_H-M "C 2/M"
_symmetry_group_IT_number 12
_symmetry_cell_setting 'monoclinic'
loop_
_space_group_symop_operation_xyz
x,y,z
-x,y,-z
-x,-y,-z
x,-y,z
1/2+x,1/2+y,z
1/2-x,1/2+y,-z
1/2-x,1/2-y,-z
1/2+x,1/2-y,z
loop_
_atom_site_type_symbol
_atom_site_label
_atom_site_fract_x
_atom_site_fract_y
_atom_site_fract_z
Si Si1 0.801845 0.281118 0.789285
Si Si2 0.635459 0.168048 0.615745
Si Si3 0.426721 0.806102 0.973489
Si Si4 0.785195 0.126270 0.362628
Si Si5 0.628253 0.000000 0.828798
Si Si6 0.806723 0.123484 0.968439
Si Si7 0.036800 0.374462 0.300341
O O1 0.745517 0.313545 0.727408
O O2 0.794987 0.162474 0.849226
O O3 0.891819 0.303882 0.698965
O O4 0.773805 0.358500 0.909999
O O5 0.710852 0.132259 0.494588
O O6 0.646850 0.295997 0.635088
O O7 0.552665 0.150091 0.608592
O O8 0.635677 0.094869 0.726049
O O9 0.387156 0.904187 0.066905
O O10 0.500000 0.768189 0.000000
O O11 0.369089 0.706344 0.982046
O O12 0.458987 0.852756 0.835345
O O13 0.805883 0.000000 0.329290
O O14 0.831952 0.000000 0.958297
O O15 0.054009 0.500000 0.312659
#
# Coordination Sequence:
#
# PCOD9215665 Si02
#       7
#     8   8   8   8   4   8   8
#     4  10  23  39  61  86 123 163 201 252 317 360
#     4  11  23  37  63  92 122 159 213 254 308 361
#     4  11  20  32  61  92 128 160 202 250 315 366
#     4  11  23  44  60  90 124 164 207 259 303 369
#     4  12  19  38  58  97 126 162 198 270 297 374
#     4  10  22  42  57  90 126 160 203 252 309 393
#     4  11  19  36  59  94 122 158 200 264 305 363
#
# _framework density 20.70533
#
# number of rings (size 3 to 8) (size 9 to 14) (size 15 to 20)
#    0.000    1.231    3.846    2.538    0.000    0.923 
#   11.077    4.615    0.000    0.000    0.000    6.462 
#    0.000    0.000    0.000    0.000    0.000    0.000 
#
# Total GULP energy -144770.385813 kJ/mol
# GULP energy per Si atom -5568.091762 kJ/mol
# Density = 2.065820 g / cm^3
# Si number density = 20.705330 Si / 1000 Ang^3
#
#
#
# Elastic Constant Matrix: (Units=GPa)
#
#
# Indices 1 2 3 4 5 6 
#
# 1 43.6669 31.3794 -8.8646 0.0000 -10.8660 0.0000
# 2 31.3794 152.5802 22.6295 0.0000 -5.3836 0.0000
# 3 -8.8646 22.6295 54.8000 0.0000 -2.3398 0.0000
# 4 0.0000 0.0000 0.0000 23.7437 0.0000 5.7435
# 5 -10.8660 -5.3836 -2.3398 0.0000 24.0690 0.0000
# 6 0.0000 0.0000 0.0000 5.7435 0.0000 11.2642
#
#
#
# Elastic Compliance Matrix: (Units=1/GPa)
#
#
# Indices 1 2 3 4 5 6 
#
# 1 0.034099 -0.007893 0.009396 0.000000 0.014542 0.000000
# 2 -0.007893 0.008849 -0.005019 0.000000 -0.002072 0.000000
# 3 0.009396 -0.005019 0.022066 0.000000 0.005264 0.000000
# 4 0.000000 0.000000 0.000000 0.048042 0.000000 -0.024496
# 5 0.014542 -0.002072 0.005264 0.000000 0.048161 0.000000
# 6 0.000000 0.000000 0.000000 -0.024496 0.000000 0.101267
#
#
# Mechanical properties :
#
#
# Convention : Reuss Voigt Hill
#
# Bulk Modulus (GPa) = 17.24714 37.92618 27.58666
# Shear Modulus (GPa) = 17.31053 25.54223 21.42638
#
# Velocity S-wave (km/s) = 2.89458 3.51608 3.22036
# Velocity P-wave (km/s) = 4.41807 5.90260 5.21344
#
# Compressibility (1/GPa) = 0.05798064
#
# Stress axis : x y z
#
# Youngs Moduli (GPa) = 29.32648 113.01293 45.31937
#
# Poissons Ratio (x) = 0.89204 -0.42583
# Poissons Ratio (y) = 0.23148 0.22747
# Poissons Ratio (z) = -0.27556 0.56724
#
# Static dielectric constant tensor:
#      x y z
#    x 1.807870 0.000000 0.003250 
#    y 0.000000 1.705140 0.000000 
#    z 0.003250 0.000000 1.787420 
# 
# From -- ./inp_files/165552.got.cif
#   From: 2010.05.17/outbox.cif.g08.bks.cpg/sg12_83_cif.got.tgz:165552.got - 2010.06.03 13:09:07.
