data_PCOD9215364
_publ_section_title
;
Structure prediction by ZEFSAII (Michael W. Deem and Ramdas Pophale) SiO2 
 PCOD9215364
Probable space group: C 2/M
;
_chemical_formula_sum "Si O2"
_cell_formula_units_Z 58
_cell_length_a 26.856088
_cell_length_b 7.707483
_cell_length_c 23.500406
_cell_angle_alpha 90.000000
_cell_angle_beta 32.025206
_cell_angle_gamma 90.000000
_cell_volume 2579.562218
_symmetry_space_group_name_H-M "C 2/M"
_symmetry_group_IT_number 12
_symmetry_cell_setting 'monoclinic'
loop_
_space_group_symop_operation_xyz
x,y,z
-x,y,-z
-x,-y,-z
x,-y,z
1/2+x,1/2+y,z
1/2-x,1/2+y,-z
1/2-x,1/2-y,-z
1/2+x,1/2-y,z
loop_
_atom_site_type_symbol
_atom_site_label
_atom_site_fract_x
_atom_site_fract_y
_atom_site_fract_z
Si Si1 0.657828 0.799127 0.967555
Si Si2 0.865349 0.700740 0.794969
Si Si3 0.684745 0.207418 0.616631
Si Si4 0.500000 0.500000 0.000000
Si Si5 0.365805 0.796835 0.138156
Si Si6 0.471101 0.786786 0.805561
Si Si7 0.999959 0.799044 0.564306
Si Si8 0.292111 0.799986 0.625524
O O1 0.765606 0.789226 0.881991
O O2 0.647179 0.728646 0.914151
O O3 0.631081 0.000000 0.987847
O O4 0.590864 0.724949 0.081060
O O5 0.843407 0.500000 0.827612
O O6 0.923232 0.769742 0.792957
O O7 0.929716 0.712722 0.676711
O O8 0.750000 0.250000 0.500000
O O9 0.578684 0.267414 0.707675
O O10 0.730075 0.285662 0.629105
O O11 0.682027 0.000000 0.627409
O O12 0.438662 0.656631 0.091753
O O13 0.267260 0.784085 0.266204
O O14 0.394523 0.000000 0.113005
O O15 0.470438 0.000000 0.805423
O O16 0.106851 0.785531 0.481821
O O17 0.000000 0.727399 0.500000
O O18 0.970640 0.000000 0.589354
O O19 0.308991 0.000000 0.623268
#
# Coordination Sequence:
#
# PCOD9215364 Si02
#       8
#     8   8   8   2   8   8   8   8
#     4  10  22  41  65  91 128 171 217 266 327 395
#     4  11  22  38  64  95 130 164 210 272 327 391
#     4  11  23  42  66  93 129 173 222 275 331 395
#     4  12  26  44  68  98 138 172 230 276 334 402
#     4  11  25  44  68  98 135 178 222 277 334 398
#     4   9  21  40  62  90 123 168 215 262 325 389
#     4  11  24  42  66  93 125 168 218 269 331 401
#     4  12  25  43  66  97 134 173 221 275 332 396
#
# _framework density 22.484435000000001
#
# number of rings (size 3 to 8) (size 9 to 14) (size 15 to 20)
#    0.000    1.241    0.690    4.759    2.897    5.517 
#    0.000    4.138    0.000    0.000    0.000    0.000 
#    0.000    0.000    0.000    0.000    0.000    0.000 
#
# Total GULP energy -161979.180144 kJ/mol
# GULP energy per Si atom -5585.488970 kJ/mol
# Density = 2.243326 g / cm^3
# Si number density = 22.484435 Si / 1000 Ang^3
#
#
#
# Elastic Constant Matrix: (Units=GPa)
#
#
# Indices 1 2 3 4 5 6 
#
# 1 121.5765 -12.6606 50.8145 -0.0035 10.2541 0.0066
# 2 -12.6606 85.3320 -8.3454 0.0140 2.4886 -0.0058
# 3 50.8145 -8.3454 163.8947 0.0062 5.3762 0.0007
# 4 -0.0035 0.0140 0.0062 27.4280 -0.0012 2.9338
# 5 10.2541 2.4886 5.3762 -0.0012 38.1451 -0.0031
# 6 0.0066 -0.0058 0.0007 2.9338 -0.0031 19.5383
#
#
#
# Elastic Compliance Matrix: (Units=1/GPa)
#
#
# Indices 1 2 3 4 5 6 
#
# 1 0.009753 0.001232 -0.002886 0.000002 -0.002295 -0.000003
# 2 0.001232 0.011961 0.000265 -0.000006 -0.001149 0.000004
# 3 -0.002886 0.000265 0.007017 -0.000002 -0.000230 0.000001
# 4 0.000002 -0.000006 -0.000002 0.037054 0.000001 -0.005564
# 5 -0.002295 -0.001149 -0.000230 0.000001 0.026940 0.000005
# 6 -0.000003 0.000004 0.000001 -0.005564 0.000005 0.052017
#
#
# Mechanical properties :
#
#
# Convention : Reuss Voigt Hill
#
# Bulk Modulus (GPa) = 38.53102 47.82446 43.17774
# Shear Modulus (GPa) = 32.01577 39.75525 35.88551
#
# Velocity S-wave (km/s) = 3.77756 4.20947 3.99935
# Velocity P-wave (km/s) = 6.01669 6.70391 6.36958
#
# Compressibility (1/GPa) = 0.02595311
#
# Stress axis : x y z
#
# Youngs Moduli (GPa) = 102.52858 83.60434 142.50499
#
# Poissons Ratio (x) = -0.10298 0.41126
# Poissons Ratio (y) = -0.12629 -0.03774
# Poissons Ratio (z) = 0.29589 -0.02214
#
# Static dielectric constant tensor:
#      x y z
#    x 1.849310 0.000000 -0.001890 
#    y 0.000000 1.847420 0.000000 
#    z -0.001890 0.000000 1.801220 
# 
# From -- ./inp_files/351443.got.cif
#   From: 2010.05.17/outbox.cif.g08.bks.cpg/sg12_176_cif.got.tgz:351443.got - 2010.06.03 13:09:07.
