data_PCOD9215511
_publ_section_title
;
Structure prediction by ZEFSAII (Michael W. Deem and Ramdas Pophale) SiO2 
 PCOD9215511
Probable space group: C 2/M
;
_chemical_formula_sum "Si O2"
_cell_formula_units_Z 46
_cell_length_a 14.041284
_cell_length_b 14.628484
_cell_length_c 11.711551
_cell_angle_alpha 90.000000
_cell_angle_beta 124.455896
_cell_angle_gamma 90.000000
_cell_volume 1983.553159
_symmetry_space_group_name_H-M "C 2/M"
_symmetry_group_IT_number 12
_symmetry_cell_setting 'monoclinic'
loop_
_space_group_symop_operation_xyz
x,y,z
-x,y,-z
-x,-y,-z
x,-y,z
1/2+x,1/2+y,z
1/2-x,1/2+y,-z
1/2-x,1/2-y,-z
1/2+x,1/2-y,z
loop_
_atom_site_type_symbol
_atom_site_label
_atom_site_fract_x
_atom_site_fract_y
_atom_site_fract_z
Si Si1 0.379063 0.865793 0.272380
Si Si2 0.000000 0.738182 0.000000
Si Si3 0.590992 0.345241 0.704907
Si Si4 0.843714 0.896856 0.500340
Si Si5 0.500000 0.000000 0.500000
Si Si6 0.355940 0.399159 0.016683
Si Si7 0.400436 0.107797 0.740818
O O1 0.374034 0.758752 0.289442
O O2 0.404421 0.920966 0.403470
O O3 0.488485 0.888659 0.265826
O O4 0.264821 0.896050 0.130115
O O5 0.073632 0.672524 0.133632
O O6 0.924543 0.809084 0.023040
O O7 0.452371 0.347904 0.632871
O O8 0.621020 0.396975 0.609542
O O9 0.656304 0.387181 0.856207
O O10 0.713135 0.861056 0.406375
O O11 0.841569 0.000000 0.544479
O O12 0.409220 0.500000 0.033344
O O13 0.382823 0.000000 0.760021
#
# Coordination Sequence:
#
# PCOD9215511 Si02
#       7
#     8   4   8   8   2   8   8
#     4  12  25  45  70 101 135 181 230 283 354 417
#     4  12  26  44  68 100 142 184 236 292 352 412
#     4  11  22  43  70  99 139 180 236 281 346 415
#     4  10  22  41  67 102 134 177 229 282 350 404
#     4  12  24  48  68 100 142 180 220 284 354 424
#     4  12  25  46  68 101 140 187 235 290 345 417
#     4  11  24  45  67 103 136 173 233 287 349 416
#
# _framework density 23.190707
#
# number of rings (size 3 to 8) (size 9 to 14) (size 15 to 20)
#    0.000    0.696    3.478    5.217    2.435    0.696 
#    3.130    0.000    0.000    0.000    0.000    0.000 
#    0.000    0.000    0.000    0.000    0.000    0.000 
#
# Total GULP energy -128383.876216 kJ/mol
# GULP energy per Si atom -5581.907662 kJ/mol
# Density = 2.313792 g / cm^3
# Si number density = 23.190707 Si / 1000 Ang^3
#
#
#
# Elastic Constant Matrix: (Units=GPa)
#
#
# Indices 1 2 3 4 5 6 
#
# 1 30.6431 -3.3595 -9.7177 0.0000 0.5190 0.0000
# 2 -3.3595 149.1925 23.7789 0.0000 7.3413 0.0000
# 3 -9.7177 23.7789 93.8088 0.0000 21.0869 0.0000
# 4 0.0000 0.0000 0.0000 1516.7702 0.0000 -519.3941
# 5 0.5190 7.3413 21.0869 0.0000 22.4607 0.0000
# 6 0.0000 0.0000 0.0000 -519.3941 0.0000 194.7497
#
#
#
# Elastic Compliance Matrix: (Units=1/GPa)
#
#
# Indices 1 2 3 4 5 6 
#
# 1 0.034230 0.000288 0.004654 0.000000 -0.005254 0.000000
# 2 0.000288 0.006998 -0.001557 0.000000 -0.000832 0.000000
# 3 0.004654 -0.001557 0.014508 0.000000 -0.013220 0.000000
# 4 0.000000 0.000000 0.000000 0.007601 0.000000 0.020273
# 5 -0.005254 -0.000832 -0.013220 0.000000 0.057327 0.000000
# 6 0.000000 0.000000 0.000000 0.020273 0.000000 0.059202
#
#
# Mechanical properties :
#
#
# Convention : Reuss Voigt Hill
#
# Bulk Modulus (GPa) = 15.99844 32.78311 24.39077
# Shear Modulus (GPa) = 25.78209 364.32563 195.05386
#
# Velocity S-wave (km/s) = 3.33790 12.54754 9.18103
# Velocity P-wave (km/s) = 4.66573 14.96958 11.08732
#
# Compressibility (1/GPa) = 0.06250608
#
# Stress axis : x y z
#
# Youngs Moduli (GPa) = 29.21396 142.89074 68.92568
#
# Poissons Ratio (x) = -0.04109 -0.32079
# Poissons Ratio (y) = -0.00840 0.10733
# Poissons Ratio (z) = -0.13597 0.22250
#
# Static dielectric constant tensor:
#      x y z
#    x 1.929270 0.000000 -0.027400 
#    y 0.000000 1.853480 0.000000 
#    z -0.027400 0.000000 1.878320 
# 
# From -- ./inp_files/143921.got.cif
#   From: 2010.05.17/outbox.cif.g08.bks.cpg/sg12_72_cif.got.tgz:143921.got - 2010.06.03 13:09:07.
