data_PCOD9215180
_publ_section_title
;
Structure prediction by ZEFSAII (Michael W. Deem and Ramdas Pophale) SiO2 
 PCOD9215180
Probable space group: C 2/M
;
_chemical_formula_sum "Si O2"
_cell_formula_units_Z 56
_cell_length_a 15.536953
_cell_length_b 8.576066
_cell_length_c 29.817220
_cell_angle_alpha 90.000000
_cell_angle_beta 46.530151
_cell_angle_gamma 90.000000
_cell_volume 2883.368078
_symmetry_space_group_name_H-M "C 2/M"
_symmetry_group_IT_number 12
_symmetry_cell_setting 'monoclinic'
loop_
_space_group_symop_operation_xyz
x,y,z
-x,y,-z
-x,-y,-z
x,-y,z
1/2+x,1/2+y,z
1/2-x,1/2+y,-z
1/2-x,1/2-y,-z
1/2+x,1/2-y,z
loop_
_atom_site_type_symbol
_atom_site_label
_atom_site_fract_x
_atom_site_fract_y
_atom_site_fract_z
Si Si1 0.117378 0.816234 0.488285
Si Si2 0.380742 0.189898 0.068812
Si Si3 0.738265 0.187018 0.703575
Si Si4 0.922981 0.311560 0.154788
Si Si5 0.502611 0.185152 0.617411
Si Si6 0.847878 0.184269 0.358225
Si Si7 0.312890 0.312691 0.932634
O O1 0.226021 0.722779 0.428253
O O2 0.000000 0.793374 0.500000
O O3 0.084778 0.762289 0.549788
O O4 0.146972 0.000000 0.477128
O O5 0.383918 0.241487 0.119161
O O6 0.266685 0.238545 0.081179
O O7 0.381962 0.000000 0.068619
O O8 0.500000 0.239782 0.000000
O O9 0.668020 0.233398 0.773607
O O10 0.868314 0.262012 0.656588
O O11 0.666898 0.241049 0.685358
O O12 0.751715 0.000000 0.697665
O O13 0.928738 0.500000 0.152129
O O14 0.053804 0.248245 0.117419
O O15 0.547634 0.243130 0.649456
O O16 0.512549 0.000000 0.610596
O O17 0.863924 0.000000 0.348674
O O18 0.312708 0.500000 0.934234
O O19 0.250000 0.250000 0.000000
#
# Coordination Sequence:
#
# PCOD9215180 Si02
#       7
#     8   8   8   8   8   8   8
#     4  11  22  39  66  96 129 164 207 261 320 374
#     4   9  17  34  60  86 117 156 195 235 296 365
#     4  11  24  43  64  90 126 167 212 260 317 379
#     4  10  22  41  63  88 121 160 201 251 306 367
#     4  12  25  42  66  94 128 166 212 262 317 375
#     4  12  25  42  66  93 127 168 214 261 315 375
#     4  11  21  35  60  90 121 156 200 248 301 364
#
# _framework density 19.421731000000001
#
# number of rings (size 3 to 8) (size 9 to 14) (size 15 to 20)
#    0.000    1.143    2.857    4.286    0.000    2.857 
#    0.000    3.571    0.000    0.000    0.000    0.000 
#    0.000    0.000    0.000    0.000    0.000    0.000 
#
# Total GULP energy -156618.709974 kJ/mol
# GULP energy per Si atom -5593.525356 kJ/mol
# Density = 1.937753 g / cm^3
# Si number density = 19.421731 Si / 1000 Ang^3
#
#
#
# Elastic Constant Matrix: (Units=GPa)
#
#
# Indices 1 2 3 4 5 6 
#
# 1 126.3291 7.3654 26.4197 0.0005 32.8948 0.0015
# 2 7.3654 28.6026 -4.0716 0.0025 4.0134 0.0026
# 3 26.4197 -4.0716 86.3856 -0.0005 26.5553 0.0002
# 4 0.0005 0.0025 -0.0005 21.0485 0.0002 -5.1049
# 5 32.8948 4.0134 26.5553 0.0002 29.7091 0.0002
# 6 0.0015 0.0026 0.0002 -5.1049 0.0002 33.6863
#
#
#
# Elastic Compliance Matrix: (Units=1/GPa)
#
#
# Indices 1 2 3 4 5 6 
#
# 1 0.011170 -0.001053 0.000403 0.000000 -0.012586 0.000000
# 2 -0.001053 0.036967 0.004469 -0.000005 -0.007823 -0.000004
# 3 0.000403 0.004469 0.016527 0.000000 -0.015823 0.000000
# 4 0.000000 -0.000005 0.000000 0.049322 0.000001 0.007474
# 5 -0.012586 -0.007823 -0.015823 0.000001 0.062795 0.000001
# 6 0.000000 -0.000004 0.000000 0.007474 0.000001 0.030818
#
#
# Mechanical properties :
#
#
# Convention : Reuss Voigt Hill
#
# Bulk Modulus (GPa) = 13.83072 33.41604 23.62338
# Shear Modulus (GPa) = 22.31517 30.99570 26.65544
#
# Velocity S-wave (km/s) = 3.39334 3.99924 3.70868
# Velocity P-wave (km/s) = 4.74233 6.21032 5.52530
#
# Compressibility (1/GPa) = 0.07230284
#
# Stress axis : x y z
#
# Youngs Moduli (GPa) = 89.52384 27.05128 60.50558
#
# Poissons Ratio (x) = 0.02849 -0.02439
# Poissons Ratio (y) = 0.09427 -0.27040
# Poissons Ratio (z) = -0.03609 -0.12089
#
# Static dielectric constant tensor:
#      x y z
#    x 1.672890 0.000000 0.014940 
#    y 0.000000 1.657480 0.000000 
#    z 0.014940 0.000000 1.650540 
# 
# From -- ./inp_files/374957.got.cif
#   From: 2010.05.17/outbox.cif.g08.bks.cpg/sg12_188_cif.got.tgz:374957.got - 2010.06.03 13:09:07.
