data_PCOD9215132
_publ_section_title
;
Structure prediction by ZEFSAII (Michael W. Deem and Ramdas Pophale) SiO2 
 PCOD9215132
Probable space group: C 2/M
;
_chemical_formula_sum "Si O2"
_cell_formula_units_Z 56
_cell_length_a 15.647012
_cell_length_b 8.575227
_cell_length_c 25.002534
_cell_angle_alpha 90.000000
_cell_angle_beta 60.978191
_cell_angle_gamma 90.000000
_cell_volume 2933.517293
_symmetry_space_group_name_H-M "C 2/M"
_symmetry_group_IT_number 12
_symmetry_cell_setting 'monoclinic'
loop_
_space_group_symop_operation_xyz
x,y,z
-x,y,-z
-x,-y,-z
x,-y,z
1/2+x,1/2+y,z
1/2-x,1/2+y,-z
1/2-x,1/2-y,-z
1/2+x,1/2-y,z
loop_
_atom_site_type_symbol
_atom_site_label
_atom_site_fract_x
_atom_site_fract_y
_atom_site_fract_z
Si Si1 0.009643 0.811385 0.652268
Si Si2 0.509843 0.815616 0.865566
Si Si3 0.350407 0.687388 0.994893
Si Si4 0.313050 0.314149 0.128487
Si Si5 0.904745 0.813518 0.793999
Si Si6 0.274996 0.187397 0.433397
Si Si7 0.418547 0.310147 0.567991
O O1 0.119229 0.747303 0.616049
O O2 0.954908 0.765552 0.723124
O O3 0.950924 0.759363 0.617102
O O4 0.014729 0.000000 0.649454
O O5 0.439442 0.758556 0.934811
O O6 0.619023 0.768650 0.848745
O O7 0.472310 0.734275 0.823177
O O8 0.500568 0.000000 0.862154
O O9 0.353439 0.500000 0.989380
O O10 0.250000 0.750000 0.000000
O O11 0.350146 0.728283 0.057609
O O12 0.322407 0.500000 0.131304
O O13 0.200708 0.264933 0.167198
O O14 0.891847 0.000000 0.797849
O O15 0.250000 0.250000 0.500000
O O16 0.188096 0.238916 0.419894
O O17 0.275158 0.000000 0.435049
O O18 0.500000 0.260539 0.500000
O O19 0.418935 0.500000 0.568004
#
# Coordination Sequence:
#
# PCOD9215132 Si02
#       7
#     8   8   8   8   8   8   8
#     4  10  22  41  62  88 120 157 201 248 304 366
#     4  12  25  41  64  92 126 168 213 259 309 373
#     4  11  22  38  64  95 127 161 205 261 319 372
#     4  11  24  42  65  93 126 163 208 262 316 373
#     4  11  24  42  64  89 124 167 210 259 313 377
#     4  11  21  35  60  90 120 156 196 245 299 360
#     4   9  17  34  60  85 116 154 190 234 295 360
#
# _framework density 19.089711999999999
#
# number of rings (size 3 to 8) (size 9 to 14) (size 15 to 20)
#    0.000    1.286    2.857    3.429    0.000    5.714 
#    0.000    3.571    0.000    0.000    0.000    0.000 
#    0.000    0.000    0.000    0.000    0.000    0.000 
#
# Total GULP energy -156560.344830 kJ/mol
# GULP energy per Si atom -5591.440887 kJ/mol
# Density = 1.904626 g / cm^3
# Si number density = 19.089712 Si / 1000 Ang^3
#
#
#
# Elastic Constant Matrix: (Units=GPa)
#
#
# Indices 1 2 3 4 5 6 
#
# 1 129.5306 0.4375 43.1216 0.0000 20.7303 0.0000
# 2 0.4375 22.1577 17.6102 0.0000 3.0206 0.0000
# 3 43.1216 17.6102 125.3738 0.0000 23.5684 0.0000
# 4 0.0000 0.0000 0.0000 23.5310 0.0000 -7.3430
# 5 20.7303 3.0206 23.5684 0.0000 3.8021 0.0000
# 6 0.0000 0.0000 0.0000 -7.3430 0.0000 32.2155
#
#
#
# Elastic Compliance Matrix: (Units=1/GPa)
#
#
# Indices 1 2 3 4 5 6 
#
# 1 0.002765 0.001596 -0.011477 0.000000 0.054804 0.000000
# 2 0.001596 0.051381 -0.009339 0.000000 0.008369 0.000000
# 3 -0.011477 -0.009339 -0.000464 0.000000 0.072878 0.000000
# 4 0.000000 0.000000 0.000000 0.045751 0.000000 0.010428
# 5 0.054804 0.008369 0.072878 0.000000 -0.494206 0.000000
# 6 0.000000 0.000000 0.000000 0.010428 0.000000 0.033418
#
#
# Mechanical properties :
#
#
# Convention : Reuss Voigt Hill
#
# Bulk Modulus (GPa) = 65.61530 44.37785 54.99658
# Shear Modulus (GPa) = -15.73151 26.30259 5.28554
#
# Velocity S-wave (km/s) = -2.87380 3.71596 1.66577
# Velocity P-wave (km/s) = 4.84098 6.45822 5.70717
#
# Compressibility (1/GPa) = 0.01524035
#
# Stress axis : x y z
#
# Youngs Moduli (GPa) = 361.69017 19.46235 -2153.25263
#
# Poissons Ratio (x) = -0.03107 -24.71374
# Poissons Ratio (y) = -0.57732 -20.11010
# Poissons Ratio (z) = 4.15126 0.18177
#
# Static dielectric constant tensor:
#      x y z
#    x 1.635090 0.000000 0.011360 
#    y 0.000000 1.651850 0.000000 
#    z 0.011360 0.000000 1.637190 
# 
# From -- ./inp_files/338462.got.cif
#   From: 2010.05.17/outbox.cif.g08.bks.cpg/sg12_170_cif.got.tgz:338462.got - 2010.06.03 13:09:07.
