data_PCOD9215125
_publ_section_title
;
Structure prediction by ZEFSAII (Michael W. Deem and Ramdas Pophale) SiO2 
 PCOD9215125
Probable space group: C 2/M
;
_chemical_formula_sum "Si O2"
_cell_formula_units_Z 64
_cell_length_a 9.757959
_cell_length_b 13.822749
_cell_length_c 33.769800
_cell_angle_alpha 90.000000
_cell_angle_beta 136.522294
_cell_angle_gamma 90.000000
_cell_volume 3134.122448
_symmetry_space_group_name_H-M "C 2/M"
_symmetry_group_IT_number 12
_symmetry_cell_setting 'monoclinic'
loop_
_space_group_symop_operation_xyz
x,y,z
-x,y,-z
-x,-y,-z
x,-y,z
1/2+x,1/2+y,z
1/2-x,1/2+y,-z
1/2-x,1/2-y,-z
1/2+x,1/2-y,z
loop_
_atom_site_type_symbol
_atom_site_label
_atom_site_fract_x
_atom_site_fract_y
_atom_site_fract_z
Si Si1 0.497188 0.616019 0.834066
Si Si2 0.699428 0.115860 0.840612
Si Si3 0.269159 0.617522 0.945075
Si Si4 0.018932 0.614408 0.548358
Si Si5 0.959759 0.382837 0.946463
Si Si6 0.733494 0.615167 0.559493
Si Si7 0.663411 0.237457 0.264121
Si Si8 0.622246 0.273490 0.347800
O O1 0.473995 0.500000 0.824391
O O2 0.382980 0.644916 0.850665
O O3 0.732477 0.636356 0.886324
O O4 0.397123 0.672966 0.776879
O O5 0.714401 0.148521 0.889216
O O6 0.496845 0.155830 0.779914
O O7 0.699081 0.000000 0.841004
O O8 0.254993 0.500000 0.942890
O O9 0.120212 0.653882 0.948017
O O10 0.500000 0.640307 0.000000
O O11 0.986306 0.500000 0.539333
O O12 0.238813 0.639705 0.608717
O O13 0.000000 0.654609 0.500000
O O14 0.862526 0.649536 0.548522
O O15 0.979567 0.500000 0.951123
O O16 0.000000 0.351272 0.000000
O O17 0.500000 0.623453 0.500000
O O18 0.773032 0.500000 0.574885
O O19 0.802161 0.680364 0.611000
O O20 0.650842 0.260748 0.307420
O O21 0.890067 0.208707 0.304710
#
# Coordination Sequence:
#
# PCOD9215125 Si02
#       8
#     8   8   8   8   8   8   8   8
#     4  10  22  41  63  85 120 165 204 252 310 367
#     4  10  22  41  62  86 121 162 204 255 310 363
#     4   9  17  31  56  88 119 153 199 255 312 369
#     4  10  23  43  67  97 129 160 200 252 306 357
#     4   9  17  31  56  88 118 154 201 251 311 375
#     4  10  23  43  68  96 127 163 202 247 304 365
#     4  12  26  42  61  91 124 164 214 252 296 361
#     4  12  25  42  65  91 125 167 206 253 298 357
#
# _framework density 20.420389
#
# number of rings (size 3 to 8) (size 9 to 14) (size 15 to 20)
#    0.000    1.750    2.500    1.125    3.500    6.000 
#    0.000    0.625    0.000    3.000    0.000    0.000 
#    0.000    0.000    0.000    0.000    0.000    0.000 
#
# Total GULP energy -178839.022356 kJ/mol
# GULP energy per Si atom -5588.719449 kJ/mol
# Density = 2.037391 g / cm^3
# Si number density = 20.420389 Si / 1000 Ang^3
#
#
#
# Elastic Constant Matrix: (Units=GPa)
#
#
# Indices 1 2 3 4 5 6 
#
# 1 185.7249 2.0324 68.5927 0.0000 -3.4816 0.0000
# 2 2.0324 39.8000 -13.6613 0.0000 -16.2275 0.0000
# 3 68.5927 -13.6613 117.9351 0.0000 -13.0557 0.0000
# 4 0.0000 0.0000 0.0000 23.6787 0.0000 11.3853
# 5 -3.4816 -16.2275 -13.0557 0.0000 45.3235 0.0000
# 6 0.0000 0.0000 0.0000 11.3853 0.0000 15.7154
#
#
#
# Elastic Compliance Matrix: (Units=1/GPa)
#
#
# Indices 1 2 3 4 5 6 
#
# 1 0.007088 -0.002658 -0.004623 0.000000 -0.001739 0.000000
# 2 -0.002658 0.033207 0.006906 0.000000 0.013675 0.000000
# 3 -0.004623 0.006906 0.012604 0.000000 0.005748 0.000000
# 4 0.000000 0.000000 0.000000 0.064807 0.000000 -0.046951
# 5 -0.001739 0.013675 0.005748 0.000000 0.028482 0.000000
# 6 0.000000 0.000000 0.000000 -0.046951 0.000000 0.097646
#
#
# Mechanical properties :
#
#
# Convention : Reuss Voigt Hill
#
# Bulk Modulus (GPa) = 19.17499 50.82084 34.99792
# Shear Modulus (GPa) = 19.08630 36.04326 27.56478
#
# Velocity S-wave (km/s) = 3.06055 4.20582 3.67804
# Velocity P-wave (km/s) = 4.67972 6.96610 5.93407
#
# Compressibility (1/GPa) = 0.05215126
#
# Stress axis : x y z
#
# Youngs Moduli (GPa) = 141.08057 30.11370 79.33774
#
# Poissons Ratio (x) = 0.08003 0.36677
# Poissons Ratio (y) = 0.37495 -0.54793
# Poissons Ratio (z) = 0.65220 -0.20797
#
# Static dielectric constant tensor:
#      x y z
#    x 1.683120 0.000000 -0.005470 
#    y 0.000000 1.750940 0.000000 
#    z -0.005470 0.000000 1.657670 
# 
# From -- ./inp_files/372579.got.cif
#   From: 2010.05.17/outbox.cif.g08.bks.cpg/sg12_187_cif.got.tgz:372579.got - 2010.06.03 13:09:07.
