data_PCOD9215528
_publ_section_title
;
Structure prediction by ZEFSAII (Michael W. Deem and Ramdas Pophale) SiO2 
 PCOD9215528
Probable space group: C 2/M
;
_chemical_formula_sum "Si O2"
_cell_formula_units_Z 48
_cell_length_a 13.854966
_cell_length_b 13.014686
_cell_length_c 11.622193
_cell_angle_alpha 90.000000
_cell_angle_beta 76.932604
_cell_angle_gamma 90.000000
_cell_volume 2041.422601
_symmetry_space_group_name_H-M "C 2/M"
_symmetry_group_IT_number 12
_symmetry_cell_setting 'monoclinic'
loop_
_space_group_symop_operation_xyz
x,y,z
-x,y,-z
-x,-y,-z
x,-y,z
1/2+x,1/2+y,z
1/2-x,1/2+y,-z
1/2-x,1/2-y,-z
1/2+x,1/2-y,z
loop_
_atom_site_type_symbol
_atom_site_label
_atom_site_fract_x
_atom_site_fract_y
_atom_site_fract_z
Si Si1 0.396925 0.797027 0.482306
Si Si2 0.164339 0.000000 0.907222
Si Si3 0.273824 0.383993 0.620164
Si Si4 0.690318 0.165390 0.087511
Si Si5 0.045549 0.000000 0.161713
Si Si6 0.382881 0.886287 0.135707
Si Si7 0.490683 0.728060 0.767880
O O1 0.500000 0.846055 0.500000
O O2 0.350132 0.708668 0.575947
O O3 0.310097 0.869896 0.457761
O O4 0.437421 0.740190 0.358220
O O5 0.230854 0.902162 0.866177
O O6 0.060091 0.000000 0.874651
O O7 0.137167 0.000000 0.049501
O O8 0.315748 0.500000 0.602466
O O9 0.215084 0.375651 0.757426
O O10 0.609336 0.206649 0.196614
O O11 0.750000 0.250000 0.000000
O O12 0.638060 0.109370 0.993984
O O13 0.043140 0.110445 0.219907
O O14 0.447147 0.784328 0.146098
O O15 0.425123 0.000000 0.158718
#
# Coordination Sequence:
#
# PCOD9215528 Si02
#       7
#     8   4   8   8   4   8   8
#     4  10  23  43  65  96 129 164 221 270 322 382
#     4  11  24  40  59  90 126 173 210 265 310 383
#     4   9  21  43  68  93 127 169 215 264 329 383
#     4  12  23  38  61  95 128 162 217 256 319 382
#     4  11  24  46  59  86 139 172 216 260 327 385
#     4  10  22  41  67  94 128 167 210 267 320 381
#     4  11  25  41  65  93 129 176 210 264 326 386
#
# _framework density 23.513013000000001
#
# number of rings (size 3 to 8) (size 9 to 14) (size 15 to 20)
#    0.000    1.500    2.500    1.500    7.000    1.333 
#    3.000    0.000    0.000    0.000    0.000    0.000 
#    0.000    0.000    0.000    0.000    0.000    0.000 
#
# Total GULP energy -134022.954490 kJ/mol
# GULP energy per Si atom -5584.289770 kJ/mol
# Density = 2.345950 g / cm^3
# Si number density = 23.513013 Si / 1000 Ang^3
#
#
#
# Elastic Constant Matrix: (Units=GPa)
#
#
# Indices 1 2 3 4 5 6 
#
# 1 90.7054 25.6506 13.7045 0.0000 -7.0819 0.0000
# 2 25.6506 109.9318 23.2351 0.0000 -15.2421 0.0000
# 3 13.7045 23.2351 85.6437 0.0000 -15.6509 0.0000
# 4 0.0000 0.0000 0.0000 26.8052 0.0000 4.2467
# 5 -7.0819 -15.2421 -15.6509 0.0000 37.4667 0.0000
# 6 0.0000 0.0000 0.0000 4.2467 0.0000 41.0673
#
#
#
# Elastic Compliance Matrix: (Units=1/GPa)
#
#
# Indices 1 2 3 4 5 6 
#
# 1 0.011945 -0.002443 -0.001102 0.000000 0.000804 0.000000
# 2 -0.002443 0.010486 -0.001904 0.000000 0.003009 0.000000
# 3 -0.001102 -0.001904 0.013197 0.000000 0.004530 0.000000
# 4 0.000000 0.000000 0.000000 0.037928 0.000000 -0.003922
# 5 0.000804 0.003009 0.004530 0.000000 0.029959 0.000000
# 6 0.000000 0.000000 0.000000 -0.003922 0.000000 0.024756
#
#
# Mechanical properties :
#
#
# Convention : Reuss Voigt Hill
#
# Bulk Modulus (GPa) = 40.43593 45.71792 43.07692
# Shear Modulus (GPa) = 33.91884 35.98056 34.94970
#
# Velocity S-wave (km/s) = 3.80222 3.91607 3.85957
# Velocity P-wave (km/s) = 6.04239 6.31929 6.18239
#
# Compressibility (1/GPa) = 0.02473048
#
# Stress axis : x y z
#
# Youngs Moduli (GPa) = 83.71903 95.36381 75.77489
#
# Poissons Ratio (x) = 0.23295 0.08349
# Poissons Ratio (y) = 0.20451 0.14429
# Poissons Ratio (z) = 0.09224 0.18159
#
# Static dielectric constant tensor:
#      x y z
#    x 1.950200 0.000000 0.092700 
#    y 0.000000 1.949770 0.000000 
#    z 0.092700 0.000000 1.888100 
# 
# From -- ./inp_files/142908.got.cif
#   From: 2010.05.17/outbox.cif.g08.bks.cpg/sg12_72_cif.got.tgz:142908.got - 2010.06.03 13:09:07.
