data_PCOD9215586
_publ_section_title
;
Structure prediction by ZEFSAII (Michael W. Deem and Ramdas Pophale) SiO2 
 PCOD9215586
Probable space group: C 2/M
;
_chemical_formula_sum "Si O2"
_cell_formula_units_Z 40
_cell_length_a 8.797040
_cell_length_b 25.582380
_cell_length_c 8.452306
_cell_angle_alpha 90.000000
_cell_angle_beta 90.414195
_cell_angle_gamma 90.000000
_cell_volume 1902.135171
_symmetry_space_group_name_H-M "C 2/M"
_symmetry_group_IT_number 12
_symmetry_cell_setting 'monoclinic'
loop_
_space_group_symop_operation_xyz
x,y,z
-x,y,-z
-x,-y,-z
x,-y,z
1/2+x,1/2+y,z
1/2-x,1/2+y,-z
1/2-x,1/2-y,-z
1/2+x,1/2-y,z
loop_
_atom_site_type_symbol
_atom_site_label
_atom_site_fract_x
_atom_site_fract_y
_atom_site_fract_z
Si Si1 0.104296 0.094479 0.244744
Si Si2 0.727882 0.714076 0.847037
Si Si3 0.091296 0.500000 0.249574
Si Si4 0.767897 0.095300 0.108076
Si Si5 0.078523 0.790922 0.332018
Si Si6 0.265097 0.000000 0.401302
O O1 0.146998 0.151328 0.313244
O O2 0.165376 0.050357 0.360317
O O3 0.922827 0.090192 0.213660
O O4 0.180619 0.088167 0.072920
O O5 0.786337 0.655166 0.871536
O O6 0.808625 0.744038 0.704214
O O7 0.550909 0.710739 0.803823
O O8 0.750000 0.750000 0.000000
O O9 0.148121 0.551610 0.158516
O O10 0.175265 0.500000 0.420089
O O11 0.913052 0.500000 0.287718
O O12 0.000000 0.786309 0.500000
#
# Coordination Sequence:
#
# PCOD9215586 Si02
#       6
#     8   8   4   8   8   4
#     4  10  22  41  68  95 124 168 221 262 319 383
#     4  11  22  43  66  97 133 174 217 268 324 388
#     4  11  26  45  62  96 135 166 214 265 332 384
#     4  10  22  42  68  94 127 169 218 268 310 390
#     4  11  24  41  65  99 133 170 219 271 326 389
#     4  11  26  43  62  96 134 169 208 271 328 388
#
# _framework density 21.029
#
# number of rings (size 3 to 8) (size 9 to 14) (size 15 to 20)
#    0.000    1.400    2.000    2.400    5.600    5.600 
#    7.200    0.000    0.000    0.000    0.000    0.000 
#    0.000    0.000    0.000    0.000    0.000    0.000 
#
# Total GULP energy -111919.329201 kJ/mol
# GULP energy per Si atom -5595.966460 kJ/mol
# Density = 2.098114 g / cm^3
# Si number density = 21.029000 Si / 1000 Ang^3
#
#
#
# Elastic Constant Matrix: (Units=GPa)
#
#
# Indices 1 2 3 4 5 6 
#
# 1 33.6256 41.4269 18.4983 0.0000 -7.6990 0.0000
# 2 41.4269 166.2019 38.7068 0.0000 -4.6192 0.0000
# 3 18.4983 38.7068 78.0021 0.0000 -12.2800 0.0000
# 4 0.0000 0.0000 0.0000 -4.0190 0.0000 -4.7225
# 5 -7.6990 -4.6192 -12.2800 0.0000 34.9054 0.0000
# 6 0.0000 0.0000 0.0000 -4.7225 0.0000 31.6378
#
#
#
# Elastic Compliance Matrix: (Units=1/GPa)
#
#
# Indices 1 2 3 4 5 6 
#
# 1 0.046790 -0.010338 -0.004824 0.000000 0.007255 0.000000
# 2 -0.010338 0.009090 -0.002359 0.000000 -0.001907 0.000000
# 3 -0.004824 -0.002359 0.015793 0.000000 0.004180 0.000000
# 4 0.000000 0.000000 0.000000 -0.211688 0.000000 -0.031598
# 5 0.007255 -0.001907 0.004180 0.000000 0.031467 0.000000
# 6 0.000000 0.000000 0.000000 -0.031598 0.000000 0.026891
#
#
# Mechanical properties :
#
#
# Convention : Reuss Voigt Hill
#
# Bulk Modulus (GPa) = 27.29948 52.78817 40.04383
# Shear Modulus (GPa) = -145.33605 24.45134 -60.44235
#
# Velocity S-wave (km/s) = -8.32239 3.41360 -5.36701
# Velocity P-wave (km/s) = 8.90728 6.37918 4.39578
#
# Compressibility (1/GPa) = 0.03663073
#
# Stress axis : x y z
#
# Youngs Moduli (GPa) = 21.37186 110.01140 63.31883
#
# Poissons Ratio (x) = 1.13726 0.30548
# Poissons Ratio (y) = 0.22093 0.14939
# Poissons Ratio (z) = 0.10311 0.25956
#
# Static dielectric constant tensor:
#      x y z
#    x 1.748620 0.000000 0.009370 
#    y 0.000000 1.740670 0.000000 
#    z 0.009370 0.000000 1.754480 
# 
# From -- ./inp_files/39384.got.cif
#   From: 2010.05.17/outbox.cif.g08.bks.cpg/sg12_20_cif.got.tgz:39384.got - 2010.06.03 13:09:07.
