data_PCOD9215151
_publ_section_title
;
Structure prediction by ZEFSAII (Michael W. Deem and Ramdas Pophale) SiO2 
 PCOD9215151
Probable space group: C 2/M
;
_chemical_formula_sum "Si O2"
_cell_formula_units_Z 40
_cell_length_a 15.303064
_cell_length_b 18.425427
_cell_length_c 14.474327
_cell_angle_alpha 90.000000
_cell_angle_beta 28.734879
_cell_angle_gamma 90.000000
_cell_volume 1962.096170
_symmetry_space_group_name_H-M "C 2/M"
_symmetry_group_IT_number 12
_symmetry_cell_setting 'monoclinic'
loop_
_space_group_symop_operation_xyz
x,y,z
-x,y,-z
-x,-y,-z
x,-y,z
1/2+x,1/2+y,z
1/2-x,1/2+y,-z
1/2-x,1/2-y,-z
1/2+x,1/2-y,z
loop_
_atom_site_type_symbol
_atom_site_label
_atom_site_fract_x
_atom_site_fract_y
_atom_site_fract_z
Si Si1 0.371626 0.821184 0.033020
Si Si2 0.224377 0.685637 0.596523
Si Si3 0.298608 0.211520 0.683120
Si Si4 0.427208 0.420812 0.171388
Si Si5 0.952937 0.916167 0.744796
O O1 0.299579 0.741258 0.133098
O O2 0.198128 0.869230 0.167961
O O3 0.500000 0.846833 0.000000
O O4 0.511341 0.821971 0.817529
O O5 0.250000 0.750000 0.500000
O O6 0.310011 0.715905 0.611828
O O7 0.344833 0.616606 0.457912
O O8 0.500000 0.181558 0.500000
O O9 0.188857 0.151851 0.728047
O O10 0.336370 0.500000 0.274537
O O11 0.570114 0.412414 0.122254
O O12 0.500000 0.425681 0.000000
O O13 0.943051 0.000000 0.725625
#
# Coordination Sequence:
#
# PCOD9215151 Si02
#       5
#     8   8   8   8   8
#     4  10  24  42  65  98 130 168 217 265 326 382
#     4  11  22  40  64  96 130 169 217 266 314 383
#     4  11  21  39  64  95 129 164 218 265 322 387
#     4  10  22  41  62  91 132 171 210 263 325 385
#     4  11  24  43  67  96 132 172 214 268 326 382
#
# _framework density 20.38636
#
# number of rings (size 3 to 8) (size 9 to 14) (size 15 to 20)
#    0.000    1.400    4.000    1.800    0.000    4.000 
#    0.000    7.000    0.000    0.000    0.000    0.000 
#    0.000    0.000    0.000    0.000    0.000    0.000 
#
# Total GULP energy -111376.347289 kJ/mol
# GULP energy per Si atom -5568.817364 kJ/mol
# Density = 2.033996 g / cm^3
# Si number density = 20.386360 Si / 1000 Ang^3
#
#
#
# Elastic Constant Matrix: (Units=GPa)
#
#
# Indices 1 2 3 4 5 6 
#
# 1 73.0635 47.8083 34.3541 -0.0063 -8.1435 0.0012
# 2 47.8083 121.9315 42.7141 -0.0077 -13.6487 0.0094
# 3 34.3541 42.7141 106.2627 -0.0037 -5.4293 0.0072
# 4 -0.0063 -0.0077 -0.0037 8.7980 0.0030 -4.3099
# 5 -8.1435 -13.6487 -5.4293 0.0030 28.8467 -0.0025
# 6 0.0012 0.0094 0.0072 -4.3099 -0.0025 35.8403
#
#
#
# Elastic Compliance Matrix: (Units=1/GPa)
#
#
# Indices 1 2 3 4 5 6 
#
# 1 0.019738 -0.006195 -0.003793 0.000008 0.001927 0.000003
# 2 -0.006195 0.011928 -0.002618 0.000003 0.003402 -0.000002
# 3 -0.003793 -0.002618 0.011684 -0.000001 -0.000110 -0.000002
# 4 0.000008 0.000003 -0.000001 0.120777 -0.000008 0.014524
# 5 0.001927 0.003402 -0.000110 -0.000008 0.036799 0.000001
# 6 0.000003 -0.000002 -0.000002 0.014524 0.000001 0.029648
#
#
# Mechanical properties :
#
#
# Convention : Reuss Voigt Hill
#
# Bulk Modulus (GPa) = 55.13063 61.22341 58.17702
# Shear Modulus (GPa) = 19.09618 26.45575 22.77596
#
# Velocity S-wave (km/s) = 3.06390 3.60629 3.34610
# Velocity P-wave (km/s) = 6.29430 6.88747 6.59755
#
# Compressibility (1/GPa) = 0.01813874
#
# Stress axis : x y z
#
# Youngs Moduli (GPa) = 50.66263 83.83417 85.59029
#
# Poissons Ratio (x) = 0.51934 0.32462
# Poissons Ratio (y) = 0.31385 0.22409
# Poissons Ratio (z) = 0.19215 0.21949
#
# Static dielectric constant tensor:
#      x y z
#    x 1.786610 0.000000 0.066540 
#    y 0.000000 1.741170 0.000000 
#    z 0.066540 0.000000 1.844410 
# 
# From -- ./inp_files/216617.got.cif
#   From: 2010.05.17/outbox.cif.g08.bks.cpg/sg12_109_cif.got.tgz:216617.got - 2010.06.03 13:09:07.
