data_PCOD9215425
_publ_section_title
;
Structure prediction by ZEFSAII (Michael W. Deem and Ramdas Pophale) SiO2 
 PCOD9215425
Probable space group: C 2/M
;
_chemical_formula_sum "Si O2"
_cell_formula_units_Z 40
_cell_length_a 14.046933
_cell_length_b 13.270066
_cell_length_c 10.471336
_cell_angle_alpha 90.000000
_cell_angle_beta 117.706603
_cell_angle_gamma 90.000000
_cell_volume 1728.091761
_symmetry_space_group_name_H-M "C 2/M"
_symmetry_group_IT_number 12
_symmetry_cell_setting 'monoclinic'
loop_
_space_group_symop_operation_xyz
x,y,z
-x,y,-z
-x,-y,-z
x,-y,z
1/2+x,1/2+y,z
1/2-x,1/2+y,-z
1/2-x,1/2-y,-z
1/2+x,1/2-y,z
loop_
_atom_site_type_symbol
_atom_site_label
_atom_site_fract_x
_atom_site_fract_y
_atom_site_fract_z
Si Si1 0.131355 0.115735 0.709887
Si Si2 0.290969 0.615941 0.800394
Si Si3 0.330352 0.117604 0.010855
Si Si4 0.352085 0.214103 0.484239
Si Si5 0.515573 0.739583 0.203479
O O1 0.117016 0.191353 0.584458
O O2 0.051575 0.149368 0.772634
O O3 0.114943 0.000000 0.664207
O O4 0.252098 0.127875 0.840702
O O5 0.327340 0.500000 0.824809
O O6 0.242084 0.640722 0.908641
O O7 0.192339 0.629668 0.638850
O O8 0.387907 0.687675 0.814611
O O9 0.432776 0.189158 0.078767
O O10 0.361929 0.000000 0.038940
O O11 0.250000 0.250000 0.500000
O O12 0.439748 0.195352 0.647723
#
# Coordination Sequence:
#
# PCOD9215425 Si02
#       5
#     8   8   8   8   8
#     4  11  23  41  66  97 134 174 217 273 331 391
#     4  10  22  41  65  97 131 170 220 272 326 390
#     4  10  23  43  68  98 135 175 216 270 334 391
#     4  10  23  40  61  95 131 172 220 271 328 386
#     4  11  22  40  69  99 130 176 222 270 326 392
#
# _framework density 23.146917999999999
#
# number of rings (size 3 to 8) (size 9 to 14) (size 15 to 20)
#    0.000    1.600    2.000    1.800    0.000    6.400 
#    3.600    8.000    0.000    9.600    0.000    0.000 
#    0.000    0.000    0.000    0.000    0.000    0.000 
#
# Total GULP energy -111952.288973 kJ/mol
# GULP energy per Si atom -5597.614449 kJ/mol
# Density = 2.309423 g / cm^3
# Si number density = 23.146918 Si / 1000 Ang^3
#
#
#
# Elastic Constant Matrix: (Units=GPa)
#
#
# Indices 1 2 3 4 5 6 
#
# 1 126.5176 66.9945 46.6754 0.0000 1.3818 0.0000
# 2 66.9945 103.6476 21.6983 0.0000 -1.7696 0.0000
# 3 46.6754 21.6983 124.3638 0.0000 13.0112 0.0000
# 4 0.0000 0.0000 0.0000 1.3409 0.0000 -6.1912
# 5 1.3818 -1.7696 13.0112 0.0000 36.5096 0.0000
# 6 0.0000 0.0000 0.0000 -6.1912 0.0000 24.9945
#
#
#
# Elastic Compliance Matrix: (Units=1/GPa)
#
#
# Indices 1 2 3 4 5 6 
#
# 1 0.013462 -0.007916 -0.003717 0.000000 0.000431 0.000000
# 2 -0.007916 0.014716 0.000309 0.000000 0.000903 0.000000
# 3 -0.003717 0.000309 0.009728 0.000000 -0.003311 0.000000
# 4 0.000000 0.000000 0.000000 -5.191371 0.000000 -1.285911
# 5 0.000431 0.000903 -0.003311 0.000000 0.028598 0.000000
# 6 0.000000 0.000000 0.000000 -1.285911 0.000000 -0.278514
#
#
# Mechanical properties :
#
#
# Convention : Reuss Voigt Hill
#
# Bulk Modulus (GPa) = 65.53537 69.47396 67.50466
# Shear Modulus (GPa) = -0.93012 27.17973 13.12480
#
# Velocity S-wave (km/s) = -0.63459 3.43042 2.38380
# Velocity P-wave (km/s) = 5.27611 6.76534 6.06660
#
# Compressibility (1/GPa) = 0.01525894
#
# Stress axis : x y z
#
# Youngs Moduli (GPa) = 74.28163 67.95530 102.79302
#
# Poissons Ratio (x) = 0.53795 0.38203
# Poissons Ratio (y) = 0.58803 -0.03178
# Poissons Ratio (z) = 0.27607 -0.02101
#
# Static dielectric constant tensor:
#      x y z
#    x 1.932960 0.000000 0.018120 
#    y 0.000000 1.844460 0.000000 
#    z 0.018120 0.000000 1.931310 
# 
# From -- ./inp_files/142215.got.cif
#   From: 2010.05.17/outbox.cif.g08.bks.cpg/sg12_72_cif.got.tgz:142215.got - 2010.06.03 13:09:07.
