data_PCOD9215757
_publ_section_title
;
Structure prediction by ZEFSAII (Michael W. Deem and Ramdas Pophale) SiO2 
 PCOD9215757
Probable space group: C 2/M
;
_chemical_formula_sum "Si O2"
_cell_formula_units_Z 44
_cell_length_a 9.940711
_cell_length_b 9.581439
_cell_length_c 24.222378
_cell_angle_alpha 90.000000
_cell_angle_beta 71.899411
_cell_angle_gamma 90.000000
_cell_volume 2192.920129
_symmetry_space_group_name_H-M "C 2/M"
_symmetry_group_IT_number 12
_symmetry_cell_setting 'monoclinic'
loop_
_space_group_symop_operation_xyz
x,y,z
-x,y,-z
-x,-y,-z
x,-y,z
1/2+x,1/2+y,z
1/2-x,1/2+y,-z
1/2-x,1/2-y,-z
1/2+x,1/2-y,z
loop_
_atom_site_type_symbol
_atom_site_label
_atom_site_fract_x
_atom_site_fract_y
_atom_site_fract_z
Si Si1 0.546461 0.839677 0.835691
Si Si2 0.426806 0.000000 0.436038
Si Si3 0.500000 0.251466 0.500000
Si Si4 0.802353 0.500000 0.672119
Si Si5 0.886088 0.337010 0.965642
Si Si6 0.473223 0.500000 0.693988
Si Si7 0.656532 0.224285 0.238372
Si Si8 0.854442 0.000000 0.586182
O O1 0.459146 0.787057 0.899679
O O2 0.444028 0.838308 0.795837
O O3 0.687424 0.752999 0.805419
O O4 0.589242 0.000000 0.841908
O O5 0.410759 0.859063 0.474409
O O6 0.313487 0.000000 0.401586
O O7 0.584180 0.000000 0.391264
O O8 0.413148 0.359238 0.549349
O O9 0.642964 0.500000 0.670105
O O10 0.827883 0.630495 0.709244
O O11 0.847643 0.500000 0.962732
O O12 0.750000 0.250000 0.000000
O O13 0.000000 0.328532 0.000000
O O14 0.416986 0.366485 0.733523
O O15 0.405717 0.500000 0.642018
#
# Coordination Sequence:
#
# PCOD9215757 Si02
#       8
#     8   4   4   4   8   4   8   4
#     4  11  23  41  67  93 129 174 214 268 327 383
#     4  11  25  43  72  96 132 174 212 265 320 380
#     4  10  24  46  68 102 134 164 218 262 316 384
#     4  12  27  43  62  99 134 168 218 269 322 384
#     4  10  22  42  64  96 130 166 215 269 325 387
#     4  12  27  43  64  97 132 171 214 274 320 378
#     4  12  24  42  64  92 131 170 222 266 324 386
#     4  11  25  43  72  98 130 174 216 262 322 377
#
# _framework density 20.06457
#
# number of rings (size 3 to 8) (size 9 to 14) (size 15 to 20)
#    0.000    0.909    3.636    2.727    2.545    7.636 
#    3.273    0.000    0.000    0.000    0.000    0.000 
#    0.000    0.000    0.000    0.000    0.000    0.000 
#
# Total GULP energy -123019.316035 kJ/mol
# GULP energy per Si atom -5591.787092 kJ/mol
# Density = 2.001890 g / cm^3
# Si number density = 20.064570 Si / 1000 Ang^3
#
#
#
# Elastic Constant Matrix: (Units=GPa)
#
#
# Indices 1 2 3 4 5 6 
#
# 1 86.9931 10.1990 11.4777 0.0000 1.4153 0.0000
# 2 10.1990 102.0807 26.5022 0.0000 -8.3501 0.0000
# 3 11.4777 26.5022 93.2295 0.0000 0.0548 0.0000
# 4 0.0000 0.0000 0.0000 32.8543 0.0000 10.7665
# 5 1.4153 -8.3501 0.0548 0.0000 32.6520 0.0000
# 6 0.0000 0.0000 0.0000 10.7665 0.0000 1.3161
#
#
#
# Elastic Compliance Matrix: (Units=1/GPa)
#
#
# Indices 1 2 3 4 5 6 
#
# 1 0.011773 -0.000930 -0.001185 0.000000 -0.000746 0.000000
# 2 -0.000930 0.010896 -0.002984 0.000000 0.002832 0.000000
# 3 -0.001185 -0.002984 0.011721 0.000000 -0.000732 0.000000
# 4 0.000000 0.000000 0.000000 -0.018108 0.000000 0.148138
# 5 -0.000746 0.002832 -0.000732 0.000000 0.031384 0.000000
# 6 0.000000 0.000000 0.000000 0.148138 0.000000 -0.452045
#
#
# Mechanical properties :
#
#
# Convention : Reuss Voigt Hill
#
# Bulk Modulus (GPa) = 41.33694 42.07344 41.70519
# Shear Modulus (GPa) = -12.94936 28.97276 8.01170
#
# Velocity S-wave (km/s) = -2.54320 3.80409 2.00041
# Velocity P-wave (km/s) = 3.46740 6.34896 5.11528
#
# Compressibility (1/GPa) = 0.02419144
#
# Stress axis : x y z
#
# Youngs Moduli (GPa) = 84.94302 91.78094 85.31782
#
# Poissons Ratio (x) = 0.08533 0.10107
# Poissons Ratio (y) = 0.07897 0.25463
# Poissons Ratio (z) = 0.10063 0.27392
#
# Static dielectric constant tensor:
#      x y z
#    x 1.673480 0.000000 0.004500 
#    y 0.000000 1.718850 0.000000 
#    z 0.004500 0.000000 1.686290 
# 
# From -- ./inp_files/332208.got.cif
#   From: 2010.05.17/outbox.cif.g08.bks.cpg/sg12_167_cif.got.tgz:332208.got - 2010.06.03 13:09:07.
