data_PCOD9215042
_publ_section_title
;
Structure prediction by ZEFSAII (Michael W. Deem and Ramdas Pophale) SiO2 
 PCOD9215042
Probable space group: C 2/M
;
_chemical_formula_sum "Si O2"
_cell_formula_units_Z 36
_cell_length_a 5.719256
_cell_length_b 29.450404
_cell_length_c 10.278522
_cell_angle_alpha 90.000000
_cell_angle_beta 71.222375
_cell_angle_gamma 90.000000
_cell_volume 1639.110613
_symmetry_space_group_name_H-M "C 2/M"
_symmetry_group_IT_number 12
_symmetry_cell_setting 'monoclinic'
loop_
_space_group_symop_operation_xyz
x,y,z
-x,y,-z
-x,-y,-z
x,-y,z
1/2+x,1/2+y,z
1/2-x,1/2+y,-z
1/2-x,1/2-y,-z
1/2+x,1/2-y,z
loop_
_atom_site_type_symbol
_atom_site_label
_atom_site_fract_x
_atom_site_fract_y
_atom_site_fract_z
Si Si1 0.457216 0.051672 0.853202
Si Si2 0.466690 0.591691 0.657238
Si Si3 0.136787 0.266933 0.160075
Si Si4 0.708973 0.500000 0.579526
Si Si5 0.828358 0.859208 0.147686
O O1 0.257716 0.090736 0.874463
O O2 0.698188 0.071169 0.737198
O O3 0.403627 0.000000 0.819867
O O4 0.500000 0.049007 0.000000
O O5 0.500000 0.603710 0.500000
O O6 0.647150 0.548688 0.652581
O O7 0.533396 0.632887 0.741085
O O8 0.360537 0.252812 0.216681
O O9 0.117427 0.321296 0.182352
O O10 0.250000 0.250000 0.000000
O O11 0.500000 0.500000 0.500000
O O12 0.000000 0.500000 0.500000
O O13 0.000000 0.842844 0.000000
#
# Coordination Sequence:
#
# PCOD9215042 Si02
#       5
#     8   8   8   4   8
#     4  11  25  41  63 100 147 184 232 292 350 411
#     4  11  26  42  65  97 139 192 239 286 342 416
#     4  10  22  40  70 101 133 173 234 295 352 420
#     4  10  24  44  66  90 136 194 247 276 323 408
#     4  12  25  39  69 101 136 181 235 298 351 422
#
# _framework density 21.963128999999999
#
# number of rings (size 3 to 8) (size 9 to 14) (size 15 to 20)
#    0.000    1.111    5.556    0.000   14.000    0.444 
#    0.000    0.000    0.000    1.333    0.000    0.000 
#    0.000    0.000    0.000    0.000    0.000    0.000 
#
# Total GULP energy -100429.898023 kJ/mol
# GULP energy per Si atom -5579.438779 kJ/mol
# Density = 2.191314 g / cm^3
# Si number density = 21.963129 Si / 1000 Ang^3
#
#
#
# Elastic Constant Matrix: (Units=GPa)
#
#
# Indices 1 2 3 4 5 6 
#
# 1 96.9045 28.1148 14.9500 0.0000 -5.3950 0.0000
# 2 28.1148 112.2531 17.9322 0.0000 24.3995 0.0000
# 3 14.9500 17.9322 96.3791 0.0000 12.8148 0.0000
# 4 0.0000 0.0000 0.0000 2.8361 0.0000 6.0422
# 5 -5.3950 24.3995 12.8148 0.0000 36.0605 0.0000
# 6 0.0000 0.0000 0.0000 6.0422 0.0000 37.5994
#
#
#
# Elastic Compliance Matrix: (Units=1/GPa)
#
#
# Indices 1 2 3 4 5 6 
#
# 1 0.011981 -0.003799 -0.001818 0.000000 0.005009 0.000000
# 2 -0.003799 0.011752 -0.000487 0.000000 -0.008347 0.000000
# 3 -0.001818 -0.000487 0.011273 0.000000 -0.003948 0.000000
# 4 0.000000 0.000000 0.000000 0.536159 0.000000 -0.086161
# 5 0.005009 -0.008347 -0.003948 0.000000 0.035531 0.000000
# 6 0.000000 0.000000 0.000000 -0.086161 0.000000 0.040442
#
#
# Mechanical properties :
#
#
# Convention : Reuss Voigt Hill
#
# Bulk Modulus (GPa) = 43.86341 47.50342 45.68342
# Shear Modulus (GPa) = 7.49684 31.60186 19.54935
#
# Velocity S-wave (km/s) = 1.84954 3.79735 2.98669
# Velocity P-wave (km/s) = 4.95740 6.39548 5.72180
#
# Compressibility (1/GPa) = 0.02279804
#
# Stress axis : x y z
#
# Youngs Moduli (GPa) = 83.46580 85.09079 88.70524
#
# Poissons Ratio (x) = 0.32327 0.16123
# Poissons Ratio (y) = 0.31710 0.04324
# Poissons Ratio (z) = 0.15171 0.04148
#
# Static dielectric constant tensor:
#      x y z
#    x 2.346980 0.000000 0.319820 
#    y 0.000000 1.803410 0.000000 
#    z 0.319820 0.000000 2.005990 
# 
# From -- ./inp_files/115383.got.cif
#   From: 2010.05.17/outbox.cif.g08.bks.cpg/sg12_58_cif.got.tgz:115383.got - 2010.06.03 13:09:07.
