data_PCOD9215583
_publ_section_title
;
Structure prediction by ZEFSAII (Michael W. Deem and Ramdas Pophale) SiO2 
 PCOD9215583
Probable space group: C 2/M
;
_chemical_formula_sum "Si O2"
_cell_formula_units_Z 40
_cell_length_a 13.414048
_cell_length_b 25.738613
_cell_length_c 7.605517
_cell_angle_alpha 90.000000
_cell_angle_beta 137.881608
_cell_angle_gamma 90.000000
_cell_volume 1761.080564
_symmetry_space_group_name_H-M "C 2/M"
_symmetry_group_IT_number 12
_symmetry_cell_setting 'monoclinic'
loop_
_space_group_symop_operation_xyz
x,y,z
-x,y,-z
-x,-y,-z
x,-y,z
1/2+x,1/2+y,z
1/2-x,1/2+y,-z
1/2-x,1/2-y,-z
1/2+x,1/2-y,z
loop_
_atom_site_type_symbol
_atom_site_label
_atom_site_fract_x
_atom_site_fract_y
_atom_site_fract_z
Si Si1 0.319072 0.000000 0.285054
Si Si2 0.333425 0.214325 0.842168
Si Si3 0.665483 0.192206 0.737417
Si Si4 0.333053 0.000000 0.717552
Si Si5 0.813540 0.109169 0.409791
Si Si6 0.134031 0.101734 0.933571
O O1 0.500000 0.000000 0.500000
O O2 0.305321 0.000000 0.475135
O O3 0.229454 0.950059 0.094296
O O4 0.207915 0.259282 0.668139
O O5 0.282612 0.160936 0.680724
O O6 0.500000 0.228788 0.000000
O O7 0.335569 0.206381 0.056595
O O8 0.500000 0.171193 0.500000
O O9 0.787185 0.148444 0.863216
O O10 0.267756 0.945788 0.696176
O O11 0.500000 0.000000 0.000000
O O12 0.853675 0.115343 0.257016
O O13 0.956428 0.101123 0.722268
#
# Coordination Sequence:
#
# PCOD9215583 Si02
#       6
#     4   8   8   4   8   8
#     4  12  25  42  65  93 131 165 213 266 326 380
#     4  10  23  41  64  94 127 172 219 267 320 384
#     4  10  23  41  64  92 131 168 218 268 322 379
#     4  12  25  42  65  95 127 167 213 266 318 390
#     4  10  22  41  68  93 129 169 217 259 322 387
#     4  10  22  42  66  95 129 172 209 265 324 383
#
# _framework density 22.713328000000001
#
# number of rings (size 3 to 8) (size 9 to 14) (size 15 to 20)
#    0.000    1.600    0.000    3.600    8.400    8.800 
#    3.600    0.000    0.000    0.000    0.000    0.000 
#    0.000    0.000    0.000    0.000    0.000    0.000 
#
# Total GULP energy -111654.248389 kJ/mol
# GULP energy per Si atom -5582.712419 kJ/mol
# Density = 2.266163 g / cm^3
# Si number density = 22.713328 Si / 1000 Ang^3
#
#
#
# Elastic Constant Matrix: (Units=GPa)
#
#
# Indices 1 2 3 4 5 6 
#
# 1 53.7117 19.4455 10.6650 0.0000 13.5071 0.0000
# 2 19.4455 114.6670 43.1988 0.0000 23.1195 0.0000
# 3 10.6650 43.1988 143.9787 0.0000 30.0657 0.0000
# 4 0.0000 0.0000 0.0000 29.3790 0.0000 27.1260
# 5 13.5071 23.1195 30.0657 0.0000 42.2931 0.0000
# 6 0.0000 0.0000 0.0000 27.1260 0.0000 42.4266
#
#
#
# Elastic Compliance Matrix: (Units=1/GPa)
#
#
# Indices 1 2 3 4 5 6 
#
# 1 0.020862 -0.002566 0.000379 0.000000 -0.005530 0.000000
# 2 -0.002566 0.010712 -0.002316 0.000000 -0.003390 0.000000
# 3 0.000379 -0.002316 0.008659 0.000000 -0.005010 0.000000
# 4 0.000000 0.000000 0.000000 0.083087 0.000000 -0.053123
# 5 -0.005530 -0.003390 -0.005010 0.000000 0.030825 0.000000
# 6 0.000000 0.000000 0.000000 -0.053123 0.000000 0.057535
#
#
# Mechanical properties :
#
#
# Convention : Reuss Voigt Hill
#
# Bulk Modulus (GPa) = 32.02317 50.99734 41.51026
# Shear Modulus (GPa) = 21.63622 38.75628 30.19625
#
# Velocity S-wave (km/s) = 3.08973 4.13525 3.65012
# Velocity P-wave (km/s) = 5.18248 6.73066 6.00665
#
# Compressibility (1/GPa) = 0.03122739
#
# Stress axis : x y z
#
# Youngs Moduli (GPa) = 47.93380 93.35303 115.49285
#
# Poissons Ratio (x) = 0.23952 -0.04380
# Poissons Ratio (y) = 0.12299 0.26749
# Poissons Ratio (z) = -0.01818 0.21621
#
# Static dielectric constant tensor:
#      x y z
#    x 1.847220 0.000000 -0.013570 
#    y 0.000000 4.460720 0.000000 
#    z -0.013570 0.000000 1.847360 
# 
# From -- ./inp_files/68791.got.cif
#   From: 2010.05.17/outbox.cif.g08.bks.cpg/sg12_35_cif.got.tgz:68791.got - 2010.06.03 13:09:07.
