data_PCOD9215675
_publ_section_title
;
Structure prediction by ZEFSAII (Michael W. Deem and Ramdas Pophale) SiO2 
 PCOD9215675
Probable space group: C 2/M
;
_chemical_formula_sum "Si O2"
_cell_formula_units_Z 56
_cell_length_a 25.851940
_cell_length_b 20.810369
_cell_length_c 5.482629
_cell_angle_alpha 90.000000
_cell_angle_beta 70.111984
_cell_angle_gamma 90.000000
_cell_volume 2773.675200
_symmetry_space_group_name_H-M "C 2/M"
_symmetry_group_IT_number 12
_symmetry_cell_setting 'monoclinic'
loop_
_space_group_symop_operation_xyz
x,y,z
-x,y,-z
-x,-y,-z
x,-y,z
1/2+x,1/2+y,z
1/2-x,1/2+y,-z
1/2-x,1/2-y,-z
1/2+x,1/2-y,z
loop_
_atom_site_type_symbol
_atom_site_label
_atom_site_fract_x
_atom_site_fract_y
_atom_site_fract_z
Si Si1 0.500000 0.258649 0.000000
Si Si2 0.759163 0.390368 0.793414
Si Si3 0.385124 0.202750 0.101416
Si Si4 0.945455 0.864402 0.434901
Si Si5 0.342187 0.671094 0.901253
Si Si6 0.800170 0.742124 0.605478
Si Si7 0.964476 0.000000 0.300940
Si Si8 0.682283 0.072509 0.812808
O O1 0.450733 0.214317 0.968945
O O2 0.537137 0.306908 0.774430
O O3 0.780856 0.317571 0.795064
O O4 0.784320 0.414370 0.495162
O O5 0.693309 0.379623 0.890739
O O6 0.780126 0.425794 0.002753
O O7 0.354717 0.260033 0.002946
O O8 0.359315 0.219864 0.407516
O O9 0.362133 0.130941 0.088716
O O10 0.899386 0.851553 0.706858
O O11 0.931951 0.932916 0.338126
O O12 0.000000 0.872896 0.500000
O O13 0.307391 0.689952 0.719240
O O14 0.750000 0.750000 0.500000
O O15 0.000000 0.000000 0.500000
O O16 0.000000 0.000000 0.000000
O O17 0.658834 0.000000 0.832401
#
# Coordination Sequence:
#
# PCOD9215675 Si02
#       8
#     4   8   8   8   8   8   4   8
#     4  12  22  39  63 100 126 164 230 288 322 380
#     4  11  23  39  68  95 129 168 220 268 326 408
#     4  11  23  37  66  97 129 171 218 278 338 390
#     4  11  23  39  63  88 127 171 217 265 318 386
#     4  12  21  37  63  97 126 164 213 279 330 377
#     4  11  20  35  60  98 127 165 210 267 339 393
#     4  10  22  42  62  84 120 178 216 246 312 389
#     4  11  25  46  66  93 135 180 217 268 342 412
#
# _framework density 20.189819
#
# number of rings (size 3 to 8) (size 9 to 14) (size 15 to 20)
#    0.000    0.857    6.429    2.571    0.000    0.000 
#    2.571    0.357    0.000    0.000    0.000    4.000 
#    0.000    0.000    0.000    0.000    0.000    0.000 
#
# Total GULP energy -155895.408696 kJ/mol
# GULP energy per Si atom -5567.693168 kJ/mol
# Density = 2.014387 g / cm^3
# Si number density = 20.189819 Si / 1000 Ang^3
#
#
#
# Elastic Constant Matrix: (Units=GPa)
#
#
# Indices 1 2 3 4 5 6 
#
# 1 86.1125 36.5619 32.7794 0.0000 -12.7099 0.0000
# 2 36.5619 135.5436 38.6748 0.0000 -16.4448 0.0000
# 3 32.7794 38.6748 81.5782 0.0000 -17.5170 0.0000
# 4 0.0000 0.0000 0.0000 48.4631 0.0000 18.9631
# 5 -12.7099 -16.4448 -17.5170 0.0000 35.7113 0.0000
# 6 0.0000 0.0000 0.0000 18.9631 0.0000 20.3438
#
#
#
# Elastic Compliance Matrix: (Units=1/GPa)
#
#
# Indices 1 2 3 4 5 6 
#
# 1 0.014576 -0.002478 -0.004262 0.000000 0.001956 0.000000
# 2 -0.002478 0.009107 -0.002918 0.000000 0.001880 0.000000
# 3 -0.004262 -0.002918 0.016475 0.000000 0.005221 0.000000
# 4 0.000000 0.000000 0.000000 0.032481 0.000000 -0.030277
# 5 0.001956 0.001880 0.005221 0.000000 0.032125 0.000000
# 6 0.000000 0.000000 0.000000 -0.030277 0.000000 0.077377
#
#
# Mechanical properties :
#
#
# Convention : Reuss Voigt Hill
#
# Bulk Modulus (GPa) = 47.98083 57.69628 52.83856
# Shear Modulus (GPa) = 23.99170 33.91817 28.95493
#
# Velocity S-wave (km/s) = 3.45092 4.10318 3.79111
# Velocity P-wave (km/s) = 6.30039 7.14752 6.73729
#
# Compressibility (1/GPa) = 0.02084166
#
# Stress axis : x y z
#
# Youngs Moduli (GPa) = 68.60573 109.80671 60.69797
#
# Poissons Ratio (x) = 0.27215 0.25869
# Poissons Ratio (y) = 0.17003 0.17710
# Poissons Ratio (z) = 0.29239 0.32039
#
# Static dielectric constant tensor:
#      x y z
#    x 1.786940 0.000000 0.065610 
#    y 0.000000 1.778560 0.000000 
#    z 0.065610 0.000000 1.858090 
# 
# From -- ./inp_files/29307.got.cif
#   From: 2010.05.17/outbox.cif.g08.bks.cpg/sg12_15_cif.got.tgz:29307.got - 2010.06.03 13:09:07.
