data_PCOD9215765
_publ_section_title
;
Structure prediction by ZEFSAII (Michael W. Deem and Ramdas Pophale) SiO2 
 PCOD9215765
Probable space group: C 2/M
;
_chemical_formula_sum "Si O2"
_cell_formula_units_Z 64
_cell_length_a 19.356549
_cell_length_b 8.035325
_cell_length_c 22.420061
_cell_angle_alpha 90.000000
_cell_angle_beta 129.444994
_cell_angle_gamma 90.000000
_cell_volume 2692.883623
_symmetry_space_group_name_H-M "C 2/M"
_symmetry_group_IT_number 12
_symmetry_cell_setting 'monoclinic'
loop_
_space_group_symop_operation_xyz
x,y,z
-x,y,-z
-x,-y,-z
x,-y,z
1/2+x,1/2+y,z
1/2-x,1/2+y,-z
1/2-x,1/2-y,-z
1/2+x,1/2-y,z
loop_
_atom_site_type_symbol
_atom_site_label
_atom_site_fract_x
_atom_site_fract_y
_atom_site_fract_z
Si Si1 0.136325 0.307828 0.147079
Si Si2 0.066348 0.805763 0.229386
Si Si3 0.989724 0.806149 0.617130
Si Si4 0.677538 0.202218 0.041916
Si Si5 0.330024 0.809258 0.609552
Si Si6 0.145119 0.797593 0.552469
Si Si7 0.628317 0.699050 0.882460
Si Si8 0.678007 0.190353 0.706318
O O1 0.107255 0.500000 0.132837
O O2 0.082771 0.211581 0.168216
O O3 0.129141 0.243914 0.075634
O O4 0.241527 0.297272 0.222510
O O5 0.139856 0.701843 0.304826
O O6 0.967859 0.740230 0.191452
O O7 0.075169 0.000000 0.250524
O O8 0.908250 0.786803 0.618467
O O9 0.945549 0.746731 0.530695
O O10 0.081408 0.716252 0.683579
O O11 0.012845 0.000000 0.623549
O O12 0.781276 0.261090 0.098861
O O13 0.677650 0.000000 0.041631
O O14 0.637815 0.262007 0.957828
O O15 0.228747 0.743916 0.556380
O O16 0.330511 0.000000 0.589799
O O17 0.159627 0.733340 0.626851
O O18 0.146485 0.000000 0.554765
O O19 0.626308 0.500000 0.873979
O O20 0.707256 0.000000 0.726800
#
# Coordination Sequence:
#
# PCOD9215765 Si02
#       8
#     8   8   8   8   8   8   8   8
#     4  11  23  40  62  87 121 162 203 251 302 359
#     4  11  23  39  61  89 122 163 204 246 302 360
#     4  11  24  41  63  89 121 161 204 252 308 366
#     4   9  20  39  63  90 118 156 199 242 297 355
#     4  11  23  40  62  91 124 159 205 254 303 360
#     4  10  22  42  65  88 120 162 202 249 309 365
#     4   9  20  39  62  90 122 156 196 243 296 355
#     4  12  25  40  61  91 123 159 206 255 305 363
#
# _framework density 23.766345999999999
#
# number of rings (size 3 to 8) (size 9 to 14) (size 15 to 20)
#    0.000    1.500    1.250    3.375    1.750    5.500 
#    0.000    2.500    0.000    0.000    0.000    0.000 
#    0.000    0.000    0.000    0.000    0.000    0.000 
#
# Total GULP energy -179032.525882 kJ/mol
# GULP energy per Si atom -5594.766434 kJ/mol
# Density = 2.371225 g / cm^3
# Si number density = 23.766346 Si / 1000 Ang^3
#
#
#
# Elastic Constant Matrix: (Units=GPa)
#
#
# Indices 1 2 3 4 5 6 
#
# 1 79.5138 -2.8400 3.7304 0.0000 0.0967 0.0000
# 2 -2.8400 38.8883 -6.1911 0.0000 3.3392 0.0000
# 3 3.7304 -6.1911 17.5170 0.0000 6.3974 0.0000
# 4 0.0000 0.0000 0.0000 22.3588 0.0000 -5.4670
# 5 0.0967 3.3392 6.3974 0.0000 45.5326 0.0000
# 6 0.0000 0.0000 0.0000 -5.4670 0.0000 28.9665
#
#
#
# Elastic Compliance Matrix: (Units=1/GPa)
#
#
# Indices 1 2 3 4 5 6 
#
# 1 0.012718 0.000480 -0.002652 0.000000 0.000310 0.000000
# 2 0.000480 0.027816 0.011041 0.000000 -0.003592 0.000000
# 3 -0.002652 0.011041 0.065193 0.000000 -0.009964 0.000000
# 4 0.000000 0.000000 0.000000 0.046889 0.000000 0.008850
# 5 0.000310 -0.003592 -0.009964 0.000000 0.023625 0.000000
# 6 0.000000 0.000000 0.000000 0.008850 0.000000 0.036193
#
#
# Mechanical properties :
#
#
# Convention : Reuss Voigt Hill
#
# Bulk Modulus (GPa) = 8.09954 13.92419 11.01186
# Shear Modulus (GPa) = 21.19980 28.78622 24.99301
#
# Velocity S-wave (km/s) = 2.98989 3.48403 3.24638
# Velocity P-wave (km/s) = 3.91595 4.69640 4.32382
#
# Compressibility (1/GPa) = 0.12346380
#
# Stress axis : x y z
#
# Youngs Moduli (GPa) = 78.63101 35.95071 15.33901
#
# Poissons Ratio (x) = -0.01725 0.04068
# Poissons Ratio (y) = -0.03774 -0.16935
# Poissons Ratio (z) = 0.20854 -0.39692
#
# Static dielectric constant tensor:
#      x y z
#    x 1.941770 0.000000 -0.024130 
#    y 0.000000 1.830050 0.000000 
#    z -0.024130 0.000000 1.907070 
# 
# From -- ./inp_files/346149.got.cif
#   From: 2010.05.17/outbox.cif.g08.bks.cpg/sg12_174_cif.got.tgz:346149.got - 2010.06.03 13:09:07.
