data_PCOD9215053
_publ_section_title
;
Structure prediction by ZEFSAII (Michael W. Deem and Ramdas Pophale) SiO2 
 PCOD9215053
Probable space group: C 2/M
;
_chemical_formula_sum "Si O2"
_cell_formula_units_Z 46
_cell_length_a 9.363252
_cell_length_b 14.571081
_cell_length_c 15.238240
_cell_angle_alpha 90.000000
_cell_angle_beta 55.503696
_cell_angle_gamma 90.000000
_cell_volume 1713.429587
_symmetry_space_group_name_H-M "C 2/M"
_symmetry_group_IT_number 12
_symmetry_cell_setting 'monoclinic'
loop_
_space_group_symop_operation_xyz
x,y,z
-x,y,-z
-x,-y,-z
x,-y,z
1/2+x,1/2+y,z
1/2-x,1/2+y,-z
1/2-x,1/2-y,-z
1/2+x,1/2-y,z
loop_
_atom_site_type_symbol
_atom_site_label
_atom_site_fract_x
_atom_site_fract_y
_atom_site_fract_z
Si Si1 0.815680 0.600928 0.515019
Si Si2 0.743883 0.147611 0.916838
Si Si3 0.000000 0.000000 0.500000
Si Si4 0.729647 0.143410 0.657553
Si Si5 0.344411 0.659133 0.255316
Si Si6 0.899608 0.500000 0.173447
Si Si7 0.806043 0.863814 0.082428
O O1 0.769640 0.500000 0.491275
O O2 0.815171 0.662812 0.429202
O O3 0.687929 0.614696 0.639704
O O4 0.000000 0.601359 0.500000
O O5 0.684752 0.252632 0.926819
O O6 0.951127 0.156458 0.833583
O O7 0.663765 0.079763 0.875270
O O8 0.705744 0.109341 0.028729
O O9 0.903243 0.082185 0.593689
O O10 0.735007 0.239399 0.705504
O O11 0.589554 0.080178 0.753214
O O12 0.259543 0.614276 0.198688
O O13 0.000000 0.899384 0.000000
#
# Coordination Sequence:
#
# PCOD9215053 Si02
#       7
#     8   8   2   8   8   4   8
#     4  11  26  44  60  93 138 179 226 283 337 403
#     4  10  22  40  71  97 135 170 229 286 344 408
#     4  10  24  40  68  94 144 164 234 294 318 388
#     4  11  24  41  67  95 135 178 228 280 335 402
#     4  11  24  40  70  97 129 187 228 272 352 410
#     4  11  22  41  70  97 131 175 225 285 347 397
#     4   9  20  43  64  95 133 174 221 283 335 419
#
# _framework density 26.846741000000002
#
# number of rings (size 3 to 8) (size 9 to 14) (size 15 to 20)
#    0.000    1.565    3.478    0.522    9.739    0.000 
#    1.565    1.739    0.000    0.000    0.000    0.000 
#    0.000    0.000    0.000    0.000    0.000    0.000 
#
# Total GULP energy -128091.635559 kJ/mol
# GULP energy per Si atom -5569.201546 kJ/mol
# Density = 2.678564 g / cm^3
# Si number density = 26.846741 Si / 1000 Ang^3
#
#
#
# Elastic Constant Matrix: (Units=GPa)
#
#
# Indices 1 2 3 4 5 6 
#
# 1 113.0469 29.2007 76.0464 0.0000 8.8491 0.0000
# 2 29.2007 98.6006 18.0930 0.0000 16.1143 0.0000
# 3 76.0464 18.0930 205.3020 0.0000 38.2874 0.0000
# 4 0.0000 0.0000 0.0000 4.3847 0.0000 18.6716
# 5 8.8491 16.1143 38.2874 0.0000 67.2277 0.0000
# 6 0.0000 0.0000 0.0000 18.6716 0.0000 19.4245
#
#
#
# Elastic Compliance Matrix: (Units=1/GPa)
#
#
# Indices 1 2 3 4 5 6 
#
# 1 0.012741 -0.003193 -0.004775 0.000000 0.001808 0.000000
# 2 -0.003193 0.011404 0.000681 0.000000 -0.002701 0.000000
# 3 -0.004775 0.000681 0.007264 0.000000 -0.003672 0.000000
# 4 0.000000 0.000000 0.000000 -0.073729 0.000000 0.070871
# 5 0.001808 -0.002701 -0.003672 0.000000 0.017376 0.000000
# 6 0.000000 0.000000 0.000000 0.070871 0.000000 -0.016643
#
#
# Mechanical properties :
#
#
# Convention : Reuss Voigt Hill
#
# Bulk Modulus (GPa) = 59.39453 73.73661 66.56557
# Shear Modulus (GPa) = -233.63522 37.78136 -97.92693
#
# Velocity S-wave (km/s) = -9.33887 3.75547 -6.04611
# Velocity P-wave (km/s) = 9.70126 6.80662 4.88796
#
# Compressibility (1/GPa) = 0.01683657
#
# Stress axis : x y z
#
# Youngs Moduli (GPa) = 78.48430 87.68963 137.65616
#
# Poissons Ratio (x) = 0.27995 0.65736
# Poissons Ratio (y) = 0.25057 -0.09379
# Poissons Ratio (z) = 0.37479 -0.05975
#
# Static dielectric constant tensor:
#      x y z
#    x 1.810650 0.000000 -0.026850 
#    y 0.000000 1.849070 0.000000 
#    z -0.026850 0.000000 2.107110 
# 
# From -- ./inp_files/204877.got.cif
#   From: 2010.05.17/outbox.cif.g08.bks.cpg/sg12_103_cif.got.tgz:204877.got - 2010.06.03 13:09:07.
