data_PCOD9215178
_publ_section_title
;
Structure prediction by ZEFSAII (Michael W. Deem and Ramdas Pophale) SiO2 
 PCOD9215178
Probable space group: C 2/M
;
_chemical_formula_sum "Si O2"
_cell_formula_units_Z 32
_cell_length_a 20.959320
_cell_length_b 8.812195
_cell_length_c 13.811985
_cell_angle_alpha 90.000000
_cell_angle_beta 139.034717
_cell_angle_gamma 90.000000
_cell_volume 1672.466383
_symmetry_space_group_name_H-M "C 2/M"
_symmetry_group_IT_number 12
_symmetry_cell_setting 'monoclinic'
loop_
_space_group_symop_operation_xyz
x,y,z
-x,y,-z
-x,-y,-z
x,-y,z
1/2+x,1/2+y,z
1/2-x,1/2+y,-z
1/2-x,1/2-y,-z
1/2+x,1/2-y,z
loop_
_atom_site_type_symbol
_atom_site_label
_atom_site_fract_x
_atom_site_fract_y
_atom_site_fract_z
Si Si1 0.389771 0.681384 0.903602
Si Si2 0.523554 0.181667 0.414914
Si Si3 0.353417 0.318421 0.088164
Si Si4 0.227580 0.819206 0.579354
O O1 0.376244 0.500000 0.872909
O O2 0.312536 0.768776 0.749710
O O3 0.500000 0.719182 0.000000
O O4 0.373220 0.713210 0.997770
O O5 0.500000 0.215541 0.500000
O O6 0.438072 0.246564 0.250023
O O7 0.625542 0.254420 0.500988
O O8 0.529144 0.000000 0.410452
O O9 0.352611 0.500000 0.100200
O O10 0.250000 0.250000 0.000000
O O11 0.250000 0.750000 0.500000
O O12 0.222393 0.000000 0.566536
#
# Coordination Sequence:
#
# PCOD9215178 Si02
#       4
#     8   8   8   8
#     4  10  22  41  63  88 120 158 202 252 304 357
#     4  11  24  42  64  91 125 163 205 255 308 362
#     4  11  23  39  62  91 124 162 203 251 305 362
#     4  12  25  41  64  92 124 162 205 253 305 365
#
# _framework density 19.133419
#
# number of rings (size 3 to 8) (size 9 to 14) (size 15 to 20)
#    0.000    1.000    0.000    6.750    0.000   12.500 
#    0.000    0.000    0.000    0.000    0.000    0.000 
#    0.000    0.000    0.000    0.000    0.000    0.000 
#
# Total GULP energy -89574.529835 kJ/mol
# GULP energy per Si atom -5598.408115 kJ/mol
# Density = 1.908987 g / cm^3
# Si number density = 19.133419 Si / 1000 Ang^3
#
#
#
# Elastic Constant Matrix: (Units=GPa)
#
#
# Indices 1 2 3 4 5 6 
#
# 1 217.7407 121.4646 125.5253 0.0000 12.0505 0.0000
# 2 121.4646 125.5796 112.4658 0.0000 -7.4917 0.0000
# 3 125.5253 112.4658 200.7612 0.0000 4.7294 0.0000
# 4 0.0000 0.0000 0.0000 44.1302 0.0000 0.9678
# 5 12.0505 -7.4917 4.7294 0.0000 39.5865 0.0000
# 6 0.0000 0.0000 0.0000 0.9678 0.0000 32.2390
#
#
#
# Elastic Compliance Matrix: (Units=1/GPa)
#
#
# Indices 1 2 3 4 5 6 
#
# 1 0.011177 -0.009968 -0.001284 0.000000 -0.005136 0.000000
# 2 -0.009968 0.025564 -0.008297 0.000000 0.008863 0.000000
# 3 -0.001284 -0.008297 0.010489 0.000000 -0.002433 0.000000
# 4 0.000000 0.000000 0.000000 0.022675 0.000000 -0.000681
# 5 -0.005136 0.008863 -0.002433 0.000000 0.028792 0.000000
# 6 0.000000 0.000000 0.000000 -0.000681 0.000000 0.031039
#
#
# Mechanical properties :
#
#
# Convention : Reuss Voigt Hill
#
# Bulk Modulus (GPa) = 122.95950 140.33254 131.64602
# Shear Modulus (GPa) = 29.14691 35.49953 32.32322
#
# Velocity S-wave (km/s) = 3.90725 4.31207 4.11464
# Velocity P-wave (km/s) = 9.20648 9.91440 9.56699
#
# Compressibility (1/GPa) = 0.00813276
#
# Stress axis : x y z
#
# Youngs Moduli (GPa) = 89.46708 39.11783 95.33765
#
# Poissons Ratio (x) = 0.38992 0.12238
# Poissons Ratio (y) = 0.89179 0.79104
# Poissons Ratio (z) = 0.11485 0.32457
#
# Static dielectric constant tensor:
#      x y z
#    x 1.633950 0.000000 -0.004750 
#    y 0.000000 1.642520 0.000000 
#    z -0.004750 0.000000 1.617100 
# 
# From -- ./inp_files/138646.got.cif
#   From: 2010.05.17/outbox.cif.g08.bks.cpg/sg12_70_cif.got.tgz:138646.got - 2010.06.03 13:09:07.
