data_PCOD9215835
_publ_section_title
;
Structure prediction by ZEFSAII (Michael W. Deem and Ramdas Pophale) SiO2 
 PCOD9215835
Probable space group: C 2/M
;
_chemical_formula_sum "Si O2"
_cell_formula_units_Z 48
_cell_length_a 24.970001
_cell_length_b 8.284295
_cell_length_c 14.253830
_cell_angle_alpha 90.000000
_cell_angle_beta 138.625006
_cell_angle_gamma 90.000000
_cell_volume 1948.933035
_symmetry_space_group_name_H-M "C 2/M"
_symmetry_group_IT_number 12
_symmetry_cell_setting 'monoclinic'
loop_
_space_group_symop_operation_xyz
x,y,z
-x,y,-z
-x,-y,-z
x,-y,z
1/2+x,1/2+y,z
1/2-x,1/2+y,-z
1/2-x,1/2-y,-z
1/2+x,1/2-y,z
loop_
_atom_site_type_symbol
_atom_site_label
_atom_site_fract_x
_atom_site_fract_y
_atom_site_fract_z
Si Si1 0.334626 0.184506 0.151159
Si Si2 0.085725 0.188074 0.003311
Si Si3 0.588770 0.808625 0.215383
Si Si4 0.741589 0.316334 0.779177
Si Si5 0.836612 0.311804 0.496967
Si Si6 0.005737 0.811109 0.396598
O O1 0.317667 0.202003 0.240393
O O2 0.416338 0.281000 0.237396
O O3 0.346217 0.000000 0.140320
O O4 0.250000 0.250000 0.000000
O O5 0.093468 0.207255 0.126575
O O6 0.166709 0.273437 0.074268
O O7 0.083485 0.000000 0.975171
O O8 0.002606 0.276051 0.868167
O O9 0.650250 0.761104 0.378212
O O10 0.597075 0.000000 0.205247
O O11 0.722516 0.500000 0.779059
O O12 0.725167 0.288381 0.647866
O O13 0.814222 0.500000 0.465230
O O14 0.924299 0.287445 0.562956
O O15 0.000000 0.771984 0.500000
O O16 0.027024 0.000000 0.416347
#
# Coordination Sequence:
#
# PCOD9215835 Si02
#       6
#     8   8   8   8   8   8
#     4  12  26  44  66  93 128 166 211 260 312 371
#     4  11  23  41  66  94 126 164 209 258 314 375
#     4  10  22  42  66  94 127 163 207 257 315 376
#     4  12  25  43  65  92 128 166 209 260 316 371
#     4  11  24  41  65  95 126 165 212 259 313 374
#     4  11  23  41  65  93 128 168 209 255 310 370
#
# _framework density 24.628858999999999
#
# number of rings (size 3 to 8) (size 9 to 14) (size 15 to 20)
#    0.000    0.833    1.667    7.000    2.333    4.000 
#    0.000    0.000    0.000    0.000    0.000    0.000 
#    0.000    0.000    0.000    0.000    0.000    0.000 
#
# Total GULP energy -134516.734665 kJ/mol
# GULP energy per Si atom -5604.863944 kJ/mol
# Density = 2.457280 g / cm^3
# Si number density = 24.628859 Si / 1000 Ang^3
#
#
#
# Elastic Constant Matrix: (Units=GPa)
#
#
# Indices 1 2 3 4 5 6 
#
# 1 47.2700 -5.1010 3.9113 0.0000 8.1501 0.0000
# 2 -5.1010 79.3243 1.9324 0.0000 -6.6555 0.0000
# 3 3.9113 1.9324 115.3427 0.0000 2.2245 0.0000
# 4 0.0000 0.0000 0.0000 31.8776 0.0000 0.3487
# 5 8.1501 -6.6555 2.2245 0.0000 49.0504 0.0000
# 6 0.0000 0.0000 0.0000 0.3487 0.0000 26.7698
#
#
#
# Elastic Compliance Matrix: (Units=1/GPa)
#
#
# Indices 1 2 3 4 5 6 
#
# 1 0.021932 0.001137 -0.000696 0.000000 -0.003458 0.000000
# 2 0.001137 0.012818 -0.000283 0.000000 0.001563 0.000000
# 3 -0.000696 -0.000283 0.008704 0.000000 -0.000318 0.000000
# 4 0.000000 0.000000 0.000000 0.031374 0.000000 -0.000409
# 5 -0.003458 0.001563 -0.000318 0.000000 0.021188 0.000000
# 6 0.000000 0.000000 0.000000 -0.000409 0.000000 0.037361
#
#
# Mechanical properties :
#
#
# Convention : Reuss Voigt Hill
#
# Bulk Modulus (GPa) = 22.84731 27.04692 24.94711
# Shear Modulus (GPa) = 33.86351 37.61918 35.74135
#
# Velocity S-wave (km/s) = 3.71206 3.91249 3.81359
# Velocity P-wave (km/s) = 5.26016 5.60498 5.43530
#
# Compressibility (1/GPa) = 0.04376883
#
# Stress axis : x y z
#
# Youngs Moduli (GPa) = 45.59628 78.01736 114.88580
#
# Poissons Ratio (x) = -0.08872 0.07997
# Poissons Ratio (y) = -0.05185 0.03256
# Poissons Ratio (z) = 0.03174 0.02211
#
# Static dielectric constant tensor:
#      x y z
#    x 2.030590 0.000000 -0.057400 
#    y 0.000000 1.811080 0.000000 
#    z -0.057400 0.000000 1.990480 
# 
# From -- ./inp_files/244894.got.cif
#   From: 2010.05.17/outbox.cif.g08.bks.cpg/sg12_123_cif.got.tgz:244894.got - 2010.06.03 13:09:07.
