data_PCOD9215672
_publ_section_title
;
Structure prediction by ZEFSAII (Michael W. Deem and Ramdas Pophale) SiO2 
 PCOD9215672
Probable space group: C 2/M
;
_chemical_formula_sum "Si O2"
_cell_formula_units_Z 48
_cell_length_a 24.815857
_cell_length_b 22.144788
_cell_length_c 17.141836
_cell_angle_alpha 90.000000
_cell_angle_beta 14.903247
_cell_angle_gamma 90.000000
_cell_volume 2422.747174
_symmetry_space_group_name_H-M "C 2/M"
_symmetry_group_IT_number 12
_symmetry_cell_setting 'monoclinic'
loop_
_space_group_symop_operation_xyz
x,y,z
-x,y,-z
-x,-y,-z
x,-y,z
1/2+x,1/2+y,z
1/2-x,1/2+y,-z
1/2-x,1/2-y,-z
1/2+x,1/2-y,z
loop_
_atom_site_type_symbol
_atom_site_label
_atom_site_fract_x
_atom_site_fract_y
_atom_site_fract_z
Si Si1 0.201549 0.370988 0.758462
Si Si2 0.094652 0.124031 0.781326
Si Si3 0.973847 0.204663 0.270945
Si Si4 0.908310 0.000000 0.042486
Si Si5 0.165496 0.887823 0.109565
Si Si6 0.063471 0.500000 0.321930
Si Si7 0.064283 0.344860 0.125129
O O1 0.420833 0.406786 0.456605
O O2 0.144745 0.350925 0.924547
O O3 0.000000 0.400837 0.000000
O O4 0.731650 0.315181 0.391803
O O5 0.345322 0.118985 0.438620
O O6 0.048493 0.176961 0.784092
O O7 0.000000 0.134754 0.000000
O O8 0.991999 0.062622 0.889736
O O9 0.155736 0.168918 0.063567
O O10 0.010732 0.275263 0.217530
O O11 0.662397 0.000000 0.401044
O O12 0.000000 0.000000 0.000000
O O13 0.263120 0.867441 0.054983
O O14 0.305088 0.941322 0.882361
O O15 0.000000 0.500000 0.500000
#
# Coordination Sequence:
#
# PCOD9215672 Si02
#       7
#     8   8   8   4   8   4   8
#     4  10  23  43  63  91 133 170 216 270 326 391
#     4  11  23  38  66  97 130 175 221 271 335 390
#     4  10  24  39  63  94 133 171 223 261 334 390
#     4  10  22  42  61  97 130 164 213 277 316 390
#     4  10  24  43  64  97 126 173 218 275 330 385
#     4  12  24  46  71  94 134 172 220 281 324 388
#     4  12  22  41  67  96 136 175 215 278 323 403
#
# _framework density 19.812221000000001
#
# number of rings (size 3 to 8) (size 9 to 14) (size 15 to 20)
#    1.000    0.333    1.667    4.500    2.333    0.000 
#    0.000    2.917    0.000    0.000    0.000    0.000 
#    0.000    0.000    0.000    0.000    0.000    0.000 
#
# Total GULP energy -133877.603355 kJ/mol
# GULP energy per Si atom -5578.233473 kJ/mol
# Density = 1.976713 g / cm^3
# Si number density = 19.812221 Si / 1000 Ang^3
#
#
#
# Elastic Constant Matrix: (Units=GPa)
#
#
# Indices 1 2 3 4 5 6 
#
# 1 138.3181 19.8697 60.7251 0.0179 3.7762 -0.0300
# 2 19.8697 69.2921 56.3617 0.0510 2.9776 -0.0424
# 3 60.7251 56.3617 164.2817 0.0806 -15.3191 -0.1133
# 4 0.0179 0.0510 0.0806 27.8469 -0.0363 -10.0138
# 5 3.7762 2.9776 -15.3191 -0.0363 44.2335 0.0551
# 6 -0.0300 -0.0424 -0.1133 -10.0138 0.0551 10.5127
#
#
#
# Elastic Compliance Matrix: (Units=1/GPa)
#
#
# Indices 1 2 3 4 5 6 
#
# 1 0.008800 0.000506 -0.003616 0.000001 -0.002038 0.000000
# 2 0.000506 0.020702 -0.007671 -0.000020 -0.004093 0.000005
# 3 -0.003616 -0.007671 0.010471 0.000014 0.004451 0.000062
# 4 0.000001 -0.000020 0.000014 0.054620 -0.000014 0.052028
# 5 -0.002038 -0.004093 0.004451 -0.000014 0.024599 -0.000116
# 6 0.000000 0.000005 0.000062 0.052028 -0.000116 0.144683
#
#
# Mechanical properties :
#
#
# Convention : Reuss Voigt Hill
#
# Bulk Modulus (GPa) = 54.31960 71.75612 63.03786
# Shear Modulus (GPa) = 17.14820 32.18096 24.66458
#
# Velocity S-wave (km/s) = 2.94519 4.03463 3.53217
# Velocity P-wave (km/s) = 6.24838 7.61584 6.96575
#
# Compressibility (1/GPa) = 0.01840956
#
# Stress axis : x y z
#
# Youngs Moduli (GPa) = 113.63063 48.30399 95.50343
#
# Poissons Ratio (x) = -0.02442 0.34539
# Poissons Ratio (y) = -0.05746 0.73262
# Poissons Ratio (z) = 0.41094 0.37055
#
# Static dielectric constant tensor:
#      x y z
#    x 1.686660 -0.000020 -0.017530 
#    y -0.000020 1.725400 0.000040 
#    z -0.017530 0.000040 1.700380 
# 
# From -- ./inp_files/330587.got.cif
#   From: 2010.05.17/outbox.cif.g08.bks.cpg/sg12_166_cif.got.tgz:330587.got - 2010.06.03 13:09:07.
