data_PCOD9215077
_publ_section_title
;
Structure prediction by ZEFSAII (Michael W. Deem and Ramdas Pophale) SiO2 
 PCOD9215077
Probable space group: C 2/M
;
_chemical_formula_sum "Si O2"
_cell_formula_units_Z 56
_cell_length_a 20.905184
_cell_length_b 8.809530
_cell_length_c 18.075677
_cell_angle_alpha 90.000000
_cell_angle_beta 71.328165
_cell_angle_gamma 90.000000
_cell_volume 3153.696601
_symmetry_space_group_name_H-M "C 2/M"
_symmetry_group_IT_number 12
_symmetry_cell_setting 'monoclinic'
loop_
_space_group_symop_operation_xyz
x,y,z
-x,y,-z
-x,-y,-z
x,-y,z
1/2+x,1/2+y,z
1/2-x,1/2+y,-z
1/2-x,1/2-y,-z
1/2+x,1/2-y,z
loop_
_atom_site_type_symbol
_atom_site_label
_atom_site_fract_x
_atom_site_fract_y
_atom_site_fract_z
Si Si1 0.656353 0.682323 0.588794
Si Si2 0.309270 0.182359 0.574574
Si Si3 0.675040 0.181152 0.836526
Si Si4 0.676840 0.181327 0.008088
Si Si5 0.319497 0.182545 0.737983
Si Si6 0.929991 0.183246 0.239542
Si Si7 0.412808 0.317953 0.830281
O O1 0.655738 0.500000 0.583536
O O2 0.650170 0.750287 0.509392
O O3 0.730572 0.727800 0.592100
O O4 0.600795 0.728489 0.669399
O O5 0.331978 0.228211 0.648047
O O6 0.311717 0.000000 0.569701
O O7 0.745039 0.260447 0.787784
O O8 0.615702 0.241989 0.806576
O O9 0.682492 0.000000 0.825324
O O10 0.661494 0.213403 0.927914
O O11 0.622577 0.251990 0.083633
O O12 0.679284 0.000000 0.017433
O O13 0.750000 0.250000 0.000000
O O14 0.372647 0.252797 0.774935
O O15 0.321008 0.000000 0.742065
O O16 0.008368 0.222855 0.202896
O O17 0.923403 0.000000 0.236236
O O18 0.406718 0.500000 0.832861
#
# Coordination Sequence:
#
# PCOD9215077 Si02
#       7
#     8   8   8   8   8   8   8
#     4   9  17  33  55  81 113 149 188 234 286 338
#     4   9  18  32  54  85 113 144 190 237 284 340
#     4  11  23  37  60  89 115 147 195 243 285 342
#     4  11  23  39  60  87 118 151 191 243 292 339
#     4  11  21  37  60  85 117 154 192 238 291 343
#     4  10  22  41  60  83 119 158 193 235 291 348
#     4  11  24  40  60  86 117 154 197 239 287 348
#
# _framework density 17.756938999999999
#
# number of rings (size 3 to 8) (size 9 to 14) (size 15 to 20)
#    0.000    1.714    2.857    1.714    0.000    5.143 
#    0.000    3.571    0.000    4.286    0.000    0.000 
#    0.000    0.000    0.000    0.000    0.000    0.000 
#
# Total GULP energy -156381.598619 kJ/mol
# GULP energy per Si atom -5585.057094 kJ/mol
# Density = 1.771652 g / cm^3
# Si number density = 17.756939 Si / 1000 Ang^3
#
#
#
# Elastic Constant Matrix: (Units=GPa)
#
#
# Indices 1 2 3 4 5 6 
#
# 1 132.9000 52.3915 95.4675 0.0000 0.6298 0.0000
# 2 52.3915 44.2490 63.2698 0.0000 2.6859 0.0000
# 3 95.4675 63.2698 189.7225 0.0000 3.2407 0.0000
# 4 0.0000 0.0000 0.0000 33.6912 0.0000 2.7696
# 5 0.6298 2.6859 3.2407 0.0000 29.8223 0.0000
# 6 0.0000 0.0000 0.0000 2.7696 0.0000 26.8406
#
#
#
# Elastic Compliance Matrix: (Units=1/GPa)
#
#
# Indices 1 2 3 4 5 6 
#
# 1 0.015057 -0.013455 -0.003111 0.000000 0.001232 0.000000
# 2 -0.013455 0.055383 -0.011640 0.000000 -0.003439 0.000000
# 3 -0.003111 -0.011640 0.010719 0.000000 -0.000051 0.000000
# 4 0.000000 0.000000 0.000000 0.029935 0.000000 -0.003089
# 5 0.001232 -0.003439 -0.000051 0.000000 0.033821 0.000000
# 6 0.000000 0.000000 0.000000 -0.003089 0.000000 0.037576
#
#
# Mechanical properties :
#
#
# Convention : Reuss Voigt Hill
#
# Bulk Modulus (GPa) = 40.40855 87.68099 64.04477
# Shear Modulus (GPa) = 20.23044 28.45367 24.34205
#
# Velocity S-wave (km/s) = 3.37901 4.00734 3.70651
# Velocity P-wave (km/s) = 6.16681 8.42005 7.37993
#
# Compressibility (1/GPa) = 0.02474724
#
# Stress axis : x y z
#
# Youngs Moduli (GPa) = 66.41241 18.05615 93.29298
#
# Poissons Ratio (x) = 0.24294 0.29022
# Poissons Ratio (y) = 0.89357 1.08595
# Poissons Ratio (z) = 0.20660 0.21018
#
# Static dielectric constant tensor:
#      x y z
#    x 1.572490 0.000000 0.004480 
#    y 0.000000 1.597840 0.000000 
#    z 0.004480 0.000000 1.603100 
# 
# From -- ./inp_files/275008.got.cif
#   From: 2010.05.17/outbox.cif.g08.bks.cpg/sg12_138_cif.got.tgz:275008.got - 2010.06.03 13:09:07.
