data_PCOD9215774
_publ_section_title
;
Structure prediction by ZEFSAII (Michael W. Deem and Ramdas Pophale) SiO2 
 PCOD9215774
Probable space group: C 2/M
;
_chemical_formula_sum "Si O2"
_cell_formula_units_Z 56
_cell_length_a 20.429585
_cell_length_b 8.776175
_cell_length_c 26.762133
_cell_angle_alpha 90.000000
_cell_angle_beta 141.598101
_cell_angle_gamma 90.000000
_cell_volume 2980.565305
_symmetry_space_group_name_H-M "C 2/M"
_symmetry_group_IT_number 12
_symmetry_cell_setting 'monoclinic'
loop_
_space_group_symop_operation_xyz
x,y,z
-x,y,-z
-x,-y,-z
x,-y,z
1/2+x,1/2+y,z
1/2-x,1/2+y,-z
1/2-x,1/2-y,-z
1/2+x,1/2-y,z
loop_
_atom_site_type_symbol
_atom_site_label
_atom_site_fract_x
_atom_site_fract_y
_atom_site_fract_z
Si Si1 0.995667 0.817259 0.240003
Si Si2 0.663242 0.817665 0.485993
Si Si3 0.134482 0.182918 0.936835
Si Si4 0.776625 0.682461 0.644426
Si Si5 0.735084 0.817135 0.245612
Si Si6 0.567108 0.182675 0.694676
Si Si7 0.522676 0.315532 0.070719
O O1 0.936350 0.775426 0.153387
O O2 0.934093 0.753532 0.250813
O O3 0.111496 0.745029 0.307862
O O4 0.004083 0.000000 0.247953
O O5 0.750000 0.750000 0.500000
O O6 0.688533 0.752955 0.555828
O O7 0.545928 0.778186 0.397525
O O8 0.673377 0.000000 0.492024
O O9 0.072950 0.231271 0.950016
O O10 0.142464 0.000000 0.942667
O O11 0.250000 0.250000 0.000000
O O12 0.775303 0.500000 0.639184
O O13 0.765436 0.724308 0.695916
O O14 0.837088 0.748142 0.279938
O O15 0.630059 0.753953 0.156463
O O16 0.736571 0.000000 0.242897
O O17 0.574918 0.000000 0.702465
O O18 0.531403 0.500000 0.077968
O O19 0.500000 0.271751 0.000000
#
# Coordination Sequence:
#
# PCOD9215774 Si02
#       7
#     8   8   8   8   8   8   8
#     4  11  22  39  64  92 124 164 210 258 308 367
#     4  11  23  39  63  94 126 163 208 261 313 367
#     4  10  23  40  61  93 127 162 205 254 310 367
#     4  11  23  40  64  92 124 166 209 254 312 371
#     4  11  25  43  64  92 126 166 210 257 311 371
#     4  11  25  42  63  92 126 164 208 257 313 373
#     4  10  22  42  65  91 124 165 208 253 311 373
#
# _framework density 18.788381000000001
#
# number of rings (size 3 to 8) (size 9 to 14) (size 15 to 20)
#    0.000    1.286    2.857    2.143    2.000    6.000 
#    0.000    2.857    0.000    0.000    0.000    0.000 
#    0.000    0.000    0.000    0.000    0.000    0.000 
#
# Total GULP energy -156567.234769 kJ/mol
# GULP energy per Si atom -5591.686956 kJ/mol
# Density = 1.874562 g / cm^3
# Si number density = 18.788381 Si / 1000 Ang^3
#
#
#
# Elastic Constant Matrix: (Units=GPa)
#
#
# Indices 1 2 3 4 5 6 
#
# 1 158.0468 40.5101 76.1484 0.0000 -4.4637 0.0000
# 2 40.5101 35.5324 39.4492 0.0000 -5.6142 0.0000
# 3 76.1484 39.4492 120.4874 0.0000 -11.9279 0.0000
# 4 0.0000 0.0000 0.0000 34.9169 0.0000 2.0260
# 5 -4.4637 -5.6142 -11.9279 0.0000 39.7768 0.0000
# 6 0.0000 0.0000 0.0000 2.0260 0.0000 29.6265
#
#
#
# Elastic Compliance Matrix: (Units=1/GPa)
#
#
# Indices 1 2 3 4 5 6 
#
# 1 0.010130 -0.007062 -0.004201 0.000000 -0.001120 0.000000
# 2 -0.007062 0.049288 -0.011403 0.000000 0.002745 0.000000
# 3 -0.004201 -0.011403 0.014925 0.000000 0.002395 0.000000
# 4 0.000000 0.000000 0.000000 0.028753 0.000000 -0.001966
# 5 -0.001120 0.002745 0.002395 0.000000 0.026120 0.000000
# 6 0.000000 0.000000 0.000000 -0.001966 0.000000 0.033888
#
#
# Mechanical properties :
#
#
# Convention : Reuss Voigt Hill
#
# Bulk Modulus (GPa) = 34.46847 69.58686 52.02767
# Shear Modulus (GPa) = 22.92475 31.39465 27.15970
#
# Velocity S-wave (km/s) = 3.49686 4.09217 3.80617
# Velocity P-wave (km/s) = 5.88978 7.71009 6.86057
#
# Compressibility (1/GPa) = 0.02901202
#
# Stress axis : x y z
#
# Youngs Moduli (GPa) = 98.72064 20.28899 67.00228
#
# Poissons Ratio (x) = 0.14328 0.28145
# Poissons Ratio (y) = 0.69715 0.76400
# Poissons Ratio (z) = 0.41469 0.23135
#
# Static dielectric constant tensor:
#      x y z
#    x 1.628760 0.000000 -0.016590 
#    y 0.000000 1.631840 0.000000 
#    z -0.016590 0.000000 1.631870 
# 
# From -- ./inp_files/363130.got.cif
#   From: 2010.05.17/outbox.cif.g08.bks.cpg/sg12_182_cif.got.tgz:363130.got - 2010.06.03 13:09:07.
