data_PCOD9215397
_publ_section_title
;
Structure prediction by ZEFSAII (Michael W. Deem and Ramdas Pophale) SiO2 
 PCOD9215397
Probable space group: C 2/M
;
_chemical_formula_sum "Si O2"
_cell_formula_units_Z 56
_cell_length_a 26.188876
_cell_length_b 16.689631
_cell_length_c 9.412731
_cell_angle_alpha 90.000000
_cell_angle_beta 135.623515
_cell_angle_gamma 90.000000
_cell_volume 2877.307467
_symmetry_space_group_name_H-M "C 2/M"
_symmetry_group_IT_number 12
_symmetry_cell_setting 'monoclinic'
loop_
_space_group_symop_operation_xyz
x,y,z
-x,y,-z
-x,-y,-z
x,-y,z
1/2+x,1/2+y,z
1/2-x,1/2+y,-z
1/2-x,1/2-y,-z
1/2+x,1/2-y,z
loop_
_atom_site_type_symbol
_atom_site_label
_atom_site_fract_x
_atom_site_fract_y
_atom_site_fract_z
Si Si1 0.437711 0.173826 0.976481
Si Si2 0.758285 0.656922 0.977335
Si Si3 0.924297 0.596815 0.261333
Si Si4 0.701376 0.409040 0.138095
Si Si5 0.075173 0.858552 0.100989
Si Si6 0.813328 0.092190 0.450674
Si Si7 0.784727 0.335340 0.529511
O O1 0.444966 0.270553 0.998615
O O2 0.365900 0.163582 0.740862
O O3 0.500000 0.139572 0.000000
O O4 0.433279 0.134121 0.121541
O O5 0.844213 0.629625 0.155156
O O6 0.704860 0.610258 0.979718
O O7 0.750000 0.750000 0.000000
O O8 0.725391 0.636179 0.757169
O O9 0.918569 0.500000 0.244535
O O10 0.000000 0.615497 0.500000
O O11 0.722873 0.500000 0.200899
O O12 0.627284 0.394532 0.081342
O O13 0.763526 0.351851 0.326926
O O14 0.121497 0.860263 0.340367
O O15 0.000000 0.899572 0.000000
O O16 0.753972 0.095087 0.457762
O O17 0.833031 0.000000 0.457252
O O18 0.750000 0.250000 0.500000
#
# Coordination Sequence:
#
# PCOD9215397 Si02
#       7
#     8   8   8   8   8   8   8
#     4  11  23  38  63  93 126 164 217 263 308 376
#     4  12  25  42  68  91 128 172 216 271 320 390
#     4  11  26  46  64  92 137 181 216 263 331 389
#     4  11  23  37  61  95 123 160 211 263 313 374
#     4  10  22  41  65  93 130 167 209 260 324 385
#     4  11  22  39  64  92 121 165 210 258 320 382
#     4  11  19  37  62  87 123 162 211 258 311 369
#
# _framework density 19.462641000000001
#
# number of rings (size 3 to 8) (size 9 to 14) (size 15 to 20)
#    0.000    1.000    4.286    4.714    2.000    3.143 
#    0.000    0.714    0.000    1.714    0.000    0.000 
#    0.000    0.000    0.000    0.000    0.000    0.000 
#
# Total GULP energy -155975.266164 kJ/mol
# GULP energy per Si atom -5570.545220 kJ/mol
# Density = 1.941834 g / cm^3
# Si number density = 19.462641 Si / 1000 Ang^3
#
#
#
# Elastic Constant Matrix: (Units=GPa)
#
#
# Indices 1 2 3 4 5 6 
#
# 1 112.0496 24.4794 56.0155 0.0000 13.8345 0.0000
# 2 24.4794 101.7613 19.6517 0.0000 -0.2853 0.0000
# 3 56.0155 19.6517 95.9747 0.0000 17.9355 0.0000
# 4 0.0000 0.0000 0.0000 21.7851 0.0000 4.9924
# 5 13.8345 -0.2853 17.9355 0.0000 35.9063 0.0000
# 6 0.0000 0.0000 0.0000 4.9924 0.0000 5.9830
#
#
#
# Elastic Compliance Matrix: (Units=1/GPa)
#
#
# Indices 1 2 3 4 5 6 
#
# 1 0.012961 -0.001788 -0.006907 0.000000 -0.001558 0.000000
# 2 -0.001788 0.010529 -0.001386 0.000000 0.001465 0.000000
# 3 -0.006907 -0.001386 0.015705 0.000000 -0.005195 0.000000
# 4 0.000000 0.000000 0.000000 0.056756 0.000000 -0.047359
# 5 -0.001558 0.001465 -0.005195 0.000000 0.031057 0.000000
# 6 0.000000 0.000000 0.000000 -0.047359 0.000000 0.206659
#
#
# Mechanical properties :
#
#
# Convention : Reuss Voigt Hill
#
# Bulk Modulus (GPa) = 52.54293 56.67541 54.60917
# Shear Modulus (GPa) = 13.88220 26.71081 20.29651
#
# Velocity S-wave (km/s) = 2.67362 3.70863 3.23281
# Velocity P-wave (km/s) = 6.04867 6.89361 6.48492
#
# Compressibility (1/GPa) = 0.01903206
#
# Stress axis : x y z
#
# Youngs Moduli (GPa) = 77.15658 94.97714 63.67256
#
# Poissons Ratio (x) = 0.16984 0.43980
# Poissons Ratio (y) = 0.13798 0.08825
# Poissons Ratio (z) = 0.53294 0.13163
#
# Static dielectric constant tensor:
#      x y z
#    x 1.713000 0.000000 0.037610 
#    y 0.000000 1.723380 0.000000 
#    z 0.037610 0.000000 1.689280 
# 
# From -- ./inp_files/98185.got.cif
#   From: 2010.05.17/outbox.cif.g08.bks.cpg/sg12_50_cif.got.tgz:98185.got - 2010.06.03 13:09:07.
