data_PCOD9215070
_publ_section_title
;
Structure prediction by ZEFSAII (Michael W. Deem and Ramdas Pophale) SiO2 
 PCOD9215070
Probable space group: C 2/M
;
_chemical_formula_sum "Si O2"
_cell_formula_units_Z 64
_cell_length_a 9.168249
_cell_length_b 30.516520
_cell_length_c 17.496170
_cell_angle_alpha 90.000000
_cell_angle_beta 41.643928
_cell_angle_gamma 90.000000
_cell_volume 3252.811927
_symmetry_space_group_name_H-M "C 2/M"
_symmetry_group_IT_number 12
_symmetry_cell_setting 'monoclinic'
loop_
_space_group_symop_operation_xyz
x,y,z
-x,y,-z
-x,-y,-z
x,-y,z
1/2+x,1/2+y,z
1/2-x,1/2+y,-z
1/2-x,1/2-y,-z
1/2+x,1/2-y,z
loop_
_atom_site_type_symbol
_atom_site_label
_atom_site_fract_x
_atom_site_fract_y
_atom_site_fract_z
Si Si1 0.646963 0.114217 0.103787
Si Si2 0.138510 0.402213 0.287014
Si Si3 0.940451 0.167744 0.242646
Si Si4 0.319304 0.408106 0.778904
Si Si5 0.226798 0.293315 0.458783
Si Si6 0.845767 0.887119 0.485341
Si Si7 0.573085 0.450937 0.110064
Si Si8 0.148659 0.795473 0.015150
O O1 0.655478 0.113187 0.192277
O O2 0.413564 0.094799 0.170164
O O3 0.826936 0.084371 0.988792
O O4 0.683559 0.164388 0.064248
O O5 0.237600 0.365546 0.306233
O O6 0.313975 0.441418 0.221803
O O7 0.885839 0.410704 0.406715
O O8 0.902787 0.203413 0.322083
O O9 0.138339 0.137045 0.192009
O O10 0.990270 0.189434 0.144200
O O11 0.512803 0.408290 0.639360
O O12 0.329398 0.443342 0.842951
O O13 0.250000 0.250000 0.500000
O O14 0.274723 0.337561 0.488514
O O15 0.000000 0.294052 0.500000
O O16 0.000000 0.885844 0.500000
O O17 0.615328 0.500000 0.066522
O O18 0.250000 0.750000 0.000000
O O19 0.000000 0.789941 0.000000
#
# Coordination Sequence:
#
# PCOD9215070 Si02
#       8
#     8   8   8   8   8   8   8   8
#     4  12  22  42  68  96 138 172 217 276 330 395
#     4  11  21  42  71  92 133 171 216 270 333 396
#     4  10  22  41  59  89 126 173 217 269 326 390
#     4  10  23  39  69  96 130 171 213 267 337 391
#     4  11  23  38  60  88 127 169 225 282 324 378
#     4  11  22  42  66  95 123 175 223 267 338 393
#     4  11  25  43  70 103 132 169 219 269 333 405
#     4  12  26  40  60  92 132 179 225 268 330 393
#
# _framework density 19.675284999999999
#
# number of rings (size 3 to 8) (size 9 to 14) (size 15 to 20)
#    0.000    1.000    6.250    1.125    1.750    4.000 
#    2.250    1.250    0.000    0.750    0.000    0.000 
#    0.000    0.000    0.000    0.000    0.000    0.000 
#
# Total GULP energy -178589.933227 kJ/mol
# GULP energy per Si atom -5580.935413 kJ/mol
# Density = 1.963050 g / cm^3
# Si number density = 19.675285 Si / 1000 Ang^3
#
#
#
# Elastic Constant Matrix: (Units=GPa)
#
#
# Indices 1 2 3 4 5 6 
#
# 1 93.1752 6.7194 25.0455 0.0000 0.4371 0.0000
# 2 6.7194 58.9648 29.6823 0.0000 1.9570 0.0000
# 3 25.0455 29.6823 78.8391 0.0000 -1.0215 0.0000
# 4 0.0000 0.0000 0.0000 13.6891 0.0000 4.2629
# 5 0.4371 1.9570 -1.0215 0.0000 43.0977 0.0000
# 6 0.0000 0.0000 0.0000 4.2629 0.0000 14.3448
#
#
#
# Elastic Compliance Matrix: (Units=1/GPa)
#
#
# Indices 1 2 3 4 5 6 
#
# 1 0.011758 0.000679 -0.003994 0.000000 -0.000245 0.000000
# 2 0.000679 0.021020 -0.008144 0.000000 -0.001154 0.000000
# 3 -0.003994 -0.008144 0.017030 0.000000 0.000814 0.000000
# 4 0.000000 0.000000 0.000000 0.080500 0.000000 -0.023922
# 5 -0.000245 -0.001154 0.000814 0.000000 0.023277 0.000000
# 6 0.000000 0.000000 0.000000 -0.023922 0.000000 0.076821
#
#
# Mechanical properties :
#
#
# Convention : Reuss Voigt Hill
#
# Bulk Modulus (GPa) = 37.19057 39.31929 38.25493
# Shear Modulus (GPa) = 19.06295 25.52844 22.29570
#
# Velocity S-wave (km/s) = 3.11606 3.60597 3.36993
# Velocity P-wave (km/s) = 5.64709 6.11268 5.88449
#
# Compressibility (1/GPa) = 0.02688854
#
# Stress axis : x y z
#
# Youngs Moduli (GPa) = 85.04655 47.57357 58.72067
#
# Poissons Ratio (x) = -0.03229 0.23453
# Poissons Ratio (y) = -0.05773 0.47825
# Poissons Ratio (z) = 0.33968 0.38746
#
# Static dielectric constant tensor:
#      x y z
#    x 1.690720 0.000000 -0.003730 
#    y 0.000000 1.678230 0.000000 
#    z -0.003730 0.000000 1.728940 
# 
# From -- ./inp_files/260311.got.cif
#   From: 2010.05.17/outbox.cif.g08.bks.cpg/sg12_131_cif.got.tgz:260311.got - 2010.06.03 13:09:07.
