data_PCOD9215076
_publ_section_title
;
Structure prediction by ZEFSAII (Michael W. Deem and Ramdas Pophale) SiO2 
 PCOD9215076
Probable space group: C 2/M
;
_chemical_formula_sum "Si O2"
_cell_formula_units_Z 56
_cell_length_a 30.153247
_cell_length_b 9.349832
_cell_length_c 20.832969
_cell_angle_alpha 90.000000
_cell_angle_beta 28.411258
_cell_angle_gamma 90.000000
_cell_volume 2794.543005
_symmetry_space_group_name_H-M "C 2/M"
_symmetry_group_IT_number 12
_symmetry_cell_setting 'monoclinic'
loop_
_space_group_symop_operation_xyz
x,y,z
-x,y,-z
-x,-y,-z
x,-y,z
1/2+x,1/2+y,z
1/2-x,1/2+y,-z
1/2-x,1/2-y,-z
1/2+x,1/2-y,z
loop_
_atom_site_type_symbol
_atom_site_label
_atom_site_fract_x
_atom_site_fract_y
_atom_site_fract_z
Si Si1 0.681929 0.660830 0.352088
Si Si2 0.727360 0.663351 0.962826
Si Si3 0.029818 0.332084 0.610197
Si Si4 0.545694 0.662152 0.840024
Si Si5 0.952010 0.665947 0.851594
Si Si6 0.148486 0.837745 0.835835
Si Si7 0.910613 0.726869 0.652832
O O1 0.679036 0.500000 0.379922
O O2 0.630394 0.771722 0.464945
O O3 0.785443 0.721929 0.216300
O O4 0.630487 0.668808 0.348710
O O5 0.702623 0.500000 0.010889
O O6 0.817377 0.656626 0.801007
O O7 0.750000 0.750000 0.000000
O O8 0.642375 0.741496 0.034807
O O9 0.019113 0.500000 0.604932
O O10 0.000553 0.324258 0.720490
O O11 0.962082 0.232798 0.653240
O O12 0.561397 0.500000 0.795955
O O13 0.524140 0.771432 0.811155
O O14 0.625326 0.695745 0.790883
O O15 0.449458 0.660024 0.002725
O O16 0.929263 0.500000 0.893688
O O17 0.187062 0.000000 0.791149
O O18 0.000000 0.659101 0.500000
#
# Coordination Sequence:
#
# PCOD9215076 Si02
#       7
#     8   8   8   8   8   8   8
#     4  11  24  38  58  90 121 151 199 255 308 354
#     4  12  24  39  61  89 122 162 204 253 300 355
#     4  10  22  41  60  81 115 162 206 242 294 366
#     4   9  19  37  62  90 115 152 198 244 296 358
#     4  11  23  40  60  89 123 158 200 246 302 365
#     4   9  19  38  62  87 118 152 196 243 296 365
#     4  10  23  41  61  86 120 163 208 249 299 360
#
# _framework density 20.039055000000001
#
# number of rings (size 3 to 8) (size 9 to 14) (size 15 to 20)
#    0.000    1.714    1.429    3.429    0.000   14.571 
#    0.000    2.143    0.000    0.000    0.000    0.000 
#    0.000    0.000    0.000    0.000    0.000    0.000 
#
# Total GULP energy -155988.144669 kJ/mol
# GULP energy per Si atom -5571.005167 kJ/mol
# Density = 1.999345 g / cm^3
# Si number density = 20.039055 Si / 1000 Ang^3
#
#
#
# Elastic Constant Matrix: (Units=GPa)
#
#
# Indices 1 2 3 4 5 6 
#
# 1 85.8142 51.6810 3.9820 -0.0005 11.6060 0.0001
# 2 51.6810 99.4833 23.1077 0.0029 3.2107 0.0003
# 3 3.9820 23.1077 51.9512 -0.0011 11.7823 0.0004
# 4 -0.0005 0.0029 -0.0011 4.9798 0.0012 4.2200
# 5 11.6060 3.2107 11.7823 0.0012 23.6507 -0.0004
# 6 0.0001 0.0003 0.0004 4.2200 -0.0004 23.6244
#
#
#
# Elastic Compliance Matrix: (Units=1/GPa)
#
#
# Indices 1 2 3 4 5 6 
#
# 1 0.019651 -0.011247 0.006017 0.000015 -0.011114 -0.000003
# 2 -0.011247 0.017672 -0.008688 -0.000018 0.007448 0.000003
# 3 0.006017 -0.008688 0.025991 0.000018 -0.014721 -0.000004
# 4 0.000015 -0.000018 0.000018 0.236630 -0.000026 -0.042269
# 5 -0.011114 0.007448 -0.014721 -0.000026 0.054059 0.000006
# 6 -0.000003 0.000003 -0.000004 -0.042269 0.000006 0.049879
#
#
# Mechanical properties :
#
#
# Convention : Reuss Voigt Hill
#
# Bulk Modulus (GPa) = 28.18671 43.86559 36.02615
# Shear Modulus (GPa) = 11.27284 21.01618 16.14451
#
# Velocity S-wave (km/s) = 2.37437 3.24197 2.84148
# Velocity P-wave (km/s) = 4.64901 5.99595 5.36492
#
# Compressibility (1/GPa) = 0.03547771
#
# Stress axis : x y z
#
# Youngs Moduli (GPa) = 50.88907 56.58522 38.47532
#
# Poissons Ratio (x) = 0.63643 -0.23151
# Poissons Ratio (y) = 0.57237 0.33427
# Poissons Ratio (z) = -0.30621 0.49160
#
# Static dielectric constant tensor:
#      x y z
#    x 1.728060 0.000000 -0.008030 
#    y 0.000000 1.703770 0.000000 
#    z -0.008030 0.000000 1.746010 
# 
# From -- ./inp_files/329492.got.cif
#   From: 2010.05.17/outbox.cif.g08.bks.cpg/sg12_165_cif.got.tgz:329492.got - 2010.06.03 13:09:07.
