data_PCOD9215032
_publ_section_title
;
Structure prediction by ZEFSAII (Michael W. Deem and Ramdas Pophale) SiO2 
 PCOD9215032
Probable space group: C 2/M
;
_chemical_formula_sum "Si O2"
_cell_formula_units_Z 36
_cell_length_a 14.238811
_cell_length_b 14.238547
_cell_length_c 12.075609
_cell_angle_alpha 90.000000
_cell_angle_beta 41.150533
_cell_angle_gamma 90.000000
_cell_volume 1611.018309
_symmetry_space_group_name_H-M "C 2/M"
_symmetry_group_IT_number 12
_symmetry_cell_setting 'monoclinic'
loop_
_space_group_symop_operation_xyz
x,y,z
-x,y,-z
-x,-y,-z
x,-y,z
1/2+x,1/2+y,z
1/2-x,1/2+y,-z
1/2-x,1/2-y,-z
1/2+x,1/2-y,z
loop_
_atom_site_type_symbol
_atom_site_label
_atom_site_fract_x
_atom_site_fract_y
_atom_site_fract_z
Si Si1 0.701900 0.500000 0.013636
Si Si2 0.012559 0.500000 0.821463
Si Si3 0.171837 0.158324 0.613441
Si Si4 0.865641 0.500000 0.533037
Si Si5 0.000000 0.338991 0.000000
Si Si6 0.050969 0.000000 0.580608
Si Si7 0.857255 0.800068 0.989053
O O1 0.576179 0.500000 0.215681
O O2 0.694478 0.406148 0.947676
O O3 0.842396 0.500000 0.961805
O O4 0.065522 0.500000 0.650330
O O5 0.048470 0.592480 0.858849
O O6 0.250000 0.250000 0.500000
O O7 0.263557 0.093003 0.617432
O O8 0.140205 0.091090 0.536304
O O9 0.018030 0.188304 0.799134
O O10 0.000000 0.500000 0.500000
O O11 0.127066 0.270642 0.923686
O O12 0.000000 0.000000 0.500000
O O13 0.750000 0.750000 0.000000
#
# Coordination Sequence:
#
# PCOD9215032 Si02
#       7
#     4   4   8   4   4   4   8
#     4  10  22  40  68  98 142 179 244 297 361 444
#     4  11  23  43  70 106 140 187 241 296 362 434
#     4  10  23  44  65  99 140 183 242 286 358 444
#     4  11  26  48  72 106 152 198 240 302 372 445
#     4  11  24  41  72 106 142 179 238 305 366 434
#     4   9  21  40  66 100 138 181 235 298 357 424
#     4  11  23  44  67 101 142 184 238 303 369 436
#
# _framework density 22.346115999999999
#
# number of rings (size 3 to 8) (size 9 to 14) (size 15 to 20)
#    0.000    1.556    2.222    2.000    0.000    8.444 
#    0.000    0.000    0.000    0.000    0.000    0.000 
#    0.000    0.000    0.000    0.000    0.000    0.000 
#
# Total GULP energy -100613.485984 kJ/mol
# GULP energy per Si atom -5589.638110 kJ/mol
# Density = 2.229526 g / cm^3
# Si number density = 22.346116 Si / 1000 Ang^3
#
#
#
# Elastic Constant Matrix: (Units=GPa)
#
#
# Indices 1 2 3 4 5 6 
#
# 1 196.0063 99.9234 48.8877 0.0000 1.9594 0.0000
# 2 99.9234 222.0611 42.7372 0.0000 -1.2110 0.0000
# 3 48.8877 42.7372 65.7066 0.0000 -6.4625 0.0000
# 4 0.0000 0.0000 0.0000 20.2227 0.0000 0.3568
# 5 1.9594 -1.2110 -6.4625 0.0000 46.0456 0.0000
# 6 0.0000 0.0000 0.0000 0.3568 0.0000 35.2151
#
#
#
# Elastic Compliance Matrix: (Units=1/GPa)
#
#
# Indices 1 2 3 4 5 6 
#
# 1 0.007406 -0.002583 -0.003922 0.000000 -0.000934 0.000000
# 2 -0.002583 0.006054 -0.002017 0.000000 -0.000014 0.000000
# 3 -0.003922 -0.002017 0.019733 0.000000 0.002883 0.000000
# 4 0.000000 0.000000 0.000000 0.049458 0.000000 -0.000501
# 5 -0.000934 -0.000014 0.002883 0.000000 0.022162 0.000000
# 6 0.000000 0.000000 0.000000 -0.000501 0.000000 0.028402
#
#
# Mechanical properties :
#
#
# Convention : Reuss Voigt Hill
#
# Bulk Modulus (GPa) = 61.92572 96.31897 79.12234
# Shear Modulus (GPa) = 32.12496 39.77840 35.95168
#
# Velocity S-wave (km/s) = 3.79569 4.22370 4.01541
# Velocity P-wave (km/s) = 6.85434 8.18432 7.54868
#
# Compressibility (1/GPa) = 0.01614838
#
# Stress axis : x y z
#
# Youngs Moduli (GPa) = 135.02084 165.18986 50.67642
#
# Poissons Ratio (x) = 0.42667 0.19877
# Poissons Ratio (y) = 0.34874 0.10222
# Poissons Ratio (z) = 0.52960 0.33320
#
# Static dielectric constant tensor:
#      x y z
#    x 1.826430 0.000000 -0.000150 
#    y 0.000000 1.822540 0.000000 
#    z -0.000150 0.000000 1.856040 
# 
# From -- ./inp_files/143500.got.cif
#   From: 2010.05.17/outbox.cif.g08.bks.cpg/sg12_72_cif.got.tgz:143500.got - 2010.06.03 13:09:07.
