data_PCOD9215174
_publ_section_title
;
Structure prediction by ZEFSAII (Michael W. Deem and Ramdas Pophale) SiO2 
 PCOD9215174
Probable space group: C 2/M
;
_chemical_formula_sum "Si O2"
_cell_formula_units_Z 56
_cell_length_a 8.882306
_cell_length_b 18.175377
_cell_length_c 19.924832
_cell_angle_alpha 90.000000
_cell_angle_beta 115.928372
_cell_angle_gamma 90.000000
_cell_volume 2892.866545
_symmetry_space_group_name_H-M "C 2/M"
_symmetry_group_IT_number 12
_symmetry_cell_setting 'monoclinic'
loop_
_space_group_symop_operation_xyz
x,y,z
-x,y,-z
-x,-y,-z
x,-y,z
1/2+x,1/2+y,z
1/2-x,1/2+y,-z
1/2-x,1/2-y,-z
1/2+x,1/2-y,z
loop_
_atom_site_type_symbol
_atom_site_label
_atom_site_fract_x
_atom_site_fract_y
_atom_site_fract_z
Si Si1 0.641935 0.335361 0.791976
Si Si2 0.295171 0.913806 0.622835
Si Si3 0.976036 0.322261 0.770041
Si Si4 0.253198 0.586313 0.902197
Si Si5 0.810237 0.670245 0.487512
Si Si6 0.637688 0.586599 0.929888
Si Si7 0.542152 0.415433 0.357285
O O1 0.537829 0.260163 0.770157
O O2 0.674972 0.363987 0.873148
O O3 0.536284 0.395612 0.729862
O O4 0.814842 0.323063 0.786728
O O5 0.419630 0.864189 0.691530
O O6 0.295150 0.885180 0.547246
O O7 0.110160 0.905837 0.619283
O O8 0.339801 0.000000 0.635726
O O9 0.124260 0.366008 0.835415
O O10 0.208328 0.500000 0.889405
O O11 0.440999 0.593882 0.909867
O O12 0.262810 0.606567 0.982870
O O13 0.750000 0.750000 0.500000
O O14 0.689959 0.639153 0.406188
O O15 0.000000 0.674448 0.500000
O O16 0.669320 0.500000 0.922004
O O17 0.597929 0.500000 0.370407
#
# Coordination Sequence:
#
# PCOD9215174 Si02
#       7
#     8   8   8   8   8   8   8
#     4  11  23  38  58  85 116 152 193 236 285 339
#     4  10  22  41  63  87 117 151 188 234 287 340
#     4  11  23  38  58  85 116 152 193 236 285 339
#     4   9  19  37  60  85 114 149 189 235 288 343
#     4  12  25  40  61  89 119 153 193 234 281 336
#     4   9  19  37  60  85 114 149 189 235 288 343
#     4  10  22  41  63  87 117 151 188 234 287 340
#
# _framework density 19.357963000000002
#
# number of rings (size 3 to 8) (size 9 to 14) (size 15 to 20)
#    0.000    1.714    0.000    5.143    0.000    9.714 
#    0.000    1.429    0.000    0.000    0.000    0.000 
#    0.000    0.000    0.000    0.000    0.000    0.000 
#
# Total GULP energy -156547.021921 kJ/mol
# GULP energy per Si atom -5590.965069 kJ/mol
# Density = 1.931390 g / cm^3
# Si number density = 19.357963 Si / 1000 Ang^3
#
#
#
# Elastic Constant Matrix: (Units=GPa)
#
#
# Indices 1 2 3 4 5 6 
#
# 1 14.2970 5.3596 -2.0827 0.0000 7.3868 0.0000
# 2 5.3596 45.4079 -14.4189 0.0000 6.2889 0.0000
# 3 -2.0827 -14.4189 31.7830 0.0000 0.5850 0.0000
# 4 0.0000 0.0000 0.0000 24.3189 0.0000 5.8922
# 5 7.3868 6.2889 0.5850 0.0000 31.4477 0.0000
# 6 0.0000 0.0000 0.0000 5.8922 0.0000 14.1694
#
#
#
# Elastic Compliance Matrix: (Units=1/GPa)
#
#
# Indices 1 2 3 4 5 6 
#
# 1 0.082051 -0.006272 0.002864 0.000000 -0.018072 0.000000
# 2 -0.006272 0.027146 0.011981 0.000000 -0.004178 0.000000
# 3 0.002864 0.011981 0.037156 0.000000 -0.003760 0.000000
# 4 0.000000 0.000000 0.000000 0.045727 0.000000 -0.019015
# 5 -0.018072 -0.004178 -0.003760 0.000000 0.036949 0.000000
# 6 0.000000 0.000000 0.000000 -0.019015 0.000000 0.078482
#
#
# Mechanical properties :
#
#
# Convention : Reuss Voigt Hill
#
# Bulk Modulus (GPa) = 6.11629 7.68931 6.90280
# Shear Modulus (GPa) = 14.49842 20.82918 17.66380
#
# Velocity S-wave (km/s) = 2.73969 3.28380 3.02401
# Velocity P-wave (km/s) = 3.62964 4.28470 3.97070
#
# Compressibility (1/GPa) = 0.16349790
#
# Stress axis : x y z
#
# Youngs Moduli (GPa) = 12.18759 36.83765 26.91379
#
# Poissons Ratio (x) = 0.23106 -0.07708
# Poissons Ratio (y) = 0.07644 -0.32246
# Poissons Ratio (z) = -0.03490 -0.44136
#
# Static dielectric constant tensor:
#      x y z
#    x 1.650980 0.000000 -0.005390 
#    y 0.000000 1.651730 0.000000 
#    z -0.005390 0.000000 1.649450 
# 
# From -- ./inp_files/257193.got.cif
#   From: 2010.05.17/outbox.cif.g08.bks.cpg/sg12_129_cif.got.tgz:257193.got - 2010.06.03 13:09:07.
