data_PCOD9215591
_publ_section_title
;
Structure prediction by ZEFSAII (Michael W. Deem and Ramdas Pophale) SiO2 
 PCOD9215591
Probable space group: C 2/M
;
_chemical_formula_sum "Si O2"
_cell_formula_units_Z 56
_cell_length_a 7.017088
_cell_length_b 13.971476
_cell_length_c 25.751964
_cell_angle_alpha 90.000000
_cell_angle_beta 121.782013
_cell_angle_gamma 90.000000
_cell_volume 2146.140589
_symmetry_space_group_name_H-M "C 2/M"
_symmetry_group_IT_number 12
_symmetry_cell_setting 'monoclinic'
loop_
_space_group_symop_operation_xyz
x,y,z
-x,y,-z
-x,-y,-z
x,-y,z
1/2+x,1/2+y,z
1/2-x,1/2+y,-z
1/2-x,1/2-y,-z
1/2+x,1/2-y,z
loop_
_atom_site_type_symbol
_atom_site_label
_atom_site_fract_x
_atom_site_fract_y
_atom_site_fract_z
Si Si1 0.445904 0.259831 0.104490
Si Si2 0.965926 0.807817 0.596556
Si Si3 0.727128 0.894445 0.999676
Si Si4 0.328185 0.108465 0.524523
Si Si5 0.377507 0.751011 0.198603
Si Si6 0.925435 0.609545 0.698404
Si Si7 0.360046 0.610671 0.690076
O O1 0.408140 0.357018 0.066910
O O2 0.594795 0.261478 0.181285
O O3 0.728088 0.233562 0.122520
O O4 0.318242 0.177989 0.053412
O O5 0.907929 0.874127 0.538914
O O6 0.877668 0.703024 0.566296
O O7 0.720115 0.676091 0.651949
O O8 0.843482 0.852228 0.629209
O O9 0.771883 0.000000 0.986611
O O10 0.500000 0.896077 0.000000
O O11 0.500000 0.113016 0.500000
O O12 0.345887 0.000000 0.549389
O O13 0.467180 0.852870 0.232853
O O14 0.462926 0.670510 0.250863
O O15 0.852349 0.500000 0.690982
O O16 0.124690 0.617805 0.685734
O O17 0.425116 0.500000 0.698876
#
# Coordination Sequence:
#
# PCOD9215591 Si02
#       7
#     8   8   8   8   8   8   8
#     4  11  23  41  66 103 139 181 235 306 358 430
#     4  11  25  49  81 110 153 193 246 312 371 445
#     4  10  22  41  68  96 134 190 241 293 365 439
#     4  10  24  48  82 115 147 199 251 307 378 449
#     4  12  24  43  69 102 147 182 238 302 370 439
#     4  11  26  47  75 111 148 195 250 304 374 454
#     4  11  26  47  76 110 148 199 249 302 378 454
#
# _framework density 26.093350999999998
#
# number of rings (size 3 to 8) (size 9 to 14) (size 15 to 20)
#    0.000    1.143    2.857    2.143    2.000    2.286 
#    2.571    3.571    0.000    7.714    0.000    0.000 
#    0.000    0.000    0.000    0.000    0.000    0.000 
#
# Total GULP energy -156705.882121 kJ/mol
# GULP energy per Si atom -5596.638647 kJ/mol
# Density = 2.603396 g / cm^3
# Si number density = 26.093351 Si / 1000 Ang^3
#
#
#
# Elastic Constant Matrix: (Units=GPa)
#
#
# Indices 1 2 3 4 5 6 
#
# 1 144.8917 -7.7301 39.1063 0.0000 -1.4578 0.0000
# 2 -7.7301 174.0952 78.6024 0.0000 -7.4638 0.0000
# 3 39.1063 78.6024 199.8641 0.0000 -3.8798 0.0000
# 4 0.0000 0.0000 0.0000 18.5076 0.0000 -0.5514
# 5 -1.4578 -7.4638 -3.8798 0.0000 67.5451 0.0000
# 6 0.0000 0.0000 0.0000 -0.5514 0.0000 29.9599
#
#
#
# Elastic Compliance Matrix: (Units=1/GPa)
#
#
# Indices 1 2 3 4 5 6 
#
# 1 0.007492 0.001217 -0.001941 0.000000 0.000185 0.000000
# 2 0.001217 0.007207 -0.003060 0.000000 0.000647 0.000000
# 3 -0.001941 -0.003060 0.006587 0.000000 -0.000002 0.000000
# 4 0.000000 0.000000 0.000000 0.054062 0.000000 0.000995
# 5 0.000185 0.000647 -0.000002 0.000000 0.014880 0.000000
# 6 0.000000 0.000000 0.000000 0.000995 0.000000 0.033396
#
#
# Mechanical properties :
#
#
# Convention : Reuss Voigt Hill
#
# Bulk Modulus (GPa) = 72.89652 82.08981 77.49317
# Shear Modulus (GPa) = 36.82826 50.46067 43.64447
#
# Velocity S-wave (km/s) = 3.76094 4.40233 4.09421
# Velocity P-wave (km/s) = 6.84522 7.57423 7.21894
#
# Compressibility (1/GPa) = 0.01371808
#
# Stress axis : x y z
#
# Youngs Moduli (GPa) = 133.46923 138.74750 151.82326
#
# Poissons Ratio (x) = -0.16885 0.29469
# Poissons Ratio (y) = -0.16242 0.46459
# Poissons Ratio (z) = 0.25906 0.42457
#
# Static dielectric constant tensor:
#      x y z
#    x 2.678130 0.000000 -0.067320 
#    y 0.000000 1.940060 0.000000 
#    z -0.067320 0.000000 1.915920 
# 
# From -- ./inp_files/304198.got.cif
#   From: 2010.05.17/outbox.cif.g08.bks.cpg/sg12_153_cif.got.tgz:304198.got - 2010.06.03 13:09:07.
