data_PCOD9215795
_publ_section_title
;
Structure prediction by ZEFSAII (Michael W. Deem and Ramdas Pophale) SiO2 
 PCOD9215795
Probable space group: C 2/M
;
_chemical_formula_sum "Si O2"
_cell_formula_units_Z 52
_cell_length_a 30.916913
_cell_length_b 9.665565
_cell_length_c 15.714214
_cell_angle_alpha 90.000000
_cell_angle_beta 34.568293
_cell_angle_gamma 90.000000
_cell_volume 2664.380751
_symmetry_space_group_name_H-M "C 2/M"
_symmetry_group_IT_number 12
_symmetry_cell_setting 'monoclinic'
loop_
_space_group_symop_operation_xyz
x,y,z
-x,y,-z
-x,-y,-z
x,-y,z
1/2+x,1/2+y,z
1/2-x,1/2+y,-z
1/2-x,1/2-y,-z
1/2+x,1/2-y,z
loop_
_atom_site_type_symbol
_atom_site_label
_atom_site_fract_x
_atom_site_fract_y
_atom_site_fract_z
Si Si1 0.134331 0.837205 0.468426
Si Si2 0.159656 0.263526 0.098229
Si Si3 0.583344 0.158039 0.393497
Si Si4 0.233907 0.334704 0.611803
Si Si5 0.932100 0.340706 0.042079
Si Si6 0.530621 0.663523 0.182053
Si Si7 0.741562 0.500000 0.051300
O O1 0.122006 0.749805 0.402981
O O2 0.205739 0.798293 0.411612
O O3 0.057006 0.817761 0.648131
O O4 0.140495 0.000000 0.435701
O O5 0.133592 0.340837 0.227097
O O6 0.085804 0.228448 0.163358
O O7 0.199146 0.122183 0.063282
O O8 0.214599 0.375351 0.965958
O O9 0.500000 0.212517 0.500000
O O10 0.573589 0.000000 0.439376
O O11 0.242010 0.500000 0.582591
O O12 0.250000 0.250000 0.500000
O O13 0.148523 0.308741 0.783194
O O14 0.928558 0.500000 0.016803
O O15 0.950649 0.238507 0.935768
O O16 0.000000 0.331971 0.000000
O O17 0.545042 0.500000 0.153057
#
# Coordination Sequence:
#
# PCOD9215795 Si02
#       7
#     8   8   8   8   8   8   4
#     4  10  23  40  62  92 125 167 209 260 313 370
#     4  11  22  42  58  90 120 168 208 261 305 373
#     4  11  23  39  62  90 125 163 218 259 304 364
#     4  10  22  42  65  95 126 157 203 253 312 375
#     4  10  23  42  65  94 126 163 205 255 314 379
#     4  11  23  40  64  91 125 162 214 257 312 375
#     4  10  24  38  58  80 124 158 206 252 314 356
#
# _framework density 19.516731
#
# number of rings (size 3 to 8) (size 9 to 14) (size 15 to 20)
#    0.000    1.538    3.077    0.923    2.154    4.923 
#    2.769    0.000    0.000    0.000    0.000    0.000 
#    0.000    0.000    0.000    0.000    0.000    0.000 
#
# Total GULP energy -144763.359825 kJ/mol
# GULP energy per Si atom -5567.821532 kJ/mol
# Density = 1.947231 g / cm^3
# Si number density = 19.516731 Si / 1000 Ang^3
#
#
#
# Elastic Constant Matrix: (Units=GPa)
#
#
# Indices 1 2 3 4 5 6 
#
# 1 146.5546 58.4884 52.6852 0.0000 -15.6142 0.0000
# 2 58.4884 100.9618 35.2104 0.0000 2.0865 0.0000
# 3 52.6852 35.2104 58.5808 0.0000 -3.4098 0.0000
# 4 0.0000 0.0000 0.0000 20.1698 0.0000 3.3606
# 5 -15.6142 2.0865 -3.4098 0.0000 40.2466 0.0000
# 6 0.0000 0.0000 0.0000 3.3606 0.0000 36.0351
#
#
#
# Elastic Compliance Matrix: (Units=1/GPa)
#
#
# Indices 1 2 3 4 5 6 
#
# 1 0.011726 -0.004154 -0.007810 0.000000 0.004103 0.000000
# 2 -0.004154 0.014071 -0.004882 0.000000 -0.002755 0.000000
# 3 -0.007810 -0.004882 0.027000 0.000000 -0.000490 0.000000
# 4 0.000000 0.000000 0.000000 0.050362 0.000000 -0.004697
# 5 0.004103 -0.002755 -0.000490 0.000000 0.026540 0.000000
# 6 0.000000 0.000000 0.000000 -0.004697 0.000000 0.028189
#
#
# Mechanical properties :
#
#
# Convention : Reuss Voigt Hill
#
# Bulk Modulus (GPa) = 52.34202 66.54057 59.44129
# Shear Modulus (GPa) = 25.25918 29.93784 27.59851
#
# Velocity S-wave (km/s) = 3.60145 3.92083 3.76452
# Velocity P-wave (km/s) = 6.64614 7.39360 7.02981
#
# Compressibility (1/GPa) = 0.01910511
#
# Stress axis : x y z
#
# Youngs Moduli (GPa) = 85.27969 71.07020 37.03644
#
# Poissons Ratio (x) = 0.29523 0.28927
# Poissons Ratio (y) = 0.35425 0.18080
# Poissons Ratio (z) = 0.66607 0.34694
#
# Static dielectric constant tensor:
#      x y z
#    x 1.663260 0.000000 -0.029500 
#    y 0.000000 1.661600 0.000000 
#    z -0.029500 0.000000 1.758800 
# 
# From -- ./inp_files/249579.got.cif
#   From: 2010.05.17/outbox.cif.g08.bks.cpg/sg12_125_cif.got.tgz:249579.got - 2010.06.03 13:09:07.
