data_PCOD9215629
_publ_section_title
;
Structure prediction by ZEFSAII (Michael W. Deem and Ramdas Pophale) SiO2 
 PCOD9215629
Probable space group: C 2/M
;
_chemical_formula_sum "Si O2"
_cell_formula_units_Z 44
_cell_length_a 8.131475
_cell_length_b 23.198788
_cell_length_c 11.392775
_cell_angle_alpha 90.000000
_cell_angle_beta 116.906164
_cell_angle_gamma 90.000000
_cell_volume 1916.490655
_symmetry_space_group_name_H-M "C 2/M"
_symmetry_group_IT_number 12
_symmetry_cell_setting 'monoclinic'
loop_
_space_group_symop_operation_xyz
x,y,z
-x,y,-z
-x,-y,-z
x,-y,z
1/2+x,1/2+y,z
1/2-x,1/2+y,-z
1/2-x,1/2-y,-z
1/2+x,1/2-y,z
loop_
_atom_site_type_symbol
_atom_site_label
_atom_site_fract_x
_atom_site_fract_y
_atom_site_fract_z
Si Si1 0.000000 0.297522 0.000000
Si Si2 0.718672 0.500000 0.063648
Si Si3 0.818873 0.727526 0.708620
Si Si4 0.844086 0.120756 0.050174
Si Si5 0.546065 0.339783 0.342799
Si Si6 0.505086 0.000000 0.645197
Si Si7 0.122876 0.620959 0.422716
O O1 0.076162 0.262889 0.135226
O O2 0.176413 0.334098 0.011321
O O3 0.803494 0.500000 0.221723
O O4 0.500000 0.500000 0.000000
O O5 0.755545 0.559801 0.008764
O O6 0.621539 0.698660 0.664011
O O7 0.811232 0.789228 0.647009
O O8 0.920804 0.676964 0.669186
O O9 0.961134 0.124082 0.208543
O O10 0.000000 0.131246 0.000000
O O11 0.664896 0.377698 0.468524
O O12 0.500000 0.000000 0.500000
O O13 0.413566 0.939652 0.652359
O O14 0.000000 0.621628 0.500000
#
# Coordination Sequence:
#
# PCOD9215629 Si02
#       7
#     4   4   8   8   8   4   8
#     4  10  24  41  64 100 136 183 230 294 338 434
#     4  10  22  41  69  99 140 178 229 295 342 425
#     4  11  24  43  65  97 140 175 237 275 357 402
#     4  10  24  39  68  96 141 176 237 277 358 400
#     4  11  25  41  66 100 131 187 220 297 333 424
#     4  10  24  40  68 101 132 182 227 284 348 411
#     4  11  24  42  70  94 136 176 233 274 347 411
#
# _framework density 22.958631
#
# number of rings (size 3 to 8) (size 9 to 14) (size 15 to 20)
#    0.000    1.455    0.000    3.273   16.545    1.818 
#    0.000    5.455    0.000    0.000    0.000    0.000 
#    0.000    0.000    0.000    0.000    0.000    0.000 
#
# Total GULP energy -122929.918035 kJ/mol
# GULP energy per Si atom -5587.723547 kJ/mol
# Density = 2.290638 g / cm^3
# Si number density = 22.958631 Si / 1000 Ang^3
#
#
#
# Elastic Constant Matrix: (Units=GPa)
#
#
# Indices 1 2 3 4 5 6 
#
# 1 88.5186 10.0649 14.1111 0.0000 8.3630 0.0000
# 2 10.0649 91.2722 32.5474 0.0000 1.0894 0.0000
# 3 14.1111 32.5474 125.8155 0.0000 28.2352 0.0000
# 4 0.0000 0.0000 0.0000 116.8795 0.0000 -13.8156
# 5 8.3630 1.0894 28.2352 0.0000 31.5835 0.0000
# 6 0.0000 0.0000 0.0000 -13.8156 0.0000 12.7511
#
#
#
# Elastic Compliance Matrix: (Units=1/GPa)
#
#
# Indices 1 2 3 4 5 6 
#
# 1 0.011746 -0.001111 -0.000426 0.000000 -0.002691 0.000000
# 2 -0.001111 0.012402 -0.003820 0.000000 0.003282 0.000000
# 3 -0.000426 -0.003820 0.011170 0.000000 -0.009742 0.000000
# 4 0.000000 0.000000 0.000000 0.009813 0.000000 0.010632
# 5 -0.002691 0.003282 -0.009742 0.000000 0.040970 0.000000
# 6 0.000000 0.000000 0.000000 0.010632 0.000000 0.089944
#
#
# Mechanical properties :
#
#
# Convention : Reuss Voigt Hill
#
# Bulk Modulus (GPa) = 40.64513 46.56146 43.60330
# Shear Modulus (GPa) = 25.64628 48.83502 37.24065
#
# Velocity S-wave (km/s) = 3.34588 4.61704 4.03187
# Velocity P-wave (km/s) = 5.71565 6.98193 6.38028
#
# Compressibility (1/GPa) = 0.02460319
#
# Stress axis : x y z
#
# Youngs Moduli (GPa) = 85.13861 80.63336 89.52304
#
# Poissons Ratio (x) = 0.08960 0.03814
# Poissons Ratio (y) = 0.09461 0.34198
# Poissons Ratio (z) = 0.03627 0.30802
#
# Static dielectric constant tensor:
#      x y z
#    x 1.949750 0.000000 -0.036360 
#    y 0.000000 1.887420 0.000000 
#    z -0.036360 0.000000 1.862570 
# 
# From -- ./inp_files/122698.got.cif
#   From: 2010.05.17/outbox.cif.g08.bks.cpg/sg12_62_cif.got.tgz:122698.got - 2010.06.03 13:09:07.
