data_PCOD9215210
_publ_section_title
;
Structure prediction by ZEFSAII (Michael W. Deem and Ramdas Pophale) SiO2 
 PCOD9215210
Probable space group: C 2/M
;
_chemical_formula_sum "Si O2"
_cell_formula_units_Z 64
_cell_length_a 19.331131
_cell_length_b 9.161727
_cell_length_c 30.966747
_cell_angle_alpha 90.000000
_cell_angle_beta 38.173346
_cell_angle_gamma 90.000000
_cell_volume 3389.602030
_symmetry_space_group_name_H-M "C 2/M"
_symmetry_group_IT_number 12
_symmetry_cell_setting 'monoclinic'
loop_
_space_group_symop_operation_xyz
x,y,z
-x,y,-z
-x,-y,-z
x,-y,z
1/2+x,1/2+y,z
1/2-x,1/2+y,-z
1/2-x,1/2-y,-z
1/2+x,1/2-y,z
loop_
_atom_site_type_symbol
_atom_site_label
_atom_site_fract_x
_atom_site_fract_y
_atom_site_fract_z
Si Si1 0.466489 0.334779 0.213961
Si Si2 0.717841 0.824518 0.560631
Si Si3 0.218193 0.332292 0.302952
Si Si4 0.869192 0.826890 0.945024
Si Si5 0.715343 0.674304 0.215056
Si Si6 0.633243 0.670891 0.429321
Si Si7 0.970239 0.324758 0.064341
Si Si8 0.995125 0.672934 0.719525
O O1 0.477562 0.500000 0.226425
O O2 0.351939 0.330444 0.243451
O O3 0.566528 0.306808 0.131880
O O4 0.461703 0.220308 0.254744
O O5 0.750000 0.750000 0.500000
O O6 0.801677 0.784529 0.558884
O O7 0.592253 0.786153 0.637755
O O8 0.723747 0.000000 0.552910
O O9 0.181848 0.500000 0.314448
O O10 0.191824 0.236269 0.274282
O O11 0.168872 0.266326 0.370996
O O12 0.945469 0.756437 0.944893
O O13 0.857316 0.000000 0.958307
O O14 0.750000 0.750000 0.000000
O O15 0.707101 0.500000 0.218478
O O16 0.841428 0.714212 0.138495
O O17 0.620541 0.744598 0.231835
O O18 0.500000 0.681249 0.500000
O O19 0.662035 0.500000 0.407256
O O20 0.981736 0.500000 0.064789
O O21 0.000000 0.291972 0.000000
O O22 0.978627 0.500000 0.725206
#
# Coordination Sequence:
#
# PCOD9215210 Si02
#       8
#     8   8   8   8   8   8   8   8
#     4  10  22  41  64  89 122 161 202 253 307 363
#     4  10  23  41  60  87 124 162 201 250 304 364
#     4  11  22  40  65  92 122 158 206 259 308 362
#     4  11  24  42  64  93 127 163 207 254 306 366
#     4  11  24  41  64  91 124 165 206 252 311 369
#     4  10  22  41  63  90 123 162 206 251 306 368
#     4  10  23  43  64  89 124 164 205 254 309 367
#     4  11  24  41  63  92 125 160 205 256 305 364
#
# _framework density 18.881273
#
# number of rings (size 3 to 8) (size 9 to 14) (size 15 to 20)
#    0.000    1.500    2.500    1.500    3.500    4.000 
#    0.000    0.000    0.000    0.000    0.000    0.000 
#    0.000    0.000    0.000    0.000    0.000    0.000 
#
# Total GULP energy -178819.322811 kJ/mol
# GULP energy per Si atom -5588.103838 kJ/mol
# Density = 1.883830 g / cm^3
# Si number density = 18.881273 Si / 1000 Ang^3
#
#
#
# Elastic Constant Matrix: (Units=GPa)
#
#
# Indices 1 2 3 4 5 6 
#
# 1 54.9168 20.8572 8.4410 0.0000 -3.8380 -0.0010
# 2 20.8572 54.7804 38.0254 0.0001 -1.0463 -0.0010
# 3 8.4410 38.0254 71.0639 0.0000 -2.3217 -0.0002
# 4 0.0000 0.0001 0.0000 26.8688 0.0001 1.1238
# 5 -3.8380 -1.0463 -2.3217 0.0001 31.7113 0.0000
# 6 -0.0010 -0.0010 -0.0002 1.1238 0.0000 36.8739
#
#
#
# Elastic Compliance Matrix: (Units=1/GPa)
#
#
# Indices 1 2 3 4 5 6 
#
# 1 0.021864 -0.010390 0.003045 0.000000 0.002526 0.000000
# 2 -0.010390 0.033980 -0.016993 0.000000 -0.001380 0.000001
# 3 0.003045 -0.016993 0.022851 0.000000 0.001481 0.000000
# 4 0.000000 0.000000 0.000000 0.037265 0.000000 -0.001136
# 5 0.002526 -0.001380 0.001481 0.000000 0.031903 0.000000
# 6 0.000000 0.000001 0.000000 -0.001136 0.000000 0.027154
#
#
# Mechanical properties :
#
#
# Convention : Reuss Voigt Hill
#
# Bulk Modulus (GPa) = 33.31221 35.04538 34.17879
# Shear Modulus (GPa) = 21.39494 26.65332 24.02413
#
# Velocity S-wave (km/s) = 3.36985 3.76124 3.57091
# Velocity P-wave (km/s) = 5.72909 6.12077 5.92816
#
# Compressibility (1/GPa) = 0.03001902
#
# Stress axis : x y z
#
# Youngs Moduli (GPa) = 45.73745 29.42919 43.76110
#
# Poissons Ratio (x) = 0.30577 -0.13325
# Poissons Ratio (y) = 0.47521 0.74364
# Poissons Ratio (z) = -0.13927 0.50010
#
# Static dielectric constant tensor:
#      x y z
#    x 1.632680 0.000000 -0.012380 
#    y 0.000000 1.636890 0.000000 
#    z -0.012380 0.000000 1.636140 
# 
# From -- ./inp_files/378102.got.cif
#   From: 2010.05.17/outbox.cif.g08.bks.cpg/sg12_190_cif.got.tgz:378102.got - 2010.06.03 13:09:07.
