data_PCOD9215268
_publ_section_title
;
Structure prediction by ZEFSAII (Michael W. Deem and Ramdas Pophale) SiO2 
 PCOD9215268
Probable space group: C 2/M
;
_chemical_formula_sum "Si O2"
_cell_formula_units_Z 56
_cell_length_a 25.917016
_cell_length_b 8.734577
_cell_length_c 18.955942
_cell_angle_alpha 90.000000
_cell_angle_beta 137.826802
_cell_angle_gamma 90.000000
_cell_volume 2880.956835
_symmetry_space_group_name_H-M "C 2/M"
_symmetry_group_IT_number 12
_symmetry_cell_setting 'monoclinic'
loop_
_space_group_symop_operation_xyz
x,y,z
-x,y,-z
-x,-y,-z
x,-y,z
1/2+x,1/2+y,z
1/2-x,1/2+y,-z
1/2-x,1/2-y,-z
1/2+x,1/2-y,z
loop_
_atom_site_type_symbol
_atom_site_label
_atom_site_fract_x
_atom_site_fract_y
_atom_site_fract_z
Si Si1 0.650709 0.816615 0.095559
Si Si2 0.044270 0.815408 0.871160
Si Si3 0.389019 0.316695 0.798527
Si Si4 0.451679 0.316144 0.288105
Si Si5 0.170253 0.183636 0.723310
Si Si6 0.100313 0.317802 0.512276
Si Si7 0.742135 0.317183 0.569984
O O1 0.606907 0.740205 0.117016
O O2 0.740536 0.770453 0.189414
O O3 0.646517 0.000000 0.097547
O O4 0.611582 0.761824 0.984058
O O5 0.044050 0.767998 0.789122
O O6 0.964058 0.777427 0.828723
O O7 0.053063 0.000000 0.882683
O O8 0.379726 0.500000 0.787823
O O9 0.314671 0.238181 0.689004
O O10 0.463007 0.500000 0.301458
O O11 0.370737 0.282550 0.243949
O O12 0.518662 0.240566 0.401900
O O13 0.121807 0.261270 0.612152
O O14 0.167358 0.000000 0.709366
O O15 0.103468 0.500000 0.512686
O O16 0.165297 0.246621 0.527673
O O17 0.739409 0.500000 0.565314
O O18 0.750000 0.250000 0.500000
#
# Coordination Sequence:
#
# PCOD9215268 Si02
#       7
#     8   8   8   8   8   8   8
#     4  11  23  39  62  91 123 163 210 258 309 370
#     4  10  23  41  62  89 122 161 206 257 313 370
#     4  11  22  39  62  90 123 162 208 255 308 370
#     4  10  22  42  65  88 122 167 209 257 318 374
#     4  10  22  41  64  90 122 165 211 255 311 376
#     4  12  24  39  62  93 126 162 206 257 310 369
#     4  12  24  39  61  91 127 165 204 251 308 370
#
# _framework density 19.437985999999999
#
# number of rings (size 3 to 8) (size 9 to 14) (size 15 to 20)
#    0.000    1.143    1.429    5.143    0.000    8.000 
#    0.000    0.000    0.000    0.000    0.000    0.000 
#    0.000    0.000    0.000    0.000    0.000    0.000 
#
# Total GULP energy -156636.961069 kJ/mol
# GULP energy per Si atom -5594.177181 kJ/mol
# Density = 1.939374 g / cm^3
# Si number density = 19.437986 Si / 1000 Ang^3
#
#
#
# Elastic Constant Matrix: (Units=GPa)
#
#
# Indices 1 2 3 4 5 6 
#
# 1 133.3345 29.8548 -41.5224 0.0000 33.7422 0.0000
# 2 29.8548 6.6644 -157.7179 0.0000 88.2452 0.0000
# 3 -41.5224 -157.7179 -711.1417 0.0000 388.5892 0.0000
# 4 0.0000 0.0000 0.0000 37.6682 0.0000 -1.4818
# 5 33.7422 88.2452 388.5892 0.0000 -183.6270 0.0000
# 6 0.0000 0.0000 0.0000 -1.4818 0.0000 23.0320
#
#
#
# Elastic Compliance Matrix: (Units=1/GPa)
#
#
# Indices 1 2 3 4 5 6 
#
# 1 0.010394 -0.009586 -0.000291 0.000000 -0.003313 0.000000
# 2 -0.009586 0.032940 -0.006023 0.000000 0.001323 0.000000
# 3 -0.000291 -0.006023 0.010644 0.000000 0.019578 0.000000
# 4 0.000000 0.000000 0.000000 0.026615 0.000000 0.001712
# 5 -0.003313 0.001323 0.019578 0.000000 0.036011 0.000000
# 6 0.000000 0.000000 0.000000 0.001712 0.000000 0.043528
#
#
# Mechanical properties :
#
#
# Convention : Reuss Voigt Hill
#
# Bulk Modulus (GPa) = 45.08792 -101.10153 -28.00681
# Shear Modulus (GPa) = 25.08456 -51.36917 -13.14230
#
# Velocity S-wave (km/s) = 3.59624 -5.14632 -2.60304
# Velocity P-wave (km/s) = 6.36318 9.35083 4.84500
#
# Compressibility (1/GPa) = 0.02217889
#
# Stress axis : x y z
#
# Youngs Moduli (GPa) = 96.20904 30.35803 93.94611
#
# Poissons Ratio (x) = 0.29101 0.02734
# Poissons Ratio (y) = 0.92227 0.56582
# Poissons Ratio (z) = 0.02800 0.18284
#
# Static dielectric constant tensor:
#      x y z
#    x 1.654220 0.000000 0.012790 
#    y 0.000000 1.650700 0.000000 
#    z 0.012790 0.000000 1.636620 
# 
# From -- ./inp_files/292572.got.cif
#   From: 2010.05.17/outbox.cif.g08.bks.cpg/sg12_147_cif.got.tgz:292572.got - 2010.06.03 13:09:07.
