data_PCOD9215017
_publ_section_title
;
Structure prediction by ZEFSAII (Michael W. Deem and Ramdas Pophale) SiO2 
 PCOD9215017
Probable space group: C 2/M
;
_chemical_formula_sum "Si O2"
_cell_formula_units_Z 28
_cell_length_a 7.664258
_cell_length_b 19.089463
_cell_length_c 8.652027
_cell_angle_alpha 90.000000
_cell_angle_beta 127.157550
_cell_angle_gamma 90.000000
_cell_volume 1008.852865
_symmetry_space_group_name_H-M "C 2/M"
_symmetry_group_IT_number 12
_symmetry_cell_setting 'monoclinic'
loop_
_space_group_symop_operation_xyz
x,y,z
-x,y,-z
-x,-y,-z
x,-y,z
1/2+x,1/2+y,z
1/2-x,1/2+y,-z
1/2-x,1/2-y,-z
1/2+x,1/2-y,z
loop_
_atom_site_type_symbol
_atom_site_label
_atom_site_fract_x
_atom_site_fract_y
_atom_site_fract_z
Si Si1 0.500000 0.875267 0.500000
Si Si2 0.149326 0.500000 0.756931
Si Si3 0.911464 0.000000 0.218442
Si Si4 0.282556 0.139940 0.785964
Si Si5 0.416361 0.278706 0.778594
O O1 0.505345 0.931288 0.646286
O O2 0.713216 0.829715 0.646506
O O3 0.350077 0.500000 0.737901
O O4 0.254018 0.500000 0.981720
O O5 0.851064 0.067916 0.286466
O O6 0.359732 0.198478 0.703366
O O7 0.114291 0.190498 0.787199
O O8 0.500000 0.124755 0.000000
O O9 0.500000 0.280832 0.000000
#
# Coordination Sequence:
#
# PCOD9215017 Si02
#       5
#     4   4   4   8   8
#     4  11  22  40  70 103 128 180 228 273 326 408
#     4  10  22  40  68 101 132 179 229 269 331 404
#     4  11  21  44  71  95 136 178 223 277 332 393
#     4  11  23  41  70 101 134 178 223 272 338 399
#     4  11  23  42  67 100 135 174 221 276 334 394
#
# _framework density 27.754292
#
# number of rings (size 3 to 8) (size 9 to 14) (size 15 to 20)
#    0.000    1.143    2.857    5.571    0.000    1.143 
#    0.000    0.000    0.000    2.571    0.000    0.000 
#    0.000    0.000    0.000    0.000    0.000    0.000 
#
# Total GULP energy -78495.292473 kJ/mol
# GULP energy per Si atom -5606.806605 kJ/mol
# Density = 2.769112 g / cm^3
# Si number density = 27.754292 Si / 1000 Ang^3
#
#
#
# Elastic Constant Matrix: (Units=GPa)
#
#
# Indices 1 2 3 4 5 6 
#
# 1 118.3671 62.6193 46.0030 0.0000 31.9771 0.0000
# 2 62.6193 287.5588 72.4663 0.0000 20.2395 0.0000
# 3 46.0030 72.4663 195.7626 0.0000 4.8751 0.0000
# 4 0.0000 0.0000 0.0000 41.5385 0.0000 16.7240
# 5 31.9771 20.2395 4.8751 0.0000 47.5425 0.0000
# 6 0.0000 0.0000 0.0000 16.7240 0.0000 79.2631
#
#
#
# Elastic Compliance Matrix: (Units=1/GPa)
#
#
# Indices 1 2 3 4 5 6 
#
# 1 0.012040 -0.001596 -0.002059 0.000000 -0.007208 0.000000
# 2 -0.001596 0.004155 -0.001149 0.000000 -0.000578 0.000000
# 3 -0.002059 -0.001149 0.005986 0.000000 0.001260 0.000000
# 4 0.000000 0.000000 0.000000 0.026309 0.000000 -0.005551
# 5 -0.007208 -0.000578 0.001260 0.000000 0.025998 0.000000
# 6 0.000000 0.000000 0.000000 -0.005551 0.000000 0.013787
#
#
# Mechanical properties :
#
#
# Convention : Reuss Voigt Hill
#
# Bulk Modulus (GPa) = 79.52973 107.09619 93.31296
# Shear Modulus (GPa) = 48.98397 61.70882 55.34639
#
# Velocity S-wave (km/s) = 4.20565 4.72041 4.47044
# Velocity P-wave (km/s) = 7.23190 8.26926 7.76792
#
# Compressibility (1/GPa) = 0.01257391
#
# Stress axis : x y z
#
# Youngs Moduli (GPa) = 83.05765 240.66285 167.05682
#
# Poissons Ratio (x) = 0.38400 0.34399
# Poissons Ratio (y) = 0.13253 0.19191
# Poissons Ratio (z) = 0.17103 0.27647
#
# Static dielectric constant tensor:
#      x y z
#    x 2.291160 0.000000 -0.097300 
#    y 0.000000 2.138380 0.000000 
#    z -0.097300 0.000000 2.111730 
# 
# From -- ./inp_files/120593.got.cif
#   From: 2010.05.17/outbox.cif.g08.bks.cpg/sg12_61_cif.got.tgz:120593.got - 2010.06.03 13:09:07.
