data_PCOD9215625
_publ_section_title
;
Structure prediction by ZEFSAII (Michael W. Deem and Ramdas Pophale) SiO2 
 PCOD9215625
Probable space group: C 2/M
;
_chemical_formula_sum "Si O2"
_cell_formula_units_Z 44
_cell_length_a 17.131497
_cell_length_b 24.244408
_cell_length_c 14.502030
_cell_angle_alpha 90.000000
_cell_angle_beta 19.265493
_cell_angle_gamma 90.000000
_cell_volume 1987.368757
_symmetry_space_group_name_H-M "C 2/M"
_symmetry_group_IT_number 12
_symmetry_cell_setting 'monoclinic'
loop_
_space_group_symop_operation_xyz
x,y,z
-x,y,-z
-x,-y,-z
x,-y,z
1/2+x,1/2+y,z
1/2-x,1/2+y,-z
1/2-x,1/2-y,-z
1/2+x,1/2-y,z
loop_
_atom_site_type_symbol
_atom_site_label
_atom_site_fract_x
_atom_site_fract_y
_atom_site_fract_z
Si Si1 0.054184 0.702988 0.216519
Si Si2 0.433513 0.500000 0.967371
Si Si3 0.344778 0.000000 0.267269
Si Si4 0.398753 0.099423 0.710815
Si Si5 0.332411 0.780607 0.272380
Si Si6 0.292306 0.391211 0.655778
Si Si7 0.912927 0.500000 0.380905
O O1 0.140600 0.649898 0.176542
O O2 0.817789 0.728084 0.527496
O O3 0.984395 0.695064 0.187871
O O4 0.250000 0.750000 0.000000
O O5 0.304414 0.557549 0.093866
O O6 0.500000 0.500000 0.000000
O O7 0.639010 0.500000 0.664194
O O8 0.199866 0.943222 0.421097
O O9 0.521303 0.000000 0.158544
O O10 0.500000 0.000000 0.000000
O O11 0.500000 0.120123 0.500000
O O12 0.550531 0.054493 0.599441
O O13 0.158524 0.830399 0.438175
O O14 0.500000 0.765855 0.000000
O O15 0.500000 0.401002 0.500000
O O16 0.000000 0.386871 0.000000
#
# Coordination Sequence:
#
# PCOD9215625 Si02
#       7
#     8   4   4   8   8   8   4
#     4  11  27  45  70 108 140 182 253 294 370 450
#     4  11  21  45  71 108 140 184 233 302 376 438
#     4  10  22  42  66 101 142 185 242 298 369 448
#     4  11  24  43  73 102 142 185 233 306 368 447
#     4  10  25  47  68  95 142 189 235 303 364 435
#     4  10  22  41  69  95 134 187 239 294 360 436
#     4  11  22  46  69 102 144 181 242 291 377 445
#
# _framework density 22.139827
#
# number of rings (size 3 to 8) (size 9 to 14) (size 15 to 20)
#    0.000    1.455    1.818    1.909    7.636    4.364 
#   13.091    0.000    0.000    0.000    0.000    0.000 
#    0.000    0.000    0.000    0.000    0.000    0.000 
#
# Total GULP energy -122563.855811 kJ/mol
# GULP energy per Si atom -5571.084355 kJ/mol
# Density = 2.208944 g / cm^3
# Si number density = 22.139827 Si / 1000 Ang^3
#
#
#
# Elastic Constant Matrix: (Units=GPa)
#
#
# Indices 1 2 3 4 5 6 
#
# 1 162.1958 49.4839 48.9115 -0.1047 8.5279 0.0360
# 2 49.4839 115.2643 21.8482 -0.1881 3.4636 0.0244
# 3 48.9115 21.8482 60.4837 -0.6908 8.2761 0.3014
# 4 -0.1047 -0.1881 -0.6908 24.2310 0.1688 -4.9180
# 5 8.5279 3.4636 8.2761 0.1688 34.8668 -0.0626
# 6 0.0360 0.0244 0.3014 -4.9180 -0.0626 58.7118
#
#
#
# Elastic Compliance Matrix: (Units=1/GPa)
#
#
# Indices 1 2 3 4 5 6 
#
# 1 0.008840 -0.002617 -0.006144 -0.000151 -0.000443 0.000014
# 2 -0.002617 0.010089 -0.001528 0.000025 0.000000 0.000007
# 3 -0.006144 -0.001528 0.022568 0.000618 -0.003705 -0.000064
# 4 -0.000151 0.000025 0.000618 0.042002 -0.000309 0.003515
# 5 -0.000443 0.000000 -0.003705 -0.000309 0.029670 0.000025
# 6 0.000014 0.000007 -0.000064 0.003515 0.000025 0.017327
#
#
# Mechanical properties :
#
#
# Convention : Reuss Voigt Hill
#
# Bulk Modulus (GPa) = 47.80435 64.27012 56.03724
# Shear Modulus (GPa) = 31.63595 38.07527 34.85561
#
# Velocity S-wave (km/s) = 3.78420 4.15150 3.97210
# Velocity P-wave (km/s) = 6.38220 7.21610 6.81192
#
# Compressibility (1/GPa) = 0.02091860
#
# Stress axis : x y z
#
# Youngs Moduli (GPa) = 113.12229 99.11840 44.30982
#
# Poissons Ratio (x) = 0.25943 0.27226
# Poissons Ratio (y) = 0.29608 0.06769
# Poissons Ratio (z) = 0.69507 0.15141
#
# Static dielectric constant tensor:
#      x y z
#    x 2.082970 0.000250 0.162830 
#    y 0.000250 1.831750 0.000030 
#    z 0.162830 0.000030 1.978030 
# 
# From -- ./inp_files/228094.got.cif
#   From: 2010.05.17/outbox.cif.g08.bks.cpg/sg12_115_cif.got.tgz:228094.got - 2010.06.03 13:09:07.
