data_PCOD9215920
_publ_section_title
;
Structure prediction by ZEFSAII (Michael W. Deem and Ramdas Pophale) SiO2 
 PCOD9215920
Probable space group: C 2/M
;
_chemical_formula_sum "Si O2"
_cell_formula_units_Z 42
_cell_length_a 17.750045
_cell_length_b 14.936861
_cell_length_c 6.588974
_cell_angle_alpha 90.000000
_cell_angle_beta 57.072022
_cell_angle_gamma 90.000000
_cell_volume 1466.297281
_symmetry_space_group_name_H-M "C 2/M"
_symmetry_group_IT_number 12
_symmetry_cell_setting 'monoclinic'
loop_
_space_group_symop_operation_xyz
x,y,z
-x,y,-z
-x,-y,-z
x,-y,z
1/2+x,1/2+y,z
1/2-x,1/2+y,-z
1/2-x,1/2-y,-z
1/2+x,1/2-y,z
loop_
_atom_site_type_symbol
_atom_site_label
_atom_site_fract_x
_atom_site_fract_y
_atom_site_fract_z
Si Si1 0.930717 0.107884 0.328028
Si Si2 0.765413 0.395945 0.495191
Si Si3 0.931709 0.365380 0.455804
Si Si4 0.000000 0.500000 0.000000
Si Si5 0.378243 0.667205 0.860595
Si Si6 0.690488 0.871331 0.035695
O O1 0.838803 0.131242 0.342941
O O2 0.904767 0.138071 0.593181
O O3 0.939049 0.000000 0.306181
O O4 0.969089 0.146780 0.851384
O O5 0.775621 0.500000 0.544458
O O6 0.838920 0.330302 0.490524
O O7 0.794924 0.400741 0.214757
O O8 0.886468 0.413967 0.715057
O O9 0.000000 0.308757 0.500000
O O10 0.973299 0.421625 0.210849
O O11 0.341863 0.768104 0.933625
O O12 0.283927 0.614218 0.017302
#
# Coordination Sequence:
#
# PCOD9215920 Si02
#       6
#     8   8   8   2   8   8
#     4   9  18  37  70 104 140 178 226 300 351 419
#     4  10  22  42  68 103 139 179 241 292 349 426
#     4  12  26  43  68  95 139 188 234 292 354 413
#     4  12  26  44  64 106 134 180 246 294 350 422
#     4   9  18  39  66 102 145 182 235 278 356 430
#     4  10  23  40  68 100 142 191 230 287 350 425
#
# _framework density 28.64358
#
# number of rings (size 3 to 8) (size 9 to 14) (size 15 to 20)
#    0.000    1.905    0.952    2.571    4.000    0.762 
#    0.000    9.524    8.381    2.286    0.000    0.000 
#    0.000    0.000    0.000    0.000    0.000    0.000 
#
# Total GULP energy -116937.787777 kJ/mol
# GULP energy per Si atom -5568.466085 kJ/mol
# Density = 2.857839 g / cm^3
# Si number density = 28.643580 Si / 1000 Ang^3
#
#
#
# Elastic Constant Matrix: (Units=GPa)
#
#
# Indices 1 2 3 4 5 6 
#
# 1 295.6422 45.8582 78.1900 0.0000 33.9207 0.0000
# 2 45.8582 155.1702 24.1762 0.0000 -1.9685 0.0000
# 3 78.1900 24.1762 168.4583 0.0000 -31.9819 0.0000
# 4 0.0000 0.0000 0.0000 145.0222 0.0000 7.2809
# 5 33.9207 -1.9685 -31.9819 0.0000 63.2125 0.0000
# 6 0.0000 0.0000 0.0000 7.2809 0.0000 20.7925
#
#
#
# Elastic Compliance Matrix: (Units=1/GPa)
#
#
# Indices 1 2 3 4 5 6 
#
# 1 0.004744 -0.001014 -0.002816 0.000000 -0.004002 0.000000
# 2 -0.001014 0.006814 -0.000402 0.000000 0.000553 0.000000
# 3 -0.002816 -0.000402 0.008392 0.000000 0.005744 0.000000
# 4 0.000000 0.000000 0.000000 0.007019 0.000000 -0.002458
# 5 -0.004002 0.000553 0.005744 0.000000 0.020891 0.000000
# 6 0.000000 0.000000 0.000000 -0.002458 0.000000 0.048955
#
#
# Mechanical properties :
#
#
# Convention : Reuss Voigt Hill
#
# Bulk Modulus (GPa) = 87.07383 101.74660 94.41022
# Shear Modulus (GPa) = 45.82694 77.20854 61.51774
#
# Velocity S-wave (km/s) = 4.00422 5.19745 4.63935
# Velocity P-wave (km/s) = 7.20024 8.46266 7.85685
#
# Compressibility (1/GPa) = 0.01148451
#
# Stress axis : x y z
#
# Youngs Moduli (GPa) = 210.80794 146.75910 119.16807
#
# Poissons Ratio (x) = 0.14880 0.33558
# Poissons Ratio (y) = 0.21375 0.04795
# Poissons Ratio (z) = 0.59364 0.05905
#
# Static dielectric constant tensor:
#      x y z
#    x 2.391060 0.000000 0.031400 
#    y 0.000000 2.180680 0.000000 
#    z 0.031400 0.000000 2.275290 
# 
# From -- ./inp_files/20345.got.cif
#   From: 2010.05.17/outbox.cif.g08.bks.cpg/sg12_11_cif.got.tgz:20345.got - 2010.06.03 13:09:07.
