data_PCOD9215044
_publ_section_title
;
Structure prediction by ZEFSAII (Michael W. Deem and Ramdas Pophale) SiO2 
 PCOD9215044
Probable space group: C 2/M
;
_chemical_formula_sum "Si O2"
_cell_formula_units_Z 26
_cell_length_a 12.045502
_cell_length_b 20.250200
_cell_length_c 5.038714
_cell_angle_alpha 90.000000
_cell_angle_beta 62.553447
_cell_angle_gamma 90.000000
_cell_volume 1090.720576
_symmetry_space_group_name_H-M "C 2/M"
_symmetry_group_IT_number 12
_symmetry_cell_setting 'monoclinic'
loop_
_space_group_symop_operation_xyz
x,y,z
-x,y,-z
-x,-y,-z
x,-y,z
1/2+x,1/2+y,z
1/2-x,1/2+y,-z
1/2-x,1/2-y,-z
1/2+x,1/2-y,z
loop_
_atom_site_type_symbol
_atom_site_label
_atom_site_fract_x
_atom_site_fract_y
_atom_site_fract_z
Si Si1 0.500000 0.236883 0.500000
Si Si2 0.115147 0.375714 0.076037
Si Si3 0.000000 0.500000 0.500000
Si Si4 0.000000 0.828091 0.000000
Si Si5 0.868941 0.077326 0.798936
O O1 0.391865 0.188001 0.726912
O O2 0.533550 0.282217 0.713354
O O3 0.086624 0.441661 0.272260
O O4 0.247752 0.390823 0.794562
O O5 0.000000 0.368373 0.000000
O O6 0.889708 0.877375 0.033350
O O7 0.000000 0.082510 0.500000
O O8 0.851856 0.000000 0.873349
#
# Coordination Sequence:
#
# PCOD9215044 Si02
#       5
#     4   8   2   4   8
#     4  11  26  49  77 112 151 202 256 310 383 438
#     4  11  24  48  77 113 151 195 258 314 380 447
#     4  10  22  40  70 112 148 202 236 326 356 450
#     4  12  25  54  70 115 154 204 250 316 368 465
#     4  11  26  48  77 112 152 202 251 314 381 453
#
# _framework density 23.837453
#
# number of rings (size 3 to 8) (size 9 to 14) (size 15 to 20)
#    0.000    0.923    4.615    0.923    0.000    7.385 
#    5.538    0.000    0.000    0.000    0.000    0.000 
#    0.000    0.000    0.000    0.000    0.000    0.000 
#
# Total GULP energy -72399.334732 kJ/mol
# GULP energy per Si atom -5569.179595 kJ/mol
# Density = 2.378320 g / cm^3
# Si number density = 23.837453 Si / 1000 Ang^3
#
#
#
# Elastic Constant Matrix: (Units=GPa)
#
#
# Indices 1 2 3 4 5 6 
#
# 1 135.6447 59.2692 63.1698 0.0000 -16.1235 0.0000
# 2 59.2692 197.8855 73.5927 0.0000 14.7986 0.0000
# 3 63.1698 73.5927 133.4230 0.0000 -13.1993 0.0000
# 4 0.0000 0.0000 0.0000 -74.8771 0.0000 31.6985
# 5 -16.1235 14.7986 -13.1993 0.0000 36.3995 0.0000
# 6 0.0000 0.0000 0.0000 31.6985 0.0000 -66.8155
#
#
#
# Elastic Compliance Matrix: (Units=1/GPa)
#
#
# Indices 1 2 3 4 5 6 
#
# 1 0.010372 -0.002216 -0.003262 0.000000 0.004313 0.000000
# 2 -0.002216 0.007447 -0.003583 0.000000 -0.005309 0.000000
# 3 -0.003262 -0.003583 0.011427 0.000000 0.004156 0.000000
# 4 0.000000 0.000000 0.000000 -0.016712 0.000000 -0.007928
# 5 0.004313 -0.005309 0.004156 0.000000 0.033048 0.000000
# 6 0.000000 0.000000 0.000000 -0.007928 0.000000 -0.018728
#
#
# Mechanical properties :
#
#
# Convention : Reuss Voigt Hill
#
# Bulk Modulus (GPa) = 89.90134 95.44629 92.67381
# Shear Modulus (GPa) = 102.70060 -2.99719 49.85171
#
# Velocity S-wave (km/s) = 6.57094 -1.12253 4.57805
# Velocity P-wave (km/s) = 9.76554 6.20059 8.17964
#
# Compressibility (1/GPa) = 0.01112331
#
# Stress axis : x y z
#
# Youngs Moduli (GPa) = 96.41227 134.28526 87.51267
#
# Poissons Ratio (x) = 0.29758 0.28545
# Poissons Ratio (y) = 0.21365 0.31360
# Poissons Ratio (z) = 0.31448 0.48120
#
# Static dielectric constant tensor:
#      x y z
#    x 2.024230 0.000000 -0.003790 
#    y 0.000000 1.870320 0.000000 
#    z -0.003790 0.000000 1.991950 
# 
# From -- ./inp_files/5933.got.cif
#   From: 2010.05.17/outbox.cif.g08.bks.cpg/sg12_3_cif.got.tgz:5933.got - 2010.06.03 13:09:07.
