data_PCOD9215892
_publ_section_title
;
Structure prediction by ZEFSAII (Michael W. Deem and Ramdas Pophale) SiO2 
 PCOD9215892
Probable space group: C 2/M
;
_chemical_formula_sum "Si O2"
_cell_formula_units_Z 48
_cell_length_a 19.250373
_cell_length_b 7.912143
_cell_length_c 15.498965
_cell_angle_alpha 90.000000
_cell_angle_beta 94.367958
_cell_angle_gamma 90.000000
_cell_volume 2353.817193
_symmetry_space_group_name_H-M "C 2/M"
_symmetry_group_IT_number 12
_symmetry_cell_setting 'monoclinic'
loop_
_space_group_symop_operation_xyz
x,y,z
-x,y,-z
-x,-y,-z
x,-y,z
1/2+x,1/2+y,z
1/2-x,1/2+y,-z
1/2-x,1/2-y,-z
1/2+x,1/2-y,z
loop_
_atom_site_type_symbol
_atom_site_label
_atom_site_fract_x
_atom_site_fract_y
_atom_site_fract_z
Si Si1 0.460164 0.294568 0.083859
Si Si2 0.953735 0.000000 0.627803
Si Si3 0.199397 0.798380 0.917028
Si Si4 0.205870 0.195467 0.230043
Si Si5 0.712894 0.198979 0.585731
Si Si6 0.107803 0.000000 0.564609
Si Si7 0.940007 0.686462 0.754072
O O1 0.462069 0.500000 0.089842
O O2 0.379730 0.238557 0.076221
O O3 0.501432 0.222706 0.169347
O O4 0.500000 0.246428 0.000000
O O5 0.941497 0.833610 0.683406
O O6 0.904541 0.000000 0.539588
O O7 0.033122 0.000000 0.602750
O O8 0.233817 0.733280 0.832408
O O9 0.196568 0.000000 0.911968
O O10 0.250000 0.750000 0.000000
O O11 0.234887 0.222000 0.328957
O O12 0.136128 0.301453 0.209265
O O13 0.185687 0.000000 0.218163
O O14 0.750000 0.250000 0.500000
O O15 0.650263 0.331215 0.592321
O O16 0.692989 0.000000 0.581334
O O17 0.949407 0.500000 0.717244
#
# Coordination Sequence:
#
# PCOD9215892 Si02
#       7
#     8   4   8   8   8   4   8
#     4  10  22  42  67  95 136 184 222 273 338 398
#     4  11  26  48  65  98 140 177 221 283 339 401
#     4  11  24  40  66  99 137 177 224 281 335 396
#     4  11  24  42  65  96 135 175 224 287 337 396
#     4  11  24  41  69 103 135 175 230 282 337 402
#     4  11  26  44  72  94 138 182 219 281 345 399
#     4  12  25  42  71  97 134 180 227 275 336 405
#
# _framework density 20.392409000000001
#
# number of rings (size 3 to 8) (size 9 to 14) (size 15 to 20)
#    0.000    1.000    2.500    3.000    4.667    5.667 
#    0.000    1.667    0.000    0.000    0.000    0.000 
#    0.000    0.000    0.000    0.000    0.000    0.000 
#
# Total GULP energy -134283.850293 kJ/mol
# GULP energy per Si atom -5595.160429 kJ/mol
# Density = 2.034599 g / cm^3
# Si number density = 20.392409 Si / 1000 Ang^3
#
#
#
# Elastic Constant Matrix: (Units=GPa)
#
#
# Indices 1 2 3 4 5 6 
#
# 1 140.2572 49.5911 47.5145 0.0000 5.8035 0.0000
# 2 49.5911 112.2039 36.0936 0.0000 12.9745 0.0000
# 3 47.5145 36.0936 88.8387 0.0000 -9.6547 0.0000
# 4 0.0000 0.0000 0.0000 12.2469 0.0000 1.5062
# 5 5.8035 12.9745 -9.6547 0.0000 27.9810 0.0000
# 6 0.0000 0.0000 0.0000 1.5062 0.0000 30.2871
#
#
#
# Elastic Compliance Matrix: (Units=1/GPa)
#
#
# Indices 1 2 3 4 5 6 
#
# 1 0.009608 -0.002587 -0.004337 0.000000 -0.002290 0.000000
# 2 -0.002587 0.012199 -0.004290 0.000000 -0.006600 0.000000
# 3 -0.004337 -0.004290 0.016242 0.000000 0.008493 0.000000
# 4 0.000000 0.000000 0.000000 0.082156 0.000000 -0.004086
# 5 -0.002290 -0.006600 0.008493 0.000000 0.042204 0.000000
# 6 0.000000 0.000000 0.000000 -0.004086 0.000000 0.033221
#
#
# Mechanical properties :
#
#
# Convention : Reuss Voigt Hill
#
# Bulk Modulus (GPa) = 64.01291 67.52203 65.76747
# Shear Modulus (GPa) = 22.39506 27.97637 25.18572
#
# Velocity S-wave (km/s) = 3.31751 3.70794 3.51815
# Velocity P-wave (km/s) = 6.79215 7.17739 6.98742
#
# Compressibility (1/GPa) = 0.01562185
#
# Stress axis : x y z
#
# Youngs Moduli (GPa) = 104.07692 81.97520 61.56985
#
# Poissons Ratio (x) = 0.21205 0.26701
# Poissons Ratio (y) = 0.26922 0.26413
# Poissons Ratio (z) = 0.45136 0.35167
#
# Static dielectric constant tensor:
#      x y z
#    x 1.714780 0.000000 -0.009630 
#    y 0.000000 1.707200 0.000000 
#    z -0.009630 0.000000 1.688310 
# 
# From -- ./inp_files/221782.got.cif
#   From: 2010.05.17/outbox.cif.g08.bks.cpg/sg12_111_cif.got.tgz:221782.got - 2010.06.03 13:09:07.
