data_PCOD9215003
_publ_section_title
;
Structure prediction by ZEFSAII (Michael W. Deem and Ramdas Pophale) SiO2 
 PCOD9215003
Probable space group: C 2/M
;
_chemical_formula_sum "Si O2"
_cell_formula_units_Z 40
_cell_length_a 5.100749
_cell_length_b 17.250478
_cell_length_c 19.617416
_cell_angle_alpha 90.000000
_cell_angle_beta 84.102956
_cell_angle_gamma 90.000000
_cell_volume 1717.008919
_symmetry_space_group_name_H-M "C 2/M"
_symmetry_group_IT_number 12
_symmetry_cell_setting 'monoclinic'
loop_
_space_group_symop_operation_xyz
x,y,z
-x,y,-z
-x,-y,-z
x,-y,z
1/2+x,1/2+y,z
1/2-x,1/2+y,-z
1/2-x,1/2-y,-z
1/2+x,1/2-y,z
loop_
_atom_site_type_symbol
_atom_site_label
_atom_site_fract_x
_atom_site_fract_y
_atom_site_fract_z
Si Si1 0.434626 0.589802 0.678000
Si Si2 0.781771 0.090307 0.955308
Si Si3 0.749999 0.694622 0.750000
Si Si4 0.218229 0.590307 0.544692
Si Si5 0.565374 0.910198 0.822000
O O1 0.501473 0.500000 0.662258
O O2 0.698355 0.636674 0.688278
O O3 0.278992 0.623575 0.617696
O O4 0.249999 0.591487 0.750000
O O5 0.721008 0.123575 0.882304
O O6 0.862896 0.000000 0.941635
O O7 0.500000 0.090627 0.000000
O O8 0.000000 0.125360 0.000000
O O9 0.499999 0.750000 0.750000
O O10 0.801644 0.636674 0.811723
O O11 0.500000 0.590626 0.500000
O O12 0.137102 0.500000 0.558365
O O13 0.000000 0.625360 0.500000
O O14 0.498527 0.000000 0.837742
#
# Coordination Sequence:
#
# PCOD9215003 Si02
#       5
#     8   8   8   8   8
#     4  10  22  40  67  98 124 157 212 264 305 361
#     4   9  19  34  56  89 126 157 191 248 315 366
#     4  12  25  42  61  90 130 168 206 252 315 370
#     4   9  19  34  56  89 126 157 191 248 315 366
#     4  10  22  40  67  98 124 157 212 264 305 361
#
# _framework density 23.296323999999998
#
# number of rings (size 3 to 8) (size 9 to 14) (size 15 to 20)
#    0.000    2.000    2.000    0.600    5.600    0.000 
#    0.000    0.000    0.000    7.200    0.000    0.000 
#    0.000    0.000    0.000    0.000    0.000    0.000 
#
# Total GULP energy -111661.491442 kJ/mol
# GULP energy per Si atom -5583.074572 kJ/mol
# Density = 2.324330 g / cm^3
# Si number density = 23.296324 Si / 1000 Ang^3
#
#
#
# Elastic Constant Matrix: (Units=GPa)
#
#
# Indices 1 2 3 4 5 6 
#
# 1 172.2309 42.6193 73.1601 0.0000 55.4734 0.0000
# 2 42.6193 66.7193 11.0000 0.0000 24.7971 0.0000
# 3 73.1601 11.0000 177.7006 0.0000 58.9246 0.0000
# 4 0.0000 0.0000 0.0000 4.9799 0.0000 21.9156
# 5 55.4734 24.7971 58.9246 0.0000 62.3101 0.0000
# 6 0.0000 0.0000 0.0000 21.9156 0.0000 39.0867
#
#
#
# Elastic Compliance Matrix: (Units=1/GPa)
#
#
# Indices 1 2 3 4 5 6 
#
# 1 0.009083 -0.003702 -0.001919 0.000000 -0.004798 0.000000
# 2 -0.003702 0.019501 0.002619 0.000000 -0.006941 0.000000
# 3 -0.001919 0.002619 0.008791 0.000000 -0.007647 0.000000
# 4 0.000000 0.000000 0.000000 -0.136838 0.000000 0.076724
# 5 -0.004798 -0.006941 -0.007647 0.000000 0.030314 0.000000
# 6 0.000000 0.000000 0.000000 0.076724 0.000000 -0.017434
#
#
# Mechanical properties :
#
#
# Convention : Reuss Voigt Hill
#
# Bulk Modulus (GPa) = 31.87825 74.46775 53.17300
# Shear Modulus (GPa) = -71.30597 40.60010 -15.35293
#
# Velocity S-wave (km/s) = -5.53847 4.17918 -2.56994
# Velocity P-wave (km/s) = 5.21403 7.43789 3.75074
#
# Compressibility (1/GPa) = 0.03136935
#
# Stress axis : x y z
#
# Youngs Moduli (GPa) = 110.09595 51.27887 113.74941
#
# Poissons Ratio (x) = 0.18986 0.21833
# Poissons Ratio (y) = 0.40762 -0.29788
# Poissons Ratio (z) = 0.21131 -0.13429
#
# Static dielectric constant tensor:
#      x y z
#    x 1.967320 0.000000 -0.049920 
#    y 0.000000 1.930910 0.000000 
#    z -0.049920 0.000000 1.982060 
# 
# From -- ./inp_files/252576.got.cif
#   From: 2010.05.17/outbox.cif.g08.bks.cpg/sg12_127_cif.got.tgz:252576.got - 2010.06.03 13:09:07.
