data_PCOD9215986
_publ_section_title
;
Structure prediction by ZEFSAII (Michael W. Deem and Ramdas Pophale) SiO2 
 PCOD9215986
Probable space group: C 2/M
;
_chemical_formula_sum "Si O2"
_cell_formula_units_Z 48
_cell_length_a 9.112254
_cell_length_b 29.774588
_cell_length_c 18.296582
_cell_angle_alpha 90.000000
_cell_angle_beta 28.953188
_cell_angle_gamma 90.000000
_cell_volume 2403.101020
_symmetry_space_group_name_H-M "C 2/M"
_symmetry_group_IT_number 12
_symmetry_cell_setting 'monoclinic'
loop_
_space_group_symop_operation_xyz
x,y,z
-x,y,-z
-x,-y,-z
x,-y,z
1/2+x,1/2+y,z
1/2-x,1/2+y,-z
1/2-x,1/2-y,-z
1/2+x,1/2-y,z
loop_
_atom_site_type_symbol
_atom_site_label
_atom_site_fract_x
_atom_site_fract_y
_atom_site_fract_z
Si Si1 0.646575 0.272645 0.166527
Si Si2 0.302346 0.879641 0.513723
Si Si3 0.661162 0.868657 0.858086
Si Si4 0.322613 0.877641 0.863209
Si Si5 0.650215 0.050052 0.633270
Si Si6 0.114704 0.697904 0.287299
O O1 0.711682 0.321282 0.170469
O O2 0.405641 0.282758 0.206111
O O3 0.494896 0.240176 0.292756
O O4 0.000000 0.255338 0.000000
O O5 0.500000 0.879609 0.500000
O O6 0.394901 0.920075 0.419642
O O7 0.382240 0.831786 0.438474
O O8 0.957258 0.888379 0.689564
O O9 0.413164 0.860901 0.903479
O O10 0.500000 0.890125 0.000000
O O11 0.540459 0.917033 0.744303
O O12 0.308824 0.837774 0.810198
O O13 0.000000 0.900052 0.000000
O O14 0.000000 0.045068 0.500000
O O15 0.515190 0.000000 0.687757
#
# Coordination Sequence:
#
# PCOD9215986 Si02
#       6
#     8   8   8   8   8   8
#     4  11  21  37  58  89 132 167 214 257 304 362
#     4  11  23  43  64  92 127 158 212 254 310 375
#     4  11  23  40  63  90 123 171 205 258 306 358
#     4  11  22  39  66  94 125 164 210 255 308 371
#     4  10  22  42  69  95 123 162 202 252 316 377
#     4  11  23  38  61  93 123 170 214 260 308 360
#
# _framework density 19.97419
#
# number of rings (size 3 to 8) (size 9 to 14) (size 15 to 20)
#    0.000    1.167    3.333    4.000    2.333    1.333 
#    0.000    0.000    0.000    1.000    0.000    0.000 
#    0.000    0.000    0.000    0.000    0.000    0.000 
#
# Total GULP energy -133631.047141 kJ/mol
# GULP energy per Si atom -5567.960298 kJ/mol
# Density = 1.992873 g / cm^3
# Si number density = 19.974190 Si / 1000 Ang^3
#
#
#
# Elastic Constant Matrix: (Units=GPa)
#
#
# Indices 1 2 3 4 5 6 
#
# 1 150.3586 24.6274 38.1186 0.0000 8.9585 0.0000
# 2 24.6274 56.6135 -11.9262 0.0000 7.1568 0.0000
# 3 38.1186 -11.9262 50.0617 0.0001 0.7755 0.0000
# 4 0.0000 0.0000 0.0001 -6.5267 0.0000 -4.8967
# 5 8.9585 7.1568 0.7755 0.0000 28.6613 0.0000
# 6 0.0000 0.0000 0.0000 -4.8967 0.0000 17.3917
#
#
#
# Elastic Compliance Matrix: (Units=1/GPa)
#
#
# Indices 1 2 3 4 5 6 
#
# 1 0.010031 -0.006102 -0.009070 0.000000 -0.001366 0.000000
# 2 -0.006102 0.022983 0.010185 0.000000 -0.004107 0.000000
# 3 -0.009070 0.010185 0.029316 0.000000 -0.000501 0.000000
# 4 0.000000 0.000000 0.000000 -0.126496 0.000000 -0.035615
# 5 -0.001366 -0.004107 -0.000501 0.000000 0.036356 0.000000
# 6 0.000000 0.000000 0.000000 -0.035615 0.000000 0.047471
#
#
# Mechanical properties :
#
#
# Convention : Reuss Voigt Hill
#
# Bulk Modulus (GPa) = 19.10031 39.85261 29.47646
# Shear Modulus (GPa) = 106.18610 21.65287 63.91949
#
# Velocity S-wave (km/s) = 7.29911 3.29605 5.66308
# Velocity P-wave (km/s) = 8.97883 5.87202 7.58617
#
# Compressibility (1/GPa) = 0.05235518
#
# Stress axis : x y z
#
# Youngs Moduli (GPa) = 99.68998 43.51099 34.11107
#
# Poissons Ratio (x) = 0.26549 0.30940
# Poissons Ratio (y) = 0.60828 -0.34742
# Poissons Ratio (z) = 0.90423 -0.44315
#
# Static dielectric constant tensor:
#      x y z
#    x 1.711130 0.000000 0.026130 
#    y 0.000000 1.702560 0.000000 
#    z 0.026130 0.000000 1.270610 
# 
# From -- ./inp_files/200146.got.cif
#   From: 2010.05.17/outbox.cif.g08.bks.cpg/sg12_101_cif.got.tgz:200146.got - 2010.06.03 13:09:07.
