data_PCOD9215713
_publ_section_title
;
Structure prediction by ZEFSAII (Michael W. Deem and Ramdas Pophale) SiO2 
 PCOD9215713
Probable space group: C 2/M
;
_chemical_formula_sum "Si O2"
_cell_formula_units_Z 52
_cell_length_a 11.790447
_cell_length_b 30.661376
_cell_length_c 8.314332
_cell_angle_alpha 90.000000
_cell_angle_beta 120.848378
_cell_angle_gamma 90.000000
_cell_volume 2580.496981
_symmetry_space_group_name_H-M "C 2/M"
_symmetry_group_IT_number 12
_symmetry_cell_setting 'monoclinic'
loop_
_space_group_symop_operation_xyz
x,y,z
-x,y,-z
-x,-y,-z
x,-y,z
1/2+x,1/2+y,z
1/2-x,1/2+y,-z
1/2-x,1/2-y,-z
1/2+x,1/2-y,z
loop_
_atom_site_type_symbol
_atom_site_label
_atom_site_fract_x
_atom_site_fract_y
_atom_site_fract_z
Si Si1 0.710084 0.950164 0.552662
Si Si2 0.081724 0.450089 0.807290
Si Si3 0.740065 0.208061 0.876827
Si Si4 0.644955 0.135263 0.050465
Si Si5 0.000000 0.729749 0.500000
Si Si6 0.358756 0.376202 0.483945
Si Si7 0.864102 0.782829 0.651202
O O1 0.668946 0.944830 0.709037
O O2 0.571287 0.944849 0.356254
O O3 0.816291 0.916135 0.566238
O O4 0.754355 0.000000 0.561412
O O5 0.098978 0.500000 0.878752
O O6 0.119260 0.412149 0.955720
O O7 0.623079 0.202587 0.655553
O O8 0.859881 0.214700 0.839169
O O9 0.750000 0.250000 0.000000
O O10 0.716323 0.167104 0.975096
O O11 0.743455 0.129899 0.269628
O O12 0.500000 0.152847 0.000000
O O13 0.984030 0.760886 0.643320
O O14 0.500000 0.382205 0.500000
O O15 0.357064 0.331572 0.581965
O O16 0.750000 0.750000 0.500000
#
# Coordination Sequence:
#
# PCOD9215713 Si02
#       7
#     8   8   8   8   4   8   8
#     4   9  19  39  67  97 128 171 214 266 330 390
#     4   9  19  39  67  97 129 163 218 279 328 374
#     4  11  26  40  63  94 126 170 218 274 328 386
#     4  12  25  39  64 100 129 165 228 271 322 387
#     4  10  22  42  66  86 118 170 212 274 330 378
#     4  12  25  43  63  92 137 176 211 264 332 404
#     4  10  22  42  64  84 123 169 216 261 321 386
#
# _framework density 20.151157000000001
#
# number of rings (size 3 to 8) (size 9 to 14) (size 15 to 20)
#    0.000    1.538    2.308    3.692    6.462    2.462 
#    0.000    2.308    0.000    1.846    0.000    0.000 
#    0.000    0.000    0.000    0.000    0.000    0.000 
#
# Total GULP energy -145017.559004 kJ/mol
# GULP energy per Si atom -5577.598423 kJ/mol
# Density = 2.010529 g / cm^3
# Si number density = 20.151157 Si / 1000 Ang^3
#
#
#
# Elastic Constant Matrix: (Units=GPa)
#
#
# Indices 1 2 3 4 5 6 
#
# 1 109.1068 36.7248 5.5091 0.0000 -15.0147 0.0000
# 2 36.7248 66.0240 -26.7765 0.0000 -12.6636 0.0000
# 3 5.5091 -26.7765 28.3150 0.0000 1.4060 0.0000
# 4 0.0000 0.0000 0.0000 30.2965 0.0000 -15.4048
# 5 -15.0147 -12.6636 1.4060 0.0000 36.2118 0.0000
# 6 0.0000 0.0000 0.0000 -15.4048 0.0000 19.5405
#
#
#
# Elastic Compliance Matrix: (Units=1/GPa)
#
#
# Indices 1 2 3 4 5 6 
#
# 1 0.015519 -0.015516 -0.017777 0.000000 0.001699 0.000000
# 2 -0.015516 0.042432 0.042810 0.000000 0.006743 0.000000
# 3 -0.017777 0.042810 0.079035 0.000000 0.004532 0.000000
# 4 0.000000 0.000000 0.000000 0.055090 0.000000 0.043430
# 5 0.001699 0.006743 0.004532 0.000000 0.030502 0.000000
# 6 0.000000 0.000000 0.000000 0.043430 0.000000 0.085414
#
#
# Mechanical properties :
#
#
# Convention : Reuss Voigt Hill
#
# Bulk Modulus (GPa) = 6.40940 26.04008 16.22474
# Shear Modulus (GPa) = 14.66430 29.74232 22.20331
#
# Velocity S-wave (km/s) = 2.70055 3.84599 3.32300
# Velocity P-wave (km/s) = 3.59326 5.71600 4.77410
#
# Compressibility (1/GPa) = 0.15602086
#
# Stress axis : x y z
#
# Youngs Moduli (GPa) = 64.43563 23.56716 12.65267
#
# Poissons Ratio (x) = 0.36567 0.22492
# Poissons Ratio (y) = 0.99979 -0.54166
# Poissons Ratio (z) = 1.14546 -1.00892
#
# Static dielectric constant tensor:
#      x y z
#    x 1.956250 0.000000 0.096970 
#    y 0.000000 1.689370 0.000000 
#    z 0.096970 0.000000 1.817520 
# 
# From -- ./inp_files/53362.got.cif
#   From: 2010.05.17/outbox.cif.g08.bks.cpg/sg12_27_cif.got.tgz:53362.got - 2010.06.03 13:09:07.
