data_PCOD9215508
_publ_section_title
;
Structure prediction by ZEFSAII (Michael W. Deem and Ramdas Pophale) SiO2 
 PCOD9215508
Probable space group: C 2/M
;
_chemical_formula_sum "Si O2"
_cell_formula_units_Z 36
_cell_length_a 8.945787
_cell_length_b 24.517790
_cell_length_c 11.000904
_cell_angle_alpha 90.000000
_cell_angle_beta 39.425009
_cell_angle_gamma 90.000000
_cell_volume 1532.315882
_symmetry_space_group_name_H-M "C 2/M"
_symmetry_group_IT_number 12
_symmetry_cell_setting 'monoclinic'
loop_
_space_group_symop_operation_xyz
x,y,z
-x,y,-z
-x,-y,-z
x,-y,z
1/2+x,1/2+y,z
1/2-x,1/2+y,-z
1/2-x,1/2-y,-z
1/2+x,1/2-y,z
loop_
_atom_site_type_symbol
_atom_site_label
_atom_site_fract_x
_atom_site_fract_y
_atom_site_fract_z
Si Si1 0.716310 0.938769 0.687407
Si Si2 0.741366 0.704482 0.612237
Si Si3 0.322377 0.643055 0.815659
Si Si4 0.273102 0.436406 0.068576
Si Si5 0.500000 0.243121 0.000000
O O1 0.706482 0.883168 0.770300
O O2 0.505356 0.933072 0.719581
O O3 0.000000 0.942316 0.500000
O O4 0.659279 0.000000 0.775903
O O5 0.750000 0.750000 0.500000
O O6 0.599846 0.654997 0.639592
O O7 0.601084 0.723719 0.822068
O O8 0.000000 0.692004 0.500000
O O9 0.282482 0.597682 0.940686
O O10 0.204674 0.701446 0.912407
O O11 0.322461 0.500000 0.016760
O O12 0.500000 0.415419 0.000000
#
# Coordination Sequence:
#
# PCOD9215508 Si02
#       5
#     8   8   8   8   4
#     4  10  22  41  67 100 136 178 231 286 350 431
#     4  12  29  48  70 102 144 186 240 303 356 420
#     4  12  24  41  72  96 134 185 232 287 352 429
#     4  10  22  41  67 101 136 175 229 288 353 425
#     4  12  26  48  71 104 139 184 246 294 348 426
#
# _framework density 23.493850999999999
#
# number of rings (size 3 to 8) (size 9 to 14) (size 15 to 20)
#    0.000    0.889    4.444    1.333    4.667    3.556 
#    0.000    0.000    0.000    6.667    0.000    0.000 
#    0.000    0.000    0.000    0.000    0.000    0.000 
#
# Total GULP energy -100235.247865 kJ/mol
# GULP energy per Si atom -5568.624881 kJ/mol
# Density = 2.344038 g / cm^3
# Si number density = 23.493851 Si / 1000 Ang^3
#
#
#
# Elastic Constant Matrix: (Units=GPa)
#
#
# Indices 1 2 3 4 5 6 
#
# 1 160.5870 22.9652 55.7900 0.0000 -62.5622 0.0000
# 2 22.9652 57.4848 23.6221 0.0000 -11.9908 0.0000
# 3 55.7900 23.6221 91.6454 0.0000 -26.4803 0.0000
# 4 0.0000 0.0000 0.0000 33.7845 0.0000 -12.7465
# 5 -62.5622 -11.9908 -26.4803 0.0000 57.4649 0.0000
# 6 0.0000 0.0000 0.0000 -12.7465 0.0000 51.3727
#
#
#
# Elastic Compliance Matrix: (Units=1/GPa)
#
#
# Indices 1 2 3 4 5 6 
#
# 1 0.012041 -0.000892 -0.003883 0.000000 0.011134 0.000000
# 2 -0.000892 0.019728 -0.004191 0.000000 0.001214 0.000000
# 3 -0.003883 -0.004191 0.014860 0.000000 0.001745 0.000000
# 4 0.000000 0.000000 0.000000 0.032656 0.000000 0.008103
# 5 0.011134 0.001214 0.001745 0.000000 0.030581 0.000000
# 6 0.000000 0.000000 0.000000 0.008103 0.000000 0.021476
#
#
# Mechanical properties :
#
#
# Convention : Reuss Voigt Hill
#
# Bulk Modulus (GPa) = 34.84796 57.16354 46.00575
# Shear Modulus (GPa) = 31.47792 42.34710 36.91251
#
# Velocity S-wave (km/s) = 3.66435 4.25016 3.96808
# Velocity P-wave (km/s) = 5.72436 6.96199 6.37329
#
# Compressibility (1/GPa) = 0.02869608
#
# Stress axis : x y z
#
# Youngs Moduli (GPa) = 83.04632 50.69002 67.29388
#
# Poissons Ratio (x) = 0.04524 0.26132
# Poissons Ratio (y) = 0.07411 0.28203
# Poissons Ratio (z) = 0.32249 0.21244
#
# Static dielectric constant tensor:
#      x y z
#    x 2.023100 0.000000 -0.072980 
#    y 0.000000 1.868890 0.000000 
#    z -0.072980 0.000000 2.059680 
# 
# From -- ./inp_files/123331.got.cif
#   From: 2010.05.17/outbox.cif.g08.bks.cpg/sg12_62_cif.got.tgz:123331.got - 2010.06.03 13:09:07.
