data_PCOD9215890
_publ_section_title
;
Structure prediction by ZEFSAII (Michael W. Deem and Ramdas Pophale) SiO2 
 PCOD9215890
Probable space group: C 2/M
;
_chemical_formula_sum "Si O2"
_cell_formula_units_Z 32
_cell_length_a 27.481331
_cell_length_b 7.514083
_cell_length_c 10.337871
_cell_angle_alpha 90.000000
_cell_angle_beta 49.795830
_cell_angle_gamma 90.000000
_cell_volume 1630.405166
_symmetry_space_group_name_H-M "C 2/M"
_symmetry_group_IT_number 12
_symmetry_cell_setting 'monoclinic'
loop_
_space_group_symop_operation_xyz
x,y,z
-x,y,-z
-x,-y,-z
x,-y,z
1/2+x,1/2+y,z
1/2-x,1/2+y,-z
1/2-x,1/2-y,-z
1/2+x,1/2-y,z
loop_
_atom_site_type_symbol
_atom_site_label
_atom_site_fract_x
_atom_site_fract_y
_atom_site_fract_z
Si Si1 0.952805 0.500000 0.384679
Si Si2 0.303200 0.711617 0.301915
Si Si3 0.563102 0.713390 0.806426
Si Si4 0.095364 0.500000 0.249232
Si Si5 0.694450 0.711454 0.993084
O O1 0.940730 0.327431 0.317126
O O2 0.910109 0.500000 0.586227
O O3 0.025525 0.500000 0.307843
O O4 0.307840 0.500000 0.286466
O O5 0.250000 0.750000 0.500000
O O6 0.373108 0.772719 0.227243
O O7 0.286897 0.770710 0.184606
O O8 0.566299 0.500000 0.777223
O O9 0.500000 0.747446 0.000000
O O10 0.133765 0.326821 0.137652
O O11 0.681412 0.500000 0.015603
O O12 0.750000 0.750000 0.000000
#
# Coordination Sequence:
#
# PCOD9215890 Si02
#       5
#     4   8   8   4   8
#     4  11  25  42  68  94 133 176 223 272 315 403
#     4  10  24  39  63  98 128 164 216 273 328 388
#     4  10  22  42  67  95 130 171 220 275 332 385
#     4  11  26  44  64  98 130 178 225 259 335 391
#     4  11  24  43  66  93 133 175 215 268 329 392
#
# _framework density 19.627022
#
# number of rings (size 3 to 8) (size 9 to 14) (size 15 to 20)
#    0.000    1.500    1.250    1.875    7.000    4.000 
#    0.000    2.500    0.000    0.000    0.000    0.000 
#    0.000    0.000    0.000    0.000    0.000    0.000 
#
# Total GULP energy -89417.353583 kJ/mol
# GULP energy per Si atom -5588.584599 kJ/mol
# Density = 1.958235 g / cm^3
# Si number density = 19.627022 Si / 1000 Ang^3
#
#
#
# Elastic Constant Matrix: (Units=GPa)
#
#
# Indices 1 2 3 4 5 6 
#
# 1 134.7272 29.6464 89.5056 0.0000 18.5995 0.0000
# 2 29.6464 98.7913 50.3394 0.0000 12.0922 0.0000
# 3 89.5056 50.3394 178.9793 0.0000 21.9466 0.0000
# 4 0.0000 0.0000 0.0000 29.9727 0.0000 2.6928
# 5 18.5995 12.0922 21.9466 0.0000 40.5016 0.0000
# 6 0.0000 0.0000 0.0000 2.6928 0.0000 30.9744
#
#
#
# Elastic Compliance Matrix: (Units=1/GPa)
#
#
# Indices 1 2 3 4 5 6 
#
# 1 0.011325 -0.000444 -0.005267 0.000000 -0.002214 0.000000
# 2 -0.000444 0.011964 -0.002924 0.000000 -0.001784 0.000000
# 3 -0.005267 -0.002924 0.009255 0.000000 -0.001723 0.000000
# 4 0.000000 0.000000 0.000000 0.033626 0.000000 -0.002923
# 5 -0.002214 -0.001784 -0.001723 0.000000 0.027173 0.000000
# 6 0.000000 0.000000 0.000000 -0.002923 0.000000 0.032539
#
#
# Mechanical properties :
#
#
# Convention : Reuss Voigt Hill
#
# Bulk Modulus (GPa) = 65.47259 83.49785 74.48522
# Shear Modulus (GPa) = 33.72814 36.49018 35.10916
#
# Velocity S-wave (km/s) = 4.14992 4.31650 4.23403
# Velocity P-wave (km/s) = 7.50955 8.21447 7.86991
#
# Compressibility (1/GPa) = 0.01527357
#
# Stress axis : x y z
#
# Youngs Moduli (GPa) = 88.30066 83.58463 108.04833
#
# Poissons Ratio (x) = 0.03708 0.56911
# Poissons Ratio (y) = 0.03917 0.31598
# Poissons Ratio (z) = 0.46510 0.24444
#
# Static dielectric constant tensor:
#      x y z
#    x 1.702910 0.000000 -0.026050 
#    y 0.000000 1.690670 0.000000 
#    z -0.026050 0.000000 1.743580 
# 
# From -- ./inp_files/81721.got.cif
#   From: 2010.05.17/outbox.cif.g08.bks.cpg/sg12_41_cif.got.tgz:81721.got - 2010.06.03 13:09:07.
