data_PCOD9215382
_publ_section_title
;
Structure prediction by ZEFSAII (Michael W. Deem and Ramdas Pophale) SiO2 
 PCOD9215382
Probable space group: C 2/M
;
_chemical_formula_sum "Si O2"
_cell_formula_units_Z 56
_cell_length_a 9.263363
_cell_length_b 18.100651
_cell_length_c 15.684240
_cell_angle_alpha 90.000000
_cell_angle_beta 74.083525
_cell_angle_gamma 90.000000
_cell_volume 2529.001201
_symmetry_space_group_name_H-M "C 2/M"
_symmetry_group_IT_number 12
_symmetry_cell_setting 'monoclinic'
loop_
_space_group_symop_operation_xyz
x,y,z
-x,y,-z
-x,-y,-z
x,-y,z
1/2+x,1/2+y,z
1/2-x,1/2+y,-z
1/2-x,1/2-y,-z
1/2+x,1/2-y,z
loop_
_atom_site_type_symbol
_atom_site_label
_atom_site_fract_x
_atom_site_fract_y
_atom_site_fract_z
Si Si1 0.809644 0.083630 0.707511
Si Si2 0.047584 0.820755 0.585319
Si Si3 0.753438 0.155961 0.881049
Si Si4 0.487634 0.911474 0.733953
Si Si5 0.704328 0.089010 0.074043
Si Si6 0.110787 0.336486 0.411953
Si Si7 0.435549 0.704877 0.101872
O O1 0.765529 0.089187 0.813615
O O2 0.658000 0.114265 0.687968
O O3 0.955721 0.130943 0.666950
O O4 0.834787 0.000000 0.676662
O O5 0.224599 0.822045 0.575601
O O6 0.000000 0.851391 0.500000
O O7 0.975176 0.739431 0.597082
O O8 0.664963 0.225749 0.856200
O O9 0.920948 0.187306 0.866096
O O10 0.695109 0.126494 0.982198
O O11 0.430840 0.893693 0.838643
O O12 0.381068 0.880845 0.677506
O O13 0.489621 0.000000 0.729431
O O14 0.843068 0.130185 0.097812
O O15 0.720772 0.000000 0.064148
O O16 0.000000 0.373442 0.500000
O O17 0.500000 0.728337 0.000000
#
# Coordination Sequence:
#
# PCOD9215382 Si02
#       7
#     8   8   8   8   8   8   8
#     4  11  26  43  65  97 130 173 225 273 330 392
#     4  11  24  44  72 101 134 172 210 272 325 391
#     4  11  25  41  65  93 130 175 222 277 326 384
#     4  10  24  43  65  96 134 176 221 271 327 389
#     4  10  22  41  65  92 132 176 221 272 326 384
#     4  11  23  44  73 102 133 171 216 263 327 392
#     4  10  23  40  61  91 122 169 222 274 324 385
#
# _framework density 22.143128999999998
#
# number of rings (size 3 to 8) (size 9 to 14) (size 15 to 20)
#    0.000    1.429    0.000    5.571    8.000    4.286 
#    0.000    2.143    0.000    0.000    0.000    0.000 
#    0.000    0.000    0.000    0.000    0.000    0.000 
#
# Total GULP energy -156422.501487 kJ/mol
# GULP energy per Si atom -5586.517910 kJ/mol
# Density = 2.209273 g / cm^3
# Si number density = 22.143129 Si / 1000 Ang^3
#
#
#
# Elastic Constant Matrix: (Units=GPa)
#
#
# Indices 1 2 3 4 5 6 
#
# 1 148.8741 35.7244 30.0041 0.0000 -9.8984 0.0000
# 2 35.7244 69.5574 17.2820 0.0000 -3.1898 0.0000
# 3 30.0041 17.2820 98.2235 0.0000 -2.5360 0.0000
# 4 0.0000 0.0000 0.0000 28.8681 0.0000 0.1233
# 5 -9.8984 -3.1898 -2.5360 0.0000 28.1848 0.0000
# 6 0.0000 0.0000 0.0000 0.1233 0.0000 22.9251
#
#
#
# Elastic Compliance Matrix: (Units=1/GPa)
#
#
# Indices 1 2 3 4 5 6 
#
# 1 0.008093 -0.003610 -0.001778 0.000000 0.002274 0.000000
# 2 -0.003610 0.016705 -0.001825 0.000000 0.000458 0.000000
# 3 -0.001778 -0.001825 0.011049 0.000000 0.000163 0.000000
# 4 0.000000 0.000000 0.000000 0.034641 0.000000 -0.000186
# 5 0.002274 0.000458 0.000163 0.000000 0.036345 0.000000
# 6 0.000000 0.000000 0.000000 -0.000186 0.000000 0.043621
#
#
# Mechanical properties :
#
#
# Convention : Reuss Voigt Hill
#
# Bulk Modulus (GPa) = 46.68272 53.63067 50.15669
# Shear Modulus (GPa) = 29.06607 31.57191 30.31899
#
# Velocity S-wave (km/s) = 3.62697 3.78009 3.70432
# Velocity P-wave (km/s) = 6.21836 6.58215 6.40284
#
# Compressibility (1/GPa) = 0.02142120
#
# Stress axis : x y z
#
# Youngs Moduli (GPa) = 123.56335 59.86138 90.50364
#
# Poissons Ratio (x) = 0.21613 0.16093
# Poissons Ratio (y) = 0.44612 0.16512
# Poissons Ratio (z) = 0.21972 0.10922
#
# Static dielectric constant tensor:
#      x y z
#    x 1.709160 0.000000 -0.037300 
#    y 0.000000 1.773180 0.000000 
#    z -0.037300 0.000000 1.854610 
# 
# From -- ./inp_files/257014.got.cif
#   From: 2010.05.17/outbox.cif.g08.bks.cpg/sg12_129_cif.got.tgz:257014.got - 2010.06.03 13:09:07.
