data_PCOD9215517
_publ_section_title
;
Structure prediction by ZEFSAII (Michael W. Deem and Ramdas Pophale) SiO2 
 PCOD9215517
Probable space group: C 2/M
;
_chemical_formula_sum "Si O2"
_cell_formula_units_Z 64
_cell_length_a 8.264133
_cell_length_b 29.417649
_cell_length_c 21.419807
_cell_angle_alpha 90.000000
_cell_angle_beta 36.735517
_cell_angle_gamma 90.000000
_cell_volume 3114.659830
_symmetry_space_group_name_H-M "C 2/M"
_symmetry_group_IT_number 12
_symmetry_cell_setting 'monoclinic'
loop_
_space_group_symop_operation_xyz
x,y,z
-x,y,-z
-x,-y,-z
x,-y,z
1/2+x,1/2+y,z
1/2-x,1/2+y,-z
1/2-x,1/2-y,-z
1/2+x,1/2-y,z
loop_
_atom_site_type_symbol
_atom_site_label
_atom_site_fract_x
_atom_site_fract_y
_atom_site_fract_z
Si Si1 0.690749 0.877819 0.575215
Si Si2 0.187548 0.104984 0.234783
Si Si3 0.929365 0.181538 0.397206
Si Si4 0.262250 0.054198 0.963517
Si Si5 0.799720 0.314811 0.769682
Si Si6 0.306461 0.743845 0.319667
Si Si7 0.197388 0.127983 0.088219
Si Si8 0.162657 0.550012 0.385367
O O1 0.529057 0.851176 0.678983
O O2 0.503679 0.919091 0.611249
O O3 0.000000 0.888843 0.500000
O O4 0.724017 0.846247 0.503447
O O5 0.131893 0.145900 0.300195
O O6 0.127573 0.121088 0.182337
O O7 0.952597 0.068572 0.316283
O O8 0.480079 0.081043 0.145470
O O9 0.073763 0.218500 0.396251
O O10 0.815438 0.212154 0.376839
O O11 0.213581 0.081012 0.043946
O O12 0.316115 0.000000 0.955362
O O13 0.000000 0.058485 0.000000
O O14 0.733344 0.287879 0.726871
O O15 0.529179 0.340650 0.873361
O O16 0.927415 0.275187 0.771993
O O17 0.500000 0.147835 0.000000
O O18 0.191465 0.500000 0.349288
O O19 0.000000 0.548773 0.500000
#
# Coordination Sequence:
#
# PCOD9215517 Si02
#       8
#     8   8   8   8   8   8   8   8
#     4  12  24  39  63  92 130 171 211 259 318 367
#     4  11  21  41  69  90 127 166 204 253 313 373
#     4  11  22  39  60  94 127 168 206 258 307 370
#     4  10  24  43  68  99 124 154 206 264 314 371
#     4  11  22  41  59  94 124 166 207 261 310 365
#     4  10  23  37  64  88 129 160 215 255 308 370
#     4  10  22  41  67  90 122 160 206 253 316 372
#     4  11  23  40  63  92 126 169 209 248 303 386
#
# _framework density 20.547989999999999
#
# number of rings (size 3 to 8) (size 9 to 14) (size 15 to 20)
#    0.000    1.250    5.000    0.375    1.750    6.000 
#    0.000    0.625    0.000    0.000    0.000    0.000 
#    0.000    0.000    0.000    0.000    0.000    0.000 
#
# Total GULP energy -178678.963459 kJ/mol
# GULP energy per Si atom -5583.717608 kJ/mol
# Density = 2.050122 g / cm^3
# Si number density = 20.547990 Si / 1000 Ang^3
#
#
#
# Elastic Constant Matrix: (Units=GPa)
#
#
# Indices 1 2 3 4 5 6 
#
# 1 72.2767 42.2541 11.8402 0.0000 -20.1926 -0.0001
# 2 42.2541 123.8889 32.9471 -0.0001 -14.8639 -0.0001
# 3 11.8402 32.9471 76.4915 -0.0005 -14.0824 -0.0004
# 4 0.0000 -0.0001 -0.0005 16.9333 0.0002 -9.8569
# 5 -20.1926 -14.8639 -14.0824 0.0002 32.7606 0.0001
# 6 -0.0001 -0.0001 -0.0004 -9.8569 0.0001 47.4282
#
#
#
# Elastic Compliance Matrix: (Units=1/GPa)
#
#
# Indices 1 2 3 4 5 6 
#
# 1 0.019924 -0.005933 0.001343 0.000000 0.010166 0.000000
# 2 -0.005933 0.011101 -0.003919 0.000000 -0.000305 0.000000
# 3 0.001343 -0.003919 0.015614 0.000000 0.005762 0.000000
# 4 0.000000 0.000000 0.000000 0.067183 0.000000 0.013963
# 5 0.010166 -0.000305 0.005762 0.000000 0.039129 0.000000
# 6 0.000000 0.000000 0.000000 0.013963 0.000000 0.023986
#
#
# Mechanical properties :
#
#
# Convention : Reuss Voigt Hill
#
# Bulk Modulus (GPa) = 33.75947 49.63776 41.69861
# Shear Modulus (GPa) = 24.53024 31.79880 28.16452
#
# Velocity S-wave (km/s) = 3.45889 3.93814 3.70627
# Velocity P-wave (km/s) = 5.69361 6.69986 6.21712
#
# Compressibility (1/GPa) = 0.02962132
#
# Stress axis : x y z
#
# Youngs Moduli (GPa) = 50.18957 90.08214 64.04373
#
# Poissons Ratio (x) = 0.53445 -0.08601
# Poissons Ratio (y) = 0.29777 0.25101
# Poissons Ratio (z) = -0.06741 0.35306
#
# Static dielectric constant tensor:
#      x y z
#    x 1.767300 0.000000 -0.031370 
#    y 0.000000 1.740830 0.000000 
#    z -0.031370 0.000000 1.794610 
# 
# From -- ./inp_files/334334.got.cif
#   From: 2010.05.17/outbox.cif.g08.bks.cpg/sg12_168_cif.got.tgz:334334.got - 2010.06.03 13:09:07.
