data_PCOD9215525
_publ_section_title
;
Structure prediction by ZEFSAII (Michael W. Deem and Ramdas Pophale) SiO2 
 PCOD9215525
Probable space group: C 2/M
;
_chemical_formula_sum "Si O2"
_cell_formula_units_Z 56
_cell_length_a 8.662020
_cell_length_b 33.117489
_cell_length_c 20.156403
_cell_angle_alpha 90.000000
_cell_angle_beta 149.258281
_cell_angle_gamma 90.000000
_cell_volume 2955.656865
_symmetry_space_group_name_H-M "C 2/M"
_symmetry_group_IT_number 12
_symmetry_cell_setting 'monoclinic'
loop_
_space_group_symop_operation_xyz
x,y,z
-x,y,-z
-x,-y,-z
x,-y,z
1/2+x,1/2+y,z
1/2-x,1/2+y,-z
1/2-x,1/2-y,-z
1/2+x,1/2-y,z
loop_
_atom_site_type_symbol
_atom_site_label
_atom_site_fract_x
_atom_site_fract_y
_atom_site_fract_z
Si Si1 0.850859 0.664967 0.517529
Si Si2 0.340500 0.000000 0.603203
Si Si3 0.572313 0.500000 0.103203
Si Si4 0.690245 0.195736 0.250000
Si Si5 0.063396 0.575365 0.600640
Si Si6 0.828137 0.715982 0.249999
Si Si7 0.660837 0.575365 0.899360
Si Si8 0.219253 0.664967 0.017527
O O1 0.493842 0.671659 0.379712
O O2 0.000000 0.671159 0.500000
O O3 0.930905 0.619408 0.568573
O O4 0.994626 0.695676 0.623240
O O5 0.415934 0.039625 0.588177
O O6 0.000000 0.000000 0.500000
O O7 0.571707 0.000000 0.750000
O O8 0.436775 0.539625 0.088177
O O9 0.500000 0.500000 0.000000
O O10 0.790496 0.236742 0.249999
O O11 0.510478 0.207523 0.250000
O O12 0.475001 0.171658 0.120291
O O13 0.418285 0.575895 0.750000
O O14 0.000000 0.568468 0.500000
O O15 0.498329 0.695676 0.123237
O O16 0.656615 0.619408 0.931428
O O17 0.000000 0.568468 0.000000
O O18 0.500000 0.828841 0.000000
#
# Coordination Sequence:
#
# PCOD9215525 Si02
#       8
#     8   4   4   8   8   8   8   8
#     4  11  23  42  65  93 127 164 214 263 319 379
#     4  10  23  42  62  96 134 170 209 260 310 368
#     4  10  23  42  62  96 134 170 209 260 310 368
#     4  12  26  40  66  91 124 173 208 266 323 378
#     4  10  22  41  67  94 126 164 211 259 311 378
#     4  12  24  44  62  93 128 163 216 264 319 384
#     4  10  22  41  67  94 126 164 211 259 311 378
#     4  11  23  42  65  93 127 164 214 263 319 379
#
# _framework density 18.946719999999999
#
# number of rings (size 3 to 8) (size 9 to 14) (size 15 to 20)
#    0.000    1.143    1.429    4.714    6.000    3.429 
#    0.000    0.000    0.000    0.000    0.000    0.000 
#    0.000    0.000    0.000    0.000    0.000    0.000 
#
# Total GULP energy -156612.410744 kJ/mol
# GULP energy per Si atom -5593.300384 kJ/mol
# Density = 1.890360 g / cm^3
# Si number density = 18.946720 Si / 1000 Ang^3
#
#
#
# Elastic Constant Matrix: (Units=GPa)
#
#
# Indices 1 2 3 4 5 6 
#
# 1 82.9040 37.0005 50.8205 0.0000 -0.3783 0.0000
# 2 37.0005 75.8787 62.8056 0.0000 -0.2262 0.0000
# 3 50.8205 62.8056 184.3513 0.0001 -0.5103 0.0001
# 4 0.0000 0.0000 0.0001 26.9004 0.0000 -0.1340
# 5 -0.3783 -0.2262 -0.5103 0.0000 37.6226 0.0000
# 6 0.0000 0.0000 0.0001 -0.1340 0.0000 11.6403
#
#
#
# Elastic Compliance Matrix: (Units=1/GPa)
#
#
# Indices 1 2 3 4 5 6 
#
# 1 0.016187 -0.005849 -0.002469 0.000000 0.000094 0.000000
# 2 -0.005849 0.020468 -0.005361 0.000000 -0.000008 0.000000
# 3 -0.002469 -0.005361 0.007932 0.000000 0.000051 0.000000
# 4 0.000000 0.000000 0.000000 0.037176 0.000000 0.000428
# 5 0.000094 -0.000008 0.000051 0.000000 0.026581 0.000000
# 6 0.000000 0.000000 0.000000 0.000428 0.000000 0.085913
#
#
# Mechanical properties :
#
#
# Convention : Reuss Voigt Hill
#
# Bulk Modulus (GPa) = 58.04368 71.59859 64.82114
# Shear Modulus (GPa) = 21.99170 28.06649 25.02909
#
# Velocity S-wave (km/s) = 3.41062 3.85299 3.63853
# Velocity P-wave (km/s) = 6.79790 7.59378 7.20684
#
# Compressibility (1/GPa) = 0.01722840
#
# Stress axis : x y z
#
# Youngs Moduli (GPa) = 61.77929 48.85627 126.07715
#
# Poissons Ratio (x) = 0.28575 0.31133
# Poissons Ratio (y) = 0.36134 0.67588
# Poissons Ratio (z) = 0.15255 0.26191
#
# Static dielectric constant tensor:
#      x y z
#    x 1.622180 0.000000 -0.000140 
#    y 0.000000 1.642370 0.000000 
#    z -0.000140 0.000000 1.638390 
# 
# From -- ./inp_files/303083.got.cif
#   From: 2010.05.17/outbox.cif.g08.bks.cpg/sg12_152_cif.got.tgz:303083.got - 2010.06.03 13:09:07.
