data_PCOD9215873
_publ_section_title
;
Structure prediction by ZEFSAII (Michael W. Deem and Ramdas Pophale) SiO2 
 PCOD9215873
Probable space group: C 2/M
;
_chemical_formula_sum "Si O2"
_cell_formula_units_Z 56
_cell_length_a 11.944177
_cell_length_b 31.389621
_cell_length_c 8.956433
_cell_angle_alpha 90.000000
_cell_angle_beta 56.447097
_cell_angle_gamma 90.000000
_cell_volume 2798.454776
_symmetry_space_group_name_H-M "C 2/M"
_symmetry_group_IT_number 12
_symmetry_cell_setting 'monoclinic'
loop_
_space_group_symop_operation_xyz
x,y,z
-x,y,-z
-x,-y,-z
x,-y,z
1/2+x,1/2+y,z
1/2-x,1/2+y,-z
1/2-x,1/2-y,-z
1/2+x,1/2-y,z
loop_
_atom_site_type_symbol
_atom_site_label
_atom_site_fract_x
_atom_site_fract_y
_atom_site_fract_z
Si Si1 0.014949 0.081413 0.809276
Si Si2 0.191369 0.448995 0.468363
Si Si3 0.085125 0.751079 0.093083
Si Si4 0.358632 0.000000 0.031698
Si Si5 0.586405 0.500000 0.289689
Si Si6 0.115021 0.343591 0.025799
Si Si7 0.915728 0.424857 0.778029
Si Si8 0.079219 0.166174 0.285213
O O1 0.939113 0.041467 0.791303
O O2 0.963544 0.126491 0.786660
O O3 0.165944 0.073963 0.637232
O O4 0.000000 0.079345 0.000000
O O5 0.204087 0.500000 0.472691
O O6 0.134003 0.438909 0.346562
O O7 0.077199 0.430858 0.662278
O O8 0.041622 0.788519 0.237054
O O9 0.250000 0.750000 0.000000
O O10 0.058365 0.700844 0.133062
O O11 0.000000 0.760219 0.000000
O O12 0.238176 0.000000 0.233936
O O13 0.500000 0.000000 0.000000
O O14 0.351580 0.958193 0.937464
O O15 0.500000 0.500000 0.500000
O O16 0.256670 0.336143 0.835668
O O17 0.130803 0.377992 0.143961
O O18 0.000000 0.360570 0.000000
O O19 0.000000 0.162318 0.500000
#
# Coordination Sequence:
#
# PCOD9215873 Si02
#       8
#     8   8   8   4   4   8   8   8
#     4  12  25  41  68  91 130 175 220 267 345 407
#     4  11  22  41  64  89 127 168 217 283 323 392
#     4   9  20  43  71  98 137 183 226 279 349 420
#     4  12  24  36  61  84 119 170 210 251 329 384
#     4  12  27  41  59  93 130 162 216 279 324 396
#     4  10  22  42  67  92 133 175 217 269 338 405
#     4  11  22  39  62  91 125 162 223 266 324 395
#     4  11  24  43  68 103 136 171 226 286 343 409
#
# _framework density 20.011043999999998
#
# number of rings (size 3 to 8) (size 9 to 14) (size 15 to 20)
#    0.000    1.143    2.143    4.500    4.000    1.143 
#    2.571    6.429    0.000    0.000    0.000    0.000 
#    0.000    0.000    0.000    0.000    0.000    0.000 
#
# Total GULP energy -156126.457888 kJ/mol
# GULP energy per Si atom -5575.944925 kJ/mol
# Density = 1.996550 g / cm^3
# Si number density = 20.011044 Si / 1000 Ang^3
#
#
#
# Elastic Constant Matrix: (Units=GPa)
#
#
# Indices 1 2 3 4 5 6 
#
# 1 103.2434 21.0288 47.0096 0.0000 -15.8530 0.0000
# 2 21.0288 124.0809 59.3716 0.0000 13.5411 0.0000
# 3 47.0096 59.3716 131.8723 0.0000 -10.5841 0.0000
# 4 0.0000 0.0000 0.0000 22.1931 0.0000 -3.6987
# 5 -15.8530 13.5411 -10.5841 0.0000 45.0179 0.0000
# 6 0.0000 0.0000 0.0000 -3.6987 0.0000 30.7077
#
#
#
# Elastic Compliance Matrix: (Units=1/GPa)
#
#
# Indices 1 2 3 4 5 6 
#
# 1 0.012060 -0.000654 -0.003718 0.000000 0.003570 0.000000
# 2 -0.000654 0.011176 -0.005184 0.000000 -0.004811 0.000000
# 3 -0.003718 -0.005184 0.011479 0.000000 0.002949 0.000000
# 4 0.000000 0.000000 0.000000 0.045982 0.000000 0.005538
# 5 0.003570 -0.004811 0.002949 0.000000 0.025611 0.000000
# 6 0.000000 0.000000 0.000000 0.005538 0.000000 0.033232
#
#
# Mechanical properties :
#
#
# Convention : Reuss Voigt Hill
#
# Bulk Modulus (GPa) = 64.09621 68.22410 66.16015
# Shear Modulus (GPa) = 30.51476 35.03618 32.77547
#
# Velocity S-wave (km/s) = 3.90923 4.18885 4.05145
# Velocity P-wave (km/s) = 7.24403 7.58699 7.41750
#
# Compressibility (1/GPa) = 0.01560155
#
# Stress axis : x y z
#
# Youngs Moduli (GPa) = 82.91732 89.47801 87.11293
#
# Poissons Ratio (x) = 0.05856 0.32389
# Poissons Ratio (y) = 0.05426 0.45164
# Poissons Ratio (z) = 0.30829 0.46390
#
# Static dielectric constant tensor:
#      x y z
#    x 1.791580 0.000000 -0.032660 
#    y 0.000000 1.689830 0.000000 
#    z -0.032660 0.000000 1.706020 
# 
# From -- ./inp_files/54623.got.cif
#   From: 2010.05.17/outbox.cif.g08.bks.cpg/sg12_28_cif.got.tgz:54623.got - 2010.06.03 13:09:07.
