data_PCOD9215205
_publ_section_title
;
Structure prediction by ZEFSAII (Michael W. Deem and Ramdas Pophale) SiO2 
 PCOD9215205
Probable space group: C 2/M
;
_chemical_formula_sum "Si O2"
_cell_formula_units_Z 56
_cell_length_a 15.464555
_cell_length_b 8.707394
_cell_length_c 25.041606
_cell_angle_alpha 90.000000
_cell_angle_beta 120.576943
_cell_angle_gamma 90.000000
_cell_volume 2903.114207
_symmetry_space_group_name_H-M "C 2/M"
_symmetry_group_IT_number 12
_symmetry_cell_setting 'monoclinic'
loop_
_space_group_symop_operation_xyz
x,y,z
-x,y,-z
-x,-y,-z
x,-y,z
1/2+x,1/2+y,z
1/2-x,1/2+y,-z
1/2-x,1/2-y,-z
1/2+x,1/2-y,z
loop_
_atom_site_type_symbol
_atom_site_label
_atom_site_fract_x
_atom_site_fract_y
_atom_site_fract_z
Si Si1 0.305745 0.684758 0.384002
Si Si2 0.578138 0.815273 0.291108
Si Si3 0.589691 0.683914 0.070253
Si Si4 0.777282 0.815997 0.066866
Si Si5 0.524541 0.317083 0.641231
Si Si6 0.498920 0.184875 0.150148
Si Si7 0.645627 0.817042 0.489401
O O1 0.307947 0.500000 0.393037
O O2 0.190158 0.734678 0.343281
O O3 0.366696 0.718688 0.349243
O O4 0.359437 0.763563 0.450942
O O5 0.498973 0.748841 0.308129
O O6 0.553214 0.773297 0.222612
O O7 0.576053 0.000000 0.294112
O O8 0.601716 0.500000 0.076056
O O9 0.691282 0.759942 0.080361
O O10 0.555983 0.747511 0.116879
O O11 0.500000 0.717970 0.000000
O O12 0.886344 0.750843 0.115816
O O13 0.780084 0.000000 0.065521
O O14 0.750000 0.750000 0.000000
O O15 0.512904 0.500000 0.638772
O O16 0.443271 0.248724 0.574639
O O17 0.495256 0.000000 0.144649
O O18 0.750000 0.750000 0.500000
O O19 0.646386 0.000000 0.485893
#
# Coordination Sequence:
#
# PCOD9215205 Si02
#       7
#     8   8   8   8   8   8   8
#     4  10  22  41  63  89 125 163 205 256 310 369
#     4  10  23  43  64  88 124 169 209 255 306 367
#     4  11  23  40  65  96 128 163 205 257 313 373
#     4  12  24  40  65  95 127 164 206 257 314 374
#     4  11  23  39  63  93 125 165 208 256 312 370
#     4  11  24  42  65  95 130 168 211 258 314 377
#     4  12  23  37  61  92 123 160 207 261 316 370
#
# _framework density 19.289629999999999
#
# number of rings (size 3 to 8) (size 9 to 14) (size 15 to 20)
#    0.000    1.000    2.857    4.286    0.000    5.714 
#    0.000    1.429    0.000    0.000    0.000    0.000 
#    0.000    0.000    0.000    0.000    0.000    0.000 
#
# Total GULP energy -156632.513072 kJ/mol
# GULP energy per Si atom -5594.018324 kJ/mol
# Density = 1.924573 g / cm^3
# Si number density = 19.289630 Si / 1000 Ang^3
#
#
#
# Elastic Constant Matrix: (Units=GPa)
#
#
# Indices 1 2 3 4 5 6 
#
# 1 113.9021 25.9142 26.5003 0.0000 -29.5719 0.0000
# 2 25.9142 50.3151 31.2609 0.0000 -14.0923 0.0000
# 3 26.5003 31.2609 93.5633 0.0000 -30.1418 0.0000
# 4 0.0000 0.0000 0.0000 26.9037 0.0000 -5.8719
# 5 -29.5719 -14.0923 -30.1418 0.0000 33.1215 0.0000
# 6 0.0000 0.0000 0.0000 -5.8719 0.0000 34.2245
#
#
#
# Elastic Compliance Matrix: (Units=1/GPa)
#
#
# Indices 1 2 3 4 5 6 
#
# 1 0.012065 -0.004141 0.001229 0.000000 0.010129 0.000000
# 2 -0.004141 0.026945 -0.007537 0.000000 0.000908 0.000000
# 3 0.001229 -0.007537 0.017230 0.000000 0.013571 0.000000
# 4 0.000000 0.000000 0.000000 0.038616 0.000000 0.006625
# 5 0.010129 0.000908 0.013571 0.000000 0.051972 0.000000
# 6 0.000000 0.000000 0.000000 0.006625 0.000000 0.030356
#
#
# Mechanical properties :
#
#
# Convention : Reuss Voigt Hill
#
# Bulk Modulus (GPa) = 28.29469 47.23680 37.76575
# Shear Modulus (GPa) = 23.82526 30.45694 27.14110
#
# Velocity S-wave (km/s) = 3.51826 3.97788 3.75511
# Velocity P-wave (km/s) = 5.58609 6.75570 6.19854
#
# Compressibility (1/GPa) = 0.03534232
#
# Stress axis : x y z
#
# Youngs Moduli (GPa) = 82.88175 37.11298 58.03875
#
# Poissons Ratio (x) = 0.15368 -0.07135
# Poissons Ratio (y) = 0.34321 0.43746
# Poissons Ratio (z) = -0.10190 0.27973
#
# Static dielectric constant tensor:
#      x y z
#    x 1.712730 0.000000 -0.045140 
#    y 0.000000 1.647160 0.000000 
#    z -0.045140 0.000000 1.683260 
# 
# From -- ./inp_files/338431.got.cif
#   From: 2010.05.17/outbox.cif.g08.bks.cpg/sg12_170_cif.got.tgz:338431.got - 2010.06.03 13:09:07.
