data_PCOD9215758
_publ_section_title
;
Structure prediction by ZEFSAII (Michael W. Deem and Ramdas Pophale) SiO2 
 PCOD9215758
Probable space group: C 2/M
;
_chemical_formula_sum "Si O2"
_cell_formula_units_Z 58
_cell_length_a 15.122680
_cell_length_b 15.028207
_cell_length_c 13.910007
_cell_angle_alpha 90.000000
_cell_angle_beta 129.523838
_cell_angle_gamma 90.000000
_cell_volume 2438.486319
_symmetry_space_group_name_H-M "C 2/M"
_symmetry_group_IT_number 12
_symmetry_cell_setting 'monoclinic'
loop_
_space_group_symop_operation_xyz
x,y,z
-x,y,-z
-x,-y,-z
x,-y,z
1/2+x,1/2+y,z
1/2-x,1/2+y,-z
1/2-x,1/2-y,-z
1/2+x,1/2-y,z
loop_
_atom_site_type_symbol
_atom_site_label
_atom_site_fract_x
_atom_site_fract_y
_atom_site_fract_z
Si Si1 0.947257 0.334967 0.769571
Si Si2 0.301682 0.897480 0.307971
Si Si3 0.309011 0.396366 0.365152
Si Si4 0.131578 0.736385 0.478400
Si Si5 0.541393 0.360937 0.173450
Si Si6 0.141141 0.105856 0.814390
Si Si7 0.500000 0.500000 0.000000
Si Si8 0.691928 0.895656 0.907718
O O1 0.826853 0.383495 0.705902
O O2 0.947896 0.304816 0.657954
O O3 0.951793 0.244350 0.834800
O O4 0.064325 0.387388 0.862843
O O5 0.356676 0.833164 0.425536
O O6 0.167277 0.899989 0.244068
O O7 0.305298 0.862632 0.200733
O O8 0.345472 0.000000 0.341788
O O9 0.338893 0.500000 0.396088
O O10 0.382866 0.332507 0.484204
O O11 0.328747 0.362894 0.270537
O O12 0.250000 0.750000 0.500000
O O13 0.487942 0.377161 0.240776
O O14 0.464087 0.420954 0.050873
O O15 0.161013 0.000000 0.824755
O O16 0.221876 0.145284 0.954143
O O17 0.718330 0.000000 0.915432
#
# Coordination Sequence:
#
# PCOD9215758 Si02
#       8
#     8   8   8   8   8   8   2   8
#     4  11  25  44  64 101 133 179 228 277 335 406
#     4  11  22  41  68  99 135 179 222 280 344 399
#     4  10  22  43  71  96 132 178 226 279 337 403
#     4  10  22  44  64  98 132 174 230 277 335 399
#     4  12  23  39  67  96 136 173 218 275 342 395
#     4  10  22  42  64  97 133 169 221 274 335 408
#     4  12  24  40  64 100 136 176 220 280 326 418
#     4  10  24  43  67  99 137 179 222 275 341 405
#
# _framework density 23.785246000000001
#
# number of rings (size 3 to 8) (size 9 to 14) (size 15 to 20)
#    0.000    1.379    4.138    1.241    3.862    5.517 
#    1.241    3.448    0.000    1.655    0.000    0.000 
#    0.000    0.000    0.000    0.000    0.000    0.000 
#
# Total GULP energy -161849.367008 kJ/mol
# GULP energy per Si atom -5581.012655 kJ/mol
# Density = 2.373111 g / cm^3
# Si number density = 23.785246 Si / 1000 Ang^3
#
#
#
# Elastic Constant Matrix: (Units=GPa)
#
#
# Indices 1 2 3 4 5 6 
#
# 1 114.7576 0.1527 39.1645 0.0000 -13.3174 0.0000
# 2 0.1527 102.4825 26.6719 0.0000 -17.8970 0.0000
# 3 39.1645 26.6719 68.8698 0.0000 -21.8141 0.0000
# 4 0.0000 0.0000 0.0000 51.5669 0.0000 -25.7268
# 5 -13.3174 -17.8970 -21.8141 0.0000 41.7273 0.0000
# 6 0.0000 0.0000 0.0000 -25.7268 0.0000 68.9756
#
#
#
# Elastic Compliance Matrix: (Units=1/GPa)
#
#
# Indices 1 2 3 4 5 6 
#
# 1 0.011128 0.001896 -0.006807 0.000000 0.000806 0.000000
# 2 0.001896 0.011485 -0.004523 0.000000 0.003166 0.000000
# 3 -0.006807 -0.004523 0.022579 0.000000 0.007691 0.000000
# 4 0.000000 0.000000 0.000000 0.023826 0.000000 0.008887
# 5 0.000806 0.003166 0.007691 0.000000 0.029601 0.000000
# 6 0.000000 0.000000 0.000000 0.008887 0.000000 0.017812
#
#
# Mechanical properties :
#
#
# Convention : Reuss Voigt Hill
#
# Bulk Modulus (GPa) = 37.98892 46.45423 42.22157
# Shear Modulus (GPa) = 34.70401 47.12869 40.91635
#
# Velocity S-wave (km/s) = 3.82390 4.45615 4.15208
# Velocity P-wave (km/s) = 5.95841 6.78597 6.38561
#
# Compressibility (1/GPa) = 0.02632347
#
# Stress axis : x y z
#
# Youngs Moduli (GPa) = 89.86167 87.06947 44.28869
#
# Poissons Ratio (x) = -0.16507 0.30148
# Poissons Ratio (y) = -0.17036 0.20032
# Poissons Ratio (z) = 0.61171 0.39382
#
# Static dielectric constant tensor:
#      x y z
#    x 1.905790 0.000000 0.016490 
#    y 0.000000 1.909940 0.000000 
#    z 0.016490 0.000000 2.027910 
# 
# From -- ./inp_files/215245.got.cif
#   From: 2010.05.17/outbox.cif.g08.bks.cpg/sg12_108_cif.got.tgz:215245.got - 2010.06.03 13:09:07.
