data_PCOD9215965
_publ_section_title
;
Structure prediction by ZEFSAII (Michael W. Deem and Ramdas Pophale) SiO2 
 PCOD9215965
Probable space group: C 2/M
;
_chemical_formula_sum "Si O2"
_cell_formula_units_Z 48
_cell_length_a 14.624957
_cell_length_b 14.283779
_cell_length_c 12.762077
_cell_angle_alpha 90.000000
_cell_angle_beta 61.730054
_cell_angle_gamma 90.000000
_cell_volume 2348.009524
_symmetry_space_group_name_H-M "C 2/M"
_symmetry_group_IT_number 12
_symmetry_cell_setting 'monoclinic'
loop_
_space_group_symop_operation_xyz
x,y,z
-x,y,-z
-x,-y,-z
x,-y,z
1/2+x,1/2+y,z
1/2-x,1/2+y,-z
1/2-x,1/2-y,-z
1/2+x,1/2-y,z
loop_
_atom_site_type_symbol
_atom_site_label
_atom_site_fract_x
_atom_site_fract_y
_atom_site_fract_z
Si Si1 0.021909 0.711746 0.368062
Si Si2 0.845029 0.603817 0.066901
Si Si3 0.395569 0.702289 0.112918
Si Si4 0.814992 0.276290 0.360907
Si Si5 0.846274 0.891612 0.695253
Si Si6 0.305730 0.109033 0.851345
O O1 0.056940 0.821436 0.346453
O O2 0.119537 0.654592 0.273804
O O3 0.000000 0.689015 0.500000
O O4 0.923716 0.688030 0.349190
O O5 0.878523 0.500000 0.080572
O O6 0.899692 0.685508 0.099698
O O7 0.722268 0.609579 0.161312
O O8 0.856914 0.617798 0.937472
O O9 0.354551 0.695720 0.256151
O O10 0.301677 0.664050 0.094614
O O11 0.500000 0.665170 0.000000
O O12 0.750000 0.250000 0.500000
O O13 0.736106 0.346165 0.342576
O O14 0.871328 0.000000 0.657244
O O15 0.287074 0.000000 0.841089
#
# Coordination Sequence:
#
# PCOD9215965 Si02
#       6
#     8   8   8   8   8   8
#     4  12  23  42  70  91 130 172 223 271 334 394
#     4   9  19  37  63  91 121 161 209 260 323 392
#     4  11  22  37  62  91 130 169 210 268 333 385
#     4  11  22  42  64  95 132 173 213 269 327 399
#     4  10  22  42  68  99 132 168 218 274 329 395
#     4  11  23  40  61  91 129 171 219 269 328 398
#
# _framework density 20.442847
#
# number of rings (size 3 to 8) (size 9 to 14) (size 15 to 20)
#    0.000    1.333    5.000    1.500    2.333    2.000 
#    0.000    6.667    0.000    0.000    0.000    0.000 
#    0.000    0.000    0.000    0.000    0.000    0.000 
#
# Total GULP energy -133753.896717 kJ/mol
# GULP energy per Si atom -5573.079030 kJ/mol
# Density = 2.039632 g / cm^3
# Si number density = 20.442847 Si / 1000 Ang^3
#
#
#
# Elastic Constant Matrix: (Units=GPa)
#
#
# Indices 1 2 3 4 5 6 
#
# 1 71.0536 11.1231 5.1902 0.0000 -11.4953 0.0000
# 2 11.1231 57.1830 29.6385 0.0000 7.0910 0.0000
# 3 5.1902 29.6385 115.3105 0.0000 -12.6722 0.0000
# 4 0.0000 0.0000 0.0000 9.7472 0.0000 5.3589
# 5 -11.4953 7.0910 -12.6722 0.0000 33.0559 0.0000
# 6 0.0000 0.0000 0.0000 5.3589 0.0000 7.4223
#
#
#
# Elastic Compliance Matrix: (Units=1/GPa)
#
#
# Indices 1 2 3 4 5 6 
#
# 1 0.015826 -0.004578 0.001229 0.000000 0.006957 0.000000
# 2 -0.004578 0.022977 -0.006699 0.000000 -0.009089 0.000000
# 3 0.001229 -0.006699 0.011007 0.000000 0.006084 0.000000
# 4 0.000000 0.000000 0.000000 0.170124 0.000000 -0.122830
# 5 0.006957 -0.009089 0.006084 0.000000 0.036953 0.000000
# 6 0.000000 0.000000 0.000000 -0.122830 0.000000 0.223412
#
#
# Mechanical properties :
#
#
# Convention : Reuss Voigt Hill
#
# Bulk Modulus (GPa) = 33.65291 37.27229 35.46260
# Shear Modulus (GPa) = 9.79814 23.21811 16.50813
#
# Velocity S-wave (km/s) = 2.19165 3.37376 2.84478
# Velocity P-wave (km/s) = 4.78562 5.78345 5.30804
#
# Compressibility (1/GPa) = 0.02971511
#
# Stress axis : x y z
#
# Youngs Moduli (GPa) = 63.18598 43.52117 90.84863
#
# Poissons Ratio (x) = 0.19925 -0.11164
# Poissons Ratio (y) = 0.28927 0.60857
# Poissons Ratio (z) = -0.07765 0.29154
#
# Static dielectric constant tensor:
#      x y z
#    x 1.740590 0.000000 -0.019090 
#    y 0.000000 1.732900 0.000000 
#    z -0.019090 0.000000 1.785980 
# 
# From -- ./inp_files/143562.got.cif
#   From: 2010.05.17/outbox.cif.g08.bks.cpg/sg12_72_cif.got.tgz:143562.got - 2010.06.03 13:09:07.
