data_PCOD9215980
_publ_section_title
;
Structure prediction by ZEFSAII (Michael W. Deem and Ramdas Pophale) SiO2 
 PCOD9215980
Probable space group: C 2/M
;
_chemical_formula_sum "Si O2"
_cell_formula_units_Z 44
_cell_length_a 9.371005
_cell_length_b 9.982493
_cell_length_c 22.917874
_cell_angle_alpha 90.000000
_cell_angle_beta 46.070230
_cell_angle_gamma 90.000000
_cell_volume 1543.999092
_symmetry_space_group_name_H-M "C 2/M"
_symmetry_group_IT_number 12
_symmetry_cell_setting 'monoclinic'
loop_
_space_group_symop_operation_xyz
x,y,z
-x,y,-z
-x,-y,-z
x,-y,z
1/2+x,1/2+y,z
1/2-x,1/2+y,-z
1/2-x,1/2-y,-z
1/2+x,1/2-y,z
loop_
_atom_site_type_symbol
_atom_site_label
_atom_site_fract_x
_atom_site_fract_y
_atom_site_fract_z
Si Si1 0.677397 0.500000 0.062698
Si Si2 0.734157 0.500000 0.919810
Si Si3 0.586065 0.167060 0.410607
Si Si4 0.602365 0.500000 0.667215
Si Si5 0.899293 0.334323 0.344828
Si Si6 0.184166 0.801655 0.833736
Si Si7 0.797349 0.500000 0.152774
Si Si8 0.091094 0.000000 0.407888
O O1 0.525536 0.375916 0.111748
O O2 0.812639 0.500000 0.079804
O O3 0.802093 0.500000 0.967460
O O4 0.767682 0.368638 0.870492
O O5 0.500000 0.500000 0.000000
O O6 0.500000 0.158568 0.500000
O O7 0.410692 0.166165 0.411884
O O8 0.648685 0.333461 0.390081
O O9 0.653167 0.000000 0.382931
O O10 0.648819 0.670837 0.658052
O O11 0.435738 0.500000 0.764725
O O12 0.525726 0.500000 0.621369
O O13 0.857071 0.500000 0.339365
O O14 0.139320 0.333042 0.260797
O O15 0.142396 0.644725 0.840873
O O16 0.000000 0.000000 0.500000
#
# Coordination Sequence:
#
# PCOD9215980 Si02
#       8
#     4   4   8   4   8   8   4   4
#     4  10  23  47  74 101 150 191 231 296 374 445
#     4   8  19  45  72 102 145 189 234 292 367 451
#     4  12  24  42  64  93 132 186 238 302 365 429
#     4  12  24  42  63  94 141 178 245 305 358 432
#     4  12  24  41  66  94 137 181 241 300 369 428
#     4  10  22  42  69 104 140 190 242 295 363 440
#     4  12  24  40  72 105 143 186 241 298 361 436
#     4  12  25  42  63  96 132 186 252 312 363 434
#
# _framework density 28.497423999999999
#
# number of rings (size 3 to 8) (size 9 to 14) (size 15 to 20)
#    0.000    1.091    1.818    6.273    0.000    0.727 
#    0.000    5.909    0.000    0.000    0.000    0.000 
#    0.000    0.000    0.000    0.000    0.000    0.000 
#
# Total GULP energy -123049.707187 kJ/mol
# GULP energy per Si atom -5593.168508 kJ/mol
# Density = 2.843256 g / cm^3
# Si number density = 28.497424 Si / 1000 Ang^3
#
#
#
# Elastic Constant Matrix: (Units=GPa)
#
#
# Indices 1 2 3 4 5 6 
#
# 1 118.1307 28.6491 9.9679 0.0000 6.8999 0.0000
# 2 28.6491 272.7103 -16.4656 0.0000 -25.6420 0.0000
# 3 9.9679 -16.4656 100.4512 0.0000 -7.2753 0.0000
# 4 0.0000 0.0000 0.0000 -37.9817 0.0000 34.3357
# 5 6.8999 -25.6420 -7.2753 0.0000 41.4621 0.0000
# 6 0.0000 0.0000 0.0000 34.3357 0.0000 63.8676
#
#
#
# Elastic Compliance Matrix: (Units=1/GPa)
#
#
# Indices 1 2 3 4 5 6 
#
# 1 0.009026 -0.001262 -0.001284 0.000000 -0.002508 0.000000
# 2 -0.001262 0.004138 0.001017 0.000000 0.002947 0.000000
# 3 -0.001284 0.001017 0.010443 0.000000 0.002675 0.000000
# 4 0.000000 0.000000 0.000000 -0.017718 0.000000 0.009525
# 5 -0.002508 0.002947 0.002675 0.000000 0.026828 0.000000
# 6 0.000000 0.000000 0.000000 0.009525 0.000000 0.010537
#
#
# Mechanical properties :
#
#
# Convention : Reuss Voigt Hill
#
# Bulk Modulus (GPa) = 48.66275 59.51056 54.08666
# Shear Modulus (GPa) = 94.05423 44.74566 69.39995
#
# Velocity S-wave (km/s) = 5.75118 3.96683 4.94024
# Velocity P-wave (km/s) = 7.82399 6.47372 7.18066
#
# Compressibility (1/GPa) = 0.02054960
#
# Stress axis : x y z
#
# Youngs Moduli (GPa) = 110.79164 241.66485 95.75854
#
# Poissons Ratio (x) = 0.30486 0.12296
# Poissons Ratio (y) = 0.13976 -0.09738
# Poissons Ratio (z) = 0.14226 -0.24576
#
# Static dielectric constant tensor:
#      x y z
#    x 2.269400 0.000000 -0.008640 
#    y 0.000000 2.254630 0.000000 
#    z -0.008640 0.000000 2.099520 
# 
# From -- ./inp_files/337758.got.cif
#   From: 2010.05.17/outbox.cif.g08.bks.cpg/sg12_169_cif.got.tgz:337758.got - 2010.06.03 13:09:07.
