data_PCOD9215058
_publ_section_title
;
Structure prediction by ZEFSAII (Michael W. Deem and Ramdas Pophale) SiO2 
 PCOD9215058
Probable space group: C 2/M
;
_chemical_formula_sum "Si O2"
_cell_formula_units_Z 48
_cell_length_a 8.345058
_cell_length_b 18.690552
_cell_length_c 18.043098
_cell_angle_alpha 90.000000
_cell_angle_beta 66.576626
_cell_angle_gamma 90.000000
_cell_volume 2582.334309
_symmetry_space_group_name_H-M "C 2/M"
_symmetry_group_IT_number 12
_symmetry_cell_setting 'monoclinic'
loop_
_space_group_symop_operation_xyz
x,y,z
-x,y,-z
-x,-y,-z
x,-y,z
1/2+x,1/2+y,z
1/2-x,1/2+y,-z
1/2-x,1/2-y,-z
1/2+x,1/2-y,z
loop_
_atom_site_type_symbol
_atom_site_label
_atom_site_fract_x
_atom_site_fract_y
_atom_site_fract_z
Si Si1 0.946233 0.813672 0.666973
Si Si2 0.346147 0.917873 0.238277
Si Si3 0.633482 0.199172 0.189562
Si Si4 0.308802 0.082255 0.067432
Si Si5 0.677749 0.790868 0.441349
Si Si6 0.975023 0.799258 0.918288
O O1 0.826486 0.883034 0.695369
O O2 0.907441 0.762509 0.744660
O O3 0.882215 0.767147 0.608539
O O4 0.152127 0.830067 0.622418
O O5 0.508790 0.867370 0.228706
O O6 0.321884 0.914042 0.153875
O O7 0.372701 0.000000 0.254415
O O8 0.588091 0.231375 0.117277
O O9 0.837036 0.180317 0.150656
O O10 0.164925 0.137772 0.066062
O O11 0.265267 0.000000 0.054455
O O12 0.500000 0.098121 0.000000
O O13 0.500000 0.830400 0.500000
O O14 0.750000 0.750000 0.500000
O O15 0.000000 0.782859 0.000000
#
# Coordination Sequence:
#
# PCOD9215058 Si02
#       6
#     8   8   8   8   8   8
#     4  11  18  37  61  88 121 150 192 247 283 355
#     4  11  23  39  60  87 123 165 200 245 310 355
#     4  12  22  37  58  88 118 154 203 253 295 344
#     4  10  22  41  58  79 120 166 208 253 306 360
#     4   9  19  33  61  97 116 145 191 240 292 351
#     4  12  23  35  57  84 118 155 210 256 306 346
#
# _framework density 18.587833
#
# number of rings (size 3 to 8) (size 9 to 14) (size 15 to 20)
#    0.000    1.167    5.000    1.500    0.000    2.333 
#    0.000    0.000    0.000    5.000    0.000    0.000 
#    0.000    0.000    0.000    0.000    0.000    0.000 
#
# Total GULP energy -134070.131106 kJ/mol
# GULP energy per Si atom -5586.255463 kJ/mol
# Density = 1.854553 g / cm^3
# Si number density = 18.587833 Si / 1000 Ang^3
#
#
#
# Elastic Constant Matrix: (Units=GPa)
#
#
# Indices 1 2 3 4 5 6 
#
# 1 100.9720 42.6405 27.8951 0.0000 -44.1304 0.0000
# 2 42.6405 106.6931 14.0482 0.0000 -25.3807 0.0000
# 3 27.8951 14.0482 69.2772 0.0000 -27.0979 0.0000
# 4 0.0000 0.0000 0.0000 5.3678 0.0000 0.8787
# 5 -44.1304 -25.3807 -27.0979 0.0000 58.2454 0.0000
# 6 0.0000 0.0000 0.0000 0.8787 0.0000 23.3296
#
#
#
# Elastic Compliance Matrix: (Units=1/GPa)
#
#
# Indices 1 2 3 4 5 6 
#
# 1 0.016398 -0.003968 -0.001974 0.000000 0.009776 0.000000
# 2 -0.003968 0.011426 0.000064 0.000000 0.002003 0.000000
# 3 -0.001974 0.000064 0.017900 0.000000 0.006860 0.000000
# 4 0.000000 0.000000 0.000000 0.187450 0.000000 -0.007060
# 5 0.009776 0.002003 0.006860 0.000000 0.028640 0.000000
# 6 0.000000 0.000000 0.000000 -0.007060 0.000000 0.043130
#
#
# Mechanical properties :
#
#
# Convention : Reuss Voigt Hill
#
# Bulk Modulus (GPa) = 29.43927 49.56776 39.50351
# Shear Modulus (GPa) = 15.24285 30.21247 22.72766
#
# Velocity S-wave (km/s) = 2.86675 4.03599 3.50053
# Velocity P-wave (km/s) = 5.17977 6.96014 6.13488
#
# Compressibility (1/GPa) = 0.03396824
#
# Stress axis : x y z
#
# Youngs Moduli (GPa) = 60.98486 87.51665 55.86622
#
# Poissons Ratio (x) = 0.34725 0.11028
# Poissons Ratio (y) = 0.24197 -0.00357
# Poissons Ratio (z) = 0.12038 -0.00559
#
# Static dielectric constant tensor:
#      x y z
#    x 1.656960 0.000000 -0.022190 
#    y 0.000000 1.548330 0.000000 
#    z -0.022190 0.000000 1.683330 
# 
# From -- ./inp_files/195966.got.cif
#   From: 2010.05.17/outbox.cif.g08.bks.cpg/sg12_98_cif.got.tgz:195966.got - 2010.06.03 13:09:07.
