data_PCOD9215831
_publ_section_title
;
Structure prediction by ZEFSAII (Michael W. Deem and Ramdas Pophale) SiO2 
 PCOD9215831
Probable space group: C 2/M
;
_chemical_formula_sum "Si O2"
_cell_formula_units_Z 64
_cell_length_a 19.450441
_cell_length_b 9.064728
_cell_length_c 30.876013
_cell_angle_alpha 90.000000
_cell_angle_beta 38.149190
_cell_angle_gamma 90.000000
_cell_volume 3362.721942
_symmetry_space_group_name_H-M "C 2/M"
_symmetry_group_IT_number 12
_symmetry_cell_setting 'monoclinic'
loop_
_space_group_symop_operation_xyz
x,y,z
-x,y,-z
-x,-y,-z
x,-y,z
1/2+x,1/2+y,z
1/2-x,1/2+y,-z
1/2-x,1/2-y,-z
1/2+x,1/2-y,z
loop_
_atom_site_type_symbol
_atom_site_label
_atom_site_fract_x
_atom_site_fract_y
_atom_site_fract_z
Si Si1 0.763498 0.328783 0.947619
Si Si2 0.369017 0.676576 0.569266
Si Si3 0.792645 0.175401 0.284841
Si Si4 0.285481 0.176726 0.437377
Si Si5 0.515942 0.672469 0.298033
Si Si6 0.757063 0.326805 0.212946
Si Si7 0.488574 0.171492 0.786887
Si Si8 0.631683 0.823220 0.934442
O O1 0.731688 0.500000 0.966856
O O2 0.892932 0.321402 0.869992
O O3 0.692768 0.255093 0.944104
O O4 0.750000 0.250000 0.000000
O O5 0.500000 0.709226 0.500000
O O6 0.357389 0.500000 0.582256
O O7 0.313732 0.762390 0.636522
O O8 0.299751 0.712590 0.559764
O O9 0.792836 0.227396 0.235157
O O10 0.898557 0.252277 0.254361
O O11 0.798433 0.000000 0.285685
O O12 0.250000 0.250000 0.500000
O O13 0.407447 0.238335 0.365829
O O14 0.287592 0.000000 0.440508
O O15 0.487501 0.500000 0.307905
O O16 0.623474 0.684822 0.275051
O O17 0.553097 0.739524 0.233968
O O18 0.784470 0.500000 0.207521
O O19 0.814112 0.284778 0.139017
O O20 0.508785 0.000000 0.765853
O O21 0.645192 0.000000 0.932812
O O22 0.500000 0.789936 0.000000
#
# Coordination Sequence:
#
# PCOD9215831 Si02
#       8
#     8   8   8   8   8   8   8   8
#     4  11  25  42  65  94 127 166 211 262 314 373
#     4  10  23  44  66  89 124 169 211 253 311 374
#     4  12  26  41  64  96 128 164 210 262 310 368
#     4  11  24  41  64  93 127 167 208 259 313 371
#     4  11  22  40  67  94 123 162 209 262 315 371
#     4  10  23  42  64  91 128 169 208 255 314 376
#     4  11  23  42  66  91 124 166 209 259 317 374
#     4  10  22  42  66  93 127 168 211 256 313 376
#
# _framework density 19.032201000000001
#
# number of rings (size 3 to 8) (size 9 to 14) (size 15 to 20)
#    0.000    1.250    2.500    2.625    3.500    4.000 
#    0.000    0.000    0.000    0.000    0.000    0.000 
#    0.000    0.000    0.000    0.000    0.000    0.000 
#
# Total GULP energy -178869.844136 kJ/mol
# GULP energy per Si atom -5589.682629 kJ/mol
# Density = 1.898888 g / cm^3
# Si number density = 19.032201 Si / 1000 Ang^3
#
#
#
# Elastic Constant Matrix: (Units=GPa)
#
#
# Indices 1 2 3 4 5 6 
#
# 1 46.7014 27.9306 20.2531 0.0000 3.5814 -0.0005
# 2 27.9306 57.2762 25.2667 0.0002 -1.0211 -0.0010
# 3 20.2531 25.2667 81.0599 0.0000 0.4416 0.0002
# 4 0.0000 0.0002 0.0000 30.8870 0.0000 5.9413
# 5 3.5814 -1.0211 0.4416 0.0000 33.8178 0.0002
# 6 -0.0005 -0.0010 0.0002 5.9413 0.0002 33.0012
#
#
#
# Elastic Compliance Matrix: (Units=1/GPa)
#
#
# Indices 1 2 3 4 5 6 
#
# 1 0.031533 -0.013886 -0.003530 0.000000 -0.003713 0.000000
# 2 -0.013886 0.026374 -0.004764 0.000000 0.002329 0.000001
# 3 -0.003530 -0.004764 0.014703 0.000000 0.000038 0.000000
# 4 0.000000 0.000000 0.000000 0.033538 0.000000 -0.006038
# 5 -0.003713 0.002329 0.000038 0.000000 0.030033 0.000000
# 6 0.000000 0.000001 0.000000 -0.006038 0.000000 0.031389
#
#
# Mechanical properties :
#
#
# Convention : Reuss Voigt Hill
#
# Bulk Modulus (GPa) = 35.39828 36.88203 36.14016
# Shear Modulus (GPa) = 22.58901 26.98033 24.78467
#
# Velocity S-wave (km/s) = 3.44886 3.76921 3.61258
# Velocity P-wave (km/s) = 5.87358 6.19382 6.03583
#
# Compressibility (1/GPa) = 0.02824996
#
# Stress axis : x y z
#
# Youngs Moduli (GPa) = 31.71288 37.91637 68.01174
#
# Poissons Ratio (x) = 0.52650 0.24009
# Poissons Ratio (y) = 0.44036 0.32401
# Poissons Ratio (z) = 0.11195 0.18064
#
# Static dielectric constant tensor:
#      x y z
#    x 1.663160 0.000000 0.000150 
#    y 0.000000 1.636470 0.000000 
#    z 0.000150 0.000000 1.672600 
# 
# From -- ./inp_files/378007.got.cif
#   From: 2010.05.17/outbox.cif.g08.bks.cpg/sg12_190_cif.got.tgz:378007.got - 2010.06.03 13:09:07.
