data_PCOD9215842
_publ_section_title
;
Structure prediction by ZEFSAII (Michael W. Deem and Ramdas Pophale) SiO2 
 PCOD9215842
Probable space group: C 2/M
;
_chemical_formula_sum "Si O2"
_cell_formula_units_Z 64
_cell_length_a 19.539864
_cell_length_b 8.688965
_cell_length_c 31.198439
_cell_angle_alpha 90.000000
_cell_angle_beta 38.060865
_cell_angle_gamma 90.000000
_cell_volume 3265.534539
_symmetry_space_group_name_H-M "C 2/M"
_symmetry_group_IT_number 12
_symmetry_cell_setting 'monoclinic'
loop_
_space_group_symop_operation_xyz
x,y,z
-x,y,-z
-x,-y,-z
x,-y,z
1/2+x,1/2+y,z
1/2-x,1/2+y,-z
1/2-x,1/2-y,-z
1/2+x,1/2-y,z
loop_
_atom_site_type_symbol
_atom_site_label
_atom_site_fract_x
_atom_site_fract_y
_atom_site_fract_z
Si Si1 0.478679 0.178355 0.199210
Si Si2 0.714680 0.816061 0.563383
Si Si3 0.251993 0.319149 0.289168
Si Si4 0.872016 0.819432 0.942945
Si Si5 0.718922 0.683099 0.218238
Si Si6 0.628926 0.815534 0.439418
Si Si7 0.964558 0.314157 0.065389
Si Si8 0.011609 0.817977 0.713103
O O1 0.361769 0.215843 0.234937
O O2 0.568579 0.281978 0.131202
O O3 0.466062 0.226748 0.254437
O O4 0.507174 0.000000 0.180417
O O5 0.750000 0.750000 0.500000
O O6 0.803119 0.766869 0.556445
O O7 0.597217 0.743583 0.635596
O O8 0.706792 0.000000 0.565518
O O9 0.281587 0.500000 0.274784
O O10 0.192119 0.275297 0.274769
O O11 0.184571 0.286883 0.365711
O O12 0.948387 0.746138 0.942456
O O13 0.865744 0.000000 0.953400
O O14 0.750000 0.750000 0.000000
O O15 0.725222 0.500000 0.224491
O O16 0.838324 0.732027 0.140045
O O17 0.615986 0.704677 0.237190
O O18 0.500000 0.770425 0.500000
O O19 0.634191 0.000000 0.444762
O O20 0.967402 0.500000 0.064846
O O21 0.000000 0.264506 0.000000
O O22 0.031844 0.000000 0.709814
#
# Coordination Sequence:
#
# PCOD9215842 Si02
#       8
#     8   8   8   8   8   8   8   8
#     4  12  24  42  67  96 129 169 216 267 320 380
#     4  12  26  44  66  93 129 172 215 267 323 385
#     4  11  22  39  66  95 128 167 210 267 321 375
#     4  12  26  44  67  97 130 170 216 268 323 381
#     4  10  23  41  64  94 130 169 211 262 318 378
#     4  10  23  43  66  95 129 167 213 266 322 381
#     4  10  22  42  66  94 130 170 211 261 318 379
#     4  11  24  43  66  97 132 171 216 265 322 382
#
# _framework density 19.598628999999999
#
# number of rings (size 3 to 8) (size 9 to 14) (size 15 to 20)
#    0.000    1.000    2.500    4.125    3.500    2.000 
#    0.000    0.000    0.000    0.000    0.000    0.000 
#    0.000    0.000    0.000    0.000    0.000    0.000 
#
# Total GULP energy -178946.389295 kJ/mol
# GULP energy per Si atom -5592.074665 kJ/mol
# Density = 1.955402 g / cm^3
# Si number density = 19.598629 Si / 1000 Ang^3
#
#
#
# Elastic Constant Matrix: (Units=GPa)
#
#
# Indices 1 2 3 4 5 6 
#
# 1 53.0745 19.0862 20.4616 -0.0006 -3.1183 0.0064
# 2 19.0862 48.0611 8.9451 0.0031 -5.2598 -0.0024
# 3 20.4616 8.9451 95.3473 0.0018 -4.3243 -0.0003
# 4 -0.0006 0.0031 0.0018 28.5405 0.0003 1.1974
# 5 -3.1183 -5.2598 -4.3243 0.0003 41.1924 0.0002
# 6 0.0064 -0.0024 -0.0003 1.1974 0.0002 33.2786
#
#
#
# Elastic Compliance Matrix: (Units=1/GPa)
#
#
# Indices 1 2 3 4 5 6 
#
# 1 0.023564 -0.008541 -0.004244 0.000002 0.000248 -0.000005
# 2 -0.008541 0.024533 -0.000358 -0.000003 0.002449 0.000004
# 3 -0.004244 -0.000358 0.011470 -0.000001 0.000837 0.000001
# 4 0.000002 -0.000003 -0.000001 0.035091 -0.000001 -0.001263
# 5 0.000248 0.002449 0.000837 -0.000001 0.024696 0.000000
# 6 -0.000005 0.000004 0.000001 -0.001263 0.000000 0.030095
#
#
# Mechanical properties :
#
#
# Convention : Reuss Voigt Hill
#
# Bulk Modulus (GPa) = 30.04649 32.60763 31.32706
# Shear Modulus (GPa) = 26.76267 30.46830 28.61548
#
# Velocity S-wave (km/s) = 3.69933 3.94714 3.82524
# Velocity P-wave (km/s) = 5.79749 6.11940 5.96062
#
# Compressibility (1/GPa) = 0.03328176
#
# Stress axis : x y z
#
# Youngs Moduli (GPa) = 42.43838 40.76130 87.18146
#
# Poissons Ratio (x) = 0.34813 0.37002
# Poissons Ratio (y) = 0.36245 0.03119
# Poissons Ratio (z) = 0.18012 0.01458
#
# Static dielectric constant tensor:
#      x y z
#    x 1.671870 0.000000 0.007630 
#    y 0.000000 1.661190 0.000000 
#    z 0.007630 0.000000 1.692970 
# 
# From -- ./inp_files/378098.got.cif
#   From: 2010.05.17/outbox.cif.g08.bks.cpg/sg12_190_cif.got.tgz:378098.got - 2010.06.03 13:09:07.
