data_PCOD9215653
_publ_section_title
;
Structure prediction by ZEFSAII (Michael W. Deem and Ramdas Pophale) SiO2 
 PCOD9215653
Probable space group: C 2/M
;
_chemical_formula_sum "Si O2"
_cell_formula_units_Z 20
_cell_length_a 5.108197
_cell_length_b 22.768756
_cell_length_c 9.352307
_cell_angle_alpha 90.000000
_cell_angle_beta 127.288430
_cell_angle_gamma 90.000000
_cell_volume 865.402601
_symmetry_space_group_name_H-M "C 2/M"
_symmetry_group_IT_number 12
_symmetry_cell_setting 'monoclinic'
loop_
_space_group_symop_operation_xyz
x,y,z
-x,y,-z
-x,-y,-z
x,-y,z
1/2+x,1/2+y,z
1/2-x,1/2+y,-z
1/2-x,1/2-y,-z
1/2+x,1/2-y,z
loop_
_atom_site_type_symbol
_atom_site_label
_atom_site_fract_x
_atom_site_fract_y
_atom_site_fract_z
Si Si1 0.500000 0.792645 0.500000
Si Si2 0.133249 0.627784 0.808617
Si Si3 0.893755 0.500000 0.131224
Si Si4 0.500000 0.792315 0.000000
O O1 0.250000 0.750000 0.500000
O O2 0.352888 0.835699 0.331426
O O3 0.008451 0.560927 0.761045
O O4 0.500000 0.627039 0.000000
O O5 0.898796 0.663682 0.839838
O O6 0.500000 0.500000 0.000000
O O7 0.000000 0.500000 0.000000
O O8 0.250000 0.750000 0.000000
#
# Coordination Sequence:
#
# PCOD9215653 Si02
#       4
#     4   8   4   4
#     4  12  30  43  66 105 138 178 232 276 338 412
#     4  11  25  46  71  98 140 178 226 283 338 400
#     4  10  22  41  72 101 127 179 232 271 337 407
#     4  12  22  35  66  93 124 180 214 260 338 390
#
# _framework density 23.110628999999999
#
# number of rings (size 3 to 8) (size 9 to 14) (size 15 to 20)
#    0.000    0.800    4.000    2.400    5.600    0.800 
#    0.000    0.000    0.000    7.200    0.000    0.000 
#    0.000    0.000    0.000    0.000    0.000    0.000 
#
# Total GULP energy -55916.339801 kJ/mol
# GULP energy per Si atom -5591.633980 kJ/mol
# Density = 2.305803 g / cm^3
# Si number density = 23.110629 Si / 1000 Ang^3
#
#
#
# Elastic Constant Matrix: (Units=GPa)
#
#
# Indices 1 2 3 4 5 6 
#
# 1 188.0413 82.8809 40.0719 0.0000 -33.2638 0.0000
# 2 82.8809 280.9126 73.6650 0.0000 -26.6731 0.0000
# 3 40.0719 73.6650 119.2645 0.0000 -30.2194 0.0000
# 4 0.0000 0.0000 0.0000 37.6435 0.0000 -8.7703
# 5 -33.2638 -26.6731 -30.2194 0.0000 29.8284 0.0000
# 6 0.0000 0.0000 0.0000 -8.7703 0.0000 14.7399
#
#
#
# Elastic Compliance Matrix: (Units=1/GPa)
#
#
# Indices 1 2 3 4 5 6 
#
# 1 0.007152 -0.001531 0.000292 0.000000 0.006901 0.000000
# 2 -0.001531 0.004629 -0.002325 0.000000 0.000076 0.000000
# 3 0.000292 -0.002325 0.012483 0.000000 0.010892 0.000000
# 4 0.000000 0.000000 0.000000 0.030840 0.000000 0.018350
# 5 0.006901 0.000076 0.010892 0.000000 0.052324 0.000000
# 6 0.000000 0.000000 0.000000 0.018350 0.000000 0.078762
#
#
# Mechanical properties :
#
#
# Convention : Reuss Voigt Hill
#
# Bulk Modulus (GPa) = 58.36573 109.05045 83.70809
# Shear Modulus (GPa) = 25.12185 42.54906 33.83546
#
# Velocity S-wave (km/s) = 3.30058 4.29546 3.83046
# Velocity P-wave (km/s) = 6.31149 8.47880 7.47412
#
# Compressibility (1/GPa) = 0.01713334
#
# Stress axis : x y z
#
# Youngs Moduli (GPa) = 139.82969 216.05158 80.10963
#
# Poissons Ratio (x) = 0.33081 -0.02336
# Poissons Ratio (y) = 0.21410 0.18627
# Poissons Ratio (z) = -0.04077 0.50237
#
# Static dielectric constant tensor:
#      x y z
#    x 1.912130 0.000000 0.084340 
#    y 0.000000 1.925130 0.000000 
#    z 0.084340 0.000000 1.938540 
# 
# From -- ./inp_files/33427.got.cif
#   From: 2010.05.17/outbox.cif.g08.bks.cpg/sg12_17_cif.got.tgz:33427.got - 2010.06.03 13:09:07.
