data_PCOD9215559
_publ_section_title
;
Structure prediction by ZEFSAII (Michael W. Deem and Ramdas Pophale) SiO2 
 PCOD9215559
Probable space group: C 2/M
;
_chemical_formula_sum "Si O2"
_cell_formula_units_Z 36
_cell_length_a 25.751048
_cell_length_b 10.925958
_cell_length_c 6.604824
_cell_angle_alpha 90.000000
_cell_angle_beta 63.226227
_cell_angle_gamma 90.000000
_cell_volume 1659.075040
_symmetry_space_group_name_H-M "C 2/M"
_symmetry_group_IT_number 12
_symmetry_cell_setting 'monoclinic'
loop_
_space_group_symop_operation_xyz
x,y,z
-x,y,-z
-x,-y,-z
x,-y,z
1/2+x,1/2+y,z
1/2-x,1/2+y,-z
1/2-x,1/2-y,-z
1/2+x,1/2-y,z
loop_
_atom_site_type_symbol
_atom_site_label
_atom_site_fract_x
_atom_site_fract_y
_atom_site_fract_z
Si Si1 0.580404 0.862066 0.686364
Si Si2 0.500000 0.251040 0.500000
Si Si3 0.288943 0.201927 0.616904
Si Si4 0.925339 0.145586 0.987010
Si Si5 0.816311 0.132921 0.935509
O O1 0.548359 0.831240 0.530324
O O2 0.650758 0.860948 0.547355
O O3 0.563389 0.000000 0.783010
O O4 0.564161 0.746778 0.858109
O O5 0.530679 0.333273 0.275332
O O6 0.250000 0.250000 0.500000
O O7 0.308940 0.309782 0.730547
O O8 0.244837 0.130091 0.841069
O O9 0.862902 0.188667 0.006239
O O10 0.924979 0.000000 0.050043
O O11 0.841134 0.000000 0.857464
#
# Coordination Sequence:
#
# PCOD9215559 Si02
#       5
#     8   4   8   8   8
#     4  12  27  46  71 105 142 183 229 283 347 414
#     4  12  26  48  70 100 136 190 234 288 334 406
#     4  11  22  43  67 101 135 180 223 283 344 414
#     4  11  25  47  73 101 136 180 233 288 343 407
#     4  10  22  41  67  99 134 175 227 282 343 409
#
# _framework density 21.698837000000001
#
# number of rings (size 3 to 8) (size 9 to 14) (size 15 to 20)
#    0.000    0.889    4.444    2.000    0.000    8.000 
#    0.000    0.000    0.000    0.000    0.000    0.000 
#    0.000    0.000    0.000    0.000    0.000    0.000 
#
# Total GULP energy -100373.644367 kJ/mol
# GULP energy per Si atom -5576.313576 kJ/mol
# Density = 2.164945 g / cm^3
# Si number density = 21.698837 Si / 1000 Ang^3
#
#
#
# Elastic Constant Matrix: (Units=GPa)
#
#
# Indices 1 2 3 4 5 6 
#
# 1 149.1114 31.6852 31.7143 0.0000 16.0210 0.0000
# 2 31.6852 112.5477 58.2457 0.0000 26.7454 0.0000
# 3 31.7143 58.2457 92.1230 0.0000 3.2879 0.0000
# 4 0.0000 0.0000 0.0000 578.4485 0.0000 11.8663
# 5 16.0210 26.7454 3.2879 0.0000 57.4755 0.0000
# 6 0.0000 0.0000 0.0000 11.8663 0.0000 -24.7542
#
#
#
# Elastic Compliance Matrix: (Units=1/GPa)
#
#
# Indices 1 2 3 4 5 6 
#
# 1 0.007468 -0.000600 -0.002132 0.000000 -0.001681 0.000000
# 2 -0.000600 0.015406 -0.009303 0.000000 -0.006470 0.000000
# 3 -0.002132 -0.009303 0.017331 0.000000 0.003932 0.000000
# 4 0.000000 0.000000 0.000000 0.001712 0.000000 0.000821
# 5 -0.001681 -0.006470 0.003932 0.000000 0.020653 0.000000
# 6 0.000000 0.000000 0.000000 0.000821 0.000000 -0.040004
#
#
# Mechanical properties :
#
#
# Convention : Reuss Voigt Hill
#
# Bulk Modulus (GPa) = 61.97693 66.34138 64.15916
# Shear Modulus (GPa) = 96.12993 137.70975 116.91984
#
# Velocity S-wave (km/s) = 6.66319 7.97508 7.34847
# Velocity P-wave (km/s) = 9.37133 10.74442 10.08128
#
# Compressibility (1/GPa) = 0.01613504
#
# Stress axis : x y z
#
# Youngs Moduli (GPa) = 133.90835 64.90977 57.70146
#
# Poissons Ratio (x) = 0.03894 0.12300
# Poissons Ratio (y) = 0.08033 0.53681
# Poissons Ratio (z) = 0.28544 0.60387
#
# Static dielectric constant tensor:
#      x y z
#    x 1.833630 0.000000 -0.002290 
#    y 0.000000 1.812440 0.000000 
#    z -0.002290 0.000000 1.787550 
# 
# From -- ./inp_files/23652.got.cif
#   From: 2010.05.17/outbox.cif.g08.bks.cpg/sg12_12_cif.got.tgz:23652.got - 2010.06.03 13:09:07.
