data_PCOD9215883
_publ_section_title
;
Structure prediction by ZEFSAII (Michael W. Deem and Ramdas Pophale) SiO2 
 PCOD9215883
Probable space group: C 2/M
;
_chemical_formula_sum "Si O2"
_cell_formula_units_Z 64
_cell_length_a 29.917926
_cell_length_b 13.842857
_cell_length_c 8.343770
_cell_angle_alpha 90.000000
_cell_angle_beta 50.091437
_cell_angle_gamma 90.000000
_cell_volume 2650.660637
_symmetry_space_group_name_H-M "C 2/M"
_symmetry_group_IT_number 12
_symmetry_cell_setting 'monoclinic'
loop_
_space_group_symop_operation_xyz
x,y,z
-x,y,-z
-x,-y,-z
x,-y,z
1/2+x,1/2+y,z
1/2-x,1/2+y,-z
1/2-x,1/2-y,-z
1/2+x,1/2-y,z
loop_
_atom_site_type_symbol
_atom_site_label
_atom_site_fract_x
_atom_site_fract_y
_atom_site_fract_z
Si Si1 0.085950 0.615355 0.711988
Si Si2 0.398270 0.386476 0.932421
Si Si3 0.141703 0.614652 0.095130
Si Si4 0.193079 0.696057 0.303942
Si Si5 0.203414 0.768588 0.745304
Si Si6 0.018875 0.117252 0.781086
Si Si7 0.472139 0.115048 0.805774
Si Si8 0.358789 0.612574 0.656501
O O1 0.093527 0.500000 0.669946
O O2 0.147019 0.666471 0.545768
O O3 0.037029 0.651453 0.696995
O O4 0.061188 0.627071 0.947556
O O5 0.396953 0.500000 0.974241
O O6 0.354158 0.331771 0.151752
O O7 0.465013 0.352758 0.793365
O O8 0.376616 0.374542 0.800896
O O9 0.143845 0.500000 0.069336
O O10 0.168395 0.643729 0.203886
O O11 0.074018 0.646372 0.223192
O O12 0.179425 0.670237 0.876343
O O13 0.258020 0.674060 0.210120
O O14 0.189663 0.810640 0.280240
O O15 0.250000 0.750000 0.500000
O O16 0.083346 0.140308 0.576315
O O17 0.018961 0.000000 0.782160
O O18 0.000000 0.151291 0.000000
O O19 0.480096 0.000000 0.760876
O O20 0.344052 0.500000 0.663693
#
# Coordination Sequence:
#
# PCOD9215883 Si02
#       8
#     8   8   8   8   8   8   8   8
#     4   9  18  37  65  94 130 167 208 260 316 381
#     4  10  22  43  69  94 129 175 215 265 330 390
#     4  11  24  44  68  93 128 167 212 274 334 384
#     4  12  25  42  61  97 125 168 220 264 318 392
#     4  12  28  46  65  93 132 170 229 277 317 395
#     4   9  19  38  67 102 132 162 211 266 327 402
#     4   8  17  37  64  95 127 166 209 257 321 383
#     4  10  22  42  67  94 131 169 206 265 331 397
#
# _framework density 24.144925000000001
#
# number of rings (size 3 to 8) (size 9 to 14) (size 15 to 20)
#    0.000    1.875    1.250    2.625    1.750    5.000 
#    4.500    1.875    0.000    0.000    0.000    0.000 
#    0.000    0.000    0.000    0.000    0.000    0.000 
#
# Total GULP energy -179111.253402 kJ/mol
# GULP energy per Si atom -5597.226669 kJ/mol
# Density = 2.408997 g / cm^3
# Si number density = 24.144925 Si / 1000 Ang^3
#
#
#
# Elastic Constant Matrix: (Units=GPa)
#
#
# Indices 1 2 3 4 5 6 
#
# 1 92.6775 2.3204 -8.6873 0.0000 -14.5555 0.0000
# 2 2.3204 69.9896 -6.8946 0.0000 0.1392 0.0000
# 3 -8.6873 -6.8946 63.3195 0.0000 -0.1073 0.0000
# 4 0.0000 0.0000 0.0000 28.8767 0.0000 -1.3840
# 5 -14.5555 0.1392 -0.1073 0.0000 30.0318 0.0000
# 6 0.0000 0.0000 0.0000 -1.3840 0.0000 24.5703
#
#
#
# Elastic Compliance Matrix: (Units=1/GPa)
#
#
# Indices 1 2 3 4 5 6 
#
# 1 0.011850 -0.000246 0.001609 0.000000 0.005750 0.000000
# 2 -0.000246 0.014448 0.001539 0.000000 -0.000181 0.000000
# 3 0.001609 0.001539 0.016183 0.000000 0.000830 0.000000
# 4 0.000000 0.000000 0.000000 0.034724 0.000000 0.001956
# 5 0.005750 -0.000181 0.000830 0.000000 0.036089 0.000000
# 6 0.000000 0.000000 0.000000 0.001956 0.000000 0.040810
#
#
# Mechanical properties :
#
#
# Convention : Reuss Voigt Hill
#
# Bulk Modulus (GPa) = 20.71035 22.16262 21.43648
# Shear Modulus (GPa) = 30.41476 32.64563 31.53020
#
# Velocity S-wave (km/s) = 3.55304 3.68104 3.61761
# Velocity P-wave (km/s) = 5.04264 5.22165 5.13293
#
# Compressibility (1/GPa) = 0.04828503
#
# Stress axis : x y z
#
# Youngs Moduli (GPa) = 84.38690 69.21394 61.79458
#
# Poissons Ratio (x) = 0.01701 -0.09941
# Poissons Ratio (y) = 0.02074 -0.09511
# Poissons Ratio (z) = -0.13576 -0.10653
#
# Static dielectric constant tensor:
#      x y z
#    x 1.949960 0.000000 0.039810 
#    y 0.000000 1.918270 0.000000 
#    z 0.039810 0.000000 1.909190 
# 
# From -- ./inp_files/111975.got.cif
#   From: 2010.05.17/outbox.cif.g08.bks.cpg/sg12_56_cif.got.tgz:111975.got - 2010.06.03 13:09:07.
