data_PCOD9215941
_publ_section_title
;
Structure prediction by ZEFSAII (Michael W. Deem and Ramdas Pophale) SiO2 
 PCOD9215941
Probable space group: C 2/M
;
_chemical_formula_sum "Si O2"
_cell_formula_units_Z 52
_cell_length_a 19.427852
_cell_length_b 9.243513
_cell_length_c 16.409979
_cell_angle_alpha 90.000000
_cell_angle_beta 120.042165
_cell_angle_gamma 90.000000
_cell_volume 2551.031485
_symmetry_space_group_name_H-M "C 2/M"
_symmetry_group_IT_number 12
_symmetry_cell_setting 'monoclinic'
loop_
_space_group_symop_operation_xyz
x,y,z
-x,y,-z
-x,-y,-z
x,-y,z
1/2+x,1/2+y,z
1/2-x,1/2+y,-z
1/2-x,1/2-y,-z
1/2+x,1/2-y,z
loop_
_atom_site_type_symbol
_atom_site_label
_atom_site_fract_x
_atom_site_fract_y
_atom_site_fract_z
Si Si1 0.135629 0.772807 0.378449
Si Si2 0.752498 0.500000 0.536907
Si Si3 0.561151 0.659968 0.162188
Si Si4 0.824849 0.672506 0.215540
Si Si5 0.330144 0.828202 0.886090
Si Si6 0.009347 0.672826 0.598223
Si Si7 0.872514 0.170102 0.076868
O O1 0.184563 0.625910 0.396895
O O2 0.191387 0.877268 0.463322
O O3 0.109447 0.831118 0.274919
O O4 0.054765 0.744873 0.381123
O O5 0.573644 0.500000 0.131952
O O6 0.593527 0.780739 0.120563
O O7 0.468083 0.676410 0.125608
O O8 0.811128 0.500000 0.199356
O O9 0.746852 0.754492 0.200997
O O10 0.901015 0.694806 0.318180
O O11 0.846419 0.746451 0.142435
O O12 0.322260 0.000000 0.887726
O O13 0.337112 0.752093 0.978064
O O14 0.993668 0.500000 0.590498
O O15 0.000000 0.723555 0.500000
O O16 0.849278 0.000000 0.065495
#
# Coordination Sequence:
#
# PCOD9215941 Si02
#       7
#     8   4   8   8   8   8   8
#     4  11  21  44  64  99 129 175 215 270 325 393
#     4  10  24  36  68  94 132 166 220 266 322 382
#     4  11  24  43  70  96 136 175 218 273 338 396
#     4  11  23  42  70  98 135 181 224 271 330 392
#     4  12  27  44  64 101 136 171 224 280 331 394
#     4  10  22  42  68  96 130 173 221 266 321 391
#     4  11  23  43  72  97 133 175 222 275 336 397
#
# _framework density 20.383911999999999
#
# number of rings (size 3 to 8) (size 9 to 14) (size 15 to 20)
#    0.000    1.077    3.077    3.231    1.077    5.538 
#    4.154    0.385    0.000    0.000    0.000    0.000 
#    0.000    0.000    0.000    0.000    0.000    0.000 
#
# Total GULP energy -144870.134671 kJ/mol
# GULP energy per Si atom -5571.928257 kJ/mol
# Density = 2.033752 g / cm^3
# Si number density = 20.383912 Si / 1000 Ang^3
#
#
#
# Elastic Constant Matrix: (Units=GPa)
#
#
# Indices 1 2 3 4 5 6 
#
# 1 48.0407 33.1997 17.6984 0.0000 3.2055 0.0000
# 2 33.1997 141.5277 34.6089 0.0000 25.2226 0.0000
# 3 17.6984 34.6089 74.3226 0.0000 9.5813 0.0000
# 4 0.0000 0.0000 0.0000 21.6222 0.0000 22.5162
# 5 3.2055 25.2226 9.5813 0.0000 31.9719 0.0000
# 6 0.0000 0.0000 0.0000 22.5162 0.0000 -14.9901
#
#
#
# Elastic Compliance Matrix: (Units=1/GPa)
#
#
# Indices 1 2 3 4 5 6 
#
# 1 0.025986 -0.005677 -0.003938 0.000000 0.003053 0.000000
# 2 -0.005677 0.010218 -0.002538 0.000000 -0.006731 0.000000
# 3 -0.003938 -0.002538 0.015879 0.000000 -0.002361 0.000000
# 4 0.000000 0.000000 0.000000 0.018036 0.000000 0.027092
# 5 0.003053 -0.006731 -0.002361 0.000000 0.036989 0.000000
# 6 0.000000 0.000000 0.000000 0.027092 0.000000 -0.026016
#
#
# Mechanical properties :
#
#
# Convention : Reuss Voigt Hill
#
# Bulk Modulus (GPa) = 36.00256 48.32278 42.16267
# Shear Modulus (GPa) = 43.60816 19.61308 31.61062
#
# Velocity S-wave (km/s) = 4.63032 3.10527 3.94225
# Velocity P-wave (km/s) = 6.80346 6.05101 6.43824
#
# Compressibility (1/GPa) = 0.02777580
#
# Stress axis : x y z
#
# Youngs Moduli (GPa) = 38.48224 97.86877 62.97595
#
# Poissons Ratio (x) = 0.55560 0.24801
# Poissons Ratio (y) = 0.21846 0.15986
# Poissons Ratio (z) = 0.15155 0.24843
#
# Static dielectric constant tensor:
#      x y z
#    x 1.727680 0.000000 0.002990 
#    y 0.000000 1.693910 0.000000 
#    z 0.002990 0.000000 1.710560 
# 
# From -- ./inp_files/282283.got.cif
#   From: 2010.05.17/outbox.cif.g08.bks.cpg/sg12_142_cif.got.tgz:282283.got - 2010.06.03 13:09:07.
