data_PCOD9215857
_publ_section_title
;
Structure prediction by ZEFSAII (Michael W. Deem and Ramdas Pophale) SiO2 
 PCOD9215857
Probable space group: C 2/M
;
_chemical_formula_sum "Si O2"
_cell_formula_units_Z 48
_cell_length_a 11.319890
_cell_length_b 16.572290
_cell_length_c 20.902758
_cell_angle_alpha 90.000000
_cell_angle_beta 41.104873
_cell_angle_gamma 90.000000
_cell_volume 2578.006497
_symmetry_space_group_name_H-M "C 2/M"
_symmetry_group_IT_number 12
_symmetry_cell_setting 'monoclinic'
loop_
_space_group_symop_operation_xyz
x,y,z
-x,y,-z
-x,-y,-z
x,-y,z
1/2+x,1/2+y,z
1/2-x,1/2+y,-z
1/2-x,1/2-y,-z
1/2+x,1/2-y,z
loop_
_atom_site_type_symbol
_atom_site_label
_atom_site_fract_x
_atom_site_fract_y
_atom_site_fract_z
Si Si1 0.699661 0.149981 0.271000
Si Si2 0.322526 0.500000 0.990028
Si Si3 0.677284 0.167214 0.000117
Si Si4 0.276727 0.818861 0.169927
Si Si5 0.748686 0.500000 0.837534
Si Si6 0.906961 0.904030 0.308218
Si Si7 0.624607 0.193663 0.507022
O O1 0.736059 0.233626 0.219870
O O2 0.683966 0.079304 0.225884
O O3 0.856143 0.131277 0.258901
O O4 0.518865 0.154705 0.386453
O O5 0.276969 0.583231 0.973201
O O6 0.220000 0.500000 0.099778
O O7 0.533950 0.500000 0.916384
O O8 0.475267 0.153556 0.109345
O O9 0.750000 0.250000 0.000000
O O10 0.694829 0.185071 0.917802
O O11 0.103774 0.875269 0.250127
O O12 0.757093 0.868525 0.417392
O O13 0.897194 0.000000 0.308559
O O14 0.500000 0.231045 0.500000
O O15 0.750000 0.250000 0.500000
#
# Coordination Sequence:
#
# PCOD9215857 Si02
#       7
#     8   4   8   8   4   8   8
#     4  11  22  39  65  96 126 167 220 268 324 392
#     4  11  24  41  60  87 129 170 212 267 330 388
#     4  11  24  40  60  90 127 166 219 265 325 395
#     4  11  23  38  64  88 127 169 211 263 327 388
#     4  11  22  38  63  89 127 163 214 269 322 379
#     4  11  23  39  67  97 131 167 217 273 326 392
#     4  10  22  42  66  98 134 176 219 274 335 399
#
# _framework density 18.619038
#
# number of rings (size 3 to 8) (size 9 to 14) (size 15 to 20)
#    0.000    1.167    2.500    4.000    3.500    4.333 
#    0.000    0.000    0.000    0.500    0.000    0.000 
#    0.000    0.000    0.000    0.000    0.000    0.000 
#
# Total GULP energy -133905.338908 kJ/mol
# GULP energy per Si atom -5579.389121 kJ/mol
# Density = 1.857666 g / cm^3
# Si number density = 18.619038 Si / 1000 Ang^3
#
#
#
# Elastic Constant Matrix: (Units=GPa)
#
#
# Indices 1 2 3 4 5 6 
#
# 1 89.0601 62.4286 39.6380 -0.0012 -6.3529 0.0028
# 2 62.4286 128.3874 40.4088 -0.0020 7.9573 0.0041
# 3 39.6380 40.4088 122.8384 -0.0045 -0.4773 0.0099
# 4 -0.0012 -0.0020 -0.0045 35.4574 0.0012 -17.4240
# 5 -6.3529 7.9573 -0.4773 0.0012 40.7275 -0.0024
# 6 0.0028 0.0041 0.0099 -17.4240 -0.0024 107.1293
#
#
#
# Elastic Compliance Matrix: (Units=1/GPa)
#
#
# Indices 1 2 3 4 5 6 
#
# 1 0.018960 -0.008459 -0.003318 0.000000 0.004571 0.000000
# 2 -0.008459 0.012586 -0.001426 0.000000 -0.003795 0.000000
# 3 -0.003318 -0.001426 0.009680 0.000001 -0.000126 -0.000001
# 4 0.000000 0.000000 0.000001 0.030653 -0.000001 0.004986
# 5 0.004571 -0.003795 -0.000126 -0.000001 0.026007 0.000001
# 6 0.000000 0.000000 -0.000001 0.004986 0.000001 0.010145
#
#
# Mechanical properties :
#
#
# Convention : Reuss Voigt Hill
#
# Bulk Modulus (GPa) = 67.46711 69.47076 68.46893
# Shear Modulus (GPa) = 35.87433 49.85018 42.86226
#
# Velocity S-wave (km/s) = 4.39424 5.17995 4.80319
# Velocity P-wave (km/s) = 7.87782 8.55386 8.22279
#
# Compressibility (1/GPa) = 0.01482204
#
# Stress axis : x y z
#
# Youngs Moduli (GPa) = 52.74158 79.45459 103.30714
#
# Poissons Ratio (x) = 0.67207 0.34277
# Poissons Ratio (y) = 0.44612 0.14727
# Poissons Ratio (z) = 0.17499 0.11326
#
# Static dielectric constant tensor:
#      x y z
#    x 1.691000 0.000000 -0.021570 
#    y 0.000000 1.579930 0.000000 
#    z -0.021570 0.000000 1.652400 
# 
# From -- ./inp_files/205167.got.cif
#   From: 2010.05.17/outbox.cif.g08.bks.cpg/sg12_103_cif.got.tgz:205167.got - 2010.06.03 13:09:07.
