data_PCOD9215297
_publ_section_title
;
Structure prediction by ZEFSAII (Michael W. Deem and Ramdas Pophale) SiO2 
 PCOD9215297
Probable space group: C 2/M
;
_chemical_formula_sum "Si O2"
_cell_formula_units_Z 64
_cell_length_a 13.099617
_cell_length_b 24.712827
_cell_length_c 10.693160
_cell_angle_alpha 90.000000
_cell_angle_beta 113.977547
_cell_angle_gamma 90.000000
_cell_volume 3162.954822
_symmetry_space_group_name_H-M "C 2/M"
_symmetry_group_IT_number 12
_symmetry_cell_setting 'monoclinic'
loop_
_space_group_symop_operation_xyz
x,y,z
-x,y,-z
-x,-y,-z
x,-y,z
1/2+x,1/2+y,z
1/2-x,1/2+y,-z
1/2-x,1/2-y,-z
1/2+x,1/2-y,z
loop_
_atom_site_type_symbol
_atom_site_label
_atom_site_fract_x
_atom_site_fract_y
_atom_site_fract_z
Si Si1 0.075615 0.826988 0.657421
Si Si2 0.286864 0.227592 0.210739
Si Si3 0.881835 0.313277 0.904670
Si Si4 0.872061 0.064312 0.892391
Si Si5 0.141812 0.154737 0.315271
Si Si6 0.780477 0.635349 0.634271
Si Si7 0.025840 0.564400 0.370113
Si Si8 0.839711 0.382975 0.102666
O O1 0.120358 0.765512 0.679525
O O2 0.181897 0.866643 0.690511
O O3 0.000000 0.836550 0.500000
O O4 0.989821 0.835863 0.727210
O O5 0.215713 0.272927 0.103284
O O6 0.197597 0.200976 0.259944
O O7 0.335392 0.176633 0.162941
O O8 0.865909 0.324756 0.749370
O O9 0.872897 0.369390 0.977351
O O10 0.000000 0.288814 0.000000
O O11 0.848619 0.098002 0.753904
O O12 0.780532 0.088623 0.942497
O O13 0.855767 0.000000 0.868724
O O14 0.000000 0.073479 0.000000
O O15 0.213850 0.154941 0.478729
O O16 0.856904 0.586666 0.624665
O O17 0.028112 0.500000 0.375283
O O18 0.000000 0.584179 0.500000
O O19 0.929142 0.583708 0.227442
#
# Coordination Sequence:
#
# PCOD9215297 Si02
#       8
#     8   8   8   8   8   8   8   8
#     4   9  21  37  59  89 127 164 201 250 309 372
#     4  10  23  35  62  91 121 167 212 253 306 364
#     4  11  23  40  59  88 130 168 205 250 308 387
#     4  10  23  42  67  93 120 160 211 264 315 369
#     4  10  22  41  64  92 126 164 210 265 310 365
#     4  10  22  42  61  89 125 167 206 255 316 367
#     4  11  23  41  69  95 120 159 210 270 323 373
#     4  11  23  41  61  92 127 165 206 263 313 369
#
# _framework density 20.234242999999999
#
# number of rings (size 3 to 8) (size 9 to 14) (size 15 to 20)
#    0.000    1.750    1.250    2.250    5.250    9.500 
#    0.000    2.500    0.000    2.250    0.000    0.000 
#    0.000    0.000    0.000    0.000    0.000    0.000 
#
# Total GULP energy -178356.792316 kJ/mol
# GULP energy per Si atom -5573.649760 kJ/mol
# Density = 2.018819 g / cm^3
# Si number density = 20.234243 Si / 1000 Ang^3
#
#
#
# Elastic Constant Matrix: (Units=GPa)
#
#
# Indices 1 2 3 4 5 6 
#
# 1 99.9394 31.1517 15.6594 0.0000 4.0324 0.0000
# 2 31.1517 80.7234 20.9644 0.0000 -7.3826 0.0000
# 3 15.6594 20.9644 76.8471 0.0000 5.6925 0.0000
# 4 0.0000 0.0000 0.0000 24.7705 0.0000 6.6553
# 5 4.0324 -7.3826 5.6925 0.0000 31.3588 0.0000
# 6 0.0000 0.0000 0.0000 6.6553 0.0000 33.7397
#
#
#
# Elastic Compliance Matrix: (Units=1/GPa)
#
#
# Indices 1 2 3 4 5 6 
#
# 1 0.011644 -0.004455 -0.000982 0.000000 -0.002368 0.000000
# 2 -0.004455 0.015512 -0.003687 0.000000 0.004894 0.000000
# 3 -0.000982 -0.003687 0.014468 0.000000 -0.003368 0.000000
# 4 0.000000 0.000000 0.000000 0.042630 0.000000 -0.008409
# 5 -0.002368 0.004894 -0.003368 0.000000 0.033957 0.000000
# 6 0.000000 0.000000 0.000000 -0.008409 0.000000 0.031297
#
#
# Mechanical properties :
#
#
# Convention : Reuss Voigt Hill
#
# Bulk Modulus (GPa) = 42.77651 43.67343 43.22497
# Shear Modulus (GPa) = 28.48218 30.62278 29.55248
#
# Velocity S-wave (km/s) = 3.75590 3.89448 3.82582
# Velocity P-wave (km/s) = 6.32421 6.46942 6.39723
#
# Compressibility (1/GPa) = 0.02337731
#
# Stress axis : x y z
#
# Youngs Moduli (GPa) = 85.88007 64.46527 69.11737
#
# Poissons Ratio (x) = 0.28720 0.06787
# Poissons Ratio (y) = 0.38260 0.25480
# Poissons Ratio (z) = 0.08433 0.23765
#
# Static dielectric constant tensor:
#      x y z
#    x 1.790640 0.000000 -0.017590 
#    y 0.000000 1.669130 0.000000 
#    z -0.017590 0.000000 1.766060 
# 
# From -- ./inp_files/135998.got.cif
#   From: 2010.05.17/outbox.cif.g08.bks.cpg/sg12_68_cif.got.tgz:135998.got - 2010.06.03 13:09:07.
