data_PCOD9215492
_publ_section_title
;
Structure prediction by ZEFSAII (Michael W. Deem and Ramdas Pophale) SiO2 
 PCOD9215492
Probable space group: C 2/M
;
_chemical_formula_sum "Si O2"
_cell_formula_units_Z 56
_cell_length_a 17.820422
_cell_length_b 24.167579
_cell_length_c 6.669392
_cell_angle_alpha 90.000000
_cell_angle_beta 73.144952
_cell_angle_gamma 90.000000
_cell_volume 2748.957868
_symmetry_space_group_name_H-M "C 2/M"
_symmetry_group_IT_number 12
_symmetry_cell_setting 'monoclinic'
loop_
_space_group_symop_operation_xyz
x,y,z
-x,y,-z
-x,-y,-z
x,-y,z
1/2+x,1/2+y,z
1/2-x,1/2+y,-z
1/2-x,1/2-y,-z
1/2+x,1/2-y,z
loop_
_atom_site_type_symbol
_atom_site_label
_atom_site_fract_x
_atom_site_fract_y
_atom_site_fract_z
Si Si1 0.867677 0.063828 0.584131
Si Si2 0.683914 0.207442 0.487664
Si Si3 0.939969 0.744684 0.709048
Si Si4 0.289240 0.938809 0.031697
Si Si5 0.911762 0.654893 0.067286
Si Si6 0.700619 0.384784 0.758895
Si Si7 0.942006 0.863551 0.866789
O O1 0.852239 0.093445 0.384012
O O2 0.925187 0.094761 0.696186
O O3 0.891418 0.000000 0.538252
O O4 0.781757 0.064692 0.754234
O O5 0.750000 0.250000 0.500000
O O6 0.638908 0.243191 0.356178
O O7 0.731370 0.155600 0.365184
O O8 0.625952 0.182455 0.703291
O O9 0.925062 0.705810 0.907157
O O10 0.968277 0.804692 0.758120
O O11 0.000000 0.720666 0.500000
O O12 0.350564 0.890118 0.029582
O O13 0.245404 0.931403 0.852490
O O14 0.325095 0.000000 0.016916
O O15 0.000000 0.629611 0.000000
O O16 0.641745 0.355014 0.959197
O O17 0.000000 0.882504 0.000000
#
# Coordination Sequence:
#
# PCOD9215492 Si02
#       7
#     8   8   8   8   8   8   8
#     4  10  22  43  69  96 132 178 222 272 332 386
#     4  12  25  39  67  97 129 173 220 265 332 397
#     4  12  26  43  66  94 135 176 210 271 335 394
#     4  10  22  41  66  97 133 172 223 275 323 395
#     4  12  24  43  66  99 134 171 221 271 333 394
#     4  11  22  42  68  98 130 171 224 275 326 392
#     4  11  27  42  65 100 136 172 224 273 331 396
#
# _framework density 20.371357
#
# number of rings (size 3 to 8) (size 9 to 14) (size 15 to 20)
#    0.000    0.857    4.286    2.571    6.000    2.286 
#    0.000    0.714    0.000    1.286    0.000    0.000 
#    0.000    0.000    0.000    0.000    0.000    0.000 
#
# Total GULP energy -156310.392691 kJ/mol
# GULP energy per Si atom -5582.514025 kJ/mol
# Density = 2.032499 g / cm^3
# Si number density = 20.371357 Si / 1000 Ang^3
#
#
#
# Elastic Constant Matrix: (Units=GPa)
#
#
# Indices 1 2 3 4 5 6 
#
# 1 85.7592 -1.5413 13.8461 0.0000 15.9248 0.0000
# 2 -1.5413 45.4844 4.5041 0.0000 5.3233 0.0000
# 3 13.8461 4.5041 98.4843 0.0000 -6.9544 0.0000
# 4 0.0000 0.0000 0.0000 5.4869 0.0000 17.2481
# 5 15.9248 5.3233 -6.9544 0.0000 48.5892 0.0000
# 6 0.0000 0.0000 0.0000 17.2481 0.0000 -3.8079
#
#
#
# Elastic Compliance Matrix: (Units=1/GPa)
#
#
# Indices 1 2 3 4 5 6 
#
# 1 0.012906 0.001202 -0.002200 0.000000 -0.004676 0.000000
# 2 0.001202 0.022525 -0.001416 0.000000 -0.003065 0.000000
# 3 -0.002200 -0.001416 0.010698 0.000000 0.002407 0.000000
# 4 0.000000 0.000000 0.000000 0.011960 0.000000 0.054173
# 5 -0.004676 -0.003065 0.002407 0.000000 0.022794 0.000000
# 6 0.000000 0.000000 0.000000 0.054173 0.000000 -0.017233
#
#
# Mechanical properties :
#
#
# Convention : Reuss Voigt Hill
#
# Bulk Modulus (GPa) = 24.21127 29.26063 26.73595
# Shear Modulus (GPa) = 60.79594 24.24823 42.52209
#
# Velocity S-wave (km/s) = 5.46888 3.45383 4.57371
# Velocity P-wave (km/s) = 7.19645 5.50455 6.40660
#
# Compressibility (1/GPa) = 0.04130308
#
# Stress axis : x y z
#
# Youngs Moduli (GPa) = 77.48528 44.39480 93.47641
#
# Poissons Ratio (x) = -0.05338 0.20562
# Poissons Ratio (y) = -0.09317 0.13233
# Poissons Ratio (z) = 0.17044 0.06285
#
# Static dielectric constant tensor:
#      x y z
#    x 1.857170 0.000000 0.044010 
#    y 0.000000 1.699570 0.000000 
#    z 0.044010 0.000000 1.737600 
# 
# From -- ./inp_files/17628.got.cif
#   From: 2010.05.17/outbox.cif.g08.bks.cpg/sg12_9_cif.got.tgz:17628.got - 2010.06.03 13:09:07.
