data_PCOD9215266
_publ_section_title
;
Structure prediction by ZEFSAII (Michael W. Deem and Ramdas Pophale) SiO2 
 PCOD9215266
Probable space group: C 2/M
;
_chemical_formula_sum "Si O2"
_cell_formula_units_Z 64
_cell_length_a 14.894922
_cell_length_b 27.552425
_cell_length_c 11.687364
_cell_angle_alpha 90.000000
_cell_angle_beta 41.228093
_cell_angle_gamma 90.000000
_cell_volume 3161.101692
_symmetry_space_group_name_H-M "C 2/M"
_symmetry_group_IT_number 12
_symmetry_cell_setting 'monoclinic'
loop_
_space_group_symop_operation_xyz
x,y,z
-x,y,-z
-x,-y,-z
x,-y,z
1/2+x,1/2+y,z
1/2-x,1/2+y,-z
1/2-x,1/2-y,-z
1/2+x,1/2-y,z
loop_
_atom_site_type_symbol
_atom_site_label
_atom_site_fract_x
_atom_site_fract_y
_atom_site_fract_z
Si Si1 0.856257 0.721730 0.197596
Si Si2 0.600646 0.944035 0.507047
Si Si3 0.924565 0.363576 0.283061
Si Si4 0.341649 0.400067 0.152381
Si Si5 0.107167 0.268687 0.303679
Si Si6 0.204365 0.182167 0.623190
Si Si7 0.227474 0.644666 0.039155
Si Si8 0.989273 0.830978 0.646240
O O1 0.863941 0.665780 0.232159
O O2 0.727211 0.735467 0.244209
O O3 0.834471 0.762614 0.315719
O O4 0.000000 0.732064 0.000000
O O5 0.500000 0.925275 0.500000
O O6 0.601655 0.914283 0.625319
O O7 0.750064 0.937208 0.310799
O O8 0.565293 0.000000 0.560404
O O9 0.861124 0.327410 0.440300
O O10 0.086182 0.365777 0.111713
O O11 0.327868 0.348318 0.231537
O O12 0.275272 0.392500 0.091621
O O13 0.500000 0.412720 0.000000
O O14 0.183867 0.306379 0.149388
O O15 0.020793 0.226921 0.326889
O O16 0.000000 0.289286 0.500000
O O17 0.117245 0.156928 0.604909
O O18 0.352947 0.648550 0.833374
O O19 0.000000 0.841469 0.500000
#
# Coordination Sequence:
#
# PCOD9215266 Si02
#       8
#     8   8   8   8   8   8   8   8
#     4  12  22  36  54  81 119 162 207 249 284 340
#     4  10  22  41  64  90 122 148 183 246 313 372
#     4  11  23  35  59  88 118 157 202 241 300 359
#     4  11  21  37  62  90 119 154 197 241 299 356
#     4  11  22  34  54  79 118 161 210 248 289 341
#     4  11  21  37  55  81 122 163 202 248 287 345
#     4  12  21  36  56  84 118 159 204 250 291 350
#     4  11  23  38  51  75 115 169 211 246 288 338
#
# _framework density 20.246105
#
# number of rings (size 3 to 8) (size 9 to 14) (size 15 to 20)
#    0.000    0.875    3.750    5.625    1.750    0.250 
#    0.000    0.000    0.000    0.375    0.000    0.000 
#    0.000   41.500    0.000    0.000    0.000    0.000 
#
# Total GULP energy -178328.863146 kJ/mol
# GULP energy per Si atom -5572.776973 kJ/mol
# Density = 2.020002 g / cm^3
# Si number density = 20.246105 Si / 1000 Ang^3
#
#
#
# Elastic Constant Matrix: (Units=GPa)
#
#
# Indices 1 2 3 4 5 6 
#
# 1 29.2413 0.5833 -14.9051 0.0000 4.5609 0.0000
# 2 0.5833 54.4660 3.1828 0.0000 10.7854 0.0000
# 3 -14.9051 3.1828 78.6451 0.0000 -25.6189 0.0000
# 4 0.0000 0.0000 0.0000 12.6717 0.0000 3.7962
# 5 4.5609 10.7854 -25.6189 0.0000 22.3685 0.0000
# 6 0.0000 0.0000 0.0000 3.7962 0.0000 17.9789
#
#
#
# Elastic Compliance Matrix: (Units=1/GPa)
#
#
# Indices 1 2 3 4 5 6 
#
# 1 0.037931 -0.001227 0.007835 0.000000 0.001831 0.000000
# 2 -0.001227 0.022577 -0.007355 0.000000 -0.019060 0.000000
# 3 0.007835 -0.007355 0.024139 0.000000 0.029595 0.000000
# 4 0.000000 0.000000 0.000000 0.084245 0.000000 -0.017788
# 5 0.001831 -0.019060 0.029595 0.000000 0.087418 0.000000
# 6 0.000000 0.000000 0.000000 -0.017788 0.000000 0.059377
#
#
# Mechanical properties :
#
#
# Convention : Reuss Voigt Hill
#
# Bulk Modulus (GPa) = 12.02602 15.56382 13.79492
# Shear Modulus (GPa) = 14.49708 22.16991 18.33350
#
# Velocity S-wave (km/s) = 2.67880 3.31270 3.01247
# Velocity P-wave (km/s) = 3.93964 4.72610 4.35068
#
# Compressibility (1/GPa) = 0.08315305
#
# Stress axis : x y z
#
# Youngs Moduli (GPa) = 26.36384 44.29249 41.42754
#
# Poissons Ratio (x) = 0.05433 -0.32457
# Poissons Ratio (y) = 0.03234 0.30469
# Poissons Ratio (z) = -0.20655 0.32577
#
# Static dielectric constant tensor:
#      x y z
#    x 1.689140 0.000000 0.047390 
#    y 0.000000 1.720350 0.000000 
#    z 0.047390 0.000000 1.751630 
# 
# From -- ./inp_files/150246.got.cif
#   From: 2010.05.17/outbox.cif.g08.bks.cpg/sg12_76_cif.got.tgz:150246.got - 2010.06.03 13:09:07.
