data_PCOD9215389
_publ_section_title
;
Structure prediction by ZEFSAII (Michael W. Deem and Ramdas Pophale) SiO2 
 PCOD9215389
Probable space group: C 2/M
;
_chemical_formula_sum "Si O2"
_cell_formula_units_Z 64
_cell_length_a 30.599305
_cell_length_b 8.447859
_cell_length_c 16.444326
_cell_angle_alpha 90.000000
_cell_angle_beta 47.052490
_cell_angle_gamma 90.000000
_cell_volume 3111.518858
_symmetry_space_group_name_H-M "C 2/M"
_symmetry_group_IT_number 12
_symmetry_cell_setting 'monoclinic'
loop_
_space_group_symop_operation_xyz
x,y,z
-x,y,-z
-x,-y,-z
x,-y,z
1/2+x,1/2+y,z
1/2-x,1/2+y,-z
1/2-x,1/2-y,-z
1/2+x,1/2-y,z
loop_
_atom_site_type_symbol
_atom_site_label
_atom_site_fract_x
_atom_site_fract_y
_atom_site_fract_z
Si Si1 0.504683 0.691804 0.748388
Si Si2 0.347787 0.186807 0.719646
Si Si3 0.270853 0.312210 0.560659
Si Si4 0.216346 0.683977 0.904632
Si Si5 0.888217 0.689339 0.488516
Si Si6 0.374101 0.313199 0.857777
Si Si7 0.669043 0.311727 0.803907
Si Si8 0.547867 0.692781 0.871468
O O1 0.507462 0.500000 0.742348
O O2 0.547219 0.759831 0.624745
O O3 0.436084 0.737305 0.820814
O O4 0.529123 0.745592 0.805382
O O5 0.276885 0.218787 0.814086
O O6 0.373159 0.238226 0.600020
O O7 0.376179 0.276591 0.759780
O O8 0.358820 0.000000 0.714453
O O9 0.262738 0.500000 0.575856
O O10 0.250000 0.250000 0.500000
O O11 0.339066 0.268801 0.492547
O O12 0.229739 0.228277 0.679918
O O13 0.232171 0.500000 0.882822
O O14 0.172195 0.726916 0.886493
O O15 0.181951 0.726317 0.030537
O O16 0.881617 0.500000 0.492166
O O17 0.366169 0.500000 0.881428
O O18 0.664120 0.500000 0.823500
O O19 0.613438 0.259501 0.818763
O O20 0.547435 0.500000 0.870027
O O21 0.500000 0.742362 0.000000
#
# Coordination Sequence:
#
# PCOD9215389 Si02
#       8
#     8   8   8   8   8   8   8   8
#     4  10  22  41  65  93 126 169 216 264 319 381
#     4  11  24  43  66  92 126 166 212 265 327 390
#     4  12  24  39  61  89 124 164 210 260 314 377
#     4  12  24  40  64  94 129 167 210 265 325 387
#     4  11  24  42  65  91 126 168 211 265 323 381
#     4  11  24  42  66  94 126 166 214 267 323 385
#     4  11  21  36  61  92 125 162 207 259 317 377
#     4   9  18  35  60  89 122 163 209 254 306 369
#
# _framework density 20.568733000000002
#
# number of rings (size 3 to 8) (size 9 to 14) (size 15 to 20)
#    0.000    1.125    1.250    5.625    0.000    6.000 
#    0.000    3.125    0.000    2.625    0.000    0.000 
#    0.000    0.000    0.000    0.000    0.000    0.000 
#
# Total GULP energy -179042.186332 kJ/mol
# GULP energy per Si atom -5595.068323 kJ/mol
# Density = 2.052192 g / cm^3
# Si number density = 20.568733 Si / 1000 Ang^3
#
#
#
# Elastic Constant Matrix: (Units=GPa)
#
#
# Indices 1 2 3 4 5 6 
#
# 1 67.7174 -10.4859 3.3119 0.0000 6.4145 0.0000
# 2 -10.4859 12.8913 -6.2782 0.0008 1.8609 -0.0008
# 3 3.3119 -6.2782 89.9816 0.0002 4.2644 0.0000
# 4 0.0000 0.0008 0.0002 25.1039 0.0000 3.5500
# 5 6.4145 1.8609 4.2644 0.0000 36.1491 0.0000
# 6 0.0000 -0.0008 0.0000 3.5500 0.0000 27.0528
#
#
#
# Elastic Compliance Matrix: (Units=1/GPa)
#
#
# Indices 1 2 3 4 5 6 
#
# 1 0.017441 0.015045 0.000594 -0.000001 -0.003939 0.000001
# 2 0.015045 0.094123 0.006405 -0.000003 -0.008271 0.000003
# 3 0.000594 0.006405 0.011624 0.000000 -0.001806 0.000000
# 4 -0.000001 -0.000003 0.000000 0.040588 0.000000 -0.005326
# 5 -0.003939 -0.008271 -0.001806 0.000000 0.029001 0.000000
# 6 0.000001 0.000003 0.000000 -0.005326 0.000000 0.037664
#
#
# Mechanical properties :
#
#
# Convention : Reuss Voigt Hill
#
# Bulk Modulus (GPa) = 5.97811 15.96509 10.97160
# Shear Modulus (GPa) = 20.65180 29.93066 25.29123
#
# Velocity S-wave (km/s) = 3.17209 3.81879 3.51036
# Velocity P-wave (km/s) = 4.04091 5.21755 4.66647
#
# Compressibility (1/GPa) = 0.16727700
#
# Stress axis : x y z
#
# Youngs Moduli (GPa) = 57.33609 10.62444 86.02868
#
# Poissons Ratio (x) = -0.15984 -0.05114
# Poissons Ratio (y) = -0.86262 -0.55104
# Poissons Ratio (z) = -0.03408 -0.06805
#
# Static dielectric constant tensor:
#      x y z
#    x 1.732300 0.000000 0.006920 
#    y 0.000000 1.702110 0.000000 
#    z 0.006920 0.000000 1.720560 
# 
# From -- ./inp_files/249855.got.cif
#   From: 2010.05.17/outbox.cif.g08.bks.cpg/sg12_125_cif.got.tgz:249855.got - 2010.06.03 13:09:07.
