data_PCOD9215703
_publ_section_title
;
Structure prediction by ZEFSAII (Michael W. Deem and Ramdas Pophale) SiO2 
 PCOD9215703
Probable space group: C 2/M
;
_chemical_formula_sum "Si O2"
_cell_formula_units_Z 48
_cell_length_a 21.008293
_cell_length_b 23.116502
_cell_length_c 5.849651
_cell_angle_alpha 90.000000
_cell_angle_beta 47.112070
_cell_angle_gamma 90.000000
_cell_volume 2081.425642
_symmetry_space_group_name_H-M "C 2/M"
_symmetry_group_IT_number 12
_symmetry_cell_setting 'monoclinic'
loop_
_space_group_symop_operation_xyz
x,y,z
-x,y,-z
-x,-y,-z
x,-y,z
1/2+x,1/2+y,z
1/2-x,1/2+y,-z
1/2-x,1/2-y,-z
1/2+x,1/2-y,z
loop_
_atom_site_type_symbol
_atom_site_label
_atom_site_fract_x
_atom_site_fract_y
_atom_site_fract_z
Si Si1 0.222112 0.932759 0.763986
Si Si2 0.135684 0.156668 0.626404
Si Si3 0.579341 0.756683 0.474473
Si Si4 0.697841 0.209980 0.809811
Si Si5 0.078393 0.939864 0.484424
Si Si6 0.095512 0.369475 0.719227
O O1 0.168082 0.881523 0.763672
O O2 0.322294 0.911328 0.527991
O O3 0.219331 0.000000 0.678466
O O4 0.169586 0.936871 0.128617
O O5 0.090821 0.218417 0.675838
O O6 0.229067 0.166672 0.278181
O O7 0.071488 0.114848 0.655140
O O8 0.500000 0.741844 0.500000
O O9 0.581386 0.823146 0.550159
O O10 0.658882 0.751217 0.102972
O O11 0.750000 0.250000 0.500000
O O12 0.626483 0.170959 0.856685
O O13 0.000000 0.939983 0.500000
O O14 0.075741 0.000000 0.623590
O O15 0.000000 0.395827 0.000000
#
# Coordination Sequence:
#
# PCOD9215703 Si02
#       6
#     8   8   8   8   8   8
#     4  10  24  44  68  94 126 170 223 277 324 376
#     4  11  23  37  63  91 129 165 214 256 319 393
#     4  12  24  39  62  94 136 171 210 261 325 396
#     4  11  23  39  61  90 127 172 211 261 320 384
#     4  10  22  42  63  90 128 169 216 270 325 381
#     4  11  23  43  66  94 134 174 217 269 322 389
#
# _framework density 23.061116999999999
#
# number of rings (size 3 to 8) (size 9 to 14) (size 15 to 20)
#    0.000    1.167    3.333    2.500    4.667    1.000 
#    6.000    2.500    0.000    0.500    0.000    0.000 
#    0.000    0.000    0.000    0.000    0.000    0.000 
#
# Total GULP energy -133716.604283 kJ/mol
# GULP energy per Si atom -5571.525178 kJ/mol
# Density = 2.300863 g / cm^3
# Si number density = 23.061117 Si / 1000 Ang^3
#
#
#
# Elastic Constant Matrix: (Units=GPa)
#
#
# Indices 1 2 3 4 5 6 
#
# 1 111.3507 27.0533 18.5348 0.0000 -26.7205 0.0000
# 2 27.0533 106.4485 32.6605 0.0000 -2.4676 0.0000
# 3 18.5348 32.6605 110.2495 0.0000 -21.9706 0.0000
# 4 0.0000 0.0000 0.0000 38.3360 0.0000 5.0071
# 5 -26.7205 -2.4676 -21.9706 0.0000 23.4468 0.0000
# 6 0.0000 0.0000 0.0000 5.0071 0.0000 93.7991
#
#
#
# Elastic Compliance Matrix: (Units=1/GPa)
#
#
# Indices 1 2 3 4 5 6 
#
# 1 0.013673 -0.003769 0.002268 0.000000 0.017310 0.000000
# 2 -0.003769 0.011465 -0.004154 0.000000 -0.006981 0.000000
# 3 0.002268 -0.004154 0.012723 0.000000 0.014069 0.000000
# 4 0.000000 0.000000 0.000000 0.026268 0.000000 -0.001402
# 5 0.017310 -0.006981 0.014069 0.000000 0.074825 0.000000
# 6 0.000000 0.000000 0.000000 -0.001402 0.000000 0.010736
#
#
# Mechanical properties :
#
#
# Convention : Reuss Voigt Hill
#
# Bulk Modulus (GPa) = 37.66541 53.83843 45.75192
# Shear Modulus (GPa) = 29.43746 47.76972 38.60359
#
# Velocity S-wave (km/s) = 3.57669 4.55624 4.09585
# Velocity P-wave (km/s) = 5.78146 7.14673 6.50004
#
# Compressibility (1/GPa) = 0.02654956
#
# Stress axis : x y z
#
# Youngs Moduli (GPa) = 73.13820 87.22322 78.59512
#
# Poissons Ratio (x) = 0.32877 -0.17822
# Poissons Ratio (y) = 0.27568 0.32648
# Poissons Ratio (z) = -0.16584 0.36232
#
# Static dielectric constant tensor:
#      x y z
#    x 1.924910 0.000000 0.007170 
#    y 0.000000 1.924490 0.000000 
#    z 0.007170 0.000000 1.907630 
# 
# From -- ./inp_files/21780.got.cif
#   From: 2010.05.17/outbox.cif.g08.bks.cpg/sg12_11_cif.got.tgz:21780.got - 2010.06.03 13:09:07.
