data_PCOD9215296
_publ_section_title
;
Structure prediction by ZEFSAII (Michael W. Deem and Ramdas Pophale) SiO2 
 PCOD9215296
Probable space group: C 2/M
;
_chemical_formula_sum "Si O2"
_cell_formula_units_Z 56
_cell_length_a 24.045024
_cell_length_b 8.936141
_cell_length_c 13.345435
_cell_angle_alpha 90.000000
_cell_angle_beta 103.136259
_cell_angle_gamma 90.000000
_cell_volume 2792.493393
_symmetry_space_group_name_H-M "C 2/M"
_symmetry_group_IT_number 12
_symmetry_cell_setting 'monoclinic'
loop_
_space_group_symop_operation_xyz
x,y,z
-x,y,-z
-x,-y,-z
x,-y,z
1/2+x,1/2+y,z
1/2-x,1/2+y,-z
1/2-x,1/2-y,-z
1/2+x,1/2-y,z
loop_
_atom_site_type_symbol
_atom_site_label
_atom_site_fract_x
_atom_site_fract_y
_atom_site_fract_z
Si Si1 0.938606 0.177950 0.022816
Si Si2 0.652216 0.178624 0.161723
Si Si3 0.602037 0.821941 0.361872
Si Si4 0.012564 0.178385 0.621564
Si Si5 0.896790 0.677339 0.207542
Si Si6 0.803607 0.821337 0.464503
Si Si7 0.715770 0.678077 0.778955
O O1 0.928853 0.262693 0.122665
O O2 0.935709 0.000000 0.038627
O O3 0.889511 0.230630 0.926847
O O4 0.000000 0.213537 0.000000
O O5 0.634202 0.204628 0.269798
O O6 0.718545 0.217982 0.173369
O O7 0.645819 0.000000 0.140529
O O8 0.540013 0.747124 0.337891
O O9 0.639832 0.750164 0.465277
O O10 0.596991 0.000000 0.373956
O O11 0.000000 0.210733 0.500000
O O12 0.070821 0.250143 0.684627
O O13 0.015055 0.000000 0.635537
O O14 0.899492 0.500000 0.214309
O O15 0.831618 0.733199 0.179102
O O16 0.750000 0.750000 0.500000
O O17 0.796182 0.793524 0.343581
O O18 0.804401 0.000000 0.480079
O O19 0.708922 0.500000 0.793248
#
# Coordination Sequence:
#
# PCOD9215296 Si02
#       7
#     8   8   8   8   8   8   8
#     4  11  25  45  69  95 123 160 208 259 314 378
#     4  10  22  41  64  92 125 162 206 258 315 371
#     4  11  22  38  61  93 128 164 210 264 316 372
#     4  11  24  42  63  90 126 169 210 255 313 374
#     4  12  26  43  66  95 126 166 209 259 316 372
#     4  11  21  36  59  89 128 172 213 257 312 370
#     4  10  22  42  63  89 129 171 209 257 314 374
#
# _framework density 20.053764000000001
#
# number of rings (size 3 to 8) (size 9 to 14) (size 15 to 20)
#    0.000    1.143    1.429    4.714    0.000   11.429 
#    0.000    0.000    0.000    0.000    0.000    0.000 
#    0.000    0.000    0.000    0.000    0.000    0.000 
#
# Total GULP energy -156708.872901 kJ/mol
# GULP energy per Si atom -5596.745461 kJ/mol
# Density = 2.000812 g / cm^3
# Si number density = 20.053764 Si / 1000 Ang^3
#
#
#
# Elastic Constant Matrix: (Units=GPa)
#
#
# Indices 1 2 3 4 5 6 
#
# 1 132.0806 54.4474 29.4799 0.0000 8.0754 0.0000
# 2 54.4474 73.3258 49.5204 0.0000 -4.0547 0.0000
# 3 29.4799 49.5204 74.6485 0.0000 13.1074 0.0000
# 4 0.0000 0.0000 0.0000 29.0467 0.0000 2.9194
# 5 8.0754 -4.0547 13.1074 0.0000 33.6375 0.0000
# 6 0.0000 0.0000 0.0000 2.9194 0.0000 30.8308
#
#
#
# Elastic Compliance Matrix: (Units=1/GPa)
#
#
# Indices 1 2 3 4 5 6 
#
# 1 0.012005 -0.012271 0.004471 0.000000 -0.006104 0.000000
# 2 -0.012271 0.040883 -0.025395 0.000000 0.017769 0.000000
# 3 0.004471 -0.025395 0.031348 0.000000 -0.016350 0.000000
# 4 0.000000 0.000000 0.000000 0.034758 0.000000 -0.003291
# 5 -0.006104 0.017769 -0.016350 0.000000 0.039707 0.000000
# 6 0.000000 0.000000 0.000000 -0.003291 0.000000 0.032747
#
#
# Mechanical properties :
#
#
# Convention : Reuss Voigt Hill
#
# Bulk Modulus (GPa) = 56.03624 60.77226 58.40425
# Shear Modulus (GPa) = 18.95483 28.47680 23.71582
#
# Velocity S-wave (km/s) = 3.07775 3.77241 3.44264
# Velocity P-wave (km/s) = 6.37446 7.02461 6.70742
#
# Compressibility (1/GPa) = 0.01784559
#
# Stress axis : x y z
#
# Youngs Moduli (GPa) = 83.29914 24.46025 31.90045
#
# Poissons Ratio (x) = 0.30016 -0.14264
# Poissons Ratio (y) = 1.02220 0.81010
# Poissons Ratio (z) = -0.37246 0.62116
#
# Static dielectric constant tensor:
#      x y z
#    x 1.713600 0.000000 0.001450 
#    y 0.000000 1.662630 0.000000 
#    z 0.001450 0.000000 1.699880 
# 
# From -- ./inp_files/237840.got.cif
#   From: 2010.05.17/outbox.cif.g08.bks.cpg/sg12_119_cif.got.tgz:237840.got - 2010.06.03 13:09:07.
