data_PCOD9215943
_publ_section_title
;
Structure prediction by ZEFSAII (Michael W. Deem and Ramdas Pophale) SiO2 
 PCOD9215943
Probable space group: C 2/M
;
_chemical_formula_sum "Si O2"
_cell_formula_units_Z 42
_cell_length_a 8.095863
_cell_length_b 33.289728
_cell_length_c 8.870935
_cell_angle_alpha 90.000000
_cell_angle_beta 56.413703
_cell_angle_gamma 90.000000
_cell_volume 1991.662391
_symmetry_space_group_name_H-M "C 2/M"
_symmetry_group_IT_number 12
_symmetry_cell_setting 'monoclinic'
loop_
_space_group_symop_operation_xyz
x,y,z
-x,y,-z
-x,-y,-z
x,-y,z
1/2+x,1/2+y,z
1/2-x,1/2+y,-z
1/2-x,1/2-y,-z
1/2+x,1/2-y,z
loop_
_atom_site_type_symbol
_atom_site_label
_atom_site_fract_x
_atom_site_fract_y
_atom_site_fract_z
Si Si1 0.480403 0.279867 0.187466
Si Si2 0.173467 0.136231 0.790387
Si Si3 0.218619 0.206429 0.323706
Si Si4 0.299806 0.935618 0.506262
Si Si5 0.000000 0.000000 0.500000
Si Si6 0.053079 0.626444 0.798085
O O1 0.364651 0.321780 0.275963
O O2 0.373671 0.239713 0.298003
O O3 0.690628 0.285145 0.159999
O O4 0.500000 0.278964 0.000000
O O5 0.205876 0.099321 0.659923
O O6 0.367192 0.140909 0.794135
O O7 0.000000 0.128505 0.000000
O O8 0.285401 0.161017 0.304203
O O9 0.000000 0.212845 0.500000
O O10 0.500000 0.949951 0.500000
O O11 0.380326 0.914541 0.313836
O O12 0.129891 0.965582 0.531987
O O13 0.000000 0.621917 0.000000
#
# Coordination Sequence:
#
# PCOD9215943 Si02
#       6
#     8   8   8   8   2   8
#     4  11  22  37  57  86 130 174 223 271 322 376
#     4  10  22  42  68  96 133 173 221 273 330 389
#     4  12  24  37  58  91 130 176 226 271 323 379
#     4  10  25  46  71 103 136 171 217 273 335 403
#     4  12  26  44  84  94 140 166 222 260 352 398
#     4  11  23  40  67  96 133 174 224 271 324 394
#
# _framework density 21.087910999999998
#
# number of rings (size 3 to 8) (size 9 to 14) (size 15 to 20)
#    0.000    1.143    0.000    6.571    6.667    2.286 
#    0.000    0.952    0.000    0.000    0.000    0.000 
#    0.000    0.000    0.000    0.000    0.000    0.000 
#
# Total GULP energy -117032.095816 kJ/mol
# GULP energy per Si atom -5572.956944 kJ/mol
# Density = 2.103991 g / cm^3
# Si number density = 21.087911 Si / 1000 Ang^3
#
#
#
# Elastic Constant Matrix: (Units=GPa)
#
#
# Indices 1 2 3 4 5 6 
#
# 1 116.3195 49.2991 3.7259 0.0000 21.9345 0.0000
# 2 49.2991 98.4705 21.8897 0.0000 10.9946 0.0000
# 3 3.7259 21.8897 75.6587 0.0000 12.8265 0.0000
# 4 0.0000 0.0000 0.0000 -10.1878 0.0000 14.5536
# 5 21.9345 10.9946 12.8265 0.0000 32.4735 0.0000
# 6 0.0000 0.0000 0.0000 14.5536 0.0000 31.9732
#
#
#
# Elastic Compliance Matrix: (Units=1/GPa)
#
#
# Indices 1 2 3 4 5 6 
#
# 1 0.012406 -0.005916 0.002338 0.000000 -0.007300 0.000000
# 2 -0.005916 0.013884 -0.003865 0.000000 0.000822 0.000000
# 3 0.002338 -0.003865 0.015290 0.000000 -0.006310 0.000000
# 4 0.000000 0.000000 0.000000 -0.059480 0.000000 0.027074
# 5 -0.007300 0.000822 -0.006310 0.000000 0.037940 0.000000
# 6 0.000000 0.000000 0.000000 0.027074 0.000000 0.018953
#
#
# Mechanical properties :
#
#
# Convention : Reuss Voigt Hill
#
# Bulk Modulus (GPa) = 37.45937 48.91978 43.18957
# Shear Modulus (GPa) = 79.64819 25.22070 52.43445
#
# Velocity S-wave (km/s) = 6.15236 3.46205 4.99186
# Velocity P-wave (km/s) = 8.26261 6.26334 7.33145
#
# Compressibility (1/GPa) = 0.02669559
#
# Stress axis : x y z
#
# Youngs Moduli (GPa) = 80.60623 72.02284 65.40174
#
# Poissons Ratio (x) = 0.42607 -0.15293
# Poissons Ratio (y) = 0.47684 0.25278
# Poissons Ratio (z) = -0.18848 0.27837
#
# Static dielectric constant tensor:
#      x y z
#    x 1.832430 0.000000 0.026280 
#    y 0.000000 1.727860 0.000000 
#    z 0.026280 0.000000 1.859670 
# 
# From -- ./inp_files/42083.got.cif
#   From: 2010.05.17/outbox.cif.g08.bks.cpg/sg12_22_cif.got.tgz:42083.got - 2010.06.03 13:09:07.
