data_PCOD9215372
_publ_section_title
;
Structure prediction by ZEFSAII (Michael W. Deem and Ramdas Pophale) SiO2 
 PCOD9215372
Probable space group: C 2/M
;
_chemical_formula_sum "Si O2"
_cell_formula_units_Z 64
_cell_length_a 26.973850
_cell_length_b 15.058667
_cell_length_c 11.723388
_cell_angle_alpha 90.000000
_cell_angle_beta 140.369304
_cell_angle_gamma 90.000000
_cell_volume 3037.330905
_symmetry_space_group_name_H-M "C 2/M"
_symmetry_group_IT_number 12
_symmetry_cell_setting 'monoclinic'
loop_
_space_group_symop_operation_xyz
x,y,z
-x,y,-z
-x,-y,-z
x,-y,z
1/2+x,1/2+y,z
1/2-x,1/2+y,-z
1/2-x,1/2-y,-z
1/2+x,1/2-y,z
loop_
_atom_site_type_symbol
_atom_site_label
_atom_site_fract_x
_atom_site_fract_y
_atom_site_fract_z
Si Si1 0.270349 0.646778 0.519631
Si Si2 0.824626 0.399671 0.430475
Si Si3 0.455612 0.398351 0.544668
Si Si4 0.587526 0.401893 0.117861
Si Si5 0.229772 0.096666 0.733887
Si Si6 0.992549 0.605971 0.848496
Si Si7 0.727463 0.275351 0.085996
Si Si8 0.933675 0.224102 0.124339
O O1 0.250000 0.750000 0.500000
O O2 0.234258 0.602490 0.567290
O O3 0.361740 0.629172 0.686787
O O4 0.250299 0.602749 0.365067
O O5 0.831448 0.500000 0.397209
O O6 0.907084 0.377267 0.639147
O O7 0.786516 0.336975 0.264696
O O8 0.500000 0.388330 0.500000
O O9 0.473885 0.500000 0.615053
O O10 0.361339 0.391521 0.389400
O O11 0.491672 0.324612 0.691228
O O12 0.611238 0.500000 0.118794
O O13 0.500000 0.407074 0.000000
O O14 0.594075 0.325539 0.038086
O O15 0.274632 0.180983 0.856784
O O16 0.253481 0.000000 0.819435
O O17 0.009013 0.500000 0.863711
O O18 0.047025 0.674978 0.876571
O O19 0.000000 0.623718 0.000000
O O20 0.750000 0.250000 0.000000
O O21 0.637685 0.302595 0.920578
#
# Coordination Sequence:
#
# PCOD9215372 Si02
#       8
#     8   8   8   8   8   8   8   8
#     4  12  23  39  63  99 133 174 209 266 339 408
#     4  11  24  45  70  95 135 180 223 279 341 406
#     4  10  22  41  65  92 124 168 217 266 321 384
#     4  11  23  37  59  96 135 167 205 257 327 411
#     4  11  23  41  65  93 128 168 214 270 327 390
#     4  10  25  44  67  98 131 174 226 280 338 401
#     4  12  27  44  65  97 132 176 228 272 326 395
#     4  12  23  38  65  90 127 171 213 272 327 388
#
# _framework density 21.071131000000001
#
# number of rings (size 3 to 8) (size 9 to 14) (size 15 to 20)
#    0.000    0.875    2.500    4.125    5.250    3.500 
#    0.000    0.000    0.000    1.875    0.000    0.000 
#    0.000    0.000    0.000    0.000    0.000    0.000 
#
# Total GULP energy -178370.274091 kJ/mol
# GULP energy per Si atom -5574.071065 kJ/mol
# Density = 2.102317 g / cm^3
# Si number density = 21.071131 Si / 1000 Ang^3
#
#
#
# Elastic Constant Matrix: (Units=GPa)
#
#
# Indices 1 2 3 4 5 6 
#
# 1 77.1221 7.5876 16.1972 0.0000 -8.1951 0.0000
# 2 7.5876 98.8558 35.9524 0.0000 3.4765 0.0000
# 3 16.1972 35.9524 77.4627 0.0000 4.9658 0.0000
# 4 0.0000 0.0000 0.0000 -5.5173 0.0000 38.9120
# 5 -8.1951 3.4765 4.9658 0.0000 32.2632 0.0000
# 6 0.0000 0.0000 0.0000 38.9120 0.0000 7.0063
#
#
#
# Elastic Compliance Matrix: (Units=1/GPa)
#
#
# Indices 1 2 3 4 5 6 
#
# 1 0.014072 -0.000070 -0.003171 0.000000 0.004070 0.000000
# 2 -0.000070 0.012177 -0.005607 0.000000 -0.000467 0.000000
# 3 -0.003171 -0.005607 0.016349 0.000000 -0.002718 0.000000
# 4 0.000000 0.000000 0.000000 -0.004512 0.000000 0.025059
# 5 0.004070 -0.000467 -0.002718 0.000000 0.032497 0.000000
# 6 0.000000 0.000000 0.000000 0.025059 0.000000 0.003553
#
#
# Mechanical properties :
#
#
# Convention : Reuss Voigt Hill
#
# Bulk Modulus (GPa) = 40.15750 41.43499 40.79625
# Shear Modulus (GPa) = 49.93409 19.66401 34.79905
#
# Velocity S-wave (km/s) = 4.87333 3.05818 4.06828
# Velocity P-wave (km/s) = 7.12497 5.67248 6.43980
#
# Compressibility (1/GPa) = 0.02490195
#
# Stress axis : x y z
#
# Youngs Moduli (GPa) = 71.06445 82.12409 61.16591
#
# Poissons Ratio (x) = 0.00575 0.19394
# Poissons Ratio (y) = 0.00498 0.34295
# Poissons Ratio (z) = 0.22533 0.46046
#
# Static dielectric constant tensor:
#      x y z
#    x 1.948210 0.000000 -0.148220 
#    y 0.000000 1.873430 0.000000 
#    z -0.148220 0.000000 1.988600 
# 
# From -- ./inp_files/183857.got.cif
#   From: 2010.05.17/outbox.cif.g08.bks.cpg/sg12_92_cif.got.tgz:183857.got - 2010.06.03 13:09:07.
