data_PCOD9215289
_publ_section_title
;
Structure prediction by ZEFSAII (Michael W. Deem and Ramdas Pophale) SiO2 
 PCOD9215289
Probable space group: C 2/M
;
_chemical_formula_sum "Si O2"
_cell_formula_units_Z 48
_cell_length_a 11.192272
_cell_length_b 24.529922
_cell_length_c 9.354648
_cell_angle_alpha 90.000000
_cell_angle_beta 63.847273
_cell_angle_gamma 90.000000
_cell_volume 2305.342863
_symmetry_space_group_name_H-M "C 2/M"
_symmetry_group_IT_number 12
_symmetry_cell_setting 'monoclinic'
loop_
_space_group_symop_operation_xyz
x,y,z
-x,y,-z
-x,-y,-z
x,-y,z
1/2+x,1/2+y,z
1/2-x,1/2+y,-z
1/2-x,1/2-y,-z
1/2+x,1/2-y,z
loop_
_atom_site_type_symbol
_atom_site_label
_atom_site_fract_x
_atom_site_fract_y
_atom_site_fract_z
Si Si1 0.286799 0.391384 0.422363
Si Si2 0.658374 0.500000 0.430592
Si Si3 0.281941 0.896452 0.875818
Si Si4 0.972344 0.327794 0.347870
Si Si5 0.643291 0.720930 0.655970
Si Si6 0.656194 0.289754 0.959078
Si Si7 0.659909 0.000000 0.953833
O O1 0.313096 0.445845 0.493490
O O2 0.257763 0.406752 0.270610
O O3 0.163628 0.362342 0.569291
O O4 0.392529 0.340846 0.367636
O O5 0.500000 0.500000 0.500000
O O6 0.748425 0.500000 0.238251
O O7 0.421239 0.864412 0.789195
O O8 0.177982 0.852330 0.994298
O O9 0.302622 0.947982 0.966534
O O10 0.967014 0.267768 0.282223
O O11 0.000000 0.319574 0.500000
O O12 0.750000 0.750000 0.500000
O O13 0.716026 0.714069 0.768086
O O14 0.500000 0.281458 0.000000
O O15 0.750000 0.250000 0.000000
O O16 0.500000 0.000000 0.000000
#
# Coordination Sequence:
#
# PCOD9215289 Si02
#       7
#     8   4   8   8   8   8   4
#     4   9  20  40  62  87 125 171 215 262 329 407
#     4  12  27  44  63  92 126 170 226 286 340 396
#     4  10  22  41  64  91 127 173 219 268 332 412
#     4   9  17  34  64  97 126 163 215 270 329 399
#     4   9  19  36  61  93 125 166 212 261 324 397
#     4  11  24  40  62  95 133 173 216 271 342 408
#     4  12  27  44  67 100 132 174 233 296 352 400
#
# _framework density 20.821197000000002
#
# number of rings (size 3 to 8) (size 9 to 14) (size 15 to 20)
#    0.000    2.000    0.000    3.500    0.000    8.000 
#    0.000    4.583    0.000    0.000    0.000    0.000 
#    0.000    0.000    0.000    0.000    0.000    0.000 
#
# Total GULP energy -133622.686985 kJ/mol
# GULP energy per Si atom -5567.611958 kJ/mol
# Density = 2.077381 g / cm^3
# Si number density = 20.821197 Si / 1000 Ang^3
#
#
#
# Elastic Constant Matrix: (Units=GPa)
#
#
# Indices 1 2 3 4 5 6 
#
# 1 108.2429 92.1547 45.0670 0.0000 -9.8408 0.0000
# 2 92.1547 238.8163 82.3927 0.0000 28.2104 0.0000
# 3 45.0670 82.3927 101.9246 0.0000 1.6689 0.0000
# 4 0.0000 0.0000 0.0000 30.7206 0.0000 12.5483
# 5 -9.8408 28.2104 1.6689 0.0000 22.8462 0.0000
# 6 0.0000 0.0000 0.0000 12.5483 0.0000 38.8216
#
#
#
# Elastic Compliance Matrix: (Units=1/GPa)
#
#
# Indices 1 2 3 4 5 6 
#
# 1 0.019860 -0.009631 -0.001333 0.000000 0.020544 0.000000
# 2 -0.009631 0.011783 -0.004966 0.000000 -0.018335 0.000000
# 3 -0.001333 -0.004966 0.014341 0.000000 0.004511 0.000000
# 4 0.000000 0.000000 0.000000 0.037503 0.000000 -0.012122
# 5 0.020544 -0.018335 0.004511 0.000000 0.074931 0.000000
# 6 0.000000 0.000000 0.000000 -0.012122 0.000000 0.029677
#
#
# Mechanical properties :
#
#
# Convention : Reuss Voigt Hill
#
# Bulk Modulus (GPa) = 70.79668 98.69030 84.74349
# Shear Modulus (GPa) = 22.25550 33.76896 28.01223
#
# Velocity S-wave (km/s) = 3.27293 4.03159 3.67191
# Velocity P-wave (km/s) = 6.95405 8.31706 7.66591
#
# Compressibility (1/GPa) = 0.01412496
#
# Stress axis : x y z
#
# Youngs Moduli (GPa) = 50.35135 84.86830 69.72894
#
# Poissons Ratio (x) = 0.81735 0.09292
# Poissons Ratio (y) = 0.48492 0.34630
# Poissons Ratio (z) = 0.06710 0.42149
#
# Static dielectric constant tensor:
#      x y z
#    x 1.871450 0.000000 -0.086980 
#    y 0.000000 1.786370 0.000000 
#    z -0.086980 0.000000 1.838140 
# 
# From -- ./inp_files/51383.got.cif
#   From: 2010.05.17/outbox.cif.g08.bks.cpg/sg12_26_cif.got.tgz:51383.got - 2010.06.03 13:09:07.
