data_PCOD9215213
_publ_section_title
;
Structure prediction by ZEFSAII (Michael W. Deem and Ramdas Pophale) SiO2 
 PCOD9215213
Probable space group: C 2/M
;
_chemical_formula_sum "Si O2"
_cell_formula_units_Z 64
_cell_length_a 14.981963
_cell_length_b 8.687651
_cell_length_c 28.734873
_cell_angle_alpha 90.000000
_cell_angle_beta 129.667056
_cell_angle_gamma 90.000000
_cell_volume 2878.985597
_symmetry_space_group_name_H-M "C 2/M"
_symmetry_group_IT_number 12
_symmetry_cell_setting 'monoclinic'
loop_
_space_group_symop_operation_xyz
x,y,z
-x,y,-z
-x,-y,-z
x,-y,z
1/2+x,1/2+y,z
1/2-x,1/2+y,-z
1/2-x,1/2-y,-z
1/2+x,1/2-y,z
loop_
_atom_site_type_symbol
_atom_site_label
_atom_site_fract_x
_atom_site_fract_y
_atom_site_fract_z
Si Si1 0.739299 0.185833 0.354793
Si Si2 0.010853 0.680914 0.703087
Si Si3 0.669034 0.317175 0.513342
Si Si4 0.460221 0.178154 0.393940
Si Si5 0.744810 0.819045 0.191808
Si Si6 0.481221 0.315998 0.851634
Si Si7 0.416540 0.687179 0.014503
Si Si8 0.203219 0.683081 0.887086
O O1 0.604561 0.230929 0.308154
O O2 0.788785 0.234839 0.421922
O O3 0.829787 0.258271 0.349347
O O4 0.743388 0.000000 0.353053
O O5 0.034657 0.500000 0.721819
O O6 0.985313 0.689297 0.639392
O O7 0.125441 0.778262 0.749517
O O8 0.679090 0.500000 0.516128
O O9 0.750000 0.250000 0.500000
O O10 0.539026 0.270201 0.456357
O O11 0.459114 0.000000 0.406901
O O12 0.644788 0.760073 0.193024
O O13 0.732662 0.727435 0.139200
O O14 0.731960 0.000000 0.180145
O O15 0.470211 0.500000 0.847258
O O16 0.535054 0.263909 0.919588
O O17 0.578013 0.261625 0.847549
O O18 0.416250 0.500000 0.014828
O O19 0.500000 0.735958 0.000000
O O20 0.287267 0.736739 0.956905
O O21 0.189172 0.500000 0.884912
#
# Coordination Sequence:
#
# PCOD9215213 Si02
#       8
#     8   8   8   8   8   8   8   8
#     4  10  22  41  63  90 124 162 200 245 303 363
#     4  10  23  45  65  84 120 164 206 256 312 361
#     4  11  21  37  62  92 127 164 200 245 302 364
#     4  11  23  40  63  94 125 159 202 249 302 364
#     4  12  26  43  63  91 122 161 213 259 309 367
#     4  11  22  40  65  93 127 164 204 253 307 366
#     4   9  17  34  62  93 124 162 202 244 305 370
#     4  11  22  40  65  93 127 164 203 252 309 368
#
# _framework density 22.230052000000001
#
# number of rings (size 3 to 8) (size 9 to 14) (size 15 to 20)
#    0.000    1.375    2.500    3.375    0.000    5.000 
#    0.000    5.000    0.000    0.000    0.000    0.000 
#    0.000    0.000    0.000    0.000    0.000    0.000 
#
# Total GULP energy -179009.236159 kJ/mol
# GULP energy per Si atom -5594.038630 kJ/mol
# Density = 2.217946 g / cm^3
# Si number density = 22.230052 Si / 1000 Ang^3
#
#
#
# Elastic Constant Matrix: (Units=GPa)
#
#
# Indices 1 2 3 4 5 6 
#
# 1 111.4825 7.5882 -0.3315 0.0000 31.8399 0.0000
# 2 7.5882 38.4777 5.9836 0.0000 10.8333 0.0000
# 3 -0.3315 5.9836 58.9933 0.0000 20.8443 0.0000
# 4 0.0000 0.0000 0.0000 21.2420 0.0000 4.3968
# 5 31.8399 10.8333 20.8443 0.0000 36.9658 0.0000
# 6 0.0000 0.0000 0.0000 4.3968 0.0000 33.5660
#
#
#
# Elastic Compliance Matrix: (Units=1/GPa)
#
#
# Indices 1 2 3 4 5 6 
#
# 1 0.013006 0.000660 0.005036 0.000000 -0.014235 0.000000
# 2 0.000660 0.028360 0.000331 0.000000 -0.009066 0.000000
# 3 0.005036 0.000331 0.023119 0.000000 -0.017471 0.000000
# 4 0.000000 0.000000 0.000000 0.048389 0.000000 -0.006338
# 5 -0.014235 -0.009066 -0.017471 0.000000 0.051822 0.000000
# 6 0.000000 0.000000 0.000000 -0.006338 0.000000 0.030622
#
#
# Mechanical properties :
#
#
# Convention : Reuss Voigt Hill
#
# Bulk Modulus (GPa) = 13.06548 26.15934 19.61241
# Shear Modulus (GPa) = 23.94899 31.40229 27.67564
#
# Velocity S-wave (km/s) = 3.28582 3.76254 3.53223
# Velocity P-wave (km/s) = 4.50396 5.53794 5.04749
#
# Compressibility (1/GPa) = 0.07653753
#
# Stress axis : x y z
#
# Youngs Moduli (GPa) = 76.88907 35.26083 43.25468
#
# Poissons Ratio (x) = -0.02327 -0.21783
# Poissons Ratio (y) = -0.05074 -0.01430
# Poissons Ratio (z) = -0.38721 -0.01165
#
# Static dielectric constant tensor:
#      x y z
#    x 1.812170 0.000000 0.000930 
#    y 0.000000 1.737720 0.000000 
#    z 0.000930 0.000000 1.862600 
# 
# From -- ./inp_files/375538.got.cif
#   From: 2010.05.17/outbox.cif.g08.bks.cpg/sg12_188_cif.got.tgz:375538.got - 2010.06.03 13:09:07.
