data_PCOD9215600
_publ_section_title
;
Structure prediction by ZEFSAII (Michael W. Deem and Ramdas Pophale) SiO2 
 PCOD9215600
Probable space group: C 2/M
;
_chemical_formula_sum "Si O2"
_cell_formula_units_Z 42
_cell_length_a 20.999286
_cell_length_b 7.948485
_cell_length_c 12.089831
_cell_angle_alpha 90.000000
_cell_angle_beta 78.417014
_cell_angle_gamma 90.000000
_cell_volume 1976.848436
_symmetry_space_group_name_H-M "C 2/M"
_symmetry_group_IT_number 12
_symmetry_cell_setting 'monoclinic'
loop_
_space_group_symop_operation_xyz
x,y,z
-x,y,-z
-x,-y,-z
x,-y,z
1/2+x,1/2+y,z
1/2-x,1/2+y,-z
1/2-x,1/2-y,-z
1/2+x,1/2-y,z
loop_
_atom_site_type_symbol
_atom_site_label
_atom_site_fract_x
_atom_site_fract_y
_atom_site_fract_z
Si Si1 0.596741 0.798155 0.497561
Si Si2 0.627879 0.194143 0.733621
Si Si3 0.725106 0.201699 0.321553
Si Si4 0.312099 0.198064 0.906159
Si Si5 0.500000 0.500000 0.500000
Si Si6 0.071755 0.806679 0.980296
O O1 0.592239 0.766493 0.631030
O O2 0.671035 0.771229 0.433329
O O3 0.553652 0.653401 0.457250
O O4 0.582057 0.000000 0.481402
O O5 0.704524 0.218422 0.687560
O O6 0.603948 0.295973 0.847912
O O7 0.615518 0.000000 0.765179
O O8 0.695789 0.266184 0.215087
O O9 0.735817 0.000000 0.312111
O O10 0.309204 0.000000 0.895592
O O11 0.250000 0.250000 0.000000
O O12 0.377830 0.236843 0.948353
O O13 0.063083 0.000000 0.015437
O O14 0.000000 0.726746 0.000000
#
# Coordination Sequence:
#
# PCOD9215600 Si02
#       6
#     8   8   8   8   2   8
#     4  10  25  46  67 102 136 175 225 276 334 401
#     4  11  23  40  69  98 132 169 216 284 336 398
#     4  10  22  41  68  97 134 170 219 280 332 397
#     4  11  22  39  65  95 129 175 219 273 331 388
#     4  12  26  44  72  94 138 188 216 270 330 416
#     4  11  25  43  63  93 134 177 224 273 331 402
#
# _framework density 21.245939
#
# number of rings (size 3 to 8) (size 9 to 14) (size 15 to 20)
#    0.000    1.333    1.905    2.571    4.000    3.810 
#    3.429    3.810    0.000    0.000    0.000    0.000 
#    0.000    0.000    0.000    0.000    0.000    0.000 
#
# Total GULP energy -116996.576734 kJ/mol
# GULP energy per Si atom -5571.265559 kJ/mol
# Density = 2.119758 g / cm^3
# Si number density = 21.245939 Si / 1000 Ang^3
#
#
#
# Elastic Constant Matrix: (Units=GPa)
#
#
# Indices 1 2 3 4 5 6 
#
# 1 88.6340 8.5255 11.7292 0.0000 -11.9440 0.0000
# 2 8.5255 48.1822 1.6427 0.0000 -0.0077 0.0000
# 3 11.7292 1.6427 55.4351 0.0000 10.4922 0.0000
# 4 0.0000 0.0000 0.0000 6.6451 0.0000 -11.5827
# 5 -11.9440 -0.0077 10.4922 0.0000 24.3649 0.0000
# 6 0.0000 0.0000 0.0000 -11.5827 0.0000 25.5254
#
#
#
# Elastic Compliance Matrix: (Units=1/GPa)
#
#
# Indices 1 2 3 4 5 6 
#
# 1 0.013181 -0.002184 -0.004297 0.000000 0.008311 0.000000
# 2 -0.002184 0.021140 0.000040 0.000000 -0.001082 0.000000
# 3 -0.004297 0.000040 0.021063 0.000000 -0.011177 0.000000
# 4 0.000000 0.000000 0.000000 0.719866 0.000000 0.326656
# 5 0.008311 -0.001082 -0.011177 0.000000 0.049930 0.000000
# 6 0.000000 0.000000 0.000000 0.326656 0.000000 0.187404
#
#
# Mechanical properties :
#
#
# Convention : Reuss Voigt Hill
#
# Bulk Modulus (GPa) = 23.52904 26.22735 24.87819
# Shear Modulus (GPa) = 4.80939 22.66400 13.73670
#
# Velocity S-wave (km/s) = 1.50618 3.26965 2.54551
# Velocity P-wave (km/s) = 3.75812 5.16000 4.51381
#
# Compressibility (1/GPa) = 0.04250067
#
# Stress axis : x y z
#
# Youngs Moduli (GPa) = 75.86594 47.30477 47.47765
#
# Poissons Ratio (x) = 0.10334 0.20402
# Poissons Ratio (y) = 0.16573 -0.00192
# Poissons Ratio (z) = 0.32602 -0.00191
#
# Static dielectric constant tensor:
#      x y z
#    x 1.783500 0.000000 0.045940 
#    y 0.000000 1.769850 0.000000 
#    z 0.045940 0.000000 1.752580 
# 
# From -- ./inp_files/162993.got.cif
#   From: 2010.05.17/outbox.cif.g08.bks.cpg/sg12_82_cif.got.tgz:162993.got - 2010.06.03 13:09:07.
