data_PCOD9215981
_publ_section_title
;
Structure prediction by ZEFSAII (Michael W. Deem and Ramdas Pophale) SiO2 
 PCOD9215981
Probable space group: C 2/M
;
_chemical_formula_sum "Si O2"
_cell_formula_units_Z 42
_cell_length_a 16.479211
_cell_length_b 18.124889
_cell_length_c 6.870976
_cell_angle_alpha 90.000000
_cell_angle_beta 69.773415
_cell_angle_gamma 90.000000
_cell_volume 1925.693015
_symmetry_space_group_name_H-M "C 2/M"
_symmetry_group_IT_number 12
_symmetry_cell_setting 'monoclinic'
loop_
_space_group_symop_operation_xyz
x,y,z
-x,y,-z
-x,-y,-z
x,-y,z
1/2+x,1/2+y,z
1/2-x,1/2+y,-z
1/2-x,1/2-y,-z
1/2+x,1/2-y,z
loop_
_atom_site_type_symbol
_atom_site_label
_atom_site_fract_x
_atom_site_fract_y
_atom_site_fract_z
Si Si1 0.628135 0.865187 0.524937
Si Si2 0.733641 0.585923 0.283276
Si Si3 0.445590 0.579617 0.351231
Si Si4 0.000000 0.500000 0.500000
Si Si5 0.936591 0.769158 0.204302
Si Si6 0.227047 0.176246 0.904918
O O1 0.684560 0.878456 0.675074
O O2 0.565467 0.933791 0.532028
O O3 0.582023 0.786845 0.605639
O O4 0.694891 0.854131 0.291919
O O5 0.752206 0.500000 0.242059
O O6 0.652593 0.592935 0.496567
O O7 0.709353 0.619046 0.093967
O O8 0.500000 0.571677 0.500000
O O9 0.448361 0.500000 0.243499
O O10 0.480555 0.653881 0.227662
O O11 0.850494 0.798394 0.170078
O O12 0.000000 0.729598 0.000000
O O13 0.250000 0.250000 0.000000
#
# Coordination Sequence:
#
# PCOD9215981 Si02
#       6
#     8   8   8   2   8   8
#     4  12  27  50  71 106 152 198 254 315 373 451
#     4  11  23  44  72 104 144 192 243 301 374 443
#     4  10  22  42  69 104 148 184 232 306 373 444
#     4  12  32  48  78 108 150 206 256 308 386 436
#     4  12  26  44  73 109 148 192 251 310 376 451
#     4  12  25  44  75 106 141 200 248 307 378 449
#
# _framework density 21.810331000000001
#
# number of rings (size 3 to 8) (size 9 to 14) (size 15 to 20)
#    0.000    0.571    4.762    2.857    5.333    1.143 
#    0.000    1.429    0.000    0.000    0.000    0.000 
#    0.000    0.000    0.000    0.000    0.000    0.000 
#
# Total GULP energy -117029.957602 kJ/mol
# GULP energy per Si atom -5572.855124 kJ/mol
# Density = 2.176069 g / cm^3
# Si number density = 21.810331 Si / 1000 Ang^3
#
#
#
# Elastic Constant Matrix: (Units=GPa)
#
#
# Indices 1 2 3 4 5 6 
#
# 1 94.9372 25.0992 13.7687 0.0000 11.3423 0.0000
# 2 25.0992 129.3679 38.3866 0.0000 7.7937 0.0000
# 3 13.7687 38.3866 80.6092 0.0000 -1.7218 0.0000
# 4 0.0000 0.0000 0.0000 23.7488 0.0000 13.0651
# 5 11.3423 7.7937 -1.7218 0.0000 26.6232 0.0000
# 6 0.0000 0.0000 0.0000 13.0651 0.0000 32.2152
#
#
#
# Elastic Compliance Matrix: (Units=1/GPa)
#
#
# Indices 1 2 3 4 5 6 
#
# 1 0.011699 -0.001596 -0.001337 0.000000 -0.004603 0.000000
# 2 -0.001596 0.009452 -0.004279 0.000000 -0.002364 0.000000
# 3 -0.001337 -0.004279 0.014731 0.000000 0.002775 0.000000
# 4 0.000000 0.000000 0.000000 0.054200 0.000000 -0.021981
# 5 -0.004603 -0.002364 0.002775 0.000000 0.040394 0.000000
# 6 0.000000 0.000000 0.000000 -0.021981 0.000000 0.039956
#
#
# Mechanical properties :
#
#
# Convention : Reuss Voigt Hill
#
# Bulk Modulus (GPa) = 46.60120 51.04702 48.82411
# Shear Modulus (GPa) = 26.04078 31.69477 28.86777
#
# Velocity S-wave (km/s) = 3.45913 3.81622 3.64205
# Velocity P-wave (km/s) = 6.11286 6.54781 6.33407
#
# Compressibility (1/GPa) = 0.02145867
#
# Stress axis : x y z
#
# Youngs Moduli (GPa) = 85.47734 105.80303 67.88545
#
# Poissons Ratio (x) = 0.16884 0.09074
# Poissons Ratio (y) = 0.13641 0.29047
# Poissons Ratio (z) = 0.11426 0.45271
#
# Static dielectric constant tensor:
#      x y z
#    x 1.864940 0.000000 0.022460 
#    y 0.000000 1.865210 0.000000 
#    z 0.022460 0.000000 1.685660 
# 
# From -- ./inp_files/16011.got.cif
#   From: 2010.05.17/outbox.cif.g08.bks.cpg/sg12_9_cif.got.tgz:16011.got - 2010.06.03 13:09:07.
