data_PCOD9215862
_publ_section_title
;
Structure prediction by ZEFSAII (Michael W. Deem and Ramdas Pophale) SiO2 
 PCOD9215862
Probable space group: C 2/M
;
_chemical_formula_sum "Si O2"
_cell_formula_units_Z 56
_cell_length_a 10.843024
_cell_length_b 15.189142
_cell_length_c 16.286661
_cell_angle_alpha 90.000000
_cell_angle_beta 77.504156
_cell_angle_gamma 90.000000
_cell_volume 2618.811346
_symmetry_space_group_name_H-M "C 2/M"
_symmetry_group_IT_number 12
_symmetry_cell_setting 'monoclinic'
loop_
_space_group_symop_operation_xyz
x,y,z
-x,y,-z
-x,-y,-z
x,-y,z
1/2+x,1/2+y,z
1/2-x,1/2+y,-z
1/2-x,1/2-y,-z
1/2+x,1/2-y,z
loop_
_atom_site_type_symbol
_atom_site_label
_atom_site_fract_x
_atom_site_fract_y
_atom_site_fract_z
Si Si1 0.174492 0.101638 0.320536
Si Si2 0.192788 0.400072 0.304612
Si Si3 0.882187 0.714389 0.076999
Si Si4 0.869759 0.902963 0.129567
Si Si5 0.359478 0.756624 0.552657
Si Si6 0.453828 0.898616 0.223116
Si Si7 0.846285 0.899021 0.863605
O O1 0.128183 0.166121 0.397536
O O2 0.327399 0.103986 0.296266
O O3 0.137497 0.132305 0.233369
O O4 0.133620 0.000000 0.336682
O O5 0.178728 0.500000 0.337789
O O6 0.316747 0.397244 0.229882
O O7 0.187683 0.330199 0.376803
O O8 0.077085 0.382177 0.259049
O O9 0.830975 0.813482 0.092183
O O10 0.761526 0.654614 0.075879
O O11 0.933548 0.673462 0.155565
O O12 0.000000 0.709978 0.000000
O O13 0.020928 0.898239 0.110515
O O14 0.831064 0.000000 0.102824
O O15 0.500000 0.779114 0.500000
O O16 0.250000 0.750000 0.500000
O O17 0.463871 0.000000 0.189210
O O18 0.803845 0.000000 0.861744
#
# Coordination Sequence:
#
# PCOD9215862 Si02
#       7
#     8   8   8   8   8   8   8
#     4   9  19  38  63  85 116 158 203 252 300 366
#     4  10  22  42  67  87 117 166 211 254 308 377
#     4  11  23  36  63  94 131 163 203 258 325 372
#     4  10  23  41  62  88 121 165 215 255 301 369
#     4  12  27  40  59  95 130 159 198 259 326 386
#     4   9  19  38  65  94 118 158 217 263 304 367
#     4   9  20  40  64  90 117 160 212 258 303 360
#
# _framework density 21.383748000000001
#
# number of rings (size 3 to 8) (size 9 to 14) (size 15 to 20)
#    0.000    2.000    0.000    3.857    6.000    3.143 
#    0.000    0.000    0.000    0.000    0.000    0.000 
#    0.000    0.000    0.000    0.000    0.000    0.000 
#
# Total GULP energy -156498.960504 kJ/mol
# GULP energy per Si atom -5589.248589 kJ/mol
# Density = 2.133508 g / cm^3
# Si number density = 21.383748 Si / 1000 Ang^3
#
#
#
# Elastic Constant Matrix: (Units=GPa)
#
#
# Indices 1 2 3 4 5 6 
#
# 1 51.1974 14.4238 4.2677 0.0000 0.5237 0.0000
# 2 14.4238 85.9575 31.1624 0.0000 14.5346 0.0000
# 3 4.2677 31.1624 48.8324 0.0000 5.1053 0.0000
# 4 0.0000 0.0000 0.0000 -4.0440 0.0000 -22.0793
# 5 0.5237 14.5346 5.1053 0.0000 26.4991 0.0000
# 6 0.0000 0.0000 0.0000 -22.0793 0.0000 15.8217
#
#
#
# Elastic Compliance Matrix: (Units=1/GPa)
#
#
# Indices 1 2 3 4 5 6 
#
# 1 0.020576 -0.003924 0.000534 0.000000 0.001643 0.000000
# 2 -0.003924 0.017095 -0.009791 0.000000 -0.007413 0.000000
# 3 0.000534 -0.009791 0.026657 0.000000 0.000224 0.000000
# 4 0.000000 0.000000 0.000000 -0.028690 0.000000 -0.040037
# 5 0.001643 -0.007413 0.000224 0.000000 0.041727 0.000000
# 6 0.000000 0.000000 0.000000 -0.040037 0.000000 0.007333
#
#
# Mechanical properties :
#
#
# Convention : Reuss Voigt Hill
#
# Bulk Modulus (GPa) = 26.33980 31.74390 29.04185
# Shear Modulus (GPa) = 40.41487 16.73093 28.57290
#
# Velocity S-wave (km/s) = 4.35211 2.80020 3.65937
# Velocity P-wave (km/s) = 6.13179 5.03308 5.60940
#
# Compressibility (1/GPa) = 0.03796536
#
# Stress axis : x y z
#
# Youngs Moduli (GPa) = 48.59914 58.49568 37.51430
#
# Poissons Ratio (x) = 0.22955 -0.02004
# Poissons Ratio (y) = 0.19071 0.36732
# Poissons Ratio (z) = -0.02596 0.57276
#
# Static dielectric constant tensor:
#      x y z
#    x 1.778540 0.000000 0.011220 
#    y 0.000000 1.797530 0.000000 
#    z 0.011220 0.000000 1.771200 
# 
# From -- ./inp_files/262834.got.cif
#   From: 2010.05.17/outbox.cif.g08.bks.cpg/sg12_132_cif.got.tgz:262834.got - 2010.06.03 13:09:07.
