data_PCOD9215860
_publ_section_title
;
Structure prediction by ZEFSAII (Michael W. Deem and Ramdas Pophale) SiO2 
 PCOD9215860
Probable space group: C 2/M
;
_chemical_formula_sum "Si O2"
_cell_formula_units_Z 32
_cell_length_a 12.259124
_cell_length_b 19.232010
_cell_length_c 10.200255
_cell_angle_alpha 90.000000
_cell_angle_beta 39.649260
_cell_angle_gamma 90.000000
_cell_volume 1534.526867
_symmetry_space_group_name_H-M "C 2/M"
_symmetry_group_IT_number 12
_symmetry_cell_setting 'monoclinic'
loop_
_space_group_symop_operation_xyz
x,y,z
-x,y,-z
-x,-y,-z
x,-y,z
1/2+x,1/2+y,z
1/2-x,1/2+y,-z
1/2-x,1/2-y,-z
1/2+x,1/2-y,z
loop_
_atom_site_type_symbol
_atom_site_label
_atom_site_fract_x
_atom_site_fract_y
_atom_site_fract_z
Si Si1 0.500000 0.125827 0.000000
Si Si2 0.055597 0.260781 0.722905
Si Si3 0.500000 0.182187 0.500000
Si Si4 0.746178 0.000000 0.821595
Si Si5 0.629204 0.620866 0.775844
Si Si6 0.599123 0.500000 0.610556
O O1 0.543499 0.176574 0.838009
O O2 0.640311 0.071410 0.924095
O O3 0.250000 0.250000 0.500000
O O4 0.966371 0.274926 0.665923
O O5 0.020799 0.188311 0.827563
O O6 0.320729 0.141246 0.645376
O O7 0.827205 0.000000 0.602427
O O8 0.894795 0.000000 0.789803
O O9 0.657192 0.568444 0.631317
O O10 0.500000 0.587316 0.000000
#
# Coordination Sequence:
#
# PCOD9215860 Si02
#       6
#     4   8   4   4   8   4
#     4  11  22  44  74 101 132 178 234 271 346 416
#     4  10  22  42  67 100 135 172 226 284 335 409
#     4  10  24  41  68 101 134 180 222 286 348 397
#     4  10  24  42  70  98 131 181 227 281 334 404
#     4  11  24  43  65  99 137 180 228 278 345 409
#     4  11  25  45  62  96 143 176 225 284 337 400
#
# _framework density 20.853332999999999
#
# number of rings (size 3 to 8) (size 9 to 14) (size 15 to 20)
#    0.000    1.500    1.250    3.375    3.500    7.500 
#    0.000    0.000    0.000    0.000    0.000    0.000 
#    0.000    0.000    0.000    0.000    0.000    0.000 
#
# Total GULP energy -89235.863064 kJ/mol
# GULP energy per Si atom -5577.241442 kJ/mol
# Density = 2.080587 g / cm^3
# Si number density = 20.853333 Si / 1000 Ang^3
#
#
#
# Elastic Constant Matrix: (Units=GPa)
#
#
# Indices 1 2 3 4 5 6 
#
# 1 147.1009 57.9339 22.6369 0.0000 5.3664 0.0000
# 2 57.9339 139.1516 33.6409 0.0000 9.0633 0.0000
# 3 22.6369 33.6409 79.2945 0.0000 10.9798 0.0000
# 4 0.0000 0.0000 0.0000 53.2541 0.0000 53.8072
# 5 5.3664 9.0633 10.9798 0.0000 34.1841 0.0000
# 6 0.0000 0.0000 0.0000 53.8072 0.0000 -35.1821
#
#
#
# Elastic Compliance Matrix: (Units=1/GPa)
#
#
# Indices 1 2 3 4 5 6 
#
# 1 0.008202 -0.003170 -0.000978 0.000000 -0.000133 0.000000
# 2 -0.003170 0.009271 -0.002885 0.000000 -0.001034 0.000000
# 3 -0.000978 -0.002885 0.014638 0.000000 -0.003783 0.000000
# 4 0.000000 0.000000 0.000000 0.007378 0.000000 0.011283
# 5 -0.000133 -0.001034 -0.003783 0.000000 0.030764 0.000000
# 6 0.000000 0.000000 0.000000 0.011283 0.000000 -0.011167
#
#
# Mechanical properties :
#
#
# Convention : Reuss Voigt Hill
#
# Bulk Modulus (GPa) = 55.41737 65.99673 60.70705
# Shear Modulus (GPa) = 63.15848 27.20690 45.18269
#
# Velocity S-wave (km/s) = 5.50933 3.61595 4.65982
# Velocity P-wave (km/s) = 8.19163 7.01072 7.62408
#
# Compressibility (1/GPa) = 0.01804488
#
# Stress axis : x y z
#
# Youngs Moduli (GPa) = 121.92553 107.86510 68.31337
#
# Poissons Ratio (x) = 0.34188 0.06683
# Poissons Ratio (y) = 0.38644 0.19710
# Poissons Ratio (z) = 0.11928 0.31121
#
# Static dielectric constant tensor:
#      x y z
#    x 1.779080 0.000000 0.044480 
#    y 0.000000 1.769590 0.000000 
#    z 0.044480 0.000000 1.858950 
# 
# From -- ./inp_files/48366.got.cif
#   From: 2010.05.17/outbox.cif.g08.bks.cpg/sg12_25_cif.got.tgz:48366.got - 2010.06.03 13:09:07.
