data_PCOD9215874
_publ_section_title
;
Structure prediction by ZEFSAII (Michael W. Deem and Ramdas Pophale) SiO2 
 PCOD9215874
Probable space group: C 2/M
;
_chemical_formula_sum "Si O2"
_cell_formula_units_Z 48
_cell_length_a 25.850869
_cell_length_b 8.725453
_cell_length_c 14.510963
_cell_angle_alpha 90.000000
_cell_angle_beta 139.480060
_cell_angle_gamma 90.000000
_cell_volume 2126.574902
_symmetry_space_group_name_H-M "C 2/M"
_symmetry_group_IT_number 12
_symmetry_cell_setting 'monoclinic'
loop_
_space_group_symop_operation_xyz
x,y,z
-x,y,-z
-x,-y,-z
x,-y,z
1/2+x,1/2+y,z
1/2-x,1/2+y,-z
1/2-x,1/2-y,-z
1/2+x,1/2-y,z
loop_
_atom_site_type_symbol
_atom_site_label
_atom_site_fract_x
_atom_site_fract_y
_atom_site_fract_z
Si Si1 0.345669 0.677669 0.028892
Si Si2 0.835288 0.680416 0.215246
Si Si3 0.246812 0.682686 0.599245
Si Si4 0.504118 0.824307 0.239376
Si Si5 0.076589 0.821723 0.167814
Si Si6 0.603454 0.679937 0.524443
O O1 0.365313 0.500000 0.040287
O O2 0.343754 0.719475 0.134999
O O3 0.416381 0.780211 0.085988
O O4 0.255840 0.704223 0.873692
O O5 0.843606 0.500000 0.203714
O O6 0.893001 0.730388 0.374762
O O7 0.230132 0.500000 0.575225
O O8 0.250000 0.750000 0.500000
O O9 0.336973 0.703509 0.759385
O O10 0.179962 0.766339 0.568310
O O11 0.564473 0.785466 0.239281
O O12 0.528358 0.723360 0.359844
O O13 0.508624 0.000000 0.271948
O O14 0.075975 0.000000 0.198739
O O15 0.000000 0.800787 0.000000
O O16 0.606473 0.500000 0.545786
#
# Coordination Sequence:
#
# PCOD9215874 Si02
#       6
#     8   8   8   8   8   8
#     4  10  22  42  67  93 127 163 200 250 311 370
#     4  10  22  42  67  95 125 160 205 253 306 368
#     4  11  22  39  63  90 124 164 204 253 307 363
#     4  12  25  41  63  92 126 162 209 259 307 364
#     4  10  23  42  63  89 123 164 207 251 307 366
#     4  12  25  41  63  91 126 166 210 255 308 367
#
# _framework density 22.571508000000001
#
# number of rings (size 3 to 8) (size 9 to 14) (size 15 to 20)
#    0.000    1.167    1.667    4.500    2.333    3.667 
#    0.000    3.333    0.000    0.000    0.000    0.000 
#    0.000    0.000    0.000    0.000    0.000    0.000 
#
# Total GULP energy -134343.039662 kJ/mol
# GULP energy per Si atom -5597.626653 kJ/mol
# Density = 2.252013 g / cm^3
# Si number density = 22.571508 Si / 1000 Ang^3
#
#
#
# Elastic Constant Matrix: (Units=GPa)
#
#
# Indices 1 2 3 4 5 6 
#
# 1 35.6377 -4.0834 -6.0160 0.0000 13.0844 0.0000
# 2 -4.0834 43.8414 17.6976 0.0000 9.3325 0.0000
# 3 -6.0160 17.6976 66.9168 0.0000 12.7360 0.0000
# 4 0.0000 0.0000 0.0000 27.2081 0.0000 2.3886
# 5 13.0844 9.3325 12.7360 0.0000 34.5410 0.0000
# 6 0.0000 0.0000 0.0000 2.3886 0.0000 29.6057
#
#
#
# Elastic Compliance Matrix: (Units=1/GPa)
#
#
# Indices 1 2 3 4 5 6 
#
# 1 0.035588 0.004802 0.005100 0.000000 -0.016659 0.000000
# 2 0.004802 0.026927 -0.005333 0.000000 -0.007128 0.000000
# 3 0.005100 -0.005333 0.018182 0.000000 -0.007195 0.000000
# 4 0.000000 0.000000 0.000000 0.037016 0.000000 -0.002986
# 5 -0.016659 -0.007128 -0.007195 0.000000 0.039840 0.000000
# 6 0.000000 0.000000 0.000000 -0.002986 0.000000 0.034018
#
#
# Mechanical properties :
#
#
# Convention : Reuss Voigt Hill
#
# Bulk Modulus (GPa) = 11.13152 17.95468 14.54310
# Shear Modulus (GPa) = 23.54289 27.52414 25.53352
#
# Velocity S-wave (km/s) = 3.23311 3.49581 3.36702
# Velocity P-wave (km/s) = 4.34508 4.92606 4.64466
#
# Compressibility (1/GPa) = 0.08983497
#
# Stress axis : x y z
#
# Youngs Moduli (GPa) = 28.09967 37.13760 54.99852
#
# Poissons Ratio (x) = -0.17834 -0.28049
# Poissons Ratio (y) = -0.13494 0.29331
# Poissons Ratio (z) = -0.14331 0.19806
#
# Static dielectric constant tensor:
#      x y z
#    x 1.853320 0.000000 0.024760 
#    y 0.000000 1.751610 0.000000 
#    z 0.024760 0.000000 1.843560 
# 
# From -- ./inp_files/244850.got.cif
#   From: 2010.05.17/outbox.cif.g08.bks.cpg/sg12_123_cif.got.tgz:244850.got - 2010.06.03 13:09:07.
