data_PCOD9215507
_publ_section_title
;
Structure prediction by ZEFSAII (Michael W. Deem and Ramdas Pophale) SiO2 
 PCOD9215507
Probable space group: C 2/M
;
_chemical_formula_sum "Si O2"
_cell_formula_units_Z 40
_cell_length_a 27.505683
_cell_length_b 12.027321
_cell_length_c 5.155800
_cell_angle_alpha 90.000000
_cell_angle_beta 76.133005
_cell_angle_gamma 90.000000
_cell_volume 1655.928712
_symmetry_space_group_name_H-M "C 2/M"
_symmetry_group_IT_number 12
_symmetry_cell_setting 'monoclinic'
loop_
_space_group_symop_operation_xyz
x,y,z
-x,y,-z
-x,-y,-z
x,-y,z
1/2+x,1/2+y,z
1/2-x,1/2+y,-z
1/2-x,1/2-y,-z
1/2+x,1/2-y,z
loop_
_atom_site_type_symbol
_atom_site_label
_atom_site_fract_x
_atom_site_fract_y
_atom_site_fract_z
Si Si1 0.818388 0.276140 0.532495
Si Si2 0.420314 0.000000 0.680767
Si Si3 0.620139 0.373151 0.257976
Si Si4 0.144237 0.500000 0.745515
Si Si5 0.967602 0.264884 0.782956
Si Si6 0.727350 0.372374 0.839916
O O1 0.871611 0.222894 0.538547
O O2 0.826700 0.386609 0.354041
O O3 0.781182 0.313182 0.813322
O O4 0.791001 0.180786 0.405717
O O5 0.401712 0.000000 0.406488
O O6 0.449378 0.887877 0.720677
O O7 0.372971 0.000000 0.936028
O O8 0.608081 0.500000 0.351109
O O9 0.578942 0.319620 0.124158
O O10 0.676503 0.374768 0.072179
O O11 0.000000 0.220263 0.500000
O O12 0.000000 0.272452 0.000000
O O13 0.741111 0.500000 0.793969
#
# Coordination Sequence:
#
# PCOD9215507 Si02
#       6
#     8   4   8   4   8   8
#     4  11  22  41  65 103 140 185 229 288 338 427
#     4  12  24  47  74 108 140 184 224 295 353 430
#     4  11  25  44  68  95 136 185 236 292 346 416
#     4  12  24  41  76 106 148 184 228 282 359 409
#     4  12  27  47  74 104 140 182 235 296 357 417
#     4  10  22  41  66  99 139 184 237 280 349 412
#
# _framework density 24.155628
#
# number of rings (size 3 to 8) (size 9 to 14) (size 15 to 20)
#    0.000    0.800    3.000    4.200    2.800    0.800 
#    0.000    0.000    0.000    0.000    0.000    0.000 
#    0.000    0.000    0.000    0.000    0.000    0.000 
#
# Total GULP energy -111758.389733 kJ/mol
# GULP energy per Si atom -5587.919487 kJ/mol
# Density = 2.410065 g / cm^3
# Si number density = 24.155628 Si / 1000 Ang^3
#
#
#
# Elastic Constant Matrix: (Units=GPa)
#
#
# Indices 1 2 3 4 5 6 
#
# 1 98.3935 40.9098 0.0848 0.0000 15.4152 0.0000
# 2 40.9098 123.0619 1.7573 0.0000 -17.5393 0.0000
# 3 0.0848 1.7573 52.6722 0.0000 -6.3867 0.0000
# 4 0.0000 0.0000 0.0000 21.0195 0.0000 -13.3442
# 5 15.4152 -17.5393 -6.3867 0.0000 30.7852 0.0000
# 6 0.0000 0.0000 0.0000 -13.3442 0.0000 27.1586
#
#
#
# Elastic Compliance Matrix: (Units=1/GPa)
#
#
# Indices 1 2 3 4 5 6 
#
# 1 0.014597 -0.006435 -0.001169 0.000000 -0.011218 0.000000
# 2 -0.006435 0.011686 0.000840 0.000000 0.010054 0.000000
# 3 -0.001169 0.000840 0.019581 0.000000 0.005126 0.000000
# 4 0.000000 0.000000 0.000000 0.069142 0.000000 0.033973
# 5 -0.011218 0.010054 0.005126 0.000000 0.044892 0.000000
# 6 0.000000 0.000000 0.000000 0.033973 0.000000 0.053513
#
#
# Mechanical properties :
#
#
# Convention : Reuss Voigt Hill
#
# Bulk Modulus (GPa) = 30.92555 39.95905 35.44230
# Shear Modulus (GPa) = 21.03332 31.21771 26.12552
#
# Velocity S-wave (km/s) = 2.95403 3.59884 3.29226
# Velocity P-wave (km/s) = 4.94626 5.81783 5.39966
#
# Compressibility (1/GPa) = 0.03233572
#
# Stress axis : x y z
#
# Youngs Moduli (GPa) = 68.50631 85.57185 51.07050
#
# Poissons Ratio (x) = 0.55063 0.05970
# Poissons Ratio (y) = 0.44082 -0.04288
# Poissons Ratio (z) = 0.08009 -0.07185
#
# Static dielectric constant tensor:
#      x y z
#    x 1.967010 0.000000 -0.035550 
#    y 0.000000 1.940220 0.000000 
#    z -0.035550 0.000000 2.015560 
# 
# From -- ./inp_files/30656.got.cif
#   From: 2010.05.17/outbox.cif.g08.bks.cpg/sg12_16_cif.got.tgz:30656.got - 2010.06.03 13:09:07.
