data_PCOD9215095
_publ_section_title
;
Structure prediction by ZEFSAII (Michael W. Deem and Ramdas Pophale) SiO2 
 PCOD9215095
Probable space group: C 2/M
;
_chemical_formula_sum "Si O2"
_cell_formula_units_Z 50
_cell_length_a 28.571076
_cell_length_b 7.998960
_cell_length_c 12.856108
_cell_angle_alpha 90.000000
_cell_angle_beta 58.339561
_cell_angle_gamma 90.000000
_cell_volume 2500.851156
_symmetry_space_group_name_H-M "C 2/M"
_symmetry_group_IT_number 12
_symmetry_cell_setting 'monoclinic'
loop_
_space_group_symop_operation_xyz
x,y,z
-x,y,-z
-x,-y,-z
x,-y,z
1/2+x,1/2+y,z
1/2-x,1/2+y,-z
1/2-x,1/2-y,-z
1/2+x,1/2-y,z
loop_
_atom_site_type_symbol
_atom_site_label
_atom_site_fract_x
_atom_site_fract_y
_atom_site_fract_z
Si Si1 0.693765 0.190493 0.619581
Si Si2 0.000000 0.500000 0.500000
Si Si3 0.328895 0.802705 0.711232
Si Si4 0.979443 0.799955 0.674579
Si Si5 0.393620 0.692332 0.439180
Si Si6 0.704964 0.302983 0.830808
Si Si7 0.633716 0.699581 0.105473
O O1 0.750000 0.250000 0.500000
O O2 0.644634 0.206636 0.594692
O O3 0.683018 0.283938 0.739873
O O4 0.701867 0.000000 0.639699
O O5 0.030358 0.652017 0.397229
O O6 0.370614 0.717245 0.582361
O O7 0.267221 0.735697 0.763184
O O8 0.343390 0.774812 0.814228
O O9 0.330835 0.000000 0.684404
O O10 0.041872 0.767008 0.638253
O O11 0.932056 0.778172 0.815647
O O12 0.976815 0.000000 0.644286
O O13 0.386988 0.500000 0.417341
O O14 0.710605 0.500000 0.845116
O O15 0.665358 0.234809 0.967189
O O16 0.642778 0.500000 0.102168
#
# Coordination Sequence:
#
# PCOD9215095 Si02
#       7
#     8   2   8   8   8   8   8
#     4  12  24  40  64  92 122 158 206 262 314 369
#     4  12  22  36  68  90 130 168 210 264 316 356
#     4  11  22  34  58  93 125 161 204 251 306 373
#     4  10  24  41  60  93 128 168 214 260 314 377
#     4  11  23  40  63  89 125 161 206 260 313 366
#     4  10  22  41  62  87 122 166 208 252 311 374
#     4  10  22  41  61  85 126 170 208 250 306 377
#
# _framework density 19.993193000000002
#
# number of rings (size 3 to 8) (size 9 to 14) (size 15 to 20)
#    0.000    1.280    1.600    4.080    5.600    3.840 
#    0.000    0.800    0.000    4.800    0.000    0.000 
#    0.000    0.000    0.000    0.000    0.000    0.000 
#
# Total GULP energy -139329.273361 kJ/mol
# GULP energy per Si atom -5573.170934 kJ/mol
# Density = 1.994769 g / cm^3
# Si number density = 19.993193 Si / 1000 Ang^3
#
#
#
# Elastic Constant Matrix: (Units=GPa)
#
#
# Indices 1 2 3 4 5 6 
#
# 1 87.2144 18.6305 56.5326 0.0000 -8.3053 0.0000
# 2 18.6305 40.6135 1.4413 0.0000 -17.2172 0.0000
# 3 56.5326 1.4413 94.3964 0.0000 -0.2230 0.0000
# 4 0.0000 0.0000 0.0000 18.4109 0.0000 7.8158
# 5 -8.3053 -17.2172 -0.2230 0.0000 25.9259 0.0000
# 6 0.0000 0.0000 0.0000 7.8158 0.0000 18.2720
#
#
#
# Elastic Compliance Matrix: (Units=1/GPa)
#
#
# Indices 1 2 3 4 5 6 
#
# 1 0.021949 -0.009289 -0.013002 0.000000 0.000751 0.000000
# 2 -0.009289 0.038222 0.005033 0.000000 0.022451 0.000000
# 3 -0.013002 0.005033 0.018302 0.000000 -0.000666 0.000000
# 4 0.000000 0.000000 0.000000 0.066367 0.000000 -0.028389
# 5 0.000751 0.022451 -0.000666 0.000000 0.053716 0.000000
# 6 0.000000 0.000000 0.000000 -0.028389 0.000000 0.066872
#
#
# Mechanical properties :
#
#
# Convention : Reuss Voigt Hill
#
# Bulk Modulus (GPa) = 22.74940 41.71481 32.23210
# Shear Modulus (GPa) = 15.89335 22.22976 19.06155
#
# Velocity S-wave (km/s) = 2.82252 3.33808 3.09107
# Velocity P-wave (km/s) = 4.69313 5.98054 5.37552
#
# Compressibility (1/GPa) = 0.04395720
#
# Stress axis : x y z
#
# Youngs Moduli (GPa) = 45.55913 26.16266 54.63973
#
# Poissons Ratio (x) = 0.24303 0.71041
# Poissons Ratio (y) = 0.42320 -0.27498
# Poissons Ratio (z) = 0.59234 -0.13167
#
# Static dielectric constant tensor:
#      x y z
#    x 1.735310 0.000000 -0.033090 
#    y 0.000000 1.714870 0.000000 
#    z -0.033090 0.000000 1.676250 
# 
# From -- ./inp_files/186343.got.cif
#   From: 2010.05.17/outbox.cif.g08.bks.cpg/sg12_94_cif.got.tgz:186343.got - 2010.06.03 13:09:07.
