data_PCOD9215616
_publ_section_title
;
Structure prediction by ZEFSAII (Michael W. Deem and Ramdas Pophale) SiO2 
 PCOD9215616
Probable space group: C 2/M
;
_chemical_formula_sum "Si O2"
_cell_formula_units_Z 44
_cell_length_a 10.818140
_cell_length_b 24.502137
_cell_length_c 13.386990
_cell_angle_alpha 90.000000
_cell_angle_beta 31.640571
_cell_angle_gamma 90.000000
_cell_volume 1861.480885
_symmetry_space_group_name_H-M "C 2/M"
_symmetry_group_IT_number 12
_symmetry_cell_setting 'monoclinic'
loop_
_space_group_symop_operation_xyz
x,y,z
-x,y,-z
-x,-y,-z
x,-y,z
1/2+x,1/2+y,z
1/2-x,1/2+y,-z
1/2-x,1/2-y,-z
1/2+x,1/2-y,z
loop_
_atom_site_type_symbol
_atom_site_label
_atom_site_fract_x
_atom_site_fract_y
_atom_site_fract_z
Si Si1 0.015403 0.778084 0.109410
Si Si2 0.500000 0.272495 0.500000
Si Si3 0.144118 0.097061 0.064341
Si Si4 0.151020 0.436338 0.677362
Si Si5 0.242708 0.139729 0.208412
Si Si6 0.809708 0.561460 0.565219
O O1 0.066705 0.842143 0.089772
O O2 0.755473 0.759118 0.332257
O O3 0.250000 0.750000 0.000000
O O4 0.000000 0.772130 0.000000
O O5 0.439304 0.312500 0.636223
O O6 0.201426 0.101479 0.142330
O O7 0.919146 0.059818 0.210167
O O8 0.372455 0.073106 0.856723
O O9 0.207110 0.500000 0.658219
O O10 0.232146 0.398191 0.711539
O O11 0.245218 0.416090 0.506151
O O12 0.500000 0.163387 0.000000
O O13 0.894716 0.500000 0.484539
O O14 0.000000 0.592604 0.500000
#
# Coordination Sequence:
#
# PCOD9215616 Si02
#       6
#     8   4   8   8   8   8
#     4  12  29  48  72 107 141 185 248 298 359 438
#     4  12  24  46  75  98 145 190 228 304 368 406
#     4  11  24  40  66  96 136 176 227 281 344 413
#     4  10  22  41  69 101 139 182 227 286 350 411
#     4  10  22  42  67 102 136 176 228 285 345 423
#     4  10  23  40  60  92 133 175 226 273 328 411
#
# _framework density 23.637094000000001
#
# number of rings (size 3 to 8) (size 9 to 14) (size 15 to 20)
#    0.000    1.273    0.000    5.455    3.818    6.909 
#    0.000    5.000    0.000    0.000    0.000    0.000 
#    0.000    0.000    0.000    0.000    0.000    0.000 
#
# Total GULP energy -122664.092071 kJ/mol
# GULP energy per Si atom -5575.640549 kJ/mol
# Density = 2.358329 g / cm^3
# Si number density = 23.637094 Si / 1000 Ang^3
#
#
#
# Elastic Constant Matrix: (Units=GPa)
#
#
# Indices 1 2 3 4 5 6 
#
# 1 80.6011 34.6150 18.1245 0.0001 -6.4484 0.0000
# 2 34.6150 91.2670 19.3734 0.0001 -0.6860 -0.0001
# 3 18.1245 19.3734 167.1098 0.0004 -22.2103 -0.0003
# 4 0.0001 0.0001 0.0004 35.7068 -0.0003 -3.1057
# 5 -6.4484 -0.6860 -22.2103 -0.0003 33.4862 0.0002
# 6 0.0000 -0.0001 -0.0003 -3.1057 0.0002 -12.5300
#
#
#
# Elastic Compliance Matrix: (Units=1/GPa)
#
#
# Indices 1 2 3 4 5 6 
#
# 1 0.015145 -0.005582 -0.000683 0.000000 0.002349 0.000000
# 2 -0.005582 0.013305 -0.001145 0.000000 -0.001561 0.000000
# 3 -0.000683 -0.001145 0.006767 0.000000 0.004333 0.000000
# 4 0.000000 0.000000 0.000000 0.027415 0.000000 -0.006795
# 5 0.002349 -0.001561 0.004333 0.000000 0.033157 0.000000
# 6 0.000000 0.000000 0.000000 -0.006795 0.000000 -0.078124
#
#
# Mechanical properties :
#
#
# Convention : Reuss Voigt Hill
#
# Bulk Modulus (GPa) = 49.02400 53.68930 51.35665
# Shear Modulus (GPa) = 127.27822 29.12359 78.20090
#
# Velocity S-wave (km/s) = 7.34600 3.51396 5.75811
# Velocity P-wave (km/s) = 9.63000 6.26316 8.12293
#
# Compressibility (1/GPa) = 0.02039817
#
# Stress axis : x y z
#
# Youngs Moduli (GPa) = 66.02666 75.15964 147.77986
#
# Poissons Ratio (x) = 0.41950 0.10099
# Poissons Ratio (y) = 0.36853 0.16916
# Poissons Ratio (z) = 0.04512 0.08603
#
# Static dielectric constant tensor:
#      x y z
#    x 1.997350 0.000000 -0.054060 
#    y 0.000000 1.910560 0.000000 
#    z -0.054060 0.000000 1.873850 
# 
# From -- ./inp_files/209059.got.cif
#   From: 2010.05.17/outbox.cif.g08.bks.cpg/sg12_105_cif.got.tgz:209059.got - 2010.06.03 13:09:07.
