data_PCOD9215813
_publ_section_title
;
Structure prediction by ZEFSAII (Michael W. Deem and Ramdas Pophale) SiO2 
 PCOD9215813
Probable space group: C 2/M
;
_chemical_formula_sum "Si O2"
_cell_formula_units_Z 58
_cell_length_a 18.388242
_cell_length_b 17.436446
_cell_length_c 12.750755
_cell_angle_alpha 90.000000
_cell_angle_beta 42.310579
_cell_angle_gamma 90.000000
_cell_volume 2751.980350
_symmetry_space_group_name_H-M "C 2/M"
_symmetry_group_IT_number 12
_symmetry_cell_setting 'monoclinic'
loop_
_space_group_symop_operation_xyz
x,y,z
-x,y,-z
-x,-y,-z
x,-y,z
1/2+x,1/2+y,z
1/2-x,1/2+y,-z
1/2-x,1/2-y,-z
1/2+x,1/2-y,z
loop_
_atom_site_type_symbol
_atom_site_label
_atom_site_fract_x
_atom_site_fract_y
_atom_site_fract_z
Si Si1 0.632922 0.634881 0.243946
Si Si2 0.668726 0.184151 0.552134
Si Si3 0.827210 0.907851 0.239184
Si Si4 0.056508 0.586287 0.836741
Si Si5 0.047779 0.699782 0.343312
Si Si6 0.654167 0.913949 0.079720
Si Si7 0.500000 0.500000 0.500000
Si Si8 0.558045 0.407590 0.094695
O O1 0.602914 0.719586 0.313613
O O2 0.580205 0.567784 0.367755
O O3 0.586895 0.628042 0.174546
O O4 0.759518 0.619820 0.093366
O O5 0.750000 0.250000 0.500000
O O6 0.727756 0.133676 0.400000
O O7 0.645748 0.134505 0.681301
O O8 0.554171 0.211824 0.626604
O O9 0.936350 0.889223 0.188388
O O10 0.812382 0.000000 0.257703
O O11 0.859379 0.885764 0.086204
O O12 0.095242 0.500000 0.822729
O O13 0.959988 0.579584 0.856277
O O14 0.000000 0.620726 0.000000
O O15 0.132809 0.643710 0.197364
O O16 0.000000 0.664065 0.500000
O O17 0.688967 0.000000 0.074970
O O18 0.561733 0.500000 0.100728
#
# Coordination Sequence:
#
# PCOD9215813 Si02
#       8
#     8   8   8   8   8   8   2   8
#     4  12  22  43  63  93 126 164 205 261 322 377
#     4  11  23  41  59  91 126 162 209 254 313 374
#     4   9  19  37  61  89 118 161 207 257 303 366
#     4   9  20  42  64  89 120 162 211 260 303 367
#     4  11  26  42  61  92 132 163 208 266 317 376
#     4  10  22  42  66  90 123 167 215 254 317 383
#     4  12  24  40  68  94 130 160 212 264 300 400
#     4   9  18  35  60  91 123 152 203 256 314 365
#
# _framework density 21.075731000000001
#
# number of rings (size 3 to 8) (size 9 to 14) (size 15 to 20)
#    0.000    1.793    2.069    2.483    1.931    1.931 
#    9.931    0.000    0.000    0.000    0.000    0.000 
#    0.000    0.000    0.000    0.000    0.000    0.000 
#
# Total GULP energy -161752.890684 kJ/mol
# GULP energy per Si atom -5577.685886 kJ/mol
# Density = 2.102776 g / cm^3
# Si number density = 21.075731 Si / 1000 Ang^3
#
#
#
# Elastic Constant Matrix: (Units=GPa)
#
#
# Indices 1 2 3 4 5 6 
#
# 1 26.3751 -2.8353 -20.1921 0.0000 -15.0127 0.0000
# 2 -2.8353 76.7899 50.6755 0.0000 -19.9046 0.0000
# 3 -20.1921 50.6755 135.3824 0.0000 -22.2649 0.0000
# 4 0.0000 0.0000 0.0000 -9.0692 0.0000 -2.7165
# 5 -15.0127 -19.9046 -22.2649 0.0000 26.5140 0.0000
# 6 0.0000 0.0000 0.0000 -2.7165 0.0000 9.0219
#
#
#
# Elastic Compliance Matrix: (Units=1/GPa)
#
#
# Indices 1 2 3 4 5 6 
#
# 1 0.121134 0.010629 0.030956 0.000000 0.102563 0.000000
# 2 0.010629 0.020177 -0.002885 0.000000 0.018743 0.000000
# 3 0.030956 -0.002885 0.018111 0.000000 0.030570 0.000000
# 4 0.000000 0.000000 0.000000 -0.101141 0.000000 -0.030453
# 5 0.102563 0.018743 0.030570 0.000000 0.135531 0.000000
# 6 0.000000 0.000000 0.000000 -0.030453 0.000000 0.101672
#
#
# Mechanical properties :
#
#
# Convention : Reuss Voigt Hill
#
# Bulk Modulus (GPa) = 4.22256 32.64930 18.43593
# Shear Modulus (GPa) = 16.83366 19.35331 18.09349
#
# Velocity S-wave (km/s) = 2.82923 3.03359 2.93319
# Velocity P-wave (km/s) = 3.56099 5.27212 4.49866
#
# Compressibility (1/GPa) = 0.23682318
#
# Stress axis : x y z
#
# Youngs Moduli (GPa) = 8.25529 49.56105 55.21546
#
# Poissons Ratio (x) = -0.52680 -1.70924
# Poissons Ratio (y) = -0.08775 0.15928
# Poissons Ratio (z) = -0.25555 0.14297
#
# Static dielectric constant tensor:
#      x y z
#    x 1.792560 0.000000 0.007450 
#    y 0.000000 1.747050 0.000000 
#    z 0.007450 0.000000 1.743910 
# 
# From -- ./inp_files/168930.got.cif
#   From: 2010.05.17/outbox.cif.g08.bks.cpg/sg12_85_cif.got.tgz:168930.got - 2010.06.03 13:09:07.
