data_PCOD9215139
_publ_section_title
;
Structure prediction by ZEFSAII (Michael W. Deem and Ramdas Pophale) SiO2 
 PCOD9215139
Probable space group: C 2/M
;
_chemical_formula_sum "Si O2"
_cell_formula_units_Z 48
_cell_length_a 23.476345
_cell_length_b 9.209311
_cell_length_c 12.115647
_cell_angle_alpha 90.000000
_cell_angle_beta 66.743545
_cell_angle_gamma 90.000000
_cell_volume 2406.578548
_symmetry_space_group_name_H-M "C 2/M"
_symmetry_group_IT_number 12
_symmetry_cell_setting 'monoclinic'
loop_
_space_group_symop_operation_xyz
x,y,z
-x,y,-z
-x,-y,-z
x,-y,z
1/2+x,1/2+y,z
1/2-x,1/2+y,-z
1/2-x,1/2-y,-z
1/2+x,1/2-y,z
loop_
_atom_site_type_symbol
_atom_site_label
_atom_site_fract_x
_atom_site_fract_y
_atom_site_fract_z
Si Si1 0.543204 0.172299 0.738111
Si Si2 0.815184 0.170951 0.969167
Si Si3 0.109248 0.327928 0.451901
Si Si4 0.569510 0.670779 0.273431
Si Si5 0.735400 0.671015 0.396547
Si Si6 0.642299 0.170293 0.847402
O O1 0.582608 0.194592 0.595370
O O2 0.481535 0.265157 0.770405
O O3 0.585319 0.210745 0.811085
O O4 0.528916 0.000000 0.755503
O O5 0.862681 0.190899 0.831766
O O6 0.803926 0.000000 0.991094
O O7 0.750000 0.250000 0.000000
O O8 0.848631 0.235033 0.051347
O O9 0.115363 0.500000 0.430036
O O10 0.067047 0.258951 0.389220
O O11 0.175166 0.248401 0.394076
O O12 0.559297 0.500000 0.299823
O O13 0.723435 0.500000 0.423301
O O14 0.750000 0.750000 0.500000
O O15 0.794850 0.683522 0.272333
O O16 0.635246 0.000000 0.882516
#
# Coordination Sequence:
#
# PCOD9215139 Si02
#       6
#     8   8   8   8   8   8
#     4  10  22  41  62  89 124 162 202 249 303 363
#     4  11  25  44  65  90 121 157 202 253 304 360
#     4  11  22  39  62  91 125 162 206 253 302 361
#     4  11  25  42  60  89 124 160 204 255 305 359
#     4  11  21  36  59  90 125 159 197 247 301 356
#     4  10  22  41  63  90 125 160 202 251 299 357
#
# _framework density 19.945329000000001
#
# number of rings (size 3 to 8) (size 9 to 14) (size 15 to 20)
#    0.000    1.333    1.667    3.500    0.000   12.667 
#    0.000    3.333    0.000    0.000    0.000    0.000 
#    0.000    0.000    0.000    0.000    0.000    0.000 
#
# Total GULP energy -134246.345566 kJ/mol
# GULP energy per Si atom -5593.597732 kJ/mol
# Density = 1.989993 g / cm^3
# Si number density = 19.945329 Si / 1000 Ang^3
#
#
#
# Elastic Constant Matrix: (Units=GPa)
#
#
# Indices 1 2 3 4 5 6 
#
# 1 127.5900 63.0503 30.2951 0.0000 11.8406 0.0000
# 2 63.0503 101.0937 59.2214 0.0000 6.6539 0.0000
# 3 30.2951 59.2214 63.5587 0.0000 27.7325 0.0000
# 4 0.0000 0.0000 0.0000 31.0278 0.0000 3.5427
# 5 11.8406 6.6539 27.7325 0.0000 28.8575 0.0000
# 6 0.0000 0.0000 0.0000 3.5427 0.0000 40.6984
#
#
#
# Elastic Compliance Matrix: (Units=1/GPa)
#
#
# Indices 1 2 3 4 5 6 
#
# 1 0.014952 -0.020757 0.022048 0.000000 -0.022537 0.000000
# 2 -0.020757 0.070578 -0.090382 0.000000 0.079102 0.000000
# 3 0.022048 -0.090382 0.145162 0.000000 -0.127710 0.000000
# 4 0.000000 0.000000 0.000000 0.032553 0.000000 -0.002834
# 5 -0.022537 0.079102 -0.127710 0.000000 0.148392 0.000000
# 6 0.000000 0.000000 0.000000 -0.002834 0.000000 0.024818
#
#
# Mechanical properties :
#
#
# Convention : Reuss Voigt Hill
#
# Bulk Modulus (GPa) = 19.04466 66.37512 42.70989
# Shear Modulus (GPa) = 7.90963 29.42844 18.66903
#
# Velocity S-wave (km/s) = 1.99356 3.84533 3.06275
# Velocity P-wave (km/s) = 3.85593 7.28466 5.82814
#
# Compressibility (1/GPa) = 0.05250814
#
# Stress axis : x y z
#
# Youngs Moduli (GPa) = 66.88265 14.16873 6.88884
#
# Poissons Ratio (x) = 0.29411 -0.15188
# Poissons Ratio (y) = 1.38831 0.62263
# Poissons Ratio (z) = -1.47461 1.28060
#
# Static dielectric constant tensor:
#      x y z
#    x 1.719490 0.000000 0.001970 
#    y 0.000000 1.658710 0.000000 
#    z 0.001970 0.000000 1.701520 
# 
# From -- ./inp_files/172035.got.cif
#   From: 2010.05.17/outbox.cif.g08.bks.cpg/sg12_87_cif.got.tgz:172035.got - 2010.06.03 13:09:07.
