data_PCOD9215775
_publ_section_title
;
Structure prediction by ZEFSAII (Michael W. Deem and Ramdas Pophale) SiO2 
 PCOD9215775
Probable space group: C 2/M
;
_chemical_formula_sum "Si O2"
_cell_formula_units_Z 64
_cell_length_a 20.378806
_cell_length_b 8.851688
_cell_length_c 33.583766
_cell_angle_alpha 90.000000
_cell_angle_beta 146.655046
_cell_angle_gamma 90.000000
_cell_volume 3329.989888
_symmetry_space_group_name_H-M "C 2/M"
_symmetry_group_IT_number 12
_symmetry_cell_setting 'monoclinic'
loop_
_space_group_symop_operation_xyz
x,y,z
-x,y,-z
-x,-y,-z
x,-y,z
1/2+x,1/2+y,z
1/2-x,1/2+y,-z
1/2-x,1/2-y,-z
1/2+x,1/2-y,z
loop_
_atom_site_type_symbol
_atom_site_label
_atom_site_fract_x
_atom_site_fract_y
_atom_site_fract_z
Si Si1 0.947734 0.680714 0.284916
Si Si2 0.013837 0.681305 0.053465
Si Si3 0.177150 0.819252 0.277467
Si Si4 0.734466 0.180789 0.221334
Si Si5 0.281705 0.320409 0.973752
Si Si6 0.360640 0.317171 0.434055
Si Si7 0.082546 0.819780 0.816378
Si Si8 0.777962 0.680929 0.556866
O O1 0.936015 0.500000 0.276005
O O2 0.860202 0.744010 0.274207
O O3 0.913299 0.758647 0.226140
O O4 0.085653 0.717739 0.363042
O O5 0.996690 0.500000 0.047650
O O6 0.140505 0.716214 0.138236
O O7 0.910985 0.764077 0.025639
O O8 0.000000 0.722528 0.000000
O O9 0.187754 0.744159 0.239538
O O10 0.278811 0.755023 0.358317
O O11 0.047558 0.786483 0.230905
O O12 0.189068 0.000000 0.279997
O O13 0.746421 0.000000 0.229720
O O14 0.278475 0.500000 0.974273
O O15 0.184685 0.259680 0.893496
O O16 0.250000 0.250000 0.000000
O O17 0.500000 0.277687 0.500000
O O18 0.350350 0.500000 0.426000
O O19 0.308073 0.270148 0.450497
O O20 0.100695 0.000000 0.826121
O O21 0.767706 0.500000 0.548823
O O22 0.750000 0.750000 0.500000
#
# Coordination Sequence:
#
# PCOD9215775 Si02
#       8
#     8   8   8   8   8   8   8   8
#     4  11  23  41  64  93 127 164 209 260 309 366
#     4  10  22  42  65  91 125 164 210 261 315 376
#     4  11  24  41  63  92 126 165 210 262 311 370
#     4  11  24  40  63  92 126 169 210 259 316 373
#     4  12  25  40  63  93 126 164 207 259 313 371
#     4  10  22  42  66  93 125 165 208 253 308 373
#     4  11  23  41  65  92 124 164 208 256 312 375
#     4  10  23  41  63  93 129 165 206 255 307 368
#
# _framework density 19.219279
#
# number of rings (size 3 to 8) (size 9 to 14) (size 15 to 20)
#    0.000    1.250    1.250    4.125    1.750    7.500 
#    0.000    0.000    0.000    0.000    0.000    0.000 
#    0.000    0.000    0.000    0.000    0.000    0.000 
#
# Total GULP energy -178993.332072 kJ/mol
# GULP energy per Si atom -5593.541627 kJ/mol
# Density = 1.917553 g / cm^3
# Si number density = 19.219279 Si / 1000 Ang^3
#
#
#
# Elastic Constant Matrix: (Units=GPa)
#
#
# Indices 1 2 3 4 5 6 
#
# 1 101.7029 36.0345 27.1721 0.0000 2.7133 0.0000
# 2 36.0345 35.4345 24.3520 -0.0001 11.6185 0.0001
# 3 27.1721 24.3520 77.1524 0.0000 1.1082 0.0000
# 4 0.0000 -0.0001 0.0000 33.7304 0.0000 -3.2441
# 5 2.7133 11.6185 1.1082 0.0000 41.5200 0.0000
# 6 0.0000 0.0001 0.0000 -3.2441 0.0000 37.0243
#
#
#
# Elastic Compliance Matrix: (Units=1/GPa)
#
#
# Indices 1 2 3 4 5 6 
#
# 1 0.015910 -0.017289 -0.000201 0.000000 0.003803 0.000000
# 2 -0.017289 0.059291 -0.012408 0.000000 -0.015130 0.000000
# 3 -0.000201 -0.012408 0.016905 0.000000 0.003034 0.000000
# 4 0.000000 0.000000 0.000000 0.029899 0.000000 0.002620
# 5 0.003803 -0.015130 0.003034 0.000000 0.027989 0.000000
# 6 0.000000 0.000000 0.000000 0.002620 0.000000 0.027239
#
#
# Mechanical properties :
#
#
# Convention : Reuss Voigt Hill
#
# Bulk Modulus (GPa) = 30.94977 43.26746 37.10861
# Shear Modulus (GPa) = 20.17764 30.90369 25.54066
#
# Velocity S-wave (km/s) = 3.24368 4.01428 3.64937
# Velocity P-wave (km/s) = 5.49245 6.63681 6.09157
#
# Compressibility (1/GPa) = 0.03231042
#
# Stress axis : x y z
#
# Youngs Moduli (GPa) = 62.85191 16.86602 59.15385
#
# Poissons Ratio (x) = 0.29159 0.01190
# Poissons Ratio (y) = 1.08663 0.73399
# Poissons Ratio (z) = 0.01264 0.20928
#
# Static dielectric constant tensor:
#      x y z
#    x 1.647830 0.000000 0.004300 
#    y 0.000000 1.641960 0.000000 
#    z 0.004300 0.000000 1.638750 
# 
# From -- ./inp_files/378294.got.cif
#   From: 2010.05.17/outbox.cif.g08.bks.cpg/sg12_190_cif.got.tgz:378294.got - 2010.06.03 13:09:07.
