data_PCOD9215533
_publ_section_title
;
Structure prediction by ZEFSAII (Michael W. Deem and Ramdas Pophale) SiO2 
 PCOD9215533
Probable space group: C 2/M
;
_chemical_formula_sum "Si O2"
_cell_formula_units_Z 56
_cell_length_a 17.468358
_cell_length_b 13.444325
_cell_length_c 12.268656
_cell_angle_alpha 90.000000
_cell_angle_beta 58.852239
_cell_angle_gamma 90.000000
_cell_volume 2465.918586
_symmetry_space_group_name_H-M "C 2/M"
_symmetry_group_IT_number 12
_symmetry_cell_setting 'monoclinic'
loop_
_space_group_symop_operation_xyz
x,y,z
-x,y,-z
-x,-y,-z
x,-y,z
1/2+x,1/2+y,z
1/2-x,1/2+y,-z
1/2-x,1/2-y,-z
1/2+x,1/2-y,z
loop_
_atom_site_type_symbol
_atom_site_label
_atom_site_fract_x
_atom_site_fract_y
_atom_site_fract_z
Si Si1 0.346317 0.616344 0.868741
Si Si2 0.485430 0.302954 0.385248
Si Si3 0.600334 0.317842 0.934406
Si Si4 0.263185 0.186152 0.662822
Si Si5 0.920224 0.384560 0.710082
Si Si6 0.643353 0.115769 0.990717
Si Si7 0.792177 0.885359 0.522225
O O1 0.351628 0.500000 0.845946
O O2 0.428871 0.663936 0.745903
O O3 0.356499 0.639379 0.988016
O O4 0.247418 0.646834 0.906564
O O5 0.500000 0.330672 0.500000
O O6 0.492070 0.183611 0.369992
O O7 0.393796 0.353231 0.416779
O O8 0.668580 0.339899 0.787543
O O9 0.500000 0.357840 0.000000
O O10 0.594852 0.198710 0.955696
O O11 0.343017 0.155306 0.685084
O O12 0.266340 0.132852 0.542956
O O13 0.266494 0.303921 0.632133
O O14 0.936712 0.500000 0.675722
O O15 0.886310 0.376293 0.860538
O O16 0.632323 0.000000 0.966777
O O17 0.788487 0.000000 0.559958
#
# Coordination Sequence:
#
# PCOD9215533 Si02
#       7
#     8   8   8   8   8   8   8
#     4  11  23  40  65  95 128 167 215 269 326 387
#     4  12  24  42  63  99 133 171 217 269 326 392
#     4  12  24  40  67  95 133 165 210 273 330 386
#     4  11  24  45  69  97 129 177 225 268 327 391
#     4  11  22  43  72  97 127 170 221 275 328 390
#     4  10  22  41  67  95 126 166 212 266 327 394
#     4  11  26  46  66  95 137 177 219 270 325 392
#
# _framework density 22.709592000000001
#
# number of rings (size 3 to 8) (size 9 to 14) (size 15 to 20)
#    0.000    0.857    4.286    3.000    0.000    3.143 
#    0.000    0.714    0.000    0.000    0.000    0.000 
#    0.000    0.000    0.000    0.000    0.000    0.000 
#
# Total GULP energy -156733.237174 kJ/mol
# GULP energy per Si atom -5597.615613 kJ/mol
# Density = 2.265790 g / cm^3
# Si number density = 22.709592 Si / 1000 Ang^3
#
#
#
# Elastic Constant Matrix: (Units=GPa)
#
#
# Indices 1 2 3 4 5 6 
#
# 1 23.9921 1.0965 -5.2735 0.0000 -25.4885 0.0000
# 2 1.0965 76.9012 -4.7796 0.0000 -6.3286 0.0000
# 3 -5.2735 -4.7796 71.5687 0.0000 -1.9828 0.0000
# 4 0.0000 0.0000 0.0000 -4.2781 0.0000 -9.9573
# 5 -25.4885 -6.3286 -1.9828 0.0000 23.6830 0.0000
# 6 0.0000 0.0000 0.0000 -9.9573 0.0000 17.2909
#
#
#
# Elastic Compliance Matrix: (Units=1/GPa)
#
#
# Indices 1 2 3 4 5 6 
#
# 1 -0.211287 -0.017694 -0.023235 0.000000 -0.234070 0.000000
# 2 -0.017694 0.011884 -0.000952 0.000000 -0.015947 0.000000
# 3 -0.023235 -0.000952 0.011524 0.000000 -0.024296 0.000000
# 4 0.000000 0.000000 0.000000 -0.099878 0.000000 -0.057517
# 5 -0.234070 -0.015947 -0.024296 0.000000 -0.215986 0.000000
# 6 0.000000 0.000000 0.000000 -0.057517 0.000000 0.024712
#
#
# Mechanical properties :
#
#
# Convention : Reuss Voigt Hill
#
# Bulk Modulus (GPa) = -3.68130 17.17208 6.74539
# Shear Modulus (GPa) = -10.29196 19.43373 4.57089
#
# Velocity S-wave (km/s) = -2.13116 2.92849 1.42026
# Velocity P-wave (km/s) = 2.77134 4.36037 2.38038
#
# Compressibility (1/GPa) = -0.27164284
#
# Stress axis : x y z
#
# Youngs Moduli (GPa) = -4.73289 84.14380 86.77707
#
# Poissons Ratio (x) = 1.48888 2.01630
# Poissons Ratio (y) = -0.08375 0.08261
# Poissons Ratio (z) = -0.10997 0.08010
#
# Static dielectric constant tensor:
#      x y z
#    x 1.846410 0.000000 -0.014660 
#    y 0.000000 1.878420 0.000000 
#    z -0.014660 0.000000 1.846490 
# 
# From -- ./inp_files/156536.got.cif
#   From: 2010.05.17/outbox.cif.g08.bks.cpg/sg12_79_cif.got.tgz:156536.got - 2010.06.03 13:09:07.
