data_PCOD9215787
_publ_section_title
;
Structure prediction by ZEFSAII (Michael W. Deem and Ramdas Pophale) SiO2 
 PCOD9215787
Probable space group: C 2/M
;
_chemical_formula_sum "Si O2"
_cell_formula_units_Z 56
_cell_length_a 15.037117
_cell_length_b 9.218757
_cell_length_c 18.650810
_cell_angle_alpha 90.000000
_cell_angle_beta 84.361473
_cell_angle_gamma 90.000000
_cell_volume 2572.931568
_symmetry_space_group_name_H-M "C 2/M"
_symmetry_group_IT_number 12
_symmetry_cell_setting 'monoclinic'
loop_
_space_group_symop_operation_xyz
x,y,z
-x,y,-z
-x,-y,-z
x,-y,z
1/2+x,1/2+y,z
1/2-x,1/2+y,-z
1/2-x,1/2-y,-z
1/2+x,1/2-y,z
loop_
_atom_site_type_symbol
_atom_site_label
_atom_site_fract_x
_atom_site_fract_y
_atom_site_fract_z
Si Si1 0.695500 0.669481 0.443264
Si Si2 0.624366 0.333824 0.228795
Si Si3 0.931167 0.333223 0.902240
Si Si4 0.016607 0.168256 0.385456
Si Si5 0.361280 0.168181 0.330008
Si Si6 0.864304 0.665537 0.059562
Si Si7 0.196609 0.170397 0.799838
O O1 0.687705 0.500000 0.462377
O O2 0.750000 0.750000 0.500000
O O3 0.595364 0.720966 0.432274
O O4 0.760720 0.677601 0.369043
O O5 0.576183 0.281498 0.160476
O O6 0.562131 0.328953 0.303179
O O7 0.704626 0.220718 0.229417
O O8 0.816596 0.000000 0.203157
O O9 0.909515 0.500000 0.881523
O O10 0.032464 0.336035 0.922668
O O11 0.868583 0.295166 0.975325
O O12 0.927753 0.261169 0.382753
O O13 0.995625 0.000000 0.404181
O O14 0.365557 0.250411 0.253946
O O15 0.383751 0.000000 0.317848
O O16 0.830234 0.500000 0.068859
O O17 0.816811 0.770953 0.118774
O O18 0.342170 0.500000 0.780201
#
# Coordination Sequence:
#
# PCOD9215787 Si02
#       7
#     8   8   8   8   8   8   8
#     4  10  23  44  67  94 132 167 204 251 303 363
#     4  11  22  38  59  83 119 160 202 255 312 363
#     4   9  19  36  57  83 113 151 201 252 306 370
#     4  10  22  42  65  93 128 166 209 255 305 366
#     4  11  23  42  66  94 128 166 207 254 309 367
#     4   9  19  37  58  80 114 155 197 251 311 367
#     4  12  24  37  58  87 118 156 207 257 306 367
#
# _framework density 21.765055
#
# number of rings (size 3 to 8) (size 9 to 14) (size 15 to 20)
#    0.000    1.714    1.429    3.857    0.000    7.429 
#    0.000    4.286    0.000    0.000    0.000    0.000 
#    0.000    0.000    0.000    0.000    0.000    0.000 
#
# Total GULP energy -156524.493413 kJ/mol
# GULP energy per Si atom -5590.160479 kJ/mol
# Density = 2.171552 g / cm^3
# Si number density = 21.765055 Si / 1000 Ang^3
#
#
#
# Elastic Constant Matrix: (Units=GPa)
#
#
# Indices 1 2 3 4 5 6 
#
# 1 69.0805 13.4266 -3.8435 0.0000 12.7909 0.0000
# 2 13.4266 85.5242 28.0009 0.0000 1.6189 0.0000
# 3 -3.8435 28.0009 76.8407 0.0000 10.6326 0.0000
# 4 0.0000 0.0000 0.0000 24.6585 0.0000 6.4553
# 5 12.7909 1.6189 10.6326 0.0000 35.6434 0.0000
# 6 0.0000 0.0000 0.0000 6.4553 0.0000 27.7315
#
#
#
# Elastic Compliance Matrix: (Units=1/GPa)
#
#
# Indices 1 2 3 4 5 6 
#
# 1 0.016553 -0.003459 0.003013 0.000000 -0.006682 0.000000
# 2 -0.003459 0.014026 -0.005599 0.000000 0.002274 0.000000
# 3 0.003013 -0.005599 0.015979 0.000000 -0.005593 0.000000
# 4 0.000000 0.000000 0.000000 0.043186 0.000000 -0.010053
# 5 -0.006682 0.002274 -0.005593 0.000000 0.032019 0.000000
# 6 0.000000 0.000000 0.000000 -0.010053 0.000000 0.038400
#
#
# Mechanical properties :
#
#
# Convention : Reuss Voigt Hill
#
# Bulk Modulus (GPa) = 29.01201 34.06813 31.54007
# Shear Modulus (GPa) = 27.21237 30.53076 28.87156
#
# Velocity S-wave (km/s) = 3.53976 3.74938 3.64608
# Velocity P-wave (km/s) = 5.48317 5.86775 5.67872
#
# Compressibility (1/GPa) = 0.03446848
#
# Stress axis : x y z
#
# Youngs Moduli (GPa) = 60.41236 71.29862 62.58312
#
# Poissons Ratio (x) = 0.24659 -0.18855
# Poissons Ratio (y) = 0.20894 0.35038
# Poissons Ratio (z) = -0.18201 0.39917
#
# Static dielectric constant tensor:
#      x y z
#    x 1.836020 0.000000 0.008120 
#    y 0.000000 1.739330 0.000000 
#    z 0.008120 0.000000 1.831960 
# 
# From -- ./inp_files/308945.got.cif
#   From: 2010.05.17/outbox.cif.g08.bks.cpg/sg12_155_cif.got.tgz:308945.got - 2010.06.03 13:09:07.
