data_PCOD9215940
_publ_section_title
;
Structure prediction by ZEFSAII (Michael W. Deem and Ramdas Pophale) SiO2 
 PCOD9215940
Probable space group: C 2/M
;
_chemical_formula_sum "Si O2"
_cell_formula_units_Z 42
_cell_length_a 11.327204
_cell_length_b 20.951117
_cell_length_c 9.821635
_cell_angle_alpha 90.000000
_cell_angle_beta 128.485017
_cell_angle_gamma 90.000000
_cell_volume 1824.518946
_symmetry_space_group_name_H-M "C 2/M"
_symmetry_group_IT_number 12
_symmetry_cell_setting 'monoclinic'
loop_
_space_group_symop_operation_xyz
x,y,z
-x,y,-z
-x,-y,-z
x,-y,z
1/2+x,1/2+y,z
1/2-x,1/2+y,-z
1/2-x,1/2-y,-z
1/2+x,1/2-y,z
loop_
_atom_site_type_symbol
_atom_site_label
_atom_site_fract_x
_atom_site_fract_y
_atom_site_fract_z
Si Si1 0.293605 0.429955 0.666544
Si Si2 0.652808 0.827806 0.186965
Si Si3 0.000000 0.500000 0.500000
Si Si4 0.977664 0.705677 0.640803
Si Si5 0.805770 0.815756 0.889574
Si Si6 0.030702 0.151788 0.717002
O O1 0.651173 0.500000 0.243344
O O2 0.298069 0.374997 0.782532
O O3 0.410673 0.405272 0.636926
O O4 0.116522 0.445763 0.518808
O O5 0.633179 0.829557 0.336188
O O6 0.661492 0.751816 0.158316
O O7 0.812235 0.857000 0.252132
O O8 0.500000 0.852057 0.000000
O O9 0.000000 0.687548 0.500000
O O10 0.138975 0.695290 0.828362
O O11 0.952284 0.781820 0.617783
O O12 0.586194 0.665914 0.910637
#
# Coordination Sequence:
#
# PCOD9215940 Si02
#       6
#     8   8   2   8   8   8
#     4  10  22  42  68  96 127 179 236 281 344 401
#     4  11  18  38  63  98 145 184 216 274 352 400
#     4   8  24  44  62  96 140 182 218 294 348 412
#     4  11  23  36  61 105 145 189 226 274 347 415
#     4  11  20  35  66 100 137 182 228 280 324 418
#     4  11  21  37  65 100 137 180 233 283 333 405
#
# _framework density 23.019766000000001
#
# number of rings (size 3 to 8) (size 9 to 14) (size 15 to 20)
#    0.571    0.762    5.714    1.714    1.333    4.571 
#    0.000    0.000    0.000    2.286    0.000    0.000 
#    0.000    0.000    0.000    0.000    0.000    0.000 
#
# Total GULP energy -116927.164818 kJ/mol
# GULP energy per Si atom -5567.960229 kJ/mol
# Density = 2.296737 g / cm^3
# Si number density = 23.019766 Si / 1000 Ang^3
#
#
#
# Elastic Constant Matrix: (Units=GPa)
#
#
# Indices 1 2 3 4 5 6 
#
# 1 198.4106 41.9680 46.7372 0.0000 27.0457 0.0000
# 2 41.9680 94.0295 12.7363 0.0000 14.0382 0.0000
# 3 46.7372 12.7363 70.1065 0.0000 8.2847 0.0000
# 4 0.0000 0.0000 0.0000 12.1270 0.0000 12.6238
# 5 27.0457 14.0382 8.2847 0.0000 51.9008 0.0000
# 6 0.0000 0.0000 0.0000 12.6238 0.0000 55.6016
#
#
#
# Elastic Compliance Matrix: (Units=1/GPa)
#
#
# Indices 1 2 3 4 5 6 
#
# 1 0.006703 -0.002131 -0.003808 0.000000 -0.002308 0.000000
# 2 -0.002131 0.011960 -0.000511 0.000000 -0.002043 0.000000
# 3 -0.003808 -0.000511 0.016965 0.000000 -0.000585 0.000000
# 4 0.000000 0.000000 0.000000 0.107981 0.000000 -0.024516
# 5 -0.002308 -0.002043 -0.000585 0.000000 0.021116 0.000000
# 6 0.000000 0.000000 0.000000 -0.024516 0.000000 0.023551
#
#
# Mechanical properties :
#
#
# Convention : Reuss Voigt Hill
#
# Bulk Modulus (GPa) = 43.99973 62.82551 53.41262
# Shear Modulus (GPa) = 23.95184 41.33291 32.64238
#
# Velocity S-wave (km/s) = 3.22916 4.24198 3.76974
# Velocity P-wave (km/s) = 5.74967 7.16545 6.49625
#
# Compressibility (1/GPa) = 0.02272741
#
# Stress axis : x y z
#
# Youngs Moduli (GPa) = 149.19632 83.60989 58.94538
#
# Poissons Ratio (x) = 0.17818 0.22449
# Poissons Ratio (y) = 0.31795 0.03010
# Poissons Ratio (z) = 0.56820 0.04270
#
# Static dielectric constant tensor:
#      x y z
#    x 1.969050 0.000000 0.022890 
#    y 0.000000 1.823780 0.000000 
#    z 0.022890 0.000000 1.991230 
# 
# From -- ./inp_files/133506.got.cif
#   From: 2010.05.17/outbox.cif.g08.bks.cpg/sg12_67_cif.got.tgz:133506.got - 2010.06.03 13:09:07.
