data_PCOD9215152
_publ_section_title
;
Structure prediction by ZEFSAII (Michael W. Deem and Ramdas Pophale) SiO2 
 PCOD9215152
Probable space group: C 2/M
;
_chemical_formula_sum "Si O2"
_cell_formula_units_Z 56
_cell_length_a 26.722865
_cell_length_b 13.549055
_cell_length_c 14.120887
_cell_angle_alpha 90.000000
_cell_angle_beta 149.774532
_cell_angle_gamma 90.000000
_cell_volume 2573.775849
_symmetry_space_group_name_H-M "C 2/M"
_symmetry_group_IT_number 12
_symmetry_cell_setting 'monoclinic'
loop_
_space_group_symop_operation_xyz
x,y,z
-x,y,-z
-x,-y,-z
x,-y,z
1/2+x,1/2+y,z
1/2-x,1/2+y,-z
1/2-x,1/2-y,-z
1/2+x,1/2-y,z
loop_
_atom_site_type_symbol
_atom_site_label
_atom_site_fract_x
_atom_site_fract_y
_atom_site_fract_z
Si Si1 0.112448 0.379498 0.705133
Si Si2 0.314472 0.883338 0.757953
Si Si3 0.199945 0.382409 0.041375
Si Si4 0.583781 0.612950 0.559899
Si Si5 0.389811 0.722602 0.585689
Si Si6 0.732714 0.116472 0.712595
Si Si7 0.560336 0.705053 0.017285
O O1 0.110169 0.500000 0.703932
O O2 0.190918 0.357204 0.749321
O O3 0.000000 0.346920 0.500000
O O4 0.141851 0.340489 0.857071
O O5 0.321805 0.862978 0.883990
O O6 0.204366 0.849492 0.544702
O O7 0.331060 0.000000 0.767622
O O8 0.393780 0.802183 0.854591
O O9 0.187684 0.500000 0.013576
O O10 0.315573 0.358913 0.222020
O O11 0.500000 0.614011 0.500000
O O12 0.597903 0.500000 0.547954
O O13 0.568034 0.679657 0.443575
O O14 0.338357 0.826459 0.477092
O O15 0.478585 0.728103 0.804218
O O16 0.723996 0.000000 0.687545
O O17 0.845236 0.149756 0.874393
O O18 0.500000 0.647091 0.000000
#
# Coordination Sequence:
#
# PCOD9215152 Si02
#       7
#     8   8   8   8   8   8   8
#     4   9  18  32  55  87 125 168 206 245 303 375
#     4   9  20  41  66  92 124 167 215 262 324 393
#     4   8  15  30  53  84 121 158 202 252 299 369
#     4   9  18  33  58  92 127 168 210 254 317 385
#     4  10  22  41  62  92 128 166 212 276 322 377
#     4  10  24  43  63  94 131 173 219 261 320 391
#     4  11  26  45  65  94 129 166 217 281 332 373
#
# _framework density 21.757915000000001
#
# number of rings (size 3 to 8) (size 9 to 14) (size 15 to 20)
#    0.000    2.571    0.000    1.286    4.000    5.143 
#    0.000    3.571    0.000    0.000    0.000    0.000 
#    0.000    0.000    0.000    0.000    0.000    0.000 
#
# Total GULP energy -156260.440065 kJ/mol
# GULP energy per Si atom -5580.730002 kJ/mol
# Density = 2.170839 g / cm^3
# Si number density = 21.757915 Si / 1000 Ang^3
#
#
#
# Elastic Constant Matrix: (Units=GPa)
#
#
# Indices 1 2 3 4 5 6 
#
# 1 50.7792 5.4647 32.8407 0.0000 41.5911 0.0000
# 2 5.4647 108.1512 12.6816 0.0000 15.2761 0.0000
# 3 32.8407 12.6816 103.3655 0.0000 16.0743 0.0000
# 4 0.0000 0.0000 0.0000 7.4553 0.0000 6.9702
# 5 41.5911 15.2761 16.0743 0.0000 9.1088 0.0000
# 6 0.0000 0.0000 0.0000 6.9702 0.0000 17.5057
#
#
#
# Elastic Compliance Matrix: (Units=1/GPa)
#
#
# Indices 1 2 3 4 5 6 
#
# 1 -0.004424 -0.003992 -0.003152 0.000000 0.032459 0.000000
# 2 -0.003992 0.008928 -0.000459 0.000000 0.004063 0.000000
# 3 -0.003152 -0.000459 0.011542 0.000000 -0.005204 0.000000
# 4 0.000000 0.000000 0.000000 0.213674 0.000000 -0.085078
# 5 0.032459 0.004063 -0.005204 0.000000 -0.036054 0.000000
# 6 0.000000 0.000000 0.000000 -0.085078 0.000000 0.090999
#
#
# Mechanical properties :
#
#
# Convention : Reuss Voigt Hill
#
# Bulk Modulus (GPa) = 1191.12856 40.47444 615.80150
# Shear Modulus (GPa) = 16.65834 20.90124 18.77979
#
# Velocity S-wave (km/s) = 2.76999 3.10276 2.94109
# Velocity P-wave (km/s) = 23.64033 5.61059 17.18057
#
# Compressibility (1/GPa) = 0.00083954
#
# Stress axis : x y z
#
# Youngs Moduli (GPa) = -226.01632 112.00754 86.64340
#
# Poissons Ratio (x) = 0.44708 0.27312
# Poissons Ratio (y) = -0.90216 0.03977
# Poissons Ratio (z) = -0.71246 0.05141
#
# Static dielectric constant tensor:
#      x y z
#    x 1.871250 0.000000 0.034060 
#    y 0.000000 1.842280 0.000000 
#    z 0.034060 0.000000 1.767090 
# 
# From -- ./inp_files/246580.got.cif
#   From: 2010.05.17/outbox.cif.g08.bks.cpg/sg12_124_cif.got.tgz:246580.got - 2010.06.03 13:09:07.
