data_PCOD9215134
_publ_section_title
;
Structure prediction by ZEFSAII (Michael W. Deem and Ramdas Pophale) SiO2 
 PCOD9215134
Probable space group: C 2/M
;
_chemical_formula_sum "Si O2"
_cell_formula_units_Z 64
_cell_length_a 14.254987
_cell_length_b 27.692631
_cell_length_c 8.919755
_cell_angle_alpha 90.000000
_cell_angle_beta 71.642998
_cell_angle_gamma 90.000000
_cell_volume 3341.963641
_symmetry_space_group_name_H-M "C 2/M"
_symmetry_group_IT_number 12
_symmetry_cell_setting 'monoclinic'
loop_
_space_group_symop_operation_xyz
x,y,z
-x,y,-z
-x,-y,-z
x,-y,z
1/2+x,1/2+y,z
1/2-x,1/2+y,-z
1/2-x,1/2-y,-z
1/2+x,1/2-y,z
loop_
_atom_site_type_symbol
_atom_site_label
_atom_site_fract_x
_atom_site_fract_y
_atom_site_fract_z
Si Si1 0.524068 0.320858 0.163212
Si Si2 0.018153 0.710390 0.168305
Si Si3 0.816489 0.368705 0.875320
Si Si4 0.207639 0.944349 0.494467
Si Si5 0.894901 0.444365 0.601978
Si Si6 0.794168 0.131000 0.772561
Si Si7 0.700409 0.201185 0.588103
Si Si8 0.320219 0.357531 0.307801
O O1 0.556077 0.265320 0.163654
O O2 0.602540 0.355870 0.200794
O O3 0.416743 0.326772 0.293931
O O4 0.500000 0.330791 0.000000
O O5 0.914425 0.705684 0.309851
O O6 0.100308 0.672209 0.175951
O O7 0.000000 0.702500 0.000000
O O8 0.851018 0.414193 0.760775
O O9 0.715685 0.352194 0.843542
O O10 0.787088 0.380007 0.059781
O O11 0.320319 0.944720 0.498762
O O12 0.197167 0.913042 0.349011
O O13 0.156595 0.911929 0.650288
O O14 0.175020 0.000000 0.498414
O O15 0.908427 0.500000 0.641957
O O16 0.000000 0.423907 0.500000
O O17 0.757086 0.178717 0.702674
O O18 0.750000 0.250000 0.500000
O O19 0.726102 0.161618 0.448520
#
# Coordination Sequence:
#
# PCOD9215134 Si02
#       8
#     8   8   8   8   8   8   8   8
#     4  11  23  41  62  87 125 166 214 255 316 365
#     4  11  24  38  61  90 126 169 203 252 305 372
#     4  11  23  37  63  90 124 163 209 254 308 367
#     4   9  21  42  65  90 124 158 201 260 323 373
#     4   9  20  39  64  92 124 164 204 249 313 383
#     4  11  24  40  64  91 124 165 208 265 309 371
#     4  11  23  41  58  89 128 160 209 252 307 367
#     4  10  22  41  62  88 122 164 204 264 308 367
#
# _framework density 19.150417999999998
#
# number of rings (size 3 to 8) (size 9 to 14) (size 15 to 20)
#    0.000    1.625    3.750    0.000    7.000    3.000 
#    0.000    1.250    0.000    3.375    0.000    0.000 
#    0.000    0.000    0.000    0.000    0.000    0.000 
#
# Total GULP energy -178446.246492 kJ/mol
# GULP energy per Si atom -5576.445203 kJ/mol
# Density = 1.910683 g / cm^3
# Si number density = 19.150418 Si / 1000 Ang^3
#
#
#
# Elastic Constant Matrix: (Units=GPa)
#
#
# Indices 1 2 3 4 5 6 
#
# 1 63.1113 41.9222 30.8034 0.0000 -0.1943 0.0000
# 2 41.9222 119.5741 33.5973 0.0000 12.8296 0.0000
# 3 30.8034 33.5973 83.1365 0.0000 7.2921 0.0000
# 4 0.0000 0.0000 0.0000 23.6781 0.0000 7.9144
# 5 -0.1943 12.8296 7.2921 0.0000 26.1905 0.0000
# 6 0.0000 0.0000 0.0000 7.9144 0.0000 25.2158
#
#
#
# Elastic Compliance Matrix: (Units=1/GPa)
#
#
# Indices 1 2 3 4 5 6 
#
# 1 0.023692 -0.007094 -0.006387 0.000000 0.005429 0.000000
# 2 -0.007094 0.011911 -0.001711 0.000000 -0.005411 0.000000
# 3 -0.006387 -0.001711 0.015393 0.000000 -0.003495 0.000000
# 4 0.000000 0.000000 0.000000 0.047183 0.000000 -0.014809
# 5 0.005429 -0.005411 -0.003495 0.000000 0.041846 0.000000
# 6 0.000000 0.000000 0.000000 -0.014809 0.000000 0.044306
#
#
# Mechanical properties :
#
#
# Convention : Reuss Voigt Hill
#
# Bulk Modulus (GPa) = 48.51594 53.16307 50.83951
# Shear Modulus (GPa) = 22.56470 25.65016 24.10743
#
# Velocity S-wave (km/s) = 3.43634 3.66376 3.55187
# Velocity P-wave (km/s) = 6.41356 6.76155 6.58985
#
# Compressibility (1/GPa) = 0.02061178
#
# Stress axis : x y z
#
# Youngs Moduli (GPa) = 42.20914 83.95349 64.96484
#
# Poissons Ratio (x) = 0.59556 0.41496
# Poissons Ratio (y) = 0.29943 0.11113
# Poissons Ratio (z) = 0.26961 0.14361
#
# Static dielectric constant tensor:
#      x y z
#    x 1.684240 0.000000 -0.006910 
#    y 0.000000 1.682310 0.000000 
#    z -0.006910 0.000000 1.697810 
# 
# From -- ./inp_files/66904.got.cif
#   From: 2010.05.17/outbox.cif.g08.bks.cpg/sg12_34_cif.got.tgz:66904.got - 2010.06.03 13:09:07.
