data_PCOD9215899
_publ_section_title
;
Structure prediction by ZEFSAII (Michael W. Deem and Ramdas Pophale) SiO2 
 PCOD9215899
Probable space group: C 2/M
;
_chemical_formula_sum "Si O2"
_cell_formula_units_Z 24
_cell_length_a 8.216644
_cell_length_b 27.411153
_cell_length_c 7.773698
_cell_angle_alpha 90.000000
_cell_angle_beta 145.363014
_cell_angle_gamma 90.000000
_cell_volume 995.140483
_symmetry_space_group_name_H-M "C 2/M"
_symmetry_group_IT_number 12
_symmetry_cell_setting 'monoclinic'
loop_
_space_group_symop_operation_xyz
x,y,z
-x,y,-z
-x,-y,-z
x,-y,z
1/2+x,1/2+y,z
1/2-x,1/2+y,-z
1/2-x,1/2-y,-z
1/2+x,1/2-y,z
loop_
_atom_site_type_symbol
_atom_site_label
_atom_site_fract_x
_atom_site_fract_y
_atom_site_fract_z
Si Si1 0.792221 0.378004 0.184329
Si Si2 0.790459 0.796775 0.157314
Si Si3 0.716609 0.054411 0.344698
O O1 0.000000 0.349607 0.500000
O O2 0.029429 0.414805 0.315139
O O3 0.500000 0.402662 0.000000
O O4 0.659275 0.341291 0.928728
O O5 0.000000 0.788420 0.500000
O O6 0.500000 0.809835 0.000000
O O7 0.750000 0.750000 0.000000
O O8 0.000000 0.076500 0.500000
O O9 0.794540 0.000000 0.478746
O O10 0.500000 0.049061 0.000000
#
# Coordination Sequence:
#
# PCOD9215899 Si02
#       3
#     8   8   8
#     4  12  25  41  65 100 138 177 226 281 341 403
#     4  12  25  45  70  97 134 177 226 278 338 404
#     4  10  22  42  67  96 133 180 230 279 338 403
#
# _framework density 24.117198999999999
#
# number of rings (size 3 to 8) (size 9 to 14) (size 15 to 20)
#    0.000    0.667    0.000    8.000    0.000    4.000 
#    0.000    0.000    0.000    0.000    0.000    0.000 
#    0.000    0.000    0.000    0.000    0.000    0.000 
#
# Total GULP energy -67027.871025 kJ/mol
# GULP energy per Si atom -5585.655919 kJ/mol
# Density = 2.406231 g / cm^3
# Si number density = 24.117199 Si / 1000 Ang^3
#
#
#
# Elastic Constant Matrix: (Units=GPa)
#
#
# Indices 1 2 3 4 5 6 
#
# 1 121.0313 50.3011 52.2820 0.0000 33.2824 0.0000
# 2 50.3011 88.9226 17.7232 0.0000 0.2414 0.0000
# 3 52.2820 17.7232 184.8903 0.0000 -5.6122 0.0000
# 4 0.0000 0.0000 0.0000 32.3794 0.0000 -18.1390
# 5 33.2824 0.2414 -5.6122 0.0000 66.3491 0.0000
# 6 0.0000 0.0000 0.0000 -18.1390 0.0000 73.8625
#
#
#
# Elastic Compliance Matrix: (Units=1/GPa)
#
#
# Indices 1 2 3 4 5 6 
#
# 1 0.015437 -0.007943 -0.003848 0.000000 -0.008040 0.000000
# 2 -0.007943 0.015553 0.000877 0.000000 0.004002 0.000000
# 3 -0.003848 0.000877 0.006488 0.000000 0.002476 0.000000
# 4 0.000000 0.000000 0.000000 0.035810 0.000000 0.008794
# 5 -0.008040 0.004002 0.002476 0.000000 0.019300 0.000000
# 6 0.000000 0.000000 0.000000 0.008794 0.000000 0.015698
#
#
# Mechanical properties :
#
#
# Convention : Reuss Voigt Hill
#
# Bulk Modulus (GPa) = 63.90100 70.60632 67.25366
# Shear Modulus (GPa) = 36.94636 52.82074 44.88355
#
# Velocity S-wave (km/s) = 3.91826 4.68500 4.31868
# Velocity P-wave (km/s) = 6.85740 7.65543 7.26737
#
# Compressibility (1/GPa) = 0.01564921
#
# Stress axis : x y z
#
# Youngs Moduli (GPa) = 64.78101 64.29428 154.13695
#
# Poissons Ratio (x) = 0.51071 0.59307
# Poissons Ratio (y) = 0.51458 -0.13514
# Poissons Ratio (z) = 0.24926 -0.05637
#
# Static dielectric constant tensor:
#      x y z
#    x 2.077310 0.000000 -0.037580 
#    y 0.000000 1.852390 0.000000 
#    z -0.037580 0.000000 1.888660 
# 
# From -- ./inp_files/42039.got.cif
#   From: 2010.05.17/outbox.cif.g08.bks.cpg/sg12_22_cif.got.tgz:42039.got - 2010.06.03 13:09:07.
