data_PCOD9215858
_publ_section_title
;
Structure prediction by ZEFSAII (Michael W. Deem and Ramdas Pophale) SiO2 
 PCOD9215858
Probable space group: C 2/M
;
_chemical_formula_sum "Si O2"
_cell_formula_units_Z 38
_cell_length_a 12.529447
_cell_length_b 25.160864
_cell_length_c 6.009133
_cell_angle_alpha 90.000000
_cell_angle_beta 68.131699
_cell_angle_gamma 90.000000
_cell_volume 1758.073875
_symmetry_space_group_name_H-M "C 2/M"
_symmetry_group_IT_number 12
_symmetry_cell_setting 'monoclinic'
loop_
_space_group_symop_operation_xyz
x,y,z
-x,y,-z
-x,-y,-z
x,-y,z
1/2+x,1/2+y,z
1/2-x,1/2+y,-z
1/2-x,1/2-y,-z
1/2+x,1/2-y,z
loop_
_atom_site_type_symbol
_atom_site_label
_atom_site_fract_x
_atom_site_fract_y
_atom_site_fract_z
Si Si1 0.689633 0.151596 0.839429
Si Si2 0.675991 0.590750 0.881176
Si Si3 0.000000 0.268257 0.000000
Si Si4 0.096538 0.179479 0.605231
Si Si5 0.000000 0.000000 0.000000
Si Si6 0.892185 0.439771 0.419823
O O1 0.780739 0.182650 0.613136
O O2 0.622073 0.106772 0.749696
O O3 0.763068 0.121310 0.966533
O O4 0.600747 0.193506 0.009212
O O5 0.614120 0.633518 0.772086
O O6 0.775903 0.563750 0.655322
O O7 0.587492 0.546315 0.024643
O O8 0.052973 0.231549 0.766795
O O9 0.000000 0.164825 0.500000
O O10 0.902545 0.500000 0.318993
O O11 0.000000 0.430579 0.500000
#
# Coordination Sequence:
#
# PCOD9215858 Si02
#       6
#     8   8   4   8   2   8
#     4  11  25  43  68 102 137 179 228 279 336 404
#     4  11  24  44  66 102 135 176 227 278 331 406
#     4  12  25  44  69  97 134 185 224 286 340 394
#     4  11  25  45  67  98 136 178 230 285 336 398
#     4  12  22  40  68  94 130 174 212 268 336 390
#     4  10  22  42  66  98 137 177 224 277 334 399
#
# _framework density 21.614564999999999
#
# number of rings (size 3 to 8) (size 9 to 14) (size 15 to 20)
#    0.000    1.053    1.053    5.053    1.474    7.579 
#    0.000    5.263    0.000    0.000    0.000    0.000 
#    0.000    0.000    0.000    0.000    0.000    0.000 
#
# Total GULP energy -106052.716522 kJ/mol
# GULP energy per Si atom -5581.721922 kJ/mol
# Density = 2.156537 g / cm^3
# Si number density = 21.614565 Si / 1000 Ang^3
#
#
#
# Elastic Constant Matrix: (Units=GPa)
#
#
# Indices 1 2 3 4 5 6 
#
# 1 134.9508 95.5360 36.6927 0.0000 20.3367 0.0000
# 2 95.5360 166.6082 61.0527 0.0000 11.1015 0.0000
# 3 36.6927 61.0527 59.3865 0.0000 13.9371 0.0000
# 4 0.0000 0.0000 0.0000 11.7113 0.0000 5.0311
# 5 20.3367 11.1015 13.9371 0.0000 42.6693 0.0000
# 6 0.0000 0.0000 0.0000 5.0311 0.0000 48.9302
#
#
#
# Elastic Compliance Matrix: (Units=1/GPa)
#
#
# Indices 1 2 3 4 5 6 
#
# 1 0.013256 -0.007522 0.000613 0.000000 -0.004561 0.000000
# 2 -0.007522 0.013923 -0.010459 0.000000 0.003379 0.000000
# 3 0.000613 -0.010459 0.028854 0.000000 -0.006996 0.000000
# 4 0.000000 0.000000 0.000000 0.089334 0.000000 -0.009185
# 5 -0.004561 0.003379 -0.006996 0.000000 0.027016 0.000000
# 6 0.000000 0.000000 0.000000 -0.009185 0.000000 0.021382
#
#
# Mechanical properties :
#
#
# Convention : Reuss Voigt Hill
#
# Bulk Modulus (GPa) = 46.95418 83.05647 65.00533
# Shear Modulus (GPa) = 21.22258 31.83977 26.53117
#
# Velocity S-wave (km/s) = 3.13687 3.84222 3.50732
# Velocity P-wave (km/s) = 5.90682 7.62844 6.82216
#
# Compressibility (1/GPa) = 0.02129736
#
# Stress axis : x y z
#
# Youngs Moduli (GPa) = 75.43954 71.82543 34.65705
#
# Poissons Ratio (x) = 0.54025 -0.02125
# Poissons Ratio (y) = 0.56744 0.36247
# Poissons Ratio (z) = -0.04625 0.75121
#
# Static dielectric constant tensor:
#      x y z
#    x 1.777930 0.000000 -0.047780 
#    y 0.000000 1.734080 0.000000 
#    z -0.047780 0.000000 1.778030 
# 
# From -- ./inp_files/7703.got.cif
#   From: 2010.05.17/outbox.cif.g08.bks.cpg/sg12_4_cif.got.tgz:7703.got - 2010.06.03 13:09:07.
