data_PCOD9215441
_publ_section_title
;
Structure prediction by ZEFSAII (Michael W. Deem and Ramdas Pophale) SiO2 
 PCOD9215441
Probable space group: C 2/M
;
_chemical_formula_sum "Si O2"
_cell_formula_units_Z 58
_cell_length_a 12.231458
_cell_length_b 26.404365
_cell_length_c 8.933996
_cell_angle_alpha 90.000000
_cell_angle_beta 89.687613
_cell_angle_gamma 90.000000
_cell_volume 2885.315140
_symmetry_space_group_name_H-M "C 2/M"
_symmetry_group_IT_number 12
_symmetry_cell_setting 'monoclinic'
loop_
_space_group_symop_operation_xyz
x,y,z
-x,y,-z
-x,-y,-z
x,-y,z
1/2+x,1/2+y,z
1/2-x,1/2+y,-z
1/2-x,1/2-y,-z
1/2+x,1/2-y,z
loop_
_atom_site_type_symbol
_atom_site_label
_atom_site_fract_x
_atom_site_fract_y
_atom_site_fract_z
Si Si1 0.700339 0.055538 0.355268
Si Si2 0.063596 0.380692 0.128543
Si Si3 0.500000 0.000000 0.500000
Si Si4 0.582691 0.823647 0.636938
Si Si5 0.571089 0.637666 0.135837
Si Si6 0.320222 0.631155 0.562319
Si Si7 0.256416 0.807292 0.946150
Si Si8 0.398387 0.295979 0.313192
O O1 0.653079 0.086718 0.216044
O O2 0.789259 0.086464 0.448000
O O3 0.741984 0.000000 0.308063
O O4 0.593437 0.043218 0.457814
O O5 0.126466 0.333191 0.055197
O O6 0.973619 0.358247 0.238857
O O7 0.000000 0.410820 0.000000
O O8 0.500000 0.828050 0.500000
O O9 0.704564 0.843427 0.606427
O O10 0.588354 0.763926 0.672999
O O11 0.616811 0.612460 0.288589
O O12 0.493114 0.681220 0.206613
O O13 0.500000 0.612754 0.000000
O O14 0.675597 0.660957 0.051988
O O15 0.385587 0.674213 0.469293
O O16 0.212665 0.807471 0.776892
O O17 0.250000 0.750000 0.000000
#
# Coordination Sequence:
#
# PCOD9215441 Si02
#       8
#     8   8   2   8   8   8   8   8
#     4  10  22  41  66  90 123 160 212 264 324 379
#     4  12  23  39  61  93 133 171 207 263 319 390
#     4   8  20  40  66  96 124 150 210 266 330 384
#     4  12  22  35  57  94 133 170 212 257 318 393
#     4  10  23  38  59  87 122 169 211 262 314 369
#     4  12  21  40  63  90 122 168 214 269 318 383
#     4  11  21  38  55  88 132 176 214 254 311 386
#     4  11  22  37  58  89 128 174 220 259 309 379
#
# _framework density 20.101789
#
# number of rings (size 3 to 8) (size 9 to 14) (size 15 to 20)
#    0.414    0.552    2.759    5.793    0.000    1.379 
#    0.000    0.000    0.000    2.069    0.000    0.000 
#    0.000    0.000    0.000    0.000    0.000    0.000 
#
# Total GULP energy -161580.005745 kJ/mol
# GULP energy per Si atom -5571.724336 kJ/mol
# Density = 2.005604 g / cm^3
# Si number density = 20.101789 Si / 1000 Ang^3
#
#
#
# Elastic Constant Matrix: (Units=GPa)
#
#
# Indices 1 2 3 4 5 6 
#
# 1 67.6209 11.1029 30.1478 0.0000 7.2030 0.0000
# 2 11.1029 88.1533 29.9970 0.0000 15.1365 0.0000
# 3 30.1478 29.9970 124.2207 0.0000 44.0163 0.0000
# 4 0.0000 0.0000 0.0000 -4.0044 0.0000 9.5836
# 5 7.2030 15.1365 44.0163 0.0000 51.7822 0.0000
# 6 0.0000 0.0000 0.0000 9.5836 0.0000 3.3119
#
#
#
# Elastic Compliance Matrix: (Units=1/GPa)
#
#
# Indices 1 2 3 4 5 6 
#
# 1 0.016738 -0.000887 -0.004458 0.000000 0.001720 0.000000
# 2 -0.000887 0.012493 -0.002220 0.000000 -0.001641 0.000000
# 3 -0.004458 -0.002220 0.013192 0.000000 -0.009944 0.000000
# 4 0.000000 0.000000 0.000000 -0.031510 0.000000 0.091179
# 5 0.001720 -0.001641 -0.009944 0.000000 0.028005 0.000000
# 6 0.000000 0.000000 0.000000 0.091179 0.000000 0.038098
#
#
# Mechanical properties :
#
#
# Convention : Reuss Voigt Hill
#
# Bulk Modulus (GPa) = 36.63781 46.94338 41.79060
# Shear Modulus (GPa) = 49.38623 24.13443 36.76033
#
# Velocity S-wave (km/s) = 4.96200 3.46874 4.28098
# Velocity P-wave (km/s) = 7.14802 6.28064 6.72832
#
# Compressibility (1/GPa) = 0.02729421
#
# Stress axis : x y z
#
# Youngs Moduli (GPa) = 59.74412 80.04607 75.80460
#
# Poissons Ratio (x) = 0.07097 0.33791
# Poissons Ratio (y) = 0.05297 0.16829
# Poissons Ratio (z) = 0.26631 0.17770
#
# Static dielectric constant tensor:
#      x y z
#    x 1.714460 0.000000 0.045560 
#    y 0.000000 1.696320 0.000000 
#    z 0.045560 0.000000 1.772400 
# 
# From -- ./inp_files/53243.got.cif
#   From: 2010.05.17/outbox.cif.g08.bks.cpg/sg12_27_cif.got.tgz:53243.got - 2010.06.03 13:09:07.
