data_PCOD9215604
_publ_section_title
;
Structure prediction by ZEFSAII (Michael W. Deem and Ramdas Pophale) SiO2 
 PCOD9215604
Probable space group: C 2/M
;
_chemical_formula_sum "Si O2"
_cell_formula_units_Z 48
_cell_length_a 8.260995
_cell_length_b 27.586214
_cell_length_c 16.455268
_cell_angle_alpha 90.000000
_cell_angle_beta 33.552352
_cell_angle_gamma 90.000000
_cell_volume 2072.611265
_symmetry_space_group_name_H-M "C 2/M"
_symmetry_group_IT_number 12
_symmetry_cell_setting 'monoclinic'
loop_
_space_group_symop_operation_xyz
x,y,z
-x,y,-z
-x,-y,-z
x,-y,z
1/2+x,1/2+y,z
1/2-x,1/2+y,-z
1/2-x,1/2-y,-z
1/2+x,1/2-y,z
loop_
_atom_site_type_symbol
_atom_site_label
_atom_site_fract_x
_atom_site_fract_y
_atom_site_fract_z
Si Si1 0.084710 0.554156 0.059632
Si Si2 0.650537 0.200866 0.817069
Si Si3 0.523259 0.445525 0.587574
Si Si4 0.018059 0.301819 0.300226
Si Si5 0.426616 0.651900 0.937352
Si Si6 0.777329 0.845570 0.437624
O O1 0.207145 0.500000 0.022524
O O2 0.796026 0.558972 0.236602
O O3 0.301219 0.598073 0.987071
O O4 0.000000 0.557250 0.000000
O O5 0.787292 0.253300 0.775549
O O6 0.595920 0.193304 0.743467
O O7 0.908839 0.164576 0.734807
O O8 0.331597 0.187431 0.986299
O O9 0.500000 0.440880 0.500000
O O10 0.631798 0.500000 0.560759
O O11 0.716560 0.401332 0.538390
O O12 0.250534 0.342533 0.233025
O O13 0.752614 0.309070 0.473241
O O14 0.500000 0.665393 0.000000
O O15 0.500000 0.833222 0.500000
#
# Coordination Sequence:
#
# PCOD9215604 Si02
#       6
#     8   8   8   8   8   8
#     4  10  22  41  68  98 133 174 218 271 330 390
#     4  11  22  43  62  91 130 171 218 273 328 397
#     4  10  22  43  70  97 131 177 220 269 332 397
#     4  11  24  39  64  93 127 169 221 273 329 395
#     4  10  23  40  65  94 127 172 218 268 329 394
#     4  12  25  40  64  95 128 172 219 273 332 390
#
# _framework density 23.159191
#
# number of rings (size 3 to 8) (size 9 to 14) (size 15 to 20)
#    0.000    1.333    1.667    3.500    4.667    2.000 
#    0.000    0.833    0.000    0.000    0.000    0.000 
#    0.000    0.000    0.000    0.000    0.000    0.000 
#
# Total GULP energy -134178.099706 kJ/mol
# GULP energy per Si atom -5590.754154 kJ/mol
# Density = 2.310648 g / cm^3
# Si number density = 23.159191 Si / 1000 Ang^3
#
#
#
# Elastic Constant Matrix: (Units=GPa)
#
#
# Indices 1 2 3 4 5 6 
#
# 1 91.0246 8.4046 33.7413 0.0000 -13.5108 0.0000
# 2 8.4046 109.4797 17.0230 0.0000 -19.0360 0.0000
# 3 33.7413 17.0230 107.2314 -0.0001 -1.9802 0.0000
# 4 0.0000 0.0000 -0.0001 27.7734 0.0000 -11.4320
# 5 -13.5108 -19.0360 -1.9802 0.0000 45.0938 0.0000
# 6 0.0000 0.0000 0.0000 -11.4320 0.0000 39.8720
#
#
#
# Elastic Compliance Matrix: (Units=1/GPa)
#
#
# Indices 1 2 3 4 5 6 
#
# 1 0.013043 0.000304 -0.004081 0.000000 0.003857 0.000000
# 2 0.000304 0.010108 -0.001621 0.000000 0.004287 0.000000
# 3 -0.004081 -0.001621 0.010841 0.000000 -0.001431 0.000000
# 4 0.000000 0.000000 0.000000 0.040823 0.000000 0.011705
# 5 0.003857 0.004287 -0.001431 0.000000 0.025079 0.000000
# 6 0.000000 0.000000 0.000000 0.011705 0.000000 0.028436
#
#
# Mechanical properties :
#
#
# Convention : Reuss Voigt Hill
#
# Bulk Modulus (GPa) = 43.11192 47.34151 45.22672
# Shear Modulus (GPa) = 34.04620 39.11897 36.58258
#
# Velocity S-wave (km/s) = 3.83834 4.11437 3.97875
# Velocity P-wave (km/s) = 6.18867 6.56177 6.37795
#
# Compressibility (1/GPa) = 0.02319544
#
# Stress axis : x y z
#
# Youngs Moduli (GPa) = 76.66759 98.92893 92.24455
#
# Poissons Ratio (x) = -0.03007 0.37647
# Poissons Ratio (y) = -0.02330 0.14954
# Poissons Ratio (z) = 0.31290 0.16038
#
# Static dielectric constant tensor:
#      x y z
#    x 1.838600 0.000000 0.042110 
#    y 0.000000 1.871790 0.000000 
#    z 0.042110 0.000000 1.931150 
# 
# From -- ./inp_files/170695.got.cif
#   From: 2010.05.17/outbox.cif.g08.bks.cpg/sg12_86_cif.got.tgz:170695.got - 2010.06.03 13:09:07.
