data_PCOD9215872
_publ_section_title
;
Structure prediction by ZEFSAII (Michael W. Deem and Ramdas Pophale) SiO2 
 PCOD9215872
Probable space group: C 2/M
;
_chemical_formula_sum "Si O2"
_cell_formula_units_Z 44
_cell_length_a 9.588463
_cell_length_b 14.691022
_cell_length_c 16.280774
_cell_angle_alpha 90.000000
_cell_angle_beta 81.501414
_cell_angle_gamma 90.000000
_cell_volume 2268.197737
_symmetry_space_group_name_H-M "C 2/M"
_symmetry_group_IT_number 12
_symmetry_cell_setting 'monoclinic'
loop_
_space_group_symop_operation_xyz
x,y,z
-x,y,-z
-x,-y,-z
x,-y,z
1/2+x,1/2+y,z
1/2-x,1/2+y,-z
1/2-x,1/2-y,-z
1/2+x,1/2-y,z
loop_
_atom_site_type_symbol
_atom_site_label
_atom_site_fract_x
_atom_site_fract_y
_atom_site_fract_z
Si Si1 0.338631 0.000000 0.302336
Si Si2 0.592974 0.000000 0.410672
Si Si3 0.815959 0.402882 0.818676
Si Si4 0.101013 0.307553 0.771415
Si Si5 0.352432 0.292087 0.057651
Si Si6 0.828045 0.866569 0.333573
Si Si7 0.463780 0.500000 0.598988
O O1 0.333006 0.093521 0.251233
O O2 0.480612 0.000000 0.345803
O O3 0.202184 0.000000 0.372564
O O4 0.500000 0.000000 0.500000
O O5 0.694297 0.910214 0.395024
O O6 0.888835 0.500000 0.821653
O O7 0.725430 0.382491 0.906061
O O8 0.707166 0.405094 0.753340
O O9 0.932629 0.326706 0.788660
O O10 0.136007 0.266212 0.858295
O O11 0.145079 0.238973 0.693268
O O12 0.500000 0.304257 0.000000
O O13 0.250000 0.250000 0.000000
O O14 0.962766 0.912786 0.363908
O O15 0.500000 0.500000 0.500000
#
# Coordination Sequence:
#
# PCOD9215872 Si02
#       7
#     4   4   8   8   8   8   4
#     4  12  24  40  67  99 128 175 234 261 319 404
#     4  11  21  43  69  96 131 172 212 273 334 391
#     4  11  20  42  70  93 123 177 226 265 326 396
#     4  11  23  40  71  93 129 179 225 267 321 397
#     4  11  24  41  62  95 133 168 215 280 335 384
#     4  10  22  42  67  92 132 175 217 261 330 398
#     4  11  25  43  63 101 139 162 211 286 331 378
#
# _framework density 19.398662000000002
#
# number of rings (size 3 to 8) (size 9 to 14) (size 15 to 20)
#    0.000    1.091    6.364    1.091    5.091    0.364 
#    1.636    6.818    0.000    0.000    0.000    0.000 
#    0.000    0.000    0.000    0.000    0.000    0.000 
#
# Total GULP energy -122527.577845 kJ/mol
# GULP energy per Si atom -5569.435357 kJ/mol
# Density = 1.935451 g / cm^3
# Si number density = 19.398662 Si / 1000 Ang^3
#
#
#
# Elastic Constant Matrix: (Units=GPa)
#
#
# Indices 1 2 3 4 5 6 
#
# 1 106.9745 31.9205 34.6033 0.0000 -22.7551 0.0000
# 2 31.9205 134.4668 50.0768 0.0000 -14.9861 0.0000
# 3 34.6033 50.0768 113.9886 0.0000 -25.8548 0.0000
# 4 0.0000 0.0000 0.0000 27.7092 0.0000 -3.0239
# 5 -22.7551 -14.9861 -25.8548 0.0000 46.5935 0.0000
# 6 0.0000 0.0000 0.0000 -3.0239 0.0000 22.2559
#
#
#
# Elastic Compliance Matrix: (Units=1/GPa)
#
#
# Indices 1 2 3 4 5 6 
#
# 1 0.011248 -0.001544 -0.001834 0.000000 0.003979 0.000000
# 2 -0.001544 0.009129 -0.003486 0.000000 0.000248 0.000000
# 3 -0.001834 -0.003486 0.011901 0.000000 0.004587 0.000000
# 4 0.000000 0.000000 0.000000 0.036632 0.000000 0.004977
# 5 0.003979 0.000248 0.004587 0.000000 0.026031 0.000000
# 6 0.000000 0.000000 0.000000 0.004977 0.000000 0.045608
#
#
# Mechanical properties :
#
#
# Convention : Reuss Voigt Hill
#
# Bulk Modulus (GPa) = 53.90209 65.40346 59.65277
# Shear Modulus (GPa) = 31.16035 35.23368 33.19701
#
# Velocity S-wave (km/s) = 4.01223 4.26642 4.14128
# Velocity P-wave (km/s) = 7.02217 7.61961 7.32698
#
# Compressibility (1/GPa) = 0.01855216
#
# Stress axis : x y z
#
# Youngs Moduli (GPa) = 88.90211 109.54156 84.02470
#
# Poissons Ratio (x) = 0.16911 0.15409
# Poissons Ratio (y) = 0.13724 0.29287
# Poissons Ratio (z) = 0.16304 0.38181
#
# Static dielectric constant tensor:
#      x y z
#    x 1.742480 0.000000 -0.073770 
#    y 0.000000 1.749690 0.000000 
#    z -0.073770 0.000000 1.730170 
# 
# From -- ./inp_files/255373.got.cif
#   From: 2010.05.17/outbox.cif.g08.bks.cpg/sg12_128_cif.got.tgz:255373.got - 2010.06.03 13:09:07.
