data_PCOD9215342
_publ_section_title
;
Structure prediction by ZEFSAII (Michael W. Deem and Ramdas Pophale) SiO2 
 PCOD9215342
Probable space group: C 2/M
;
_chemical_formula_sum "Si O2"
_cell_formula_units_Z 40
_cell_length_a 12.335861
_cell_length_b 28.269956
_cell_length_c 5.385303
_cell_angle_alpha 90.000000
_cell_angle_beta 123.987585
_cell_angle_gamma 90.000000
_cell_volume 1557.192904
_symmetry_space_group_name_H-M "C 2/M"
_symmetry_group_IT_number 12
_symmetry_cell_setting 'monoclinic'
loop_
_space_group_symop_operation_xyz
x,y,z
-x,y,-z
-x,-y,-z
x,-y,z
1/2+x,1/2+y,z
1/2-x,1/2+y,-z
1/2-x,1/2-y,-z
1/2+x,1/2-y,z
loop_
_atom_site_type_symbol
_atom_site_label
_atom_site_fract_x
_atom_site_fract_y
_atom_site_fract_z
Si Si1 0.139376 0.556935 0.103709
Si Si2 0.380969 0.649596 0.008081
Si Si3 0.284661 0.555719 0.789986
Si Si4 0.720842 0.287700 0.745403
Si Si5 0.113426 0.694648 0.445215
O O1 0.130859 0.500000 0.114103
O O2 0.239811 0.568870 0.453763
O O3 0.174096 0.564588 0.860777
O O4 0.000000 0.578186 0.000000
O O5 0.389699 0.593148 0.016860
O O6 0.243499 0.666898 0.709055
O O7 0.500000 0.668578 0.000000
O O8 0.363941 0.669956 0.258963
O O9 0.318406 0.500000 0.841914
O O10 0.855566 0.310060 0.811063
O O11 0.633360 0.252051 0.471020
O O12 0.750000 0.250000 0.000000
O O13 0.000000 0.683717 0.500000
#
# Coordination Sequence:
#
# PCOD9215342 Si02
#       5
#     8   8   8   8   8
#     4   9  18  36  64  95 130 174 229 290 352 409
#     4  11  26  42  65  99 139 183 233 289 350 416
#     4  10  22  41  64  97 137 186 237 287 346 415
#     4   9  22  41  66 100 133 173 226 284 355 420
#     4  10  23  42  70  99 133 177 228 291 354 425
#
# _framework density 25.687245999999998
#
# number of rings (size 3 to 8) (size 9 to 14) (size 15 to 20)
#    0.000    2.200    0.000    0.600   11.200    6.800 
#    0.000    0.000    0.000    3.600    0.000    0.000 
#    0.000    0.000    0.000    0.000    0.000    0.000 
#
# Total GULP energy -111431.045412 kJ/mol
# GULP energy per Si atom -5571.552271 kJ/mol
# Density = 2.562878 g / cm^3
# Si number density = 25.687246 Si / 1000 Ang^3
#
#
#
# Elastic Constant Matrix: (Units=GPa)
#
#
# Indices 1 2 3 4 5 6 
#
# 1 226.1143 31.6767 14.9434 0.0000 -19.6024 0.0000
# 2 31.6767 109.4947 7.1296 0.0000 4.5851 0.0000
# 3 14.9434 7.1296 46.8116 0.0000 -24.1090 0.0000
# 4 0.0000 0.0000 0.0000 21.4318 0.0000 -6.2638
# 5 -19.6024 4.5851 -24.1090 0.0000 24.9481 0.0000
# 6 0.0000 0.0000 0.0000 -6.2638 0.0000 21.8707
#
#
#
# Elastic Compliance Matrix: (Units=1/GPa)
#
#
# Indices 1 2 3 4 5 6 
#
# 1 0.005088 -0.001840 0.001770 0.000000 0.006046 0.000000
# 2 -0.001840 0.010377 -0.005415 0.000000 -0.008586 0.000000
# 3 0.001770 -0.005415 0.045492 0.000000 0.046348 0.000000
# 4 0.000000 0.000000 0.000000 0.050922 0.000000 0.014584
# 5 0.006046 -0.008586 0.046348 0.000000 0.091201 0.000000
# 6 0.000000 0.000000 0.000000 0.014584 0.000000 0.049900
#
#
# Mechanical properties :
#
#
# Convention : Reuss Voigt Hill
#
# Bulk Modulus (GPa) = 20.00528 54.43553 37.22041
# Shear Modulus (GPa) = 17.81809 35.56152 26.68980
#
# Velocity S-wave (km/s) = 2.63659 3.72479 3.22689
# Velocity P-wave (km/s) = 4.13204 6.30369 5.32964
#
# Compressibility (1/GPa) = 0.04998679
#
# Stress axis : x y z
#
# Youngs Moduli (GPa) = 196.55914 96.36330 21.98175
#
# Poissons Ratio (x) = 0.17733 -0.03891
# Poissons Ratio (y) = 0.36172 0.11903
# Poissons Ratio (z) = -0.34795 0.52182
#
# Static dielectric constant tensor:
#      x y z
#    x 2.229570 0.000000 -0.127700 
#    y 0.000000 2.079890 0.000000 
#    z -0.127700 0.000000 2.462840 
# 
# From -- ./inp_files/8516.got.cif
#   From: 2010.05.17/outbox.cif.g08.bks.cpg/sg12_5_cif.got.tgz:8516.got - 2010.06.03 13:09:07.
