data_PCOD9215903
_publ_section_title
;
Structure prediction by ZEFSAII (Michael W. Deem and Ramdas Pophale) SiO2 
 PCOD9215903
Probable space group: C 2/M
;
_chemical_formula_sum "Si O2"
_cell_formula_units_Z 44
_cell_length_a 7.556192
_cell_length_b 26.984586
_cell_length_c 14.714039
_cell_angle_alpha 90.000000
_cell_angle_beta 42.410929
_cell_angle_gamma 90.000000
_cell_volume 2023.466640
_symmetry_space_group_name_H-M "C 2/M"
_symmetry_group_IT_number 12
_symmetry_cell_setting 'monoclinic'
loop_
_space_group_symop_operation_xyz
x,y,z
-x,y,-z
-x,-y,-z
x,-y,z
1/2+x,1/2+y,z
1/2-x,1/2+y,-z
1/2-x,1/2-y,-z
1/2+x,1/2-y,z
loop_
_atom_site_type_symbol
_atom_site_label
_atom_site_fract_x
_atom_site_fract_y
_atom_site_fract_z
Si Si1 0.500000 0.636365 0.000000
Si Si2 0.733433 0.709729 0.769893
Si Si3 0.159335 0.349718 0.532983
Si Si4 0.811532 0.553589 0.362830
Si Si5 0.477438 0.913820 0.909048
Si Si6 0.842697 0.819973 0.757204
O O1 0.679058 0.674253 0.875232
O O2 0.682718 0.601678 0.992974
O O3 0.700191 0.768069 0.793508
O O4 0.534491 0.690972 0.768556
O O5 0.029899 0.698633 0.626626
O O6 0.100475 0.397328 0.617405
O O7 0.463161 0.339373 0.396022
O O8 0.000000 0.358056 0.500000
O O9 0.500000 0.552691 0.500000
O O10 0.916487 0.500000 0.355828
O O11 0.892164 0.558824 0.226708
O O12 0.640407 0.862853 0.855033
O O13 0.500000 0.938126 0.000000
#
# Coordination Sequence:
#
# PCOD9215903 Si02
#       6
#     4   8   8   8   8   8
#     4  12  24  40  65  94 136 184 227 270 328 408
#     4  11  23  37  61  97 138 179 227 266 329 403
#     4  10  22  42  67  97 134 175 221 286 338 396
#     4  11  24  45  74 100 125 171 229 287 347 398
#     4  12  25  44  69  95 140 180 222 282 339 399
#     4  11  23  39  62  96 134 183 222 273 330 393
#
# _framework density 21.744859999999999
#
# number of rings (size 3 to 8) (size 9 to 14) (size 15 to 20)
#    0.000    0.909    5.455    1.636    1.273    2.182 
#    0.000    0.455    0.000    0.000    0.000    0.000 
#    0.000    0.000    0.000    0.000    0.000    0.000 
#
# Total GULP energy -122981.772117 kJ/mol
# GULP energy per Si atom -5590.080551 kJ/mol
# Density = 2.169537 g / cm^3
# Si number density = 21.744860 Si / 1000 Ang^3
#
#
#
# Elastic Constant Matrix: (Units=GPa)
#
#
# Indices 1 2 3 4 5 6 
#
# 1 58.5340 -3.7019 18.2866 0.0000 1.8369 0.0000
# 2 -3.7019 75.3431 -2.0405 0.0000 5.9988 0.0000
# 3 18.2866 -2.0405 93.0112 0.0000 12.0748 0.0000
# 4 0.0000 0.0000 0.0000-1339.8857 0.0000 257.9039
# 5 1.8369 5.9988 12.0748 0.0000 36.8237 0.0000
# 6 0.0000 0.0000 0.0000 257.9039 0.0000 -37.1981
#
#
#
# Elastic Compliance Matrix: (Units=1/GPa)
#
#
# Indices 1 2 3 4 5 6 
#
# 1 0.018251 0.000789 -0.003589 0.000000 0.000138 0.000000
# 2 0.000789 0.013514 0.000452 0.000000 -0.002389 0.000000
# 3 -0.003589 0.000452 0.011962 0.000000 -0.003817 0.000000
# 4 0.000000 0.000000 0.000000 0.002231 0.000000 0.015468
# 5 0.000138 -0.002389 -0.003817 0.000000 0.028790 0.000000
# 6 0.000000 0.000000 0.000000 0.015468 0.000000 0.080362
#
#
# Mechanical properties :
#
#
# Convention : Reuss Voigt Hill
#
# Bulk Modulus (GPa) = 25.62158 27.99741 26.80950
# Shear Modulus (GPa) = 28.93227 -253.76241 -112.41507
#
# Velocity S-wave (km/s) = 3.65161 -10.81449 -7.19788
# Velocity P-wave (km/s) = 5.43943 11.95970 7.53150
#
# Compressibility (1/GPa) = 0.03902960
#
# Stress axis : x y z
#
# Youngs Moduli (GPa) = 54.79211 73.99848 83.59510
#
# Poissons Ratio (x) = -0.05835 0.30001
# Poissons Ratio (y) = -0.04321 -0.03775
# Poissons Ratio (z) = 0.19664 -0.03341
#
# Static dielectric constant tensor:
#      x y z
#    x 1.804670 0.000000 0.030730 
#    y 0.000000 1.743050 0.000000 
#    z 0.030730 0.000000 1.838360 
# 
# From -- ./inp_files/199579.got.cif
#   From: 2010.05.17/outbox.cif.g08.bks.cpg/sg12_100_cif.got.tgz:199579.got - 2010.06.03 13:09:07.
