data_PCOD9215018
_publ_section_title
;
Structure prediction by ZEFSAII (Michael W. Deem and Ramdas Pophale) SiO2 
 PCOD9215018
Probable space group: C 2/M
;
_chemical_formula_sum "Si O2"
_cell_formula_units_Z 42
_cell_length_a 14.024635
_cell_length_b 15.127942
_cell_length_c 9.521700
_cell_angle_alpha 90.000000
_cell_angle_beta 64.909753
_cell_angle_gamma 90.000000
_cell_volume 1829.540319
_symmetry_space_group_name_H-M "C 2/M"
_symmetry_group_IT_number 12
_symmetry_cell_setting 'monoclinic'
loop_
_space_group_symop_operation_xyz
x,y,z
-x,y,-z
-x,-y,-z
x,-y,z
1/2+x,1/2+y,z
1/2-x,1/2+y,-z
1/2-x,1/2-y,-z
1/2+x,1/2-y,z
loop_
_atom_site_type_symbol
_atom_site_label
_atom_site_fract_x
_atom_site_fract_y
_atom_site_fract_z
Si Si1 0.881198 0.892915 0.108388
Si Si2 0.309039 0.892973 0.963141
Si Si3 0.288637 0.101651 0.294374
Si Si4 0.511432 0.147157 0.652280
Si Si5 0.398116 0.340988 0.406102
Si Si6 0.000000 0.000000 0.500000
O O1 0.799347 0.863501 0.041196
O O2 0.852499 0.857100 0.279407
O O3 0.878445 0.000000 0.115152
O O4 0.000000 0.864941 0.000000
O O5 0.406114 0.864370 0.807350
O O6 0.310424 0.000000 0.963413
O O7 0.315131 0.866229 0.121852
O O8 0.392251 0.102638 0.324567
O O9 0.197772 0.157450 0.424320
O O10 0.245826 0.000000 0.312919
O O11 0.500000 0.113582 0.500000
O O12 0.540933 0.249967 0.627247
O O13 0.473103 0.422218 0.400274
#
# Coordination Sequence:
#
# PCOD9215018 Si02
#       6
#     8   8   8   8   8   2
#     4  10  22  40  68 101 136 176 231 285 342 408
#     4  10  24  45  72 104 140 184 231 284 348 419
#     4  11  24  45  74 101 136 185 237 284 346 417
#     4  12  26  43  66 102 146 181 228 287 350 417
#     4  12  25  44  69 101 136 181 239 287 347 407
#     4  12  24  44  78  92 138 188 242 284 340 410
#
# _framework density 22.956585
#
# number of rings (size 3 to 8) (size 9 to 14) (size 15 to 20)
#    0.000    0.952    2.857    2.857    2.667    6.095 
#    0.000    2.857    0.000    0.000    0.000    0.000 
#    0.000    0.000    0.000    0.000    0.000    0.000 
#
# Total GULP energy -117455.175375 kJ/mol
# GULP energy per Si atom -5593.103589 kJ/mol
# Density = 2.290433 g / cm^3
# Si number density = 22.956585 Si / 1000 Ang^3
#
#
#
# Elastic Constant Matrix: (Units=GPa)
#
#
# Indices 1 2 3 4 5 6 
#
# 1 116.4499 22.3756 73.7163 0.0000 23.2842 0.0000
# 2 22.3756 75.9528 28.8465 0.0000 0.1821 0.0000
# 3 73.7163 28.8465 201.2692 0.0000 15.4630 0.0000
# 4 0.0000 0.0000 0.0000 12.1581 0.0000 -16.0165
# 5 23.2842 0.1821 15.4630 0.0000 54.0078 0.0000
# 6 0.0000 0.0000 0.0000 -16.0165 0.0000 25.3922
#
#
#
# Elastic Compliance Matrix: (Units=1/GPa)
#
#
# Indices 1 2 3 4 5 6 
#
# 1 0.012285 -0.002139 -0.003872 0.000000 -0.004181 0.000000
# 2 -0.002139 0.014312 -0.001365 0.000000 0.001265 0.000000
# 3 -0.003872 -0.001365 0.006599 0.000000 -0.000215 0.000000
# 4 0.000000 0.000000 0.000000 0.486500 0.000000 0.306867
# 5 -0.004181 0.001265 -0.000215 0.000000 0.020376 0.000000
# 6 0.000000 0.000000 0.000000 0.306867 0.000000 0.232943
#
#
# Mechanical properties :
#
#
# Convention : Reuss Voigt Hill
#
# Bulk Modulus (GPa) = 54.21693 71.50541 62.86117
# Shear Modulus (GPa) = 6.29792 36.22721 21.26256
#
# Velocity S-wave (km/s) = 1.65812 3.97681 3.04667
# Velocity P-wave (km/s) = 5.22822 7.23204 6.31018
#
# Compressibility (1/GPa) = 0.01844442
#
# Stress axis : x y z
#
# Youngs Moduli (GPa) = 81.39835 69.87380 151.54391
#
# Poissons Ratio (x) = 0.14944 0.58675
# Poissons Ratio (y) = 0.17409 0.20686
# Poissons Ratio (z) = 0.31516 0.09538
#
# Static dielectric constant tensor:
#      x y z
#    x 1.887430 0.000000 0.007580 
#    y 0.000000 1.867810 0.000000 
#    z 0.007580 0.000000 1.824520 
# 
# From -- ./inp_files/61624.got.cif
#   From: 2010.05.17/outbox.cif.g08.bks.cpg/sg12_31_cif.got.tgz:61624.got - 2010.06.03 13:09:07.
