data_PCOD9215244
_publ_section_title
;
Structure prediction by ZEFSAII (Michael W. Deem and Ramdas Pophale) SiO2 
 PCOD9215244
Probable space group: C 2/M
;
_chemical_formula_sum "Si O2"
_cell_formula_units_Z 50
_cell_length_a 9.436713
_cell_length_b 22.442743
_cell_length_c 13.211906
_cell_angle_alpha 90.000000
_cell_angle_beta 63.655221
_cell_angle_gamma 90.000000
_cell_volume 2507.482798
_symmetry_space_group_name_H-M "C 2/M"
_symmetry_group_IT_number 12
_symmetry_cell_setting 'monoclinic'
loop_
_space_group_symop_operation_xyz
x,y,z
-x,y,-z
-x,-y,-z
x,-y,z
1/2+x,1/2+y,z
1/2-x,1/2+y,-z
1/2-x,1/2-y,-z
1/2+x,1/2-y,z
loop_
_atom_site_type_symbol
_atom_site_label
_atom_site_fract_x
_atom_site_fract_y
_atom_site_fract_z
Si Si1 0.654863 0.622272 0.499867
Si Si2 0.700243 0.371530 0.721710
Si Si3 0.150600 0.334866 0.005360
Si Si4 0.500000 0.500000 0.500000
Si Si5 0.315575 0.435830 0.082822
Si Si6 0.946652 0.775583 0.823723
Si Si7 0.022633 0.696188 0.608853
O O1 0.500000 0.652004 0.500000
O O2 0.644232 0.618986 0.625054
O O3 0.636050 0.554205 0.465842
O O4 0.811264 0.661525 0.428654
O O5 0.692422 0.428581 0.794351
O O6 0.588963 0.320239 0.805543
O O7 0.879362 0.349801 0.666754
O O8 0.229582 0.381030 0.056788
O O9 0.082198 0.277954 0.088221
O O10 0.283635 0.312696 0.883737
O O11 0.000000 0.363505 0.000000
O O12 0.252812 0.500000 0.069234
O O13 0.500000 0.432748 0.000000
O O14 0.993613 0.747010 0.701331
O O15 0.000000 0.716548 0.500000
#
# Coordination Sequence:
#
# PCOD9215244 Si02
#       7
#     8   8   8   2   8   8   8
#     4   9  22  41  65  90 131 167 217 261 326 384
#     4  11  22  41  66  95 128 174 214 264 333 385
#     4  11  24  41  67  99 127 173 220 271 337 387
#     4   8  20  48  62  88 130 170 218 276 312 388
#     4  11  24  45  66  92 130 172 225 270 324 394
#     4  11  23  39  68  95 138 169 210 273 330 410
#     4  10  22  41  63  98 130 169 214 262 323 404
#
# _framework density 19.940314999999998
#
# number of rings (size 3 to 8) (size 9 to 14) (size 15 to 20)
#    0.480    1.120    3.200    0.960    3.360    6.080 
#    1.440    1.200    0.000    0.000    0.000    0.000 
#    0.000    0.000    0.000    0.000    0.000    0.000 
#
# Total GULP energy -139207.652386 kJ/mol
# GULP energy per Si atom -5568.306095 kJ/mol
# Density = 1.989493 g / cm^3
# Si number density = 19.940315 Si / 1000 Ang^3
#
#
#
# Elastic Constant Matrix: (Units=GPa)
#
#
# Indices 1 2 3 4 5 6 
#
# 1 140.8136 46.9306 44.3166 0.0000 -16.8153 0.0000
# 2 46.9306 102.1636 41.1886 0.0000 -7.1703 0.0000
# 3 44.3166 41.1886 99.6867 0.0000 -10.3527 0.0000
# 4 0.0000 0.0000 0.0000 -73.4385 0.0000 53.6908
# 5 -16.8153 -7.1703 -10.3527 0.0000 23.2878 0.0000
# 6 0.0000 0.0000 0.0000 53.6908 0.0000 -41.8598
#
#
#
# Elastic Compliance Matrix: (Units=1/GPa)
#
#
# Indices 1 2 3 4 5 6 
#
# 1 0.009454 -0.003014 -0.002458 0.000000 0.004805 0.000000
# 2 -0.003014 0.012758 -0.003931 0.000000 0.000004 0.000000
# 3 -0.002458 -0.003931 0.013040 0.000000 0.002812 0.000000
# 4 0.000000 0.000000 0.000000 -0.218682 0.000000 -0.280488
# 5 0.004805 0.000004 0.002812 0.000000 0.047662 0.000000
# 6 0.000000 0.000000 0.000000 -0.280488 0.000000 -0.383653
#
#
# Mechanical properties :
#
#
# Convention : Reuss Voigt Hill
#
# Bulk Modulus (GPa) = 60.80799 67.50394 64.15596
# Shear Modulus (GPa) = -10.09832 -4.38689 -7.24261
#
# Velocity S-wave (km/s) = -2.25284 -1.48485 -1.90789
# Velocity P-wave (km/s) = 4.87793 5.56658 5.23359
#
# Compressibility (1/GPa) = 0.01644521
#
# Stress axis : x y z
#
# Youngs Moduli (GPa) = 105.77872 78.38216 76.68480
#
# Poissons Ratio (x) = 0.23628 0.18851
# Poissons Ratio (y) = 0.31886 0.30144
# Poissons Ratio (z) = 0.26002 0.30811
#
# Static dielectric constant tensor:
#      x y z
#    x 1.705260 0.000000 0.008790 
#    y 0.000000 1.710560 0.000000 
#    z 0.008790 0.000000 1.746450 
# 
# From -- ./inp_files/198296.got.cif
#   From: 2010.05.17/outbox.cif.g08.bks.cpg/sg12_100_cif.got.tgz:198296.got - 2010.06.03 13:09:07.
