data_PCOD9215263
_publ_section_title
;
Structure prediction by ZEFSAII (Michael W. Deem and Ramdas Pophale) SiO2 
 PCOD9215263
Probable space group: C 2/M
;
_chemical_formula_sum "Si O2"
_cell_formula_units_Z 42
_cell_length_a 28.584782
_cell_length_b 7.591768
_cell_length_c 9.342423
_cell_angle_alpha 90.000000
_cell_angle_beta 114.043090
_cell_angle_gamma 90.000000
_cell_volume 1851.492408
_symmetry_space_group_name_H-M "C 2/M"
_symmetry_group_IT_number 12
_symmetry_cell_setting 'monoclinic'
loop_
_space_group_symop_operation_xyz
x,y,z
-x,y,-z
-x,-y,-z
x,-y,z
1/2+x,1/2+y,z
1/2-x,1/2+y,-z
1/2-x,1/2-y,-z
1/2+x,1/2-y,z
loop_
_atom_site_type_symbol
_atom_site_label
_atom_site_fract_x
_atom_site_fract_y
_atom_site_fract_z
Si Si1 0.749628 0.288104 0.831460
Si Si2 0.851470 0.703456 0.806642
Si Si3 0.557777 0.208525 0.588748
Si Si4 0.000000 0.000000 0.000000
Si Si5 0.550332 0.791166 0.907898
Si Si6 0.845354 0.203509 0.473849
O O1 0.749209 0.500000 0.816953
O O2 0.801029 0.220058 0.818496
O O3 0.699218 0.223200 0.685040
O O4 0.750000 0.250000 0.000000
O O5 0.854377 0.500000 0.857390
O O6 0.904908 0.778298 0.930471
O O7 0.847408 0.709341 0.631445
O O8 0.500000 0.276830 0.500000
O O9 0.601059 0.286259 0.541984
O O10 0.556342 0.000000 0.552535
O O11 0.570793 0.227547 0.772232
O O12 0.004560 0.158233 0.882895
O O13 0.537935 0.000000 0.912737
O O14 0.833462 0.000000 0.489201
#
# Coordination Sequence:
#
# PCOD9215263 Si02
#       6
#     8   8   8   2   8   8
#     4  10  22  41  64  93 125 164 206 259 321 383
#     4  10  22  41  64  89 128 169 210 257 317 387
#     4  10  23  43  65  87 123 171 214 258 317 383
#     4  12  26  40  70  94 132 172 216 272 334 366
#     4  10  24  43  65  95 128 171 222 265 319 393
#     4  11  24  38  62  97 128 157 211 268 317 381
#
# _framework density 22.684401999999999
#
# number of rings (size 3 to 8) (size 9 to 14) (size 15 to 20)
#    0.000    1.714    0.000    2.571    5.333    4.190 
#    0.000    0.000    0.000    0.000    0.000    0.000 
#    0.000    0.000    0.000    0.000    0.000    0.000 
#
# Total GULP energy -117115.020588 kJ/mol
# GULP energy per Si atom -5576.905742 kJ/mol
# Density = 2.263277 g / cm^3
# Si number density = 22.684402 Si / 1000 Ang^3
#
#
#
# Elastic Constant Matrix: (Units=GPa)
#
#
# Indices 1 2 3 4 5 6 
#
# 1 132.2960 4.6890 58.1002 0.0000 -9.2387 0.0000
# 2 4.6890 85.8107 -2.2667 0.0000 -4.2683 0.0000
# 3 58.1002 -2.2667 135.0028 0.0000 0.8334 0.0000
# 4 0.0000 0.0000 0.0000 -7.0127 0.0000 26.8404
# 5 -9.2387 -4.2683 0.8334 0.0000 43.9787 0.0000
# 6 0.0000 0.0000 0.0000 26.8404 0.0000 -37.5100
#
#
#
# Elastic Compliance Matrix: (Units=1/GPa)
#
#
# Indices 1 2 3 4 5 6 
#
# 1 0.009530 -0.000529 -0.004123 0.000000 0.002029 0.000000
# 2 -0.000529 0.011744 0.000418 0.000000 0.001021 0.000000
# 3 -0.004123 0.000418 0.009195 0.000000 -0.001000 0.000000
# 4 0.000000 0.000000 0.000000 0.082014 0.000000 0.058686
# 5 0.002029 0.001021 -0.001000 0.000000 0.023282 0.000000
# 6 0.000000 0.000000 0.000000 0.058686 0.000000 0.015333
#
#
# Mechanical properties :
#
#
# Convention : Reuss Voigt Hill
#
# Bulk Modulus (GPa) = 45.44870 52.68382 49.06626
# Shear Modulus (GPa) = 29.95830 19.39701 24.67765
#
# Velocity S-wave (km/s) = 3.63803 2.92735 3.30186
# Velocity P-wave (km/s) = 6.14212 5.89075 6.01775
#
# Compressibility (1/GPa) = 0.02200283
#
# Stress axis : x y z
#
# Youngs Moduli (GPa) = 104.93450 85.14778 108.75850
#
# Poissons Ratio (x) = 0.04502 0.44837
# Poissons Ratio (y) = 0.05548 -0.04551
# Poissons Ratio (z) = 0.43261 -0.03563
#
# Static dielectric constant tensor:
#      x y z
#    x 1.904000 0.000000 0.057330 
#    y 0.000000 2.065120 0.000000 
#    z 0.057330 0.000000 1.831080 
# 
# From -- ./inp_files/107829.got.cif
#   From: 2010.05.17/outbox.cif.g08.bks.cpg/sg12_54_cif.got.tgz:107829.got - 2010.06.03 13:09:07.
