data_PCOD9215991
_publ_section_title
;
Structure prediction by ZEFSAII (Michael W. Deem and Ramdas Pophale) SiO2 
 PCOD9215991
Probable space group: C 2/M
;
_chemical_formula_sum "Si O2"
_cell_formula_units_Z 56
_cell_length_a 29.016664
_cell_length_b 11.855624
_cell_length_c 8.309303
_cell_angle_alpha 90.000000
_cell_angle_beta 61.502553
_cell_angle_gamma 90.000000
_cell_volume 2512.149641
_symmetry_space_group_name_H-M "C 2/M"
_symmetry_group_IT_number 12
_symmetry_cell_setting 'monoclinic'
loop_
_space_group_symop_operation_xyz
x,y,z
-x,y,-z
-x,-y,-z
x,-y,z
1/2+x,1/2+y,z
1/2-x,1/2+y,-z
1/2-x,1/2-y,-z
1/2+x,1/2-y,z
loop_
_atom_site_type_symbol
_atom_site_label
_atom_site_fract_x
_atom_site_fract_y
_atom_site_fract_z
Si Si1 0.548529 0.500000 0.680131
Si Si2 0.345825 0.131294 0.696283
Si Si3 0.634881 0.704490 0.863948
Si Si4 0.784790 0.373104 0.106084
Si Si5 0.944760 0.764110 0.499722
Si Si6 0.056462 0.626816 0.824293
Si Si7 0.201979 0.209631 0.469648
Si Si8 0.071127 0.000000 0.029291
O O1 0.566441 0.387554 0.556906
O O2 0.561996 0.500000 0.849129
O O3 0.484734 0.500000 0.790876
O O4 0.394605 0.208727 0.673607
O O5 0.328087 0.183770 0.556469
O O6 0.361078 0.000000 0.662925
O O7 0.295414 0.136719 0.898447
O O8 0.678364 0.776633 0.882617
O O9 0.592604 0.791992 0.868064
O O10 0.663047 0.650360 0.659332
O O11 0.604927 0.609674 0.012224
O O12 0.802593 0.500000 0.121730
O O13 0.727411 0.357094 0.278390
O O14 0.950489 0.679901 0.339281
O O15 0.000000 0.767509 0.500000
O O16 0.077609 0.500000 0.781881
O O17 0.000000 0.624159 0.000000
O O18 0.250000 0.250000 0.500000
#
# Coordination Sequence:
#
# PCOD9215991 Si02
#       8
#     4   8   8   8   8   8   8   4
#     4  11  23  44  62  94 130 188 220 284 324 392
#     4  11  24  45  70  99 137 178 219 276 339 400
#     4  11  22  41  65 101 127 176 221 280 329 399
#     4  10  24  43  68  97 136 174 216 277 341 403
#     4  12  26  43  67  97 140 179 225 269 333 405
#     4  11  23  39  65  97 133 174 219 272 327 392
#     4  10  22  42  69  96 129 168 222 274 333 396
#     4  11  22  38  72  92 134 172 234 276 333 380
#
# _framework density 22.291665999999999
#
# number of rings (size 3 to 8) (size 9 to 14) (size 15 to 20)
#    0.000    1.143    2.857    2.357    5.000    3.429 
#    5.143    0.000    0.000    0.000    0.000    0.000 
#    0.000    0.000    0.000    0.000    0.000    0.000 
#
# Total GULP energy -156470.753374 kJ/mol
# GULP energy per Si atom -5588.241192 kJ/mol
# Density = 2.224093 g / cm^3
# Si number density = 22.291666 Si / 1000 Ang^3
#
#
#
# Elastic Constant Matrix: (Units=GPa)
#
#
# Indices 1 2 3 4 5 6 
#
# 1 59.0096 15.4977 -18.5062 0.0000 -1.6779 0.0000
# 2 15.4977 131.3255 20.5346 0.0000 -4.6985 0.0000
# 3 -18.5062 20.5346 75.6313 0.0000 -22.5293 0.0000
# 4 0.0000 0.0000 0.0000 107.5377 0.0000 51.7026
# 5 -1.6779 -4.6985 -22.5293 0.0000 31.4802 0.0000
# 6 0.0000 0.0000 0.0000 51.7026 0.0000 68.0042
#
#
#
# Elastic Compliance Matrix: (Units=1/GPa)
#
#
# Indices 1 2 3 4 5 6 
#
# 1 0.020447 -0.003406 0.007754 0.000000 0.006131 0.000000
# 2 -0.003406 0.008525 -0.003588 0.000000 -0.001477 0.000000
# 3 0.007754 -0.003588 0.020408 0.000000 0.014483 0.000000
# 4 0.000000 0.000000 0.000000 0.014657 0.000000 -0.011143
# 5 0.006131 -0.001477 0.014483 0.000000 0.042237 0.000000
# 6 0.000000 0.000000 0.000000 -0.011143 0.000000 0.023177
#
#
# Mechanical properties :
#
#
# Convention : Reuss Voigt Hill
#
# Bulk Modulus (GPa) = 19.64625 33.44648 26.54637
# Shear Modulus (GPa) = 34.50732 57.96713 46.23722
#
# Velocity S-wave (km/s) = 3.93872 5.10494 4.55927
# Velocity P-wave (km/s) = 5.43296 7.05576 6.29686
#
# Compressibility (1/GPa) = 0.05090030
#
# Stress axis : x y z
#
# Youngs Moduli (GPa) = 48.90660 117.30470 49.00073
#
# Poissons Ratio (x) = 0.39955 -0.37997
# Poissons Ratio (y) = 0.16658 0.17581
# Poissons Ratio (z) = -0.37924 0.42089
#
# Static dielectric constant tensor:
#      x y z
#    x 1.794230 0.000000 -0.022470 
#    y 0.000000 1.798010 0.000000 
#    z -0.022470 0.000000 1.904470 
# 
# From -- ./inp_files/110391.got.cif
#   From: 2010.05.17/outbox.cif.g08.bks.cpg/sg12_56_cif.got.tgz:110391.got - 2010.06.03 13:09:07.
