data_PCOD9215452
_publ_section_title
;
Structure prediction by ZEFSAII (Michael W. Deem and Ramdas Pophale) SiO2 
 PCOD9215452
Probable space group: C 2/M
;
_chemical_formula_sum "Si O2"
_cell_formula_units_Z 48
_cell_length_a 19.451316
_cell_length_b 11.182982
_cell_length_c 26.972859
_cell_angle_alpha 90.000000
_cell_angle_beta 23.598307
_cell_angle_gamma 90.000000
_cell_volume 2348.783604
_symmetry_space_group_name_H-M "C 2/M"
_symmetry_group_IT_number 12
_symmetry_cell_setting 'monoclinic'
loop_
_space_group_symop_operation_xyz
x,y,z
-x,y,-z
-x,-y,-z
x,-y,z
1/2+x,1/2+y,z
1/2-x,1/2+y,-z
1/2-x,1/2-y,-z
1/2+x,1/2-y,z
loop_
_atom_site_type_symbol
_atom_site_label
_atom_site_fract_x
_atom_site_fract_y
_atom_site_fract_z
Si Si1 0.318982 0.744646 0.010138
Si Si2 0.689563 0.863619 0.885682
Si Si3 0.777427 0.143981 0.380239
Si Si4 0.949045 0.689127 0.663151
Si Si5 0.507294 0.128174 0.255491
Si Si6 0.826565 0.130685 0.235351
O O1 0.286180 0.850692 0.071074
O O2 0.207565 0.639757 0.108957
O O3 0.250000 0.750000 0.000000
O O4 0.521236 0.723242 0.873474
O O5 0.846111 0.803559 0.752721
O O6 0.682895 0.000000 0.874740
O O7 0.500000 0.808302 0.000000
O O8 0.619778 0.191281 0.517367
O O9 0.921486 0.247092 0.294014
O O10 0.740186 0.148620 0.346040
O O11 0.812450 0.000000 0.368281
O O12 0.808809 0.632426 0.719328
O O13 0.002669 0.626572 0.678654
O O14 0.438914 0.000000 0.281194
O O15 0.910728 0.000000 0.182091
#
# Coordination Sequence:
#
# PCOD9215452 Si02
#       6
#     8   8   8   8   8   8
#     4  11  22  41  62  95 127 166 214 267 325 389
#     4  10  22  41  66  92 127 171 213 262 326 392
#     4  11  24  43  67  95 131 177 221 264 324 391
#     4  11  23  41  65  95 128 164 217 268 321 381
#     4  11  24  40  64  97 131 169 216 270 326 385
#     4  11  22  40  65  93 125 167 216 271 327 380
#
# _framework density 20.436111
#
# number of rings (size 3 to 8) (size 9 to 14) (size 15 to 20)
#    0.000    1.167    3.333    3.000    0.000    6.000 
#    0.000    3.333    0.000    2.000    0.000    0.000 
#    0.000    0.000    0.000    0.000    0.000    0.000 
#
# Total GULP energy -133612.597039 kJ/mol
# GULP energy per Si atom -5567.191543 kJ/mol
# Density = 2.038960 g / cm^3
# Si number density = 20.436111 Si / 1000 Ang^3
#
#
#
# Elastic Constant Matrix: (Units=GPa)
#
#
# Indices 1 2 3 4 5 6 
#
# 1 81.5205 2.8531 -5.1714 -0.0007 17.9136 0.0007
# 2 2.8531 93.3674 23.4720 -0.0032 1.3765 -0.0006
# 3 -5.1714 23.4720 96.8699 -0.0206 20.5913 -0.0031
# 4 -0.0007 -0.0032 -0.0206 7.2271 0.0003 -5.1743
# 5 17.9136 1.3765 20.5913 0.0003 39.7210 0.0003
# 6 0.0007 -0.0006 -0.0031 -5.1743 0.0003 12.2391
#
#
#
# Elastic Compliance Matrix: (Units=1/GPa)
#
#
# Indices 1 2 3 4 5 6 
#
# 1 0.014165 -0.000981 0.002635 0.000013 -0.007720 0.000005
# 2 -0.000981 0.011521 -0.003207 -0.000006 0.001706 -0.000003
# 3 0.002635 -0.003207 0.012890 0.000055 -0.007760 0.000026
# 4 0.000013 -0.000006 0.000055 0.198428 -0.000036 0.083889
# 5 -0.007720 0.001706 -0.007760 -0.000036 0.032621 -0.000017
# 6 0.000005 -0.000003 0.000026 0.083889 -0.000017 0.117171
#
#
# Mechanical properties :
#
#
# Convention : Reuss Voigt Hill
#
# Bulk Modulus (GPa) = 28.19265 34.89614 31.54440
# Shear Modulus (GPa) = 12.44630 28.54438 20.49534
#
# Velocity S-wave (km/s) = 2.47054 3.74138 3.17029
# Velocity P-wave (km/s) = 4.68653 5.98136 5.37309
#
# Compressibility (1/GPa) = 0.03547023
#
# Stress axis : x y z
#
# Youngs Moduli (GPa) = 70.59745 86.79534 77.57832
#
# Poissons Ratio (x) = 0.08519 -0.20442
# Poissons Ratio (y) = 0.06929 0.24877
# Poissons Ratio (z) = -0.18603 0.27832
#
# Static dielectric constant tensor:
#      x y z
#    x 1.748450 0.000000 -0.008720 
#    y 0.000000 1.755990 0.000000 
#    z -0.008720 0.000000 1.765400 
# 
# From -- ./inp_files/366143.got.cif
#   From: 2010.05.17/outbox.cif.g08.bks.cpg/sg12_184_cif.got.tgz:366143.got - 2010.06.03 13:09:07.
