data_PCOD9215956
_publ_section_title
;
Structure prediction by ZEFSAII (Michael W. Deem and Ramdas Pophale) SiO2 
 PCOD9215956
Probable space group: C 2/M
;
_chemical_formula_sum "Si O2"
_cell_formula_units_Z 60
_cell_length_a 21.499794
_cell_length_b 15.959234
_cell_length_c 15.311691
_cell_angle_alpha 90.000000
_cell_angle_beta 144.278292
_cell_angle_gamma 90.000000
_cell_volume 3067.396555
_symmetry_space_group_name_H-M "C 2/M"
_symmetry_group_IT_number 12
_symmetry_cell_setting 'monoclinic'
loop_
_space_group_symop_operation_xyz
x,y,z
-x,y,-z
-x,-y,-z
x,-y,z
1/2+x,1/2+y,z
1/2-x,1/2+y,-z
1/2-x,1/2-y,-z
1/2+x,1/2-y,z
loop_
_atom_site_type_symbol
_atom_site_label
_atom_site_fract_x
_atom_site_fract_y
_atom_site_fract_z
Si Si1 0.921233 0.790795 0.168369
Si Si2 0.880851 0.764802 0.387590
Si Si3 0.188813 0.406133 0.377535
Si Si4 0.062393 0.753288 0.161325
Si Si5 0.729122 0.139325 0.621285
Si Si6 0.307668 0.162705 0.150503
Si Si7 0.189087 0.500000 0.727651
Si Si8 0.914937 0.095723 0.539930
O O1 0.890955 0.701081 0.176378
O O2 0.983308 0.778903 0.148879
O O3 0.993539 0.846093 0.315034
O O4 0.809646 0.837978 0.024244
O O5 0.842136 0.718065 0.430279
O O6 0.806625 0.734219 0.225001
O O7 0.882639 0.862414 0.411202
O O8 0.000000 0.736388 0.500000
O O9 0.149304 0.500000 0.311954
O O10 0.122249 0.331809 0.257871
O O11 0.192160 0.393454 0.485521
O O12 0.310262 0.400915 0.481464
O O13 0.151215 0.825595 0.250417
O O14 0.000000 0.742413 0.000000
O O15 0.715560 0.072441 0.682971
O O16 0.334615 0.075169 0.226959
O O17 0.948876 0.000000 0.571075
#
# Coordination Sequence:
#
# PCOD9215956 Si02
#       8
#     8   8   8   8   8   8   4   8
#     4  11  23  44  65  94 134 180 222 264 342 406
#     4  11  21  39  63  90 127 169 215 266 327 392
#     4  11  23  42  65  96 135 165 214 275 328 396
#     4  12  24  41  69  94 130 179 221 266 339 400
#     4  11  21  41  65  99 128 166 215 277 337 390
#     4  10  24  43  65  92 138 177 217 278 328 400
#     4  10  22  42  68  98 134 165 219 280 338 383
#     4  11  23  40  67  97 125 169 219 278 328 389
#
# _framework density 19.560562999999998
#
# number of rings (size 3 to 8) (size 9 to 14) (size 15 to 20)
#    0.000    1.067    4.667    2.800    0.933    0.533 
#    1.200    6.333    1.467    0.000    0.000    0.000 
#    0.000    0.000    0.000    0.000    0.000    0.000 
#
# Total GULP energy -167054.117263 kJ/mol
# GULP energy per Si atom -5568.470575 kJ/mol
# Density = 1.951604 g / cm^3
# Si number density = 19.560563 Si / 1000 Ang^3
#
#
#
# Elastic Constant Matrix: (Units=GPa)
#
#
# Indices 1 2 3 4 5 6 
#
# 1 83.6000 45.4718 15.6635 0.0000 -5.0225 0.0000
# 2 45.4718 118.1255 31.7923 0.0000 -5.9622 0.0000
# 3 15.6635 31.7923 64.0229 0.0000 -8.5106 0.0000
# 4 0.0000 0.0000 0.0000 14.2464 0.0000 -13.1504
# 5 -5.0225 -5.9622 -8.5106 0.0000 27.3449 0.0000
# 6 0.0000 0.0000 0.0000 -13.1504 0.0000 35.6016
#
#
#
# Elastic Compliance Matrix: (Units=1/GPa)
#
#
# Indices 1 2 3 4 5 6 
#
# 1 0.015225 -0.005585 -0.000774 0.000000 0.001338 0.000000
# 2 -0.005585 0.011831 -0.004488 0.000000 0.000157 0.000000
# 3 -0.000774 -0.004488 0.018660 0.000000 0.004687 0.000000
# 4 0.000000 0.000000 0.000000 0.106508 0.000000 0.039341
# 5 0.001338 0.000157 0.004687 0.000000 0.038309 0.000000
# 6 0.000000 0.000000 0.000000 0.039341 0.000000 0.042620
#
#
# Mechanical properties :
#
#
# Convention : Reuss Voigt Hill
#
# Bulk Modulus (GPa) = 41.62592 50.17817 45.90205
# Shear Modulus (GPa) = 19.02197 26.95997 22.99097
#
# Velocity S-wave (km/s) = 3.12182 3.71655 3.43209
# Velocity P-wave (km/s) = 5.85842 6.64270 6.26285
#
# Compressibility (1/GPa) = 0.02402349
#
# Stress axis : x y z
#
# Youngs Moduli (GPa) = 65.68219 84.52173 53.58976
#
# Poissons Ratio (x) = 0.47205 0.04146
# Poissons Ratio (y) = 0.36683 0.24050
# Poissons Ratio (z) = 0.05081 0.37932
#
# Static dielectric constant tensor:
#      x y z
#    x 1.703870 0.000000 0.002600 
#    y 0.000000 1.685610 0.000000 
#    z 0.002600 0.000000 1.693740 
# 
# From -- ./inp_files/233921.got.cif
#   From: 2010.05.17/outbox.cif.g08.bks.cpg/sg12_117_cif.got.tgz:233921.got - 2010.06.03 13:09:07.
