data_PCOD9215645
_publ_section_title
;
Structure prediction by ZEFSAII (Michael W. Deem and Ramdas Pophale) SiO2 
 PCOD9215645
Probable space group: C 2/M
;
_chemical_formula_sum "Si O2"
_cell_formula_units_Z 24
_cell_length_a 5.473970
_cell_length_b 18.760454
_cell_length_c 10.277733
_cell_angle_alpha 90.000000
_cell_angle_beta 117.831831
_cell_angle_gamma 90.000000
_cell_volume 933.369032
_symmetry_space_group_name_H-M "C 2/M"
_symmetry_group_IT_number 12
_symmetry_cell_setting 'monoclinic'
loop_
_space_group_symop_operation_xyz
x,y,z
-x,y,-z
-x,-y,-z
x,-y,z
1/2+x,1/2+y,z
1/2-x,1/2+y,-z
1/2-x,1/2-y,-z
1/2+x,1/2-y,z
loop_
_atom_site_type_symbol
_atom_site_label
_atom_site_fract_x
_atom_site_fract_y
_atom_site_fract_z
Si Si1 0.980048 0.229746 0.794177
Si Si2 0.322151 0.137657 0.590736
Si Si3 0.358443 0.421466 0.822639
O O1 0.783261 0.240615 0.867046
O O2 0.835320 0.281589 0.651337
O O3 0.986076 0.145321 0.777063
O O4 0.500000 0.133740 0.500000
O O5 0.527116 0.092929 0.737305
O O6 0.000000 0.116334 0.500000
O O7 0.408309 0.500000 0.779044
O O8 0.500000 0.419710 0.000000
#
# Coordination Sequence:
#
# PCOD9215645 Si02
#       3
#     8   8   8
#     4  10  22  41  70  98 132 175 226 278 335 398
#     4  11  24  44  73 105 137 177 230 287 341 404
#     4  10  24  46  70 101 142 184 228 282 344 409
#
# _framework density 25.713303
#
# number of rings (size 3 to 8) (size 9 to 14) (size 15 to 20)
#    0.000    1.667    0.000    4.000    0.000   22.667 
#    0.000   21.667    0.000   45.000    0.000    0.000 
#    0.000    0.000    0.000    0.000    0.000    0.000 
#
# Total GULP energy -66972.639172 kJ/mol
# GULP energy per Si atom -5581.053264 kJ/mol
# Density = 2.565478 g / cm^3
# Si number density = 25.713303 Si / 1000 Ang^3
#
#
#
# Elastic Constant Matrix: (Units=GPa)
#
#
# Indices 1 2 3 4 5 6 
#
# 1 182.3500 36.4977 66.5208 0.0000 30.8614 0.0000
# 2 36.4977 193.5203 24.1042 0.0000 16.2238 0.0000
# 3 66.5208 24.1042 148.2168 0.0000 48.7422 0.0000
# 4 0.0000 0.0000 0.0000 21.5396 0.0000 -10.6644
# 5 30.8614 16.2238 48.7422 0.0000 54.6633 0.0000
# 6 0.0000 0.0000 0.0000 -10.6644 0.0000 35.5119
#
#
#
# Elastic Compliance Matrix: (Units=1/GPa)
#
#
# Indices 1 2 3 4 5 6 
#
# 1 0.006784 -0.000858 -0.002447 0.000000 -0.001394 0.000000
# 2 -0.000858 0.005433 -0.000180 0.000000 -0.000967 0.000000
# 3 -0.002447 -0.000180 0.010474 0.000000 -0.007904 0.000000
# 4 0.000000 0.000000 0.000000 0.054534 0.000000 0.016377
# 5 -0.001394 -0.000967 -0.007904 0.000000 0.026416 0.000000
# 6 0.000000 0.000000 0.000000 0.016377 0.000000 0.033078
#
#
# Mechanical properties :
#
#
# Convention : Reuss Voigt Hill
#
# Bulk Modulus (GPa) = 63.61234 86.48140 75.04687
# Shear Modulus (GPa) = 33.57302 48.80725 41.19013
#
# Velocity S-wave (km/s) = 3.61732 4.36148 4.00672
# Velocity P-wave (km/s) = 6.49919 7.68566 7.11719
#
# Compressibility (1/GPa) = 0.01572022
#
# Stress axis : x y z
#
# Youngs Moduli (GPa) = 147.40182 184.06819 95.47626
#
# Poissons Ratio (x) = 0.15791 0.23363
# Poissons Ratio (y) = 0.12645 0.01723
# Poissons Ratio (z) = 0.36069 0.03321
#
# Static dielectric constant tensor:
#      x y z
#    x 2.039360 0.000000 -0.034940 
#    y 0.000000 1.984190 0.000000 
#    z -0.034940 0.000000 2.129170 
# 
# From -- ./inp_files/114450.got.cif
#   From: 2010.05.17/outbox.cif.g08.bks.cpg/sg12_58_cif.got.tgz:114450.got - 2010.06.03 13:09:07.
