data_PCOD9215603
_publ_section_title
;
Structure prediction by ZEFSAII (Michael W. Deem and Ramdas Pophale) SiO2 
 PCOD9215603
Probable space group: C 2/M
;
_chemical_formula_sum "Si O2"
_cell_formula_units_Z 40
_cell_length_a 22.577535
_cell_length_b 20.130326
_cell_length_c 11.571460
_cell_angle_alpha 90.000000
_cell_angle_beta 23.029279
_cell_angle_gamma 90.000000
_cell_volume 2057.386889
_symmetry_space_group_name_H-M "C 2/M"
_symmetry_group_IT_number 12
_symmetry_cell_setting 'monoclinic'
loop_
_space_group_symop_operation_xyz
x,y,z
-x,y,-z
-x,-y,-z
x,-y,z
1/2+x,1/2+y,z
1/2-x,1/2+y,-z
1/2-x,1/2-y,-z
1/2+x,1/2-y,z
loop_
_atom_site_type_symbol
_atom_site_label
_atom_site_fract_x
_atom_site_fract_y
_atom_site_fract_z
Si Si1 0.639454 0.241076 0.808613
Si Si2 0.489136 0.000000 0.882654
Si Si3 0.768888 0.379330 0.203351
Si Si4 0.348963 0.500000 0.186753
Si Si5 0.829356 0.820969 0.851404
Si Si6 0.563914 0.630779 0.097696
O O1 0.750000 0.250000 0.500000
O O2 0.694582 0.193378 0.810604
O O3 0.500000 0.204096 0.000000
O O4 0.579429 0.308434 0.978009
O O5 0.669049 0.000000 0.535877
O O6 0.500000 0.000000 0.000000
O O7 0.392115 0.935535 0.013239
O O8 0.748418 0.369324 0.102733
O O9 0.605420 0.390080 0.557713
O O10 0.500000 0.500000 0.000000
O O11 0.368099 0.566990 0.082423
O O12 0.844435 0.849632 0.952358
O O13 0.000000 0.810752 0.500000
O O14 0.750000 0.750000 0.000000
#
# Coordination Sequence:
#
# PCOD9215603 Si02
#       6
#     8   4   8   4   8   8
#     4  12  24  37  65  98 132 174 225 275 336 395
#     4  12  28  45  68  99 133 178 223 274 336 402
#     4  11  24  44  67  97 136 177 224 277 331 397
#     4  12  28  45  70  97 137 174 219 274 340 407
#     4  10  22  41  68  98 132 177 225 276 329 389
#     4  11  24  44  66  96 136 179 223 277 334 393
#
# _framework density 19.442136999999999
#
# number of rings (size 3 to 8) (size 9 to 14) (size 15 to 20)
#    0.000    0.800    4.000    3.000    5.600    2.400 
#    0.000    4.000    0.000    0.000    0.000    0.000 
#    0.000    0.000    0.000    0.000    0.000    0.000 
#
# Total GULP energy -111475.101068 kJ/mol
# GULP energy per Si atom -5573.755053 kJ/mol
# Density = 1.939789 g / cm^3
# Si number density = 19.442137 Si / 1000 Ang^3
#
#
#
# Elastic Constant Matrix: (Units=GPa)
#
#
# Indices 1 2 3 4 5 6 
#
# 1 155.9346 59.3188 69.9741 -0.0001 0.1690 -0.0001
# 2 59.3188 121.8685 63.1181 -0.0003 -1.3712 -0.0001
# 3 69.9741 63.1181 120.7755 -0.0010 -9.7069 0.0001
# 4 -0.0001 -0.0003 -0.0010 34.0183 0.0005 -12.3409
# 5 0.1690 -1.3712 -9.7069 0.0005 29.6175 -0.0001
# 6 -0.0001 -0.0001 0.0001 -12.3409 -0.0001 19.3599
#
#
#
# Elastic Compliance Matrix: (Units=1/GPa)
#
#
# Indices 1 2 3 4 5 6 
#
# 1 0.009195 -0.002289 -0.004256 0.000000 -0.001553 0.000000
# 2 -0.002289 0.011881 -0.004969 0.000000 -0.001065 0.000000
# 3 -0.004256 -0.004969 0.013686 0.000000 0.004280 0.000000
# 4 0.000000 0.000000 0.000000 0.038239 0.000000 0.024375
# 5 -0.001553 -0.001065 0.004280 0.000000 0.035126 0.000000
# 6 0.000000 0.000000 0.000000 0.024375 0.000000 0.067191
#
#
# Mechanical properties :
#
#
# Convention : Reuss Voigt Hill
#
# Bulk Modulus (GPa) = 85.21273 87.04452 86.12863
# Shear Modulus (GPa) = 24.72097 30.34364 27.53230
#
# Velocity S-wave (km/s) = 3.56970 3.95487 3.76721
# Velocity P-wave (km/s) = 7.80477 8.10697 7.95730
#
# Compressibility (1/GPa) = 0.01173534
#
# Stress axis : x y z
#
# Youngs Moduli (GPa) = 108.75203 84.16782 73.06565
#
# Poissons Ratio (x) = 0.19265 0.31098
# Poissons Ratio (y) = 0.24892 0.36304
# Poissons Ratio (z) = 0.46286 0.41820
#
# Static dielectric constant tensor:
#      x y z
#    x 1.712130 -0.000010 0.029510 
#    y -0.000010 0.590470 -0.000050 
#    z 0.029510 -0.000050 1.958960 
# 
# From -- ./inp_files/177858.got.cif
#   From: 2010.05.17/outbox.cif.g08.bks.cpg/sg12_89_cif.got.tgz:177858.got - 2010.06.03 13:09:07.
