data_PCOD9215221
_publ_section_title
;
Structure prediction by ZEFSAII (Michael W. Deem and Ramdas Pophale) SiO2 
 PCOD9215221
Probable space group: C 2/M
;
_chemical_formula_sum "Si O2"
_cell_formula_units_Z 60
_cell_length_a 10.544535
_cell_length_b 7.809810
_cell_length_c 33.605881
_cell_angle_alpha 90.000000
_cell_angle_beta 106.175478
_cell_angle_gamma 90.000000
_cell_volume 2657.915792
_symmetry_space_group_name_H-M "C 2/M"
_symmetry_group_IT_number 12
_symmetry_cell_setting 'monoclinic'
loop_
_space_group_symop_operation_xyz
x,y,z
-x,y,-z
-x,-y,-z
x,-y,z
1/2+x,1/2+y,z
1/2-x,1/2+y,-z
1/2-x,1/2-y,-z
1/2+x,1/2-y,z
loop_
_atom_site_type_symbol
_atom_site_label
_atom_site_fract_x
_atom_site_fract_y
_atom_site_fract_z
Si Si1 0.044502 0.297782 0.879845
Si Si2 0.730756 0.684224 0.542377
Si Si3 0.535602 0.000000 0.393922
Si Si4 0.898923 0.795440 0.024717
Si Si5 0.643931 0.299543 0.309951
Si Si6 0.862520 0.800705 0.384310
Si Si7 0.255696 0.202750 0.833768
Si Si8 0.849872 0.791052 0.260029
O O1 0.044528 0.500000 0.872590
O O2 0.066617 0.269438 0.928438
O O3 0.162757 0.225900 0.863692
O O4 0.902000 0.225331 0.854226
O O5 0.662295 0.500000 0.531987
O O6 0.750000 0.750000 0.500000
O O7 0.651651 0.771508 0.571501
O O8 0.872271 0.645124 0.574302
O O9 0.442427 0.844616 0.368810
O O10 0.910684 0.000000 0.026893
O O11 0.750000 0.750000 0.000000
O O12 0.000000 0.729223 0.000000
O O13 0.636567 0.500000 0.320734
O O14 0.716959 0.196836 0.351601
O O15 0.738945 0.275820 0.280321
O O16 0.497804 0.240262 0.285370
O O17 0.908021 0.000000 0.387677
O O18 0.185921 0.267979 0.787645
O O19 0.271441 0.000000 0.829055
O O20 0.847343 0.000000 0.261598
#
# Coordination Sequence:
#
# PCOD9215221 Si02
#       8
#     8   8   4   8   8   8   8   8
#     4  11  23  38  62  92 124 167 212 265 321 384
#     4   9  23  41  64  95 127 166 214 262 319 384
#     4  10  24  45  68  93 136 167 216 270 322 385
#     4  11  24  41  62  90 124 163 211 262 319 383
#     4  11  24  40  65  95 131 169 219 267 329 387
#     4  11  24  43  65  96 128 173 216 266 326 392
#     4  10  22  41  63  90 128 165 216 263 322 383
#     4  10  23  42  64  95 128 172 213 270 327 388
#
# _framework density 22.574078
#
# number of rings (size 3 to 8) (size 9 to 14) (size 15 to 20)
#    0.400    1.200    0.667    2.800    2.800    7.467 
#    0.000    1.333    0.000    0.000    0.000    0.000 
#    0.000    0.000    0.000    0.000    0.000    0.000 
#
# Total GULP energy -167082.411617 kJ/mol
# GULP energy per Si atom -5569.413721 kJ/mol
# Density = 2.252270 g / cm^3
# Si number density = 22.574078 Si / 1000 Ang^3
#
#
#
# Elastic Constant Matrix: (Units=GPa)
#
#
# Indices 1 2 3 4 5 6 
#
# 1 106.8903 -7.4003 13.1600 0.0000 9.3462 0.0000
# 2 -7.4003 60.9490 -11.4392 0.0000 10.7495 0.0000
# 3 13.1600 -11.4392 93.5610 0.0000 -5.5819 0.0000
# 4 0.0000 0.0000 0.0000 29.1009 0.0000 4.6742
# 5 9.3462 10.7495 -5.5819 0.0000 39.7123 0.0000
# 6 0.0000 0.0000 0.0000 4.6742 0.0000 11.1275
#
#
#
# Elastic Compliance Matrix: (Units=1/GPa)
#
#
# Indices 1 2 3 4 5 6 
#
# 1 0.009881 0.001454 -0.001386 0.000000 -0.002914 0.000000
# 2 0.001454 0.017765 0.001674 0.000000 -0.004915 0.000000
# 3 -0.001386 0.001674 0.011174 0.000000 0.001444 0.000000
# 4 0.000000 0.000000 0.000000 0.036849 0.000000 -0.015479
# 5 -0.002914 -0.004915 0.001444 0.000000 0.027400 0.000000
# 6 0.000000 0.000000 0.000000 -0.015479 0.000000 0.096370
#
#
# Mechanical properties :
#
#
# Convention : Reuss Voigt Hill
#
# Bulk Modulus (GPa) = 23.63845 27.78235 25.71040
# Shear Modulus (GPa) = 23.80304 33.79346 28.79825
#
# Velocity S-wave (km/s) = 3.25074 3.87331 3.57560
# Velocity P-wave (km/s) = 4.95822 5.68659 5.33485
#
# Compressibility (1/GPa) = 0.04230397
#
# Stress axis : x y z
#
# Youngs Moduli (GPa) = 101.19983 56.29104 89.49347
#
# Poissons Ratio (x) = -0.08182 0.12404
# Poissons Ratio (y) = -0.14710 -0.14984
# Poissons Ratio (z) = 0.14026 -0.09425
#
# Static dielectric constant tensor:
#      x y z
#    x 1.931840 0.000000 -0.021520 
#    y 0.000000 1.886670 0.000000 
#    z -0.021520 0.000000 1.842140 
# 
# From -- ./inp_files/373624.got.cif
#   From: 2010.05.17/outbox.cif.g08.bks.cpg/sg12_187_cif.got.tgz:373624.got - 2010.06.03 13:09:07.
