data_PCOD9215684
_publ_section_title
;
Structure prediction by ZEFSAII (Michael W. Deem and Ramdas Pophale) SiO2 
 PCOD9215684
Probable space group: C 2/M
;
_chemical_formula_sum "Si O2"
_cell_formula_units_Z 32
_cell_length_a 10.160807
_cell_length_b 10.183484
_cell_length_c 32.638646
_cell_angle_alpha 90.000000
_cell_angle_beta 147.937107
_cell_angle_gamma 90.000000
_cell_volume 1792.785831
_symmetry_space_group_name_H-M "C 2/M"
_symmetry_group_IT_number 12
_symmetry_cell_setting 'monoclinic'
loop_
_space_group_symop_operation_xyz
x,y,z
-x,y,-z
-x,-y,-z
x,-y,z
1/2+x,1/2+y,z
1/2-x,1/2+y,-z
1/2-x,1/2-y,-z
1/2+x,1/2-y,z
loop_
_atom_site_type_symbol
_atom_site_label
_atom_site_fract_x
_atom_site_fract_y
_atom_site_fract_z
Si Si1 0.777122 0.739037 0.686061
Si Si2 0.791518 0.844143 0.780164
Si Si3 0.601874 0.500000 0.415249
Si Si4 0.252595 0.154800 0.961721
Si Si5 0.889188 0.500000 0.404569
O O1 0.821485 0.767000 0.745664
O O2 0.571612 0.626815 0.626584
O O3 0.679800 0.871486 0.639291
O O4 0.031982 0.694885 0.732207
O O5 0.015734 0.817572 0.870538
O O6 0.792490 0.000000 0.771714
O O7 0.730358 0.500000 0.404539
O O8 0.823275 0.500000 0.506517
O O9 0.244566 0.000000 0.971644
O O10 0.500000 0.174144 0.000000
O O11 0.250000 0.250000 0.000000
#
# Coordination Sequence:
#
# PCOD9215684 Si02
#       5
#     8   8   4   8   4
#     4  12  22  42  62  92 121 163 203 248 305 354
#     4  11  23  39  64  90 126 157 200 251 301 360
#     4  11  24  41  61  93 125 157 204 255 301 359
#     4  10  22  42  62  91 123 159 200 247 300 361
#     4  11  24  41  63  89 125 162 200 254 305 357
#
# _framework density 17.849316000000002
#
# number of rings (size 3 to 8) (size 9 to 14) (size 15 to 20)
#    0.000    1.000    5.000    2.250    0.000    0.500 
#    4.500    1.250    0.000    0.000    0.000    0.000 
#    0.000    0.000    0.000    0.000    0.000    0.000 
#
# Total GULP energy -89447.291975 kJ/mol
# GULP energy per Si atom -5590.455748 kJ/mol
# Density = 1.780869 g / cm^3
# Si number density = 17.849316 Si / 1000 Ang^3
#
#
#
# Elastic Constant Matrix: (Units=GPa)
#
#
# Indices 1 2 3 4 5 6 
#
# 1 54.3192 6.0821 19.5803 0.0000 -4.0453 0.0000
# 2 6.0821 84.0605 48.1125 0.0000 3.2728 0.0000
# 3 19.5803 48.1125 113.4486 0.0000 -1.5215 0.0000
# 4 0.0000 0.0000 0.0000 29.2734 0.0000 -25.2305
# 5 -4.0453 3.2728 -1.5215 0.0000 18.9903 0.0000
# 6 0.0000 0.0000 0.0000 -25.2305 0.0000 15.5969
#
#
#
# Elastic Compliance Matrix: (Units=1/GPa)
#
#
# Indices 1 2 3 4 5 6 
#
# 1 0.019939 0.000457 -0.003583 0.000000 0.003882 0.000000
# 2 0.000457 0.015922 -0.006874 0.000000 -0.003197 0.000000
# 3 -0.003583 -0.006874 0.012367 0.000000 0.001412 0.000000
# 4 0.000000 0.000000 0.000000 -0.086647 0.000000 -0.140166
# 5 0.003882 -0.003197 0.001412 0.000000 0.054149 0.000000
# 6 0.000000 0.000000 0.000000 -0.140166 0.000000 -0.162626
#
#
# Mechanical properties :
#
#
# Convention : Reuss Voigt Hill
#
# Bulk Modulus (GPa) = 35.42588 44.37533 39.90060
# Shear Modulus (GPa) = -42.55851 24.64234 -8.95808
#
# Velocity S-wave (km/s) = -4.88825 3.71964 -2.24268
# Velocity P-wave (km/s) = 3.45972 6.58504 3.96188
#
# Compressibility (1/GPa) = 0.02822795
#
# Stress axis : x y z
#
# Youngs Moduli (GPa) = 50.15248 62.80583 80.85914
#
# Poissons Ratio (x) = -0.02870 0.28973
# Poissons Ratio (y) = -0.02292 0.55584
# Poissons Ratio (z) = 0.17970 0.43174
#
# Static dielectric constant tensor:
#      x y z
#    x 1.575760 0.000000 -0.001420 
#    y 0.000000 1.583290 0.000000 
#    z -0.001420 0.000000 1.580140 
# 
# From -- ./inp_files/193123.got.cif
#   From: 2010.05.17/outbox.cif.g08.bks.cpg/sg12_97_cif.got.tgz:193123.got - 2010.06.03 13:09:07.
