data_PCOD9215280
_publ_section_title
;
Structure prediction by ZEFSAII (Michael W. Deem and Ramdas Pophale) SiO2 
 PCOD9215280
Probable space group: C 2/M
;
_chemical_formula_sum "Si O2"
_cell_formula_units_Z 64
_cell_length_a 30.137418
_cell_length_b 18.417073
_cell_length_c 9.759198
_cell_angle_alpha 90.000000
_cell_angle_beta 140.425073
_cell_angle_gamma 90.000000
_cell_volume 3450.955439
_symmetry_space_group_name_H-M "C 2/M"
_symmetry_group_IT_number 12
_symmetry_cell_setting 'monoclinic'
loop_
_space_group_symop_operation_xyz
x,y,z
-x,y,-z
-x,-y,-z
x,-y,z
1/2+x,1/2+y,z
1/2-x,1/2+y,-z
1/2-x,1/2-y,-z
1/2+x,1/2-y,z
loop_
_atom_site_type_symbol
_atom_site_label
_atom_site_fract_x
_atom_site_fract_y
_atom_site_fract_z
Si Si1 0.610908 0.155943 0.474682
Si Si2 0.506078 0.724029 0.852790
Si Si3 0.317196 0.580178 0.918499
Si Si4 0.683839 0.082287 0.411418
Si Si5 0.982154 0.916420 0.296029
Si Si6 0.639896 0.810443 0.070111
Si Si7 0.256398 0.281101 0.865806
Si Si8 0.416326 0.916606 0.298933
O O1 0.545476 0.208443 0.300083
O O2 0.626006 0.097502 0.391683
O O3 0.679221 0.205784 0.627890
O O4 0.608534 0.117025 0.616036
O O5 0.489625 0.651301 0.725622
O O6 0.581880 0.754952 0.990049
O O7 0.500000 0.707973 0.000000
O O8 0.305548 0.500000 0.948668
O O9 0.261169 0.588707 0.662087
O O10 0.296001 0.642385 0.971701
O O11 0.398284 0.585950 0.075644
O O12 0.676189 0.000000 0.342034
O O13 0.671095 0.141630 0.265964
O O14 0.000000 0.905804 0.500000
O O15 0.004476 0.000000 0.314333
O O16 0.606978 0.865250 0.880469
O O17 0.699133 0.766464 0.132043
O O18 0.250000 0.250000 0.000000
O O19 0.500000 0.917100 0.500000
O O20 0.392137 0.000000 0.226102
#
# Coordination Sequence:
#
# PCOD9215280 Si02
#       8
#     8   8   8   8   8   8   8   8
#     4  11  23  40  62  91 129 168 215 256 321 386
#     4  12  25  41  64  95 131 169 208 264 321 380
#     4   9  20  40  64  89 123 167 207 252 318 383
#     4  10  22  41  64  90 130 171 209 257 314 382
#     4  10  23  42  70  96 122 164 213 262 322 380
#     4  12  23  41  63  94 128 168 217 268 314 377
#     4  11  23  38  61  92 123 162 206 260 319 373
#     4  11  23  38  60  91 129 173 216 268 324 374
#
# _framework density 18.545589
#
# number of rings (size 3 to 8) (size 9 to 14) (size 15 to 20)
#    0.000    1.250    5.000    0.750    3.500    3.750 
#    0.000    0.625    0.000    1.500    0.000    0.000 
#    0.000    0.000    0.000    0.000    0.000    0.000 
#
# Total GULP energy -178573.708379 kJ/mol
# GULP energy per Si atom -5580.428387 kJ/mol
# Density = 1.850338 g / cm^3
# Si number density = 18.545589 Si / 1000 Ang^3
#
#
#
# Elastic Constant Matrix: (Units=GPa)
#
#
# Indices 1 2 3 4 5 6 
#
# 1 105.3092 48.0261 32.5870 0.0000 -10.6462 0.0000
# 2 48.0261 120.6228 41.1148 0.0000 -16.7154 0.0000
# 3 32.5870 41.1148 36.1275 0.0000 -6.0007 0.0000
# 4 0.0000 0.0000 0.0000 40.1432 0.0000 -51.1316
# 5 -10.6462 -16.7154 -6.0007 0.0000 34.6895 0.0000
# 6 0.0000 0.0000 0.0000 -51.1316 0.0000 253.5597
#
#
#
# Elastic Compliance Matrix: (Units=1/GPa)
#
#
# Indices 1 2 3 4 5 6 
#
# 1 0.013540 -0.001795 -0.009908 0.000000 0.001576 0.000000
# 2 -0.001795 0.014336 -0.014043 0.000000 0.003928 0.000000
# 3 -0.009908 -0.014043 0.052478 0.000000 -0.000730 0.000000
# 4 0.000000 0.000000 0.000000 0.033521 0.000000 0.006760
# 5 0.001576 0.003928 -0.000730 0.000000 0.031077 0.000000
# 6 0.000000 0.000000 0.000000 0.006760 0.000000 0.005307
#
#
# Mechanical properties :
#
#
# Convention : Reuss Voigt Hill
#
# Bulk Modulus (GPa) = 34.64991 56.16837 45.40914
# Shear Modulus (GPa) = 23.65495 75.03393 49.34444
#
# Velocity S-wave (km/s) = 3.57529 6.36765 5.16380
# Velocity P-wave (km/s) = 5.98062 9.18777 7.75187
#
# Compressibility (1/GPa) = 0.02886010
#
# Stress axis : x y z
#
# Youngs Moduli (GPa) = 73.85577 69.75373 19.05575
#
# Poissons Ratio (x) = 0.12523 0.18880
# Poissons Ratio (y) = 0.13259 0.26761
# Poissons Ratio (z) = 0.73177 0.97958
#
# Static dielectric constant tensor:
#      x y z
#    x 1.789840 0.000000 -0.240200 
#    y 0.000000 1.628810 0.000000 
#    z -0.240200 0.000000 2.039620 
# 
# From -- ./inp_files/112910.got.cif
#   From: 2010.05.17/outbox.cif.g08.bks.cpg/sg12_57_cif.got.tgz:112910.got - 2010.06.03 13:09:07.
