data_PCOD9215824
_publ_section_title
;
Structure prediction by ZEFSAII (Michael W. Deem and Ramdas Pophale) SiO2 
 PCOD9215824
Probable space group: C 2/M
;
_chemical_formula_sum "Si O2"
_cell_formula_units_Z 64
_cell_length_a 18.888541
_cell_length_b 18.435420
_cell_length_c 13.640175
_cell_angle_alpha 90.000000
_cell_angle_beta 147.742944
_cell_angle_gamma 90.000000
_cell_volume 2535.033960
_symmetry_space_group_name_H-M "C 2/M"
_symmetry_group_IT_number 12
_symmetry_cell_setting 'monoclinic'
loop_
_space_group_symop_operation_xyz
x,y,z
-x,y,-z
-x,-y,-z
x,-y,z
1/2+x,1/2+y,z
1/2-x,1/2+y,-z
1/2-x,1/2-y,-z
1/2+x,1/2-y,z
loop_
_atom_site_type_symbol
_atom_site_label
_atom_site_fract_x
_atom_site_fract_y
_atom_site_fract_z
Si Si1 0.514398 0.075275 0.133530
Si Si2 0.786720 0.875384 0.439525
Si Si3 0.169997 0.706493 0.041240
Si Si4 0.685225 0.918468 0.811925
Si Si5 0.105256 0.585341 0.489884
Si Si6 0.537985 0.336841 0.846878
Si Si7 0.695714 0.716790 0.285803
Si Si8 0.349639 0.583797 0.295893
O O1 0.665720 0.081346 0.345107
O O2 0.454573 0.000000 0.101246
O O3 0.500000 0.071567 0.000000
O O4 0.445752 0.149868 0.075318
O O5 0.933088 0.878443 0.655380
O O6 0.746413 0.790902 0.394669
O O7 0.782777 0.905409 0.324030
O O8 0.195794 0.755425 0.170837
O O9 0.289876 0.649883 0.162569
O O10 0.108764 0.762832 0.892944
O O11 0.549678 0.891718 0.706775
O O12 0.638762 0.917879 0.645026
O O13 0.701476 0.000000 0.866262
O O14 0.831831 0.884939 0.983454
O O15 0.122097 0.500000 0.480131
O O16 0.203420 0.650867 0.575926
O O17 0.442673 0.310913 0.827072
O O18 0.500000 0.598391 0.500000
O O19 0.338913 0.500000 0.250110
#
# Coordination Sequence:
#
# PCOD9215824 Si02
#       8
#     8   8   8   8   8   8   8   8
#     4  11  19  34  61  87 115 158 207 248 298 367
#     4  11  24  38  59  91 129 160 192 255 324 383
#     4  11  21  36  61  93 121 163 205 253 307 369
#     4   9  20  37  59  85 115 158 206 249 299 358
#     4   9  19  38  60  82 112 156 211 257 291 347
#     4  12  23  37  61  91 131 164 196 256 321 373
#     4  11  21  37  60  90 123 162 209 257 301 363
#     4  10  22  42  66  92 121 161 216 269 310 371
#
# _framework density 25.246210999999999
#
# number of rings (size 3 to 8) (size 9 to 14) (size 15 to 20)
#    0.000    1.500    5.000    2.250    0.000    3.500 
#    0.000    3.750    0.000    1.500    0.000    0.000 
#    0.000    0.000    0.000    0.000    0.000    0.000 
#
# Total GULP energy -178535.716240 kJ/mol
# GULP energy per Si atom -5579.241132 kJ/mol
# Density = 2.518875 g / cm^3
# Si number density = 25.246211 Si / 1000 Ang^3
#
#
#
# Elastic Constant Matrix: (Units=GPa)
#
#
# Indices 1 2 3 4 5 6 
#
# 1 58.6317 34.3301 23.1731 0.0000 -6.8425 0.0000
# 2 34.3301 139.3658 68.7282 0.0000 27.5426 0.0000
# 3 23.1731 68.7282 211.1912 0.0000 41.6653 0.0000
# 4 0.0000 0.0000 0.0000 15.2465 0.0000 24.2899
# 5 -6.8425 27.5426 41.6653 0.0000 53.0023 0.0000
# 6 0.0000 0.0000 0.0000 24.2899 0.0000 15.8850
#
#
#
# Elastic Compliance Matrix: (Units=1/GPa)
#
#
# Indices 1 2 3 4 5 6 
#
# 1 0.022222 -0.005989 -0.001976 0.000000 0.007534 0.000000
# 2 -0.005989 0.010492 -0.001810 0.000000 -0.004803 0.000000
# 3 -0.001976 -0.001810 0.006398 0.000000 -0.004344 0.000000
# 4 0.000000 0.000000 0.000000 -0.045672 0.000000 0.069837
# 5 0.007534 -0.004803 -0.004344 0.000000 0.025750 0.000000
# 6 0.000000 0.000000 0.000000 0.069837 0.000000 -0.043836
#
#
# Mechanical properties :
#
#
# Convention : Reuss Voigt Hill
#
# Bulk Modulus (GPa) = 51.11518 73.51682 62.31600
# Shear Modulus (GPa) = 3510.06976 35.69057 1772.88017
#
# Velocity S-wave (km/s) = 37.32765 3.76400 26.52849
# Velocity P-wave (km/s) = 43.33700 6.93350 31.03360
#
# Compressibility (1/GPa) = 0.01956366
#
# Stress axis : x y z
#
# Youngs Moduli (GPa) = 44.99996 95.30879 156.30263
#
# Poissons Ratio (x) = 0.57076 0.30883
# Poissons Ratio (y) = 0.26949 0.28289
# Poissons Ratio (z) = 0.08891 0.17250
#
# Static dielectric constant tensor:
#      x y z
#    x 2.163700 0.000000 -0.009980 
#    y 0.000000 1.951120 0.000000 
#    z -0.009980 0.000000 2.022360 
# 
# From -- ./inp_files/328664.got.cif
#   From: 2010.05.17/outbox.cif.g08.bks.cpg/sg12_165_cif.got.tgz:328664.got - 2010.06.03 13:09:07.
