data_PCOD9215915
_publ_section_title
;
Structure prediction by ZEFSAII (Michael W. Deem and Ramdas Pophale) SiO2 
 PCOD9215915
Probable space group: C 2/M
;
_chemical_formula_sum "Si O2"
_cell_formula_units_Z 40
_cell_length_a 14.841619
_cell_length_b 22.902419
_cell_length_c 16.874040
_cell_angle_alpha 90.000000
_cell_angle_beta 161.228697
_cell_angle_gamma 90.000000
_cell_volume 1845.679558
_symmetry_space_group_name_H-M "C 2/M"
_symmetry_group_IT_number 12
_symmetry_cell_setting 'monoclinic'
loop_
_space_group_symop_operation_xyz
x,y,z
-x,y,-z
-x,-y,-z
x,-y,z
1/2+x,1/2+y,z
1/2-x,1/2+y,-z
1/2-x,1/2-y,-z
1/2+x,1/2-y,z
loop_
_atom_site_type_symbol
_atom_site_label
_atom_site_fract_x
_atom_site_fract_y
_atom_site_fract_z
Si Si1 0.444974 0.225059 0.266869
Si Si2 0.208405 0.435208 0.299996
Si Si3 0.663069 0.118934 0.718131
Si Si4 0.233553 0.342000 0.040640
Si Si5 0.711067 0.435679 0.444214
O O1 0.409911 0.184716 0.313774
O O2 0.356933 0.184087 0.119667
O O3 0.750000 0.250000 0.500000
O O4 0.269581 0.284413 0.123279
O O5 0.500000 0.423907 0.500000
O O6 0.108135 0.500000 0.192485
O O7 0.259030 0.435735 0.436402
O O8 0.984607 0.385267 0.100620
O O9 0.500000 0.108530 0.500000
O O10 0.509780 0.076557 0.653047
O O11 0.000000 0.111746 0.000000
O O12 0.507554 0.381859 0.254556
O O13 0.604607 0.500000 0.330764
#
# Coordination Sequence:
#
# PCOD9215915 Si02
#       5
#     8   8   8   8   8
#     4  11  23  44  69  96 137 189 236 299 359 423
#     4  10  22  42  68 101 139 180 237 304 367 432
#     4  12  27  48  72 110 151 191 247 301 359 430
#     4  11  21  42  71  97 138 185 240 291 367 437
#     4  11  24  45  72 101 141 191 240 301 367 431
#
# _framework density 21.672236000000002
#
# number of rings (size 3 to 8) (size 9 to 14) (size 15 to 20)
#    0.000    1.000    4.000    1.800    2.800    1.600 
#    7.200    3.000    0.000    0.000    0.000    0.000 
#    0.000    0.000    0.000    0.000    0.000    0.000 
#
# Total GULP energy -111801.473904 kJ/mol
# GULP energy per Si atom -5590.073695 kJ/mol
# Density = 2.162291 g / cm^3
# Si number density = 21.672236 Si / 1000 Ang^3
#
#
#
# Elastic Constant Matrix: (Units=GPa)
#
#
# Indices 1 2 3 4 5 6 
#
# 1 106.9940 22.7597 51.5135 -0.0005 24.0926 0.0019
# 2 22.7597 118.2898 36.4008 -0.0066 24.0338 0.0022
# 3 51.5135 36.4008 82.8548 0.0093 22.0870 0.0036
# 4 -0.0005 -0.0066 0.0093 42.7747 0.0044 -9.0638
# 5 24.0926 24.0338 22.0870 0.0044 34.2849 0.0010
# 6 0.0019 0.0022 0.0036 -9.0638 0.0010 -17.6738
#
#
#
# Elastic Compliance Matrix: (Units=1/GPa)
#
#
# Indices 1 2 3 4 5 6 
#
# 1 0.014102 0.000757 -0.007627 0.000002 -0.005527 -0.000001
# 2 0.000757 0.010560 -0.003615 0.000003 -0.005605 -0.000001
# 3 -0.007627 -0.003615 0.019674 -0.000004 -0.004780 0.000004
# 4 0.000002 0.000003 -0.000004 0.021087 -0.000004 -0.010814
# 5 -0.005527 -0.005605 -0.004780 -0.000004 0.040060 0.000002
# 6 -0.000001 -0.000001 0.000004 -0.010814 0.000002 -0.051035
#
#
# Mechanical properties :
#
#
# Convention : Reuss Voigt Hill
#
# Bulk Modulus (GPa) = 42.80083 58.83185 50.81634
# Shear Modulus (GPa) = 60.09205 25.04146 42.56676
#
# Velocity S-wave (km/s) = 5.27142 3.40290 4.43664
# Velocity P-wave (km/s) = 7.53940 6.53029 7.05292
#
# Compressibility (1/GPa) = 0.02336403
#
# Stress axis : x y z
#
# Youngs Moduli (GPa) = 70.91291 94.70070 50.82915
#
# Poissons Ratio (x) = -0.07165 0.38766
# Poissons Ratio (y) = -0.05365 0.18377
# Poissons Ratio (z) = 0.54083 0.34239
#
# Static dielectric constant tensor:
#      x y z
#    x 1.785400 0.000000 -0.018560 
#    y 0.000000 1.792800 0.000000 
#    z -0.018560 0.000000 1.856120 
# 
# From -- ./inp_files/272463.got.cif
#   From: 2010.05.17/outbox.cif.g08.bks.cpg/sg12_137_cif.got.tgz:272463.got - 2010.06.03 13:09:07.
