data_PCOD9215446
_publ_section_title
;
Structure prediction by ZEFSAII (Michael W. Deem and Ramdas Pophale) SiO2 
 PCOD9215446
Probable space group: C 2/M
;
_chemical_formula_sum "Si O2"
_cell_formula_units_Z 64
_cell_length_a 32.220488
_cell_length_b 17.564378
_cell_length_c 12.802960
_cell_angle_alpha 90.000000
_cell_angle_beta 152.581338
_cell_angle_gamma 90.000000
_cell_volume 3336.525706
_symmetry_space_group_name_H-M "C 2/M"
_symmetry_group_IT_number 12
_symmetry_cell_setting 'monoclinic'
loop_
_space_group_symop_operation_xyz
x,y,z
-x,y,-z
-x,-y,-z
x,-y,z
1/2+x,1/2+y,z
1/2-x,1/2+y,-z
1/2-x,1/2-y,-z
1/2+x,1/2-y,z
loop_
_atom_site_type_symbol
_atom_site_label
_atom_site_fract_x
_atom_site_fract_y
_atom_site_fract_z
Si Si1 0.395080 0.849085 0.293003
Si Si2 0.277170 0.408377 0.213555
Si Si3 0.308159 0.587293 0.904732
Si Si4 0.985005 0.712071 0.850670
Si Si5 0.897375 0.414197 0.524604
Si Si6 0.192964 0.810264 0.516566
Si Si7 0.394526 0.667458 0.294004
Si Si8 0.658816 0.313325 0.203206
O O1 0.500000 0.861528 0.500000
O O2 0.379543 0.893778 0.365186
O O3 0.383186 0.758318 0.281883
O O4 0.320438 0.879489 0.045834
O O5 0.280899 0.500000 0.220893
O O6 0.289968 0.373108 0.357461
O O7 0.353071 0.374336 0.303293
O O8 0.329773 0.500000 0.978386
O O9 0.201233 0.591951 0.644007
O O10 0.355833 0.617318 0.907507
O O11 0.336852 0.638920 0.066170
O O12 0.964711 0.646257 0.723875
O O13 0.900402 0.768402 0.666636
O O14 0.000000 0.678900 0.000000
O O15 0.070463 0.762370 0.014398
O O16 0.930728 0.500000 0.609820
O O17 0.267253 0.743426 0.681076
O O18 0.188185 0.837800 0.385353
O O19 0.500000 0.652585 0.500000
#
# Coordination Sequence:
#
# PCOD9215446 Si02
#       8
#     8   8   8   8   8   8   8   8
#     4  11  25  42  64  91 123 167 211 255 310 374
#     4  12  25  42  64  94 135 168 203 260 320 376
#     4  11  23  40  63  91 126 164 207 264 319 366
#     4  10  22  41  66  92 121 162 213 260 306 367
#     4  11  23  40  62  91 129 163 202 260 320 372
#     4  10  22  42  64  92 125 166 216 260 302 373
#     4  11  25  42  66  93 121 168 219 259 306 375
#     4  10  22  41  67  91 122 167 215 260 308 368
#
# _framework density 19.181629999999998
#
# number of rings (size 3 to 8) (size 9 to 14) (size 15 to 20)
#    0.000    1.250    2.500    2.625    7.000    2.750 
#    0.000    0.000    0.000    2.250    0.000    0.000 
#    0.000    0.000    0.000    0.000    0.000    0.000 
#
# Total GULP energy -178775.640061 kJ/mol
# GULP energy per Si atom -5586.738752 kJ/mol
# Density = 1.913797 g / cm^3
# Si number density = 19.181630 Si / 1000 Ang^3
#
#
#
# Elastic Constant Matrix: (Units=GPa)
#
#
# Indices 1 2 3 4 5 6 
#
# 1 89.0098 44.1708 28.9900 0.0000 2.8760 0.0000
# 2 44.1708 76.9005 24.5145 0.0000 -3.9240 0.0000
# 3 28.9900 24.5145 76.5849 0.0000 5.5112 0.0000
# 4 0.0000 0.0000 0.0000 -8.4118 0.0000 20.1397
# 5 2.8760 -3.9240 5.5112 0.0000 43.6074 0.0000
# 6 0.0000 0.0000 0.0000 20.1397 0.0000 -2.5621
#
#
#
# Elastic Compliance Matrix: (Units=1/GPa)
#
#
# Indices 1 2 3 4 5 6 
#
# 1 0.016641 -0.008526 -0.003467 0.000000 -0.001426 0.000000
# 2 -0.008526 0.019008 -0.003048 0.000000 0.002658 0.000000
# 3 -0.003467 -0.003048 0.015490 0.000000 -0.002003 0.000000
# 4 0.000000 0.000000 0.000000 0.006671 0.000000 0.052439
# 5 -0.001426 0.002658 -0.002003 0.000000 0.023518 0.000000
# 6 0.000000 0.000000 0.000000 0.052439 0.000000 0.021902
#
#
# Mechanical properties :
#
#
# Convention : Reuss Voigt Hill
#
# Bulk Modulus (GPa) = 47.49285 48.64956 48.07120
# Shear Modulus (GPa) = 35.62937 16.18135 25.90536
#
# Velocity S-wave (km/s) = 4.31452 2.90761 3.67894
# Velocity P-wave (km/s) = 7.04510 6.05722 6.56975
#
# Compressibility (1/GPa) = 0.02105580
#
# Stress axis : x y z
#
# Youngs Moduli (GPa) = 60.09223 52.60831 64.55814
#
# Poissons Ratio (x) = 0.44853 0.22385
# Poissons Ratio (y) = 0.51234 0.19680
# Poissons Ratio (z) = 0.20837 0.16037
#
# Static dielectric constant tensor:
#      x y z
#    x 1.708460 0.000000 0.013460 
#    y 0.000000 1.630240 0.000000 
#    z 0.013460 0.000000 1.669830 
# 
# From -- ./inp_files/190087.got.cif
#   From: 2010.05.17/outbox.cif.g08.bks.cpg/sg12_96_cif.got.tgz:190087.got - 2010.06.03 13:09:07.
