data_PCOD9215405
_publ_section_title
;
Structure prediction by ZEFSAII (Michael W. Deem and Ramdas Pophale) SiO2 
 PCOD9215405
Probable space group: C 2/M
;
_chemical_formula_sum "Si O2"
_cell_formula_units_Z 48
_cell_length_a 8.039961
_cell_length_b 17.134747
_cell_length_c 18.644744
_cell_angle_alpha 90.000000
_cell_angle_beta 63.933385
_cell_angle_gamma 90.000000
_cell_volume 2307.286974
_symmetry_space_group_name_H-M "C 2/M"
_symmetry_group_IT_number 12
_symmetry_cell_setting 'monoclinic'
loop_
_space_group_symop_operation_xyz
x,y,z
-x,y,-z
-x,-y,-z
x,-y,z
1/2+x,1/2+y,z
1/2-x,1/2+y,-z
1/2-x,1/2-y,-z
1/2+x,1/2-y,z
loop_
_atom_site_type_symbol
_atom_site_label
_atom_site_fract_x
_atom_site_fract_y
_atom_site_fract_z
Si Si1 0.362298 0.092960 0.089440
Si Si2 0.552336 0.644441 0.819854
Si Si3 0.493061 0.412495 0.324569
Si Si4 0.914341 0.409437 0.803973
Si Si5 0.707292 0.810669 0.445352
Si Si6 0.819381 0.291500 0.286767
O O1 0.471794 0.102144 0.143760
O O2 0.164299 0.135273 0.122621
O O3 0.323387 0.000000 0.089660
O O4 0.500000 0.116906 0.000000
O O5 0.585618 0.593581 0.741086
O O6 0.698764 0.613151 0.849847
O O7 0.607994 0.731959 0.787124
O O8 0.560257 0.500000 0.324861
O O9 0.344125 0.383548 0.410485
O O10 0.654171 0.348249 0.295315
O O11 0.932577 0.500000 0.780530
O O12 0.009823 0.349804 0.729621
O O13 0.500000 0.837222 0.500000
O O14 0.750000 0.750000 0.500000
O O15 0.743991 0.760374 0.366309
#
# Coordination Sequence:
#
# PCOD9215405 Si02
#       6
#     8   8   8   8   8   8
#     4  10  22  41  65  94 131 169 207 263 324 375
#     4  11  22  40  65  94 125 164 212 262 311 377
#     4  11  22  40  66  92 123 166 212 264 317 374
#     4  11  23  39  65  95 122 163 217 262 311 377
#     4  11  23  41  60  88 125 167 210 255 323 383
#     4  11  23  41  67  89 124 167 210 259 317 382
#
# _framework density 20.803654999999999
#
# number of rings (size 3 to 8) (size 9 to 14) (size 15 to 20)
#    0.000    1.167    3.333    4.000    2.333    1.000 
#    0.000    5.833    0.000    0.000    0.000    0.000 
#    0.000    0.000    0.000    0.000    0.000    0.000 
#
# Total GULP energy -134053.672709 kJ/mol
# GULP energy per Si atom -5585.569696 kJ/mol
# Density = 2.075630 g / cm^3
# Si number density = 20.803655 Si / 1000 Ang^3
#
#
#
# Elastic Constant Matrix: (Units=GPa)
#
#
# Indices 1 2 3 4 5 6 
#
# 1 130.2535 40.3118 40.6594 0.0000 -40.5668 0.0000
# 2 40.3118 135.5057 35.2962 0.0000 -22.1224 0.0000
# 3 40.6594 35.2962 96.8506 0.0000 -36.4163 0.0000
# 4 0.0000 0.0000 0.0000 17.5282 0.0000 -14.2280
# 5 -40.5668 -22.1224 -36.4163 0.0000 31.7864 0.0000
# 6 0.0000 0.0000 0.0000 -14.2280 0.0000 22.4820
#
#
#
# Elastic Compliance Matrix: (Units=1/GPa)
#
#
# Indices 1 2 3 4 5 6 
#
# 1 0.013087 -0.001452 0.001643 0.000000 0.017574 0.000000
# 2 -0.001452 0.008613 -0.001708 0.000000 0.002184 0.000000
# 3 0.001643 -0.001708 0.018621 0.000000 0.022241 0.000000
# 4 0.000000 0.000000 0.000000 0.117317 0.000000 0.074245
# 5 0.017574 0.002184 0.022241 0.000000 0.080889 0.000000
# 6 0.000000 0.000000 0.000000 0.074245 0.000000 0.091467
#
#
# Mechanical properties :
#
#
# Convention : Reuss Voigt Hill
#
# Bulk Modulus (GPa) = 26.81949 66.12718 46.47334
# Shear Modulus (GPa) = 14.47357 30.78215 22.62786
#
# Velocity S-wave (km/s) = 2.64052 3.85080 3.30159
# Velocity P-wave (km/s) = 4.71340 7.18518 6.07631
#
# Compressibility (1/GPa) = 0.03728631
#
# Stress axis : x y z
#
# Youngs Moduli (GPa) = 76.41044 116.09938 53.70412
#
# Poissons Ratio (x) = 0.16860 -0.08823
# Poissons Ratio (y) = 0.11096 0.09173
# Poissons Ratio (z) = -0.12553 0.19830
#
# Static dielectric constant tensor:
#      x y z
#    x 1.816050 0.000000 -0.000810 
#    y 0.000000 1.755240 0.000000 
#    z -0.000810 0.000000 1.763160 
# 
# From -- ./inp_files/300398.got.cif
#   From: 2010.05.17/outbox.cif.g08.bks.cpg/sg12_151_cif.got.tgz:300398.got - 2010.06.03 13:09:07.
