data_PCOD9215880
_publ_section_title
;
Structure prediction by ZEFSAII (Michael W. Deem and Ramdas Pophale) SiO2 
 PCOD9215880
Probable space group: C 2/M
;
_chemical_formula_sum "Si O2"
_cell_formula_units_Z 64
_cell_length_a 21.727696
_cell_length_b 28.749131
_cell_length_c 15.120901
_cell_angle_alpha 90.000000
_cell_angle_beta 161.249269
_cell_angle_gamma 90.000000
_cell_volume 3036.208471
_symmetry_space_group_name_H-M "C 2/M"
_symmetry_group_IT_number 12
_symmetry_cell_setting 'monoclinic'
loop_
_space_group_symop_operation_xyz
x,y,z
-x,y,-z
-x,-y,-z
x,-y,z
1/2+x,1/2+y,z
1/2-x,1/2+y,-z
1/2-x,1/2-y,-z
1/2+x,1/2-y,z
loop_
_atom_site_type_symbol
_atom_site_label
_atom_site_fract_x
_atom_site_fract_y
_atom_site_fract_z
Si Si1 0.499416 0.246494 0.248628
Si Si2 0.805865 0.088791 0.200793
Si Si3 0.917144 0.551944 0.624479
Si Si4 0.109454 0.900972 0.334587
Si Si5 0.902047 0.195755 0.774370
Si Si6 0.203586 0.446376 0.740630
Si Si7 0.286671 0.054342 0.745596
Si Si8 0.890481 0.192571 0.262295
O O1 0.698686 0.218901 0.520755
O O2 0.479692 0.267193 0.123006
O O3 0.490833 0.286740 0.311770
O O4 0.323866 0.212467 0.029185
O O5 0.700592 0.088169 0.152208
O O6 0.872437 0.136943 0.248183
O O7 0.000000 0.063731 0.500000
O O8 0.637674 0.067849 0.912718
O O9 0.931165 0.500000 0.680114
O O10 0.773500 0.577988 0.494096
O O11 0.819689 0.552482 0.396466
O O12 0.119921 0.847032 0.322950
O O13 0.157382 0.919871 0.497161
O O14 0.894324 0.918407 0.022340
O O15 0.000000 0.181922 0.000000
O O16 0.224202 0.500000 0.800810
O O17 0.000000 0.428002 0.500000
O O18 0.226886 0.000000 0.680279
O O19 0.500000 0.051330 0.000000
O O20 0.000000 0.208719 0.500000
#
# Coordination Sequence:
#
# PCOD9215880 Si02
#       8
#     8   8   8   8   8   8   8   8
#     4  10  23  43  67  95 129 170 211 274 346 413
#     4  11  25  40  64  99 134 176 222 281 338 410
#     4  11  22  40  62  89 128 174 226 273 329 395
#     4  12  24  41  67  94 130 177 228 282 332 404
#     4  11  24  42  66 100 130 165 223 282 341 401
#     4  10  23  40  61  90 126 174 223 274 333 396
#     4  11  24  43  66  99 138 182 234 285 343 404
#     4  10  22  42  67  93 130 171 215 261 337 416
#
# _framework density 21.078921000000001
#
# number of rings (size 3 to 8) (size 9 to 14) (size 15 to 20)
#    0.000    1.250    1.250    4.125    5.250    2.000 
#    0.000    1.875    0.000    0.000    0.000    0.000 
#    0.000    0.000    0.000    0.000    0.000    0.000 
#
# Total GULP energy -178527.402454 kJ/mol
# GULP energy per Si atom -5578.981327 kJ/mol
# Density = 2.103094 g / cm^3
# Si number density = 21.078921 Si / 1000 Ang^3
#
#
#
# Elastic Constant Matrix: (Units=GPa)
#
#
# Indices 1 2 3 4 5 6 
#
# 1 65.6671 25.6009 28.5153 -0.0001 -0.3602 0.0000
# 2 25.6009 84.0031 34.1385 0.0001 9.1977 0.0000
# 3 28.5153 34.1385 96.9614 -0.0005 9.9040 0.0000
# 4 -0.0001 0.0001 -0.0005 21.5047 -0.0002 7.1869
# 5 -0.3602 9.1977 9.9040 -0.0002 41.9625 0.0001
# 6 0.0000 0.0000 0.0000 7.1869 0.0001 27.5161
#
#
#
# Elastic Compliance Matrix: (Units=1/GPa)
#
#
# Indices 1 2 3 4 5 6 
#
# 1 0.018721 -0.004212 -0.004235 0.000000 0.002084 0.000000
# 2 -0.004212 0.014995 -0.003793 0.000000 -0.002428 0.000000
# 3 -0.004235 -0.003793 0.013130 0.000000 -0.002304 0.000000
# 4 0.000000 0.000000 0.000000 0.050949 0.000000 -0.013307
# 5 0.002084 -0.002428 -0.002304 0.000000 0.024925 0.000000
# 6 0.000000 0.000000 0.000000 -0.013307 0.000000 0.039818
#
#
# Mechanical properties :
#
#
# Convention : Reuss Voigt Hill
#
# Bulk Modulus (GPa) = 44.71279 47.01566 45.86422
# Shear Modulus (GPa) = 25.71040 28.75512 27.23276
#
# Velocity S-wave (km/s) = 3.49624 3.69747 3.59826
# Velocity P-wave (km/s) = 6.12833 6.37035 6.25051
#
# Compressibility (1/GPa) = 0.02236497
#
# Stress axis : x y z
#
# Youngs Moduli (GPa) = 53.41539 66.68756 76.16328
#
# Poissons Ratio (x) = 0.28091 0.32258
# Poissons Ratio (y) = 0.22501 0.28887
# Poissons Ratio (z) = 0.22624 0.25293
#
# Static dielectric constant tensor:
#      x y z
#    x 1.808520 0.000000 0.013780 
#    y 0.000000 1.778570 0.000000 
#    z 0.013780 0.000000 1.801730 
# 
# From -- ./inp_files/236014.got.cif
#   From: 2010.05.17/outbox.cif.g08.bks.cpg/sg12_119_cif.got.tgz:236014.got - 2010.06.03 13:09:07.
