data_PCOD9215026
_publ_section_title
;
Structure prediction by ZEFSAII (Michael W. Deem and Ramdas Pophale) SiO2 
 PCOD9215026
Probable space group: C 2/M
;
_chemical_formula_sum "Si O2"
_cell_formula_units_Z 50
_cell_length_a 17.216145
_cell_length_b 16.942869
_cell_length_c 9.255330
_cell_angle_alpha 90.000000
_cell_angle_beta 57.486101
_cell_angle_gamma 90.000000
_cell_volume 2276.548095
_symmetry_space_group_name_H-M "C 2/M"
_symmetry_group_IT_number 12
_symmetry_cell_setting 'monoclinic'
loop_
_space_group_symop_operation_xyz
x,y,z
-x,y,-z
-x,-y,-z
x,-y,z
1/2+x,1/2+y,z
1/2-x,1/2+y,-z
1/2-x,1/2-y,-z
1/2+x,1/2-y,z
loop_
_atom_site_type_symbol
_atom_site_label
_atom_site_fract_x
_atom_site_fract_y
_atom_site_fract_z
Si Si1 0.293865 0.908850 0.154088
Si Si2 0.557455 0.149763 0.780304
Si Si3 0.777061 0.670666 0.565400
Si Si4 0.767210 0.166432 0.055312
Si Si5 0.000000 0.500000 0.000000
Si Si6 0.131364 0.089486 0.528177
Si Si7 0.979601 0.176952 0.856013
O O1 0.361220 0.851948 0.177106
O O2 0.191177 0.896338 0.323159
O O3 0.325472 0.000000 0.156179
O O4 0.287882 0.894252 0.990686
O O5 0.618076 0.150303 0.575657
O O6 0.504006 0.070655 0.870887
O O7 0.497790 0.228857 0.840484
O O8 0.750000 0.750000 0.500000
O O9 0.760224 0.675116 0.751223
O O10 0.710184 0.603385 0.569712
O O11 0.750000 0.250000 0.000000
O O12 0.875729 0.151826 0.933641
O O13 0.048138 0.143563 0.665129
O O14 0.098626 0.000000 0.556936
O O15 0.000000 0.149156 0.000000
#
# Coordination Sequence:
#
# PCOD9215026 Si02
#       7
#     8   8   8   8   2   8   8
#     4  10  23  45  66  98 136 180 219 279 353 417
#     4  11  23  42  74  98 128 177 237 285 331 406
#     4  11  21  43  67  96 132 177 229 278 334 413
#     4  12  26  40  66  97 134 175 220 282 354 407
#     4  12  24  40  80 106 122 180 246 292 332 400
#     4  10  22  40  68  96 132 177 230 276 336 410
#     4  12  22  41  66 100 128 175 229 287 325 405
#
# _framework density 21.963076000000001
#
# number of rings (size 3 to 8) (size 9 to 14) (size 15 to 20)
#    0.000    0.960    4.800    2.880    1.120    2.240 
#    0.000    1.600    0.000    0.960    0.000    0.000 
#    0.000    0.000    0.000    0.000    0.000    0.000 
#
# Total GULP energy -139429.305184 kJ/mol
# GULP energy per Si atom -5577.172207 kJ/mol
# Density = 2.191309 g / cm^3
# Si number density = 21.963076 Si / 1000 Ang^3
#
#
#
# Elastic Constant Matrix: (Units=GPa)
#
#
# Indices 1 2 3 4 5 6 
#
# 1 47.6369 0.0039 6.8534 0.0000 13.5978 0.0000
# 2 0.0039 96.4771 31.0163 0.0000 1.1737 0.0000
# 3 6.8534 31.0163 150.8450 0.0000 8.4532 0.0000
# 4 0.0000 0.0000 0.0000 34.3646 0.0000 -5.4291
# 5 13.5978 1.1737 8.4532 0.0000 41.3840 0.0000
# 6 0.0000 0.0000 0.0000 -5.4291 0.0000 29.0894
#
#
#
# Elastic Compliance Matrix: (Units=1/GPa)
#
#
# Indices 1 2 3 4 5 6 
#
# 1 0.023234 0.000315 -0.000700 0.000000 -0.007500 0.000000
# 2 0.000315 0.011104 -0.002300 0.000000 0.000051 0.000000
# 3 -0.000700 -0.002300 0.007200 0.000000 -0.001175 0.000000
# 4 0.000000 0.000000 0.000000 0.029984 0.000000 0.005596
# 5 -0.007500 0.000051 -0.001175 0.000000 0.026867 0.000000
# 6 0.000000 0.000000 0.000000 0.005596 0.000000 0.035421
#
#
# Mechanical properties :
#
#
# Convention : Reuss Voigt Hill
#
# Bulk Modulus (GPa) = 27.64915 41.18954 34.41935
# Shear Modulus (GPa) = 33.06096 38.10662 35.58379
#
# Velocity S-wave (km/s) = 3.88403 4.16989 4.02949
# Velocity P-wave (km/s) = 5.72105 6.47910 6.11184
#
# Compressibility (1/GPa) = 0.03616747
#
# Stress axis : x y z
#
# Youngs Moduli (GPa) = 43.04098 90.05707 138.88890
#
# Poissons Ratio (x) = -0.02840 0.09724
# Poissons Ratio (y) = -0.01357 0.31950
# Poissons Ratio (z) = 0.03013 0.20717
#
# Static dielectric constant tensor:
#      x y z
#    x 1.474010 0.000000 0.073240 
#    y 0.000000 1.845250 0.000000 
#    z 0.073240 0.000000 1.828510 
# 
# From -- ./inp_files/75768.got.cif
#   From: 2010.05.17/outbox.cif.g08.bks.cpg/sg12_38_cif.got.tgz:75768.got - 2010.06.03 13:09:07.
