data_PCOD9215121
_publ_section_title
;
Structure prediction by ZEFSAII (Michael W. Deem and Ramdas Pophale) SiO2 
 PCOD9215121
Probable space group: C 2/M
;
_chemical_formula_sum "Si O2"
_cell_formula_units_Z 56
_cell_length_a 24.227950
_cell_length_b 13.742404
_cell_length_c 7.887001
_cell_angle_alpha 90.000000
_cell_angle_beta 102.742466
_cell_angle_gamma 90.000000
_cell_volume 2561.304799
_symmetry_space_group_name_H-M "C 2/M"
_symmetry_group_IT_number 12
_symmetry_cell_setting 'monoclinic'
loop_
_space_group_symop_operation_xyz
x,y,z
-x,y,-z
-x,-y,-z
x,-y,z
1/2+x,1/2+y,z
1/2-x,1/2+y,-z
1/2-x,1/2-y,-z
1/2+x,1/2-y,z
loop_
_atom_site_type_symbol
_atom_site_label
_atom_site_fract_x
_atom_site_fract_y
_atom_site_fract_z
Si Si1 0.248201 0.109659 0.476453
Si Si2 0.963246 0.114142 0.697115
Si Si3 0.829144 0.392553 0.852956
Si Si4 0.688935 0.392270 0.908408
Si Si5 0.679783 0.815163 0.784325
Si Si6 0.422251 0.316174 0.300777
Si Si7 0.148712 0.816624 0.229550
O O1 0.280250 0.110713 0.676786
O O2 0.293556 0.135310 0.361197
O O3 0.192339 0.176219 0.417240
O O4 0.226685 0.000000 0.437868
O O5 0.939468 0.151548 0.500349
O O6 0.910305 0.130610 0.783299
O O7 0.020280 0.175384 0.767559
O O8 0.977690 0.000000 0.698435
O O9 0.855648 0.500000 0.855373
O O10 0.863192 0.294466 0.830925
O O11 0.812216 0.377011 0.038578
O O12 0.712263 0.500000 0.891596
O O13 0.708572 0.290415 0.837567
O O14 0.623942 0.391047 0.800808
O O15 0.684067 0.367983 0.103661
O O16 0.613453 0.784519 0.721902
#
# Coordination Sequence:
#
# PCOD9215121 Si02
#       7
#     8   8   8   8   8   8   8
#     4  11  22  40  63  91 127 162 201 254 305 367
#     4  11  20  35  61  91 129 166 197 245 310 376
#     4  10  22  41  62  86 118 163 212 256 309 359
#     4   9  18  35  54  85 123 157 200 246 296 360
#     4   9  21  39  61  86 119 162 206 252 300 358
#     4   9  20  36  57  87 121 160 205 246 296 365
#     4  11  23  38  58  90 125 159 205 249 303 371
#
# _framework density 21.863858
#
# number of rings (size 3 to 8) (size 9 to 14) (size 15 to 20)
#    0.857    1.143    0.000    4.714    0.000    2.857 
#    2.571    3.571    0.000    2.571    0.000    7.000 
#    0.000    0.000    0.000    0.000    0.000    0.000 
#
# Total GULP energy -156283.233022 kJ/mol
# GULP energy per Si atom -5581.544036 kJ/mol
# Density = 2.181409 g / cm^3
# Si number density = 21.863858 Si / 1000 Ang^3
#
#
#
# Elastic Constant Matrix: (Units=GPa)
#
#
# Indices 1 2 3 4 5 6 
#
# 1 88.4953 16.3838 23.5163 0.0000 1.4039 0.0000
# 2 16.3838 102.7587 27.4525 0.0000 -1.1944 0.0000
# 3 23.5163 27.4525 87.6155 0.0000 -0.7774 0.0000
# 4 0.0000 0.0000 0.0000 30.0086 0.0000 2.4252
# 5 1.4039 -1.1944 -0.7774 0.0000 31.3006 0.0000
# 6 0.0000 0.0000 0.0000 2.4252 0.0000 32.8349
#
#
#
# Elastic Compliance Matrix: (Units=1/GPa)
#
#
# Indices 1 2 3 4 5 6 
#
# 1 0.012311 -0.001186 -0.002939 0.000000 -0.000670 0.000000
# 2 -0.001186 0.010738 -0.003043 0.000000 0.000387 0.000000
# 3 -0.002939 -0.003043 0.013159 0.000000 0.000343 0.000000
# 4 0.000000 0.000000 0.000000 0.033524 0.000000 -0.002476
# 5 -0.000670 0.000387 0.000343 0.000000 0.032002 0.000000
# 6 0.000000 0.000000 0.000000 -0.002476 0.000000 0.030638
#
#
# Mechanical properties :
#
#
# Convention : Reuss Voigt Hill
#
# Bulk Modulus (GPa) = 45.71774 45.95273 45.83523
# Shear Modulus (GPa) = 32.46812 32.92996 32.69904
#
# Velocity S-wave (km/s) = 3.85777 3.88511 3.87146
# Velocity P-wave (km/s) = 6.38739 6.41784 6.40263
#
# Compressibility (1/GPa) = 0.02187335
#
# Stress axis : x y z
#
# Youngs Moduli (GPa) = 81.22749 93.12736 75.99500
#
# Poissons Ratio (x) = 0.11041 0.22334
# Poissons Ratio (y) = 0.09630 0.23124
# Poissons Ratio (z) = 0.23871 0.28338
#
# Static dielectric constant tensor:
#      x y z
#    x 1.857760 0.000000 -0.032160 
#    y 0.000000 1.794860 0.000000 
#    z -0.032160 0.000000 1.886620 
# 
# From -- ./inp_files/110899.got.cif
#   From: 2010.05.17/outbox.cif.g08.bks.cpg/sg12_56_cif.got.tgz:110899.got - 2010.06.03 13:09:07.
