data_PCOD9215333
_publ_section_title
;
Structure prediction by ZEFSAII (Michael W. Deem and Ramdas Pophale) SiO2 
 PCOD9215333
Probable space group: C 2/M
;
_chemical_formula_sum "Si O2"
_cell_formula_units_Z 48
_cell_length_a 7.664247
_cell_length_b 21.134928
_cell_length_c 14.738252
_cell_angle_alpha 90.000000
_cell_angle_beta 78.702431
_cell_angle_gamma 90.000000
_cell_volume 2341.091056
_symmetry_space_group_name_H-M "C 2/M"
_symmetry_group_IT_number 12
_symmetry_cell_setting 'monoclinic'
loop_
_space_group_symop_operation_xyz
x,y,z
-x,y,-z
-x,-y,-z
x,-y,z
1/2+x,1/2+y,z
1/2-x,1/2+y,-z
1/2-x,1/2-y,-z
1/2+x,1/2-y,z
loop_
_atom_site_type_symbol
_atom_site_label
_atom_site_fract_x
_atom_site_fract_y
_atom_site_fract_z
Si Si1 0.285143 0.069519 0.037442
Si Si2 0.051142 0.072199 0.599525
Si Si3 0.812947 0.308480 0.558662
Si Si4 0.354031 0.356234 0.774741
Si Si5 0.278558 0.723149 0.233927
Si Si6 0.333316 0.188035 0.948379
O O1 0.224654 0.098040 0.140132
O O2 0.209181 0.000000 0.032460
O O3 0.500000 0.062986 0.000000
O O4 0.226110 0.123324 0.973591
O O5 0.194493 0.128774 0.579758
O O6 0.000000 0.066196 0.500000
O O7 0.901381 0.101854 0.681573
O O8 0.099808 0.000000 0.625476
O O9 0.750000 0.250000 0.500000
O O10 0.822800 0.284169 0.660558
O O11 0.000000 0.328118 0.500000
O O12 0.537904 0.317673 0.781119
O O13 0.213658 0.299210 0.776782
O O14 0.169249 0.699112 0.158185
O O15 0.500000 0.181700 0.000000
O O16 0.250000 0.250000 0.000000
#
# Coordination Sequence:
#
# PCOD9215333 Si02
#       6
#     8   8   8   8   8   8
#     4  10  23  41  61  87 125 170 214 263 318 385
#     4  10  22  41  64  94 131 174 218 262 325 397
#     4  11  22  40  65  96 134 168 214 275 331 378
#     4  11  22  39  65  92 126 165 214 269 325 379
#     4  11  23  37  63  99 122 164 215 265 323 380
#     4  11  22  38  61  88 123 159 210 268 312 373
#
# _framework density 20.503259
#
# number of rings (size 3 to 8) (size 9 to 14) (size 15 to 20)
#    0.000    1.333    1.667    5.000    2.333    0.333 
#    0.000    5.000    0.000    0.000    0.000    0.000 
#    0.000    0.000    0.000    0.000    0.000    0.000 
#
# Total GULP energy -133616.429537 kJ/mol
# GULP energy per Si atom -5567.351231 kJ/mol
# Density = 2.045659 g / cm^3
# Si number density = 20.503259 Si / 1000 Ang^3
#
#
#
# Elastic Constant Matrix: (Units=GPa)
#
#
# Indices 1 2 3 4 5 6 
#
# 1 55.7127 24.7995 44.2355 0.0000 -9.6649 0.0000
# 2 24.7995 207.5923 69.0967 0.0000 -1.1124 0.0000
# 3 44.2355 69.0967 190.3321 0.0000 -1.2070 0.0000
# 4 0.0000 0.0000 0.0000 95.0075 0.0000 -17.5481
# 5 -9.6649 -1.1124 -1.2070 0.0000 35.9778 0.0000
# 6 0.0000 0.0000 0.0000 -17.5481 0.0000 23.4734
#
#
#
# Elastic Compliance Matrix: (Units=1/GPa)
#
#
# Indices 1 2 3 4 5 6 
#
# 1 0.023484 -0.001102 -0.005019 0.000000 0.006106 0.000000
# 2 -0.001102 0.005531 -0.001753 0.000000 -0.000184 0.000000
# 3 -0.005019 -0.001753 0.007050 0.000000 -0.001166 0.000000
# 4 0.000000 0.000000 0.000000 0.012212 0.000000 0.009129
# 5 0.006106 -0.000184 -0.001166 0.000000 0.029390 0.000000
# 6 0.000000 0.000000 0.000000 0.009129 0.000000 0.049426
#
#
# Mechanical properties :
#
#
# Convention : Reuss Voigt Hill
#
# Bulk Modulus (GPa) = 49.22144 81.10006 65.16075
# Shear Modulus (GPa) = 33.41926 51.92545 42.67235
#
# Velocity S-wave (km/s) = 4.04164 5.03790 4.56702
# Velocity P-wave (km/s) = 6.77042 8.57212 7.72398
#
# Compressibility (1/GPa) = 0.02031635
#
# Stress axis : x y z
#
# Youngs Moduli (GPa) = 42.58158 180.78875 141.85352
#
# Poissons Ratio (x) = 0.19925 0.71199
# Poissons Ratio (y) = 0.04693 0.24868
# Poissons Ratio (z) = 0.21373 0.31693
#
# Static dielectric constant tensor:
#      x y z
#    x 1.828790 0.000000 -0.055910 
#    y 0.000000 1.947570 0.000000 
#    z -0.055910 0.000000 1.718940 
# 
# From -- ./inp_files/196910.got.cif
#   From: 2010.05.17/outbox.cif.g08.bks.cpg/sg12_99_cif.got.tgz:196910.got - 2010.06.03 13:09:07.
