data_PCOD9215891
_publ_section_title
;
Structure prediction by ZEFSAII (Michael W. Deem and Ramdas Pophale) SiO2 
 PCOD9215891
Probable space group: C 2/M
;
_chemical_formula_sum "Si O2"
_cell_formula_units_Z 48
_cell_length_a 14.177255
_cell_length_b 25.358516
_cell_length_c 10.556385
_cell_angle_alpha 90.000000
_cell_angle_beta 36.030744
_cell_angle_gamma 90.000000
_cell_volume 2232.391996
_symmetry_space_group_name_H-M "C 2/M"
_symmetry_group_IT_number 12
_symmetry_cell_setting 'monoclinic'
loop_
_space_group_symop_operation_xyz
x,y,z
-x,y,-z
-x,-y,-z
x,-y,z
1/2+x,1/2+y,z
1/2-x,1/2+y,-z
1/2-x,1/2-y,-z
1/2+x,1/2-y,z
loop_
_atom_site_type_symbol
_atom_site_label
_atom_site_fract_x
_atom_site_fract_y
_atom_site_fract_z
Si Si1 0.702278 0.500000 0.044356
Si Si2 0.000000 0.234394 0.500000
Si Si3 0.395170 0.900186 0.744206
Si Si4 0.216063 0.209010 0.923154
Si Si5 0.610330 0.500000 0.759438
Si Si6 0.793741 0.589177 0.443030
Si Si7 0.691246 0.000000 0.780490
Si Si8 0.623888 0.298328 0.627069
O O1 0.783450 0.450343 0.887357
O O2 0.513969 0.500000 0.222216
O O3 0.735633 0.500000 0.158517
O O4 0.839167 0.269584 0.684161
O O5 0.966860 0.201827 0.410098
O O6 0.500000 0.899889 0.500000
O O7 0.283765 0.848964 0.875251
O O8 0.521801 0.901751 0.722113
O O9 0.250000 0.250000 0.000000
O O10 0.024951 0.208048 0.114632
O O11 0.719492 0.551378 0.631327
O O12 0.500000 0.500000 0.000000
O O13 0.771946 0.553256 0.340915
O O14 0.710434 0.645656 0.540331
O O15 0.500000 0.000000 0.000000
O O16 0.750000 0.250000 0.500000
#
# Coordination Sequence:
#
# PCOD9215891 Si02
#       8
#     4   4   8   8   4   8   4   8
#     4  12  24  42  70 101 133 190 225 285 357 406
#     4  10  22  46  64  94 136 178 224 278 338 406
#     4  12  23  41  69  98 139 179 232 289 348 413
#     4  10  22  42  67  95 134 179 226 275 341 409
#     4  11  24  44  66 103 141 173 233 282 348 419
#     4  11  24  43  68  99 138 179 229 287 343 414
#     4  11  23  47  66  96 140 177 238 284 340 421
#     4  11  25  44  66 101 137 174 229 279 341 411
#
# _framework density 21.5016
#
# number of rings (size 3 to 8) (size 9 to 14) (size 15 to 20)
#    0.000    1.000    2.500    4.750    0.000    6.000 
#    3.000    0.000    0.000    0.000    0.000    0.000 
#    0.000    0.000    0.000    0.000    0.000    0.000 
#
# Total GULP energy -134063.877528 kJ/mol
# GULP energy per Si atom -5585.994897 kJ/mol
# Density = 2.145266 g / cm^3
# Si number density = 21.501600 Si / 1000 Ang^3
#
#
#
# Elastic Constant Matrix: (Units=GPa)
#
#
# Indices 1 2 3 4 5 6 
#
# 1 90.9946 17.0288 17.2464 0.0001 1.4645 -0.0001
# 2 17.0288 173.8785 58.4188 0.0000 -5.7741 0.0000
# 3 17.2464 58.4188 134.9282 0.0003 -17.8027 -0.0002
# 4 0.0001 0.0000 0.0003 24.5087 -0.0001 -14.9300
# 5 1.4645 -5.7741 -17.8027 -0.0001 46.2631 0.0001
# 6 -0.0001 0.0000 -0.0002 -14.9300 0.0001 20.1958
#
#
#
# Elastic Compliance Matrix: (Units=1/GPa)
#
#
# Indices 1 2 3 4 5 6 
#
# 1 0.011380 -0.000720 -0.001266 0.000000 -0.000937 0.000000
# 2 -0.000720 0.006780 -0.002875 0.000000 -0.000237 0.000000
# 3 -0.001266 -0.002875 0.009245 0.000000 0.003239 0.000000
# 4 0.000000 0.000000 0.000000 0.074230 0.000000 0.054876
# 5 -0.000937 -0.000237 0.003239 0.000000 0.022862 0.000000
# 6 0.000000 0.000000 0.000000 0.054876 0.000000 0.090083
#
#
# Mechanical properties :
#
#
# Convention : Reuss Voigt Hill
#
# Bulk Modulus (GPa) = 56.55441 65.02104 60.78773
# Shear Modulus (GPa) = 21.72064 38.66735 30.19400
#
# Velocity S-wave (km/s) = 3.18179 4.24529 3.75142
# Velocity P-wave (km/s) = 6.31331 7.37128 6.86271
#
# Compressibility (1/GPa) = 0.01768209
#
# Stress axis : x y z
#
# Youngs Moduli (GPa) = 87.87706 147.50212 108.16473
#
# Poissons Ratio (x) = 0.10621 0.13698
# Poissons Ratio (y) = 0.06328 0.31093
# Poissons Ratio (z) = 0.11129 0.42400
#
# Static dielectric constant tensor:
#      x y z
#    x 1.821130 0.000000 0.049230 
#    y 0.000000 1.739110 0.000000 
#    z 0.049230 0.000000 1.842700 
# 
# From -- ./inp_files/149704.got.cif
#   From: 2010.05.17/outbox.cif.g08.bks.cpg/sg12_75_cif.got.tgz:149704.got - 2010.06.03 13:09:07.
