data_PCOD9215005
_publ_section_title
;
Structure prediction by ZEFSAII (Michael W. Deem and Ramdas Pophale) SiO2 
 PCOD9215005
Probable space group: C 2/M
;
_chemical_formula_sum "Si O2"
_cell_formula_units_Z 56
_cell_length_a 9.405625
_cell_length_b 17.500985
_cell_length_c 29.466042
_cell_angle_alpha 90.000000
_cell_angle_beta 146.058097
_cell_angle_gamma 90.000000
_cell_volume 2708.195552
_symmetry_space_group_name_H-M "C 2/M"
_symmetry_group_IT_number 12
_symmetry_cell_setting 'monoclinic'
loop_
_space_group_symop_operation_xyz
x,y,z
-x,y,-z
-x,-y,-z
x,-y,z
1/2+x,1/2+y,z
1/2-x,1/2+y,-z
1/2-x,1/2-y,-z
1/2+x,1/2-y,z
loop_
_atom_site_type_symbol
_atom_site_label
_atom_site_fract_x
_atom_site_fract_y
_atom_site_fract_z
Si Si1 0.877726 0.410274 0.917401
Si Si2 0.342559 0.332082 0.004503
Si Si3 0.092227 0.692599 0.396595
Si Si4 0.767321 0.638517 0.466865
Si Si5 0.738019 0.916414 0.354277
Si Si6 0.692990 0.845443 0.816158
Si Si7 0.577351 0.709952 0.212152
O O1 0.817463 0.500000 0.897822
O O2 0.633389 0.356428 0.845955
O O3 0.000000 0.396504 0.000000
O O4 0.092459 0.384222 0.938235
O O5 0.546266 0.372154 0.092171
O O6 0.500000 0.320532 0.000000
O O7 0.250000 0.250000 0.000000
O O8 0.147849 0.652091 0.458819
O O9 0.200745 0.778133 0.428428
O O10 0.218107 0.647263 0.388145
O O11 0.790962 0.696171 0.306801
O O12 0.503401 0.593325 0.398613
O O13 0.000000 0.604841 0.500000
O O14 0.502512 0.904281 0.257627
O O15 0.721332 0.000000 0.371011
O O16 0.551556 0.790889 0.813885
O O17 0.776684 0.791370 0.796734
#
# Coordination Sequence:
#
# PCOD9215005 Si02
#       7
#     8   8   8   8   8   8   8
#     4  11  24  43  64  94 136 176 220 275 335 392
#     4  12  23  40  68  96 127 170 222 271 330 399
#     4  10  22  40  67  98 128 171 222 266 323 401
#     4  11  22  40  68  98 131 168 218 269 329 398
#     4  11  25  44  66  96 134 175 217 274 335 396
#     4  11  23  39  66  97 127 167 225 270 324 392
#     4  11  22  38  66  97 128 170 218 274 326 389
#
# _framework density 20.677975
#
# number of rings (size 3 to 8) (size 9 to 14) (size 15 to 20)
#    0.000    1.000    4.286    3.429    2.000    4.571 
#    0.000    0.000    0.000    0.000    0.000    0.000 
#    0.000    0.000    0.000    0.000    0.000    0.000 
#
# Total GULP energy -156533.651314 kJ/mol
# GULP energy per Si atom -5590.487547 kJ/mol
# Density = 2.063091 g / cm^3
# Si number density = 20.677975 Si / 1000 Ang^3
#
#
#
# Elastic Constant Matrix: (Units=GPa)
#
#
# Indices 1 2 3 4 5 6 
#
# 1 93.5824 5.5754 18.8485 0.0002 13.0267 0.0001
# 2 5.5754 48.0874 4.8665 0.0004 -3.8951 0.0001
# 3 18.8485 4.8665 112.6566 -0.0012 12.3612 -0.0001
# 4 0.0002 0.0004 -0.0012 174.8099 0.0000 43.3161
# 5 13.0267 -3.8951 12.3612 0.0000 28.1707 0.0000
# 6 0.0001 0.0001 -0.0001 43.3161 0.0000 22.3294
#
#
#
# Elastic Compliance Matrix: (Units=1/GPa)
#
#
# Indices 1 2 3 4 5 6 
#
# 1 0.011760 -0.001639 -0.001340 0.000000 -0.005077 0.000000
# 2 -0.001639 0.021439 -0.001114 0.000000 0.004211 0.000000
# 3 -0.001340 -0.001114 0.009558 0.000000 -0.003728 0.000000
# 4 0.000000 0.000000 0.000000 0.011015 0.000000 -0.021368
# 5 -0.005077 0.004211 -0.003728 0.000000 0.040064 0.000000
# 6 0.000000 0.000000 0.000000 -0.021368 0.000000 0.086236
#
#
# Mechanical properties :
#
#
# Convention : Reuss Voigt Hill
#
# Bulk Modulus (GPa) = 28.92541 34.76745 31.84643
# Shear Modulus (GPa) = 25.02731 60.06440 42.54586
#
# Velocity S-wave (km/s) = 3.48276 5.39542 4.54094
# Velocity P-wave (km/s) = 5.49470 7.46086 6.55195
#
# Compressibility (1/GPa) = 0.03457168
#
# Stress axis : x y z
#
# Youngs Moduli (GPa) = 85.03440 46.64319 104.62543
#
# Poissons Ratio (x) = 0.07645 0.14017
# Poissons Ratio (y) = 0.13938 0.11655
# Poissons Ratio (z) = 0.11392 0.05196
#
# Static dielectric constant tensor:
#      x y z
#    x 1.746570 0.000000 -0.001330 
#    y 0.000000 1.710240 0.000000 
#    z -0.001330 0.000000 1.776100 
# 
# From -- ./inp_files/356730.got.cif
#   From: 2010.05.17/outbox.cif.g08.bks.cpg/sg12_179_cif.got.tgz:356730.got - 2010.06.03 13:09:07.
