data_PCOD9215144
_publ_section_title
;
Structure prediction by ZEFSAII (Michael W. Deem and Ramdas Pophale) SiO2 
 PCOD9215144
Probable space group: C 2/M
;
_chemical_formula_sum "Si O2"
_cell_formula_units_Z 64
_cell_length_a 14.809796
_cell_length_b 8.999587
_cell_length_c 22.145234
_cell_angle_alpha 90.000000
_cell_angle_beta 77.606758
_cell_angle_gamma 90.000000
_cell_volume 2882.783648
_symmetry_space_group_name_H-M "C 2/M"
_symmetry_group_IT_number 12
_symmetry_cell_setting 'monoclinic'
loop_
_space_group_symop_operation_xyz
x,y,z
-x,y,-z
-x,-y,-z
x,-y,z
1/2+x,1/2+y,z
1/2-x,1/2+y,-z
1/2-x,1/2-y,-z
1/2+x,1/2-y,z
loop_
_atom_site_type_symbol
_atom_site_label
_atom_site_fract_x
_atom_site_fract_y
_atom_site_fract_z
Si Si1 0.121050 0.328056 0.147276
Si Si2 0.552108 0.176171 0.395412
Si Si3 0.876745 0.327798 0.351115
Si Si4 0.031651 0.175351 0.899760
Si Si5 0.852961 0.824384 0.733902
Si Si6 0.301589 0.672847 0.047305
Si Si7 0.803223 0.172276 0.546823
Si Si8 0.843466 0.172278 0.237793
O O1 0.098603 0.500000 0.163018
O O2 0.105446 0.228313 0.208225
O O3 0.228341 0.319775 0.112861
O O4 0.059900 0.267318 0.100797
O O5 0.444385 0.206958 0.397452
O O6 0.601275 0.235401 0.327574
O O7 0.602738 0.253261 0.443957
O O8 0.564352 0.000000 0.399857
O O9 0.895362 0.500000 0.331199
O O10 0.771065 0.317526 0.387696
O O11 0.893150 0.220077 0.292653
O O12 0.099353 0.228586 0.943487
O O13 0.091602 0.188112 0.829543
O O14 0.011201 0.000000 0.911793
O O15 0.745540 0.777781 0.752917
O O16 0.863406 0.000000 0.723494
O O17 0.313864 0.500000 0.030364
O O18 0.250000 0.750000 0.000000
O O19 0.750000 0.250000 0.500000
O O20 0.818241 0.000000 0.530705
O O21 0.813452 0.000000 0.245266
#
# Coordination Sequence:
#
# PCOD9215144 Si02
#       8
#     8   8   8   8   8   8   8   8
#     4  11  23  41  63  91 124 160 203 251 303 364
#     4  11  23  41  65  93 124 162 203 251 307 362
#     4  10  23  41  62  91 126 160 201 249 304 364
#     4  10  22  41  62  90 125 160 200 250 304 363
#     4  12  23  37  61  93 127 162 200 245 304 368
#     4  10  23  43  63  86 121 160 206 256 305 359
#     4  11  24  43  64  89 122 163 209 259 307 360
#     4  11  21  37  63  91 125 162 200 246 303 363
#
# _framework density 22.200765000000001
#
# number of rings (size 3 to 8) (size 9 to 14) (size 15 to 20)
#    0.000    1.250    2.500    3.375    0.000    7.000 
#    0.000    5.000    0.000    0.000    0.000    0.000 
#    0.000    0.000    0.000    0.000    0.000    0.000 
#
# Total GULP energy -179064.755418 kJ/mol
# GULP energy per Si atom -5595.773607 kJ/mol
# Density = 2.215023 g / cm^3
# Si number density = 22.200765 Si / 1000 Ang^3
#
#
#
# Elastic Constant Matrix: (Units=GPa)
#
#
# Indices 1 2 3 4 5 6 
#
# 1 116.3109 33.8949 10.0852 0.0000 33.9855 0.0000
# 2 33.8949 75.1849 21.1797 0.0000 21.0905 0.0000
# 3 10.0852 21.1797 71.9021 0.0000 31.8182 0.0000
# 4 0.0000 0.0000 0.0000 32.1524 0.0000 11.6667
# 5 33.9855 21.0905 31.8182 0.0000 46.6194 0.0000
# 6 0.0000 0.0000 0.0000 11.6667 0.0000 31.6494
#
#
#
# Elastic Compliance Matrix: (Units=1/GPa)
#
#
# Indices 1 2 3 4 5 6 
#
# 1 0.012233 -0.003835 0.003714 0.000000 -0.009717 0.000000
# 2 -0.003835 0.016652 -0.003253 0.000000 -0.002517 0.000000
# 3 0.003714 -0.003253 0.021336 0.000000 -0.015798 0.000000
# 4 0.000000 0.000000 0.000000 0.035904 0.000000 -0.013235
# 5 -0.009717 -0.002517 -0.015798 0.000000 0.040455 0.000000
# 6 0.000000 0.000000 0.000000 -0.013235 0.000000 0.036475
#
#
# Mechanical properties :
#
#
# Convention : Reuss Voigt Hill
#
# Bulk Modulus (GPa) = 23.00325 43.74639 33.37482
# Shear Modulus (GPa) = 27.13052 35.30012 31.21532
#
# Velocity S-wave (km/s) = 3.49958 3.99186 3.75380
# Velocity P-wave (km/s) = 5.16850 6.40267 5.81840
#
# Compressibility (1/GPa) = 0.04347212
#
# Stress axis : x y z
#
# Youngs Moduli (GPa) = 81.74878 60.05281 46.86916
#
# Poissons Ratio (x) = 0.23031 -0.17407
# Poissons Ratio (y) = 0.31351 0.15248
# Poissons Ratio (z) = -0.30362 0.19537
#
# Static dielectric constant tensor:
#      x y z
#    x 1.842990 0.000000 0.009760 
#    y 0.000000 1.742630 0.000000 
#    z 0.009760 0.000000 1.839470 
# 
# From -- ./inp_files/338883.got.cif
#   From: 2010.05.17/outbox.cif.g08.bks.cpg/sg12_170_cif.got.tgz:338883.got - 2010.06.03 13:09:07.
