data_PCOD9215356
_publ_section_title
;
Structure prediction by ZEFSAII (Michael W. Deem and Ramdas Pophale) SiO2 
 PCOD9215356
Probable space group: C 2/M
;
_chemical_formula_sum "Si O2"
_cell_formula_units_Z 40
_cell_length_a 22.701541
_cell_length_b 12.769611
_cell_length_c 10.087109
_cell_angle_alpha 90.000000
_cell_angle_beta 146.484636
_cell_angle_gamma 90.000000
_cell_volume 1614.600614
_symmetry_space_group_name_H-M "C 2/M"
_symmetry_group_IT_number 12
_symmetry_cell_setting 'monoclinic'
loop_
_space_group_symop_operation_xyz
x,y,z
-x,y,-z
-x,-y,-z
x,-y,z
1/2+x,1/2+y,z
1/2-x,1/2+y,-z
1/2-x,1/2-y,-z
1/2+x,1/2-y,z
loop_
_atom_site_type_symbol
_atom_site_label
_atom_site_fract_x
_atom_site_fract_y
_atom_site_fract_z
Si Si1 0.387958 0.834294 0.843942
Si Si2 0.764131 0.116075 0.966960
Si Si3 0.657308 0.618580 0.351833
Si Si4 0.634540 0.278364 0.597846
Si Si5 0.442088 0.114917 0.231897
O O1 0.388548 0.708624 0.828458
O O2 0.285284 0.874699 0.574006
O O3 0.500000 0.873532 0.000000
O O4 0.381879 0.873959 0.980809
O O5 0.736008 0.198558 0.799767
O O6 0.651175 0.115856 0.834649
O O7 0.789266 0.000000 0.966693
O O8 0.849072 0.153314 0.237390
O O9 0.621710 0.500000 0.264706
O O10 0.636761 0.656591 0.465679
O O11 0.527753 0.207822 0.398135
O O12 0.495255 0.000000 0.336720
#
# Coordination Sequence:
#
# PCOD9215356 Si02
#       5
#     8   8   8   8   8
#     4  11  23  43  64  94 123 159 213 257 304 372
#     4  10  22  41  65  90 125 168 205 255 314 366
#     4  11  24  43  65  91 127 166 202 255 320 369
#     4  11  21  38  64  93 123 158 209 254 306 374
#     4  11  22  40  65  94 126 165 210 260 310 357
#
# _framework density 24.773927
#
# number of rings (size 3 to 8) (size 9 to 14) (size 15 to 20)
#    0.000    1.200    4.000    2.400    0.000    3.600 
#    0.000    1.000    0.000   27.600    0.000    0.000 
#    0.000    0.000    0.000    0.000    0.000    0.000 
#
# Total GULP energy -111949.693655 kJ/mol
# GULP energy per Si atom -5597.484683 kJ/mol
# Density = 2.471754 g / cm^3
# Si number density = 24.773927 Si / 1000 Ang^3
#
#
#
# Elastic Constant Matrix: (Units=GPa)
#
#
# Indices 1 2 3 4 5 6 
#
# 1 66.2003 11.6002 10.1725 0.0000 5.3633 0.0000
# 2 11.6002 172.8908 11.1626 0.0000 -2.4312 0.0000
# 3 10.1725 11.1626 80.3447 0.0000 10.1331 0.0000
# 4 0.0000 0.0000 0.0000 20.1785 0.0000 0.9680
# 5 5.3633 -2.4312 10.1331 0.0000 47.9238 0.0000
# 6 0.0000 0.0000 0.0000 0.9680 0.0000 25.1568
#
#
#
# Elastic Compliance Matrix: (Units=1/GPa)
#
#
# Indices 1 2 3 4 5 6 
#
# 1 0.015647 -0.000963 -0.001665 0.000000 -0.001448 0.000000
# 2 -0.000963 0.005906 -0.000771 0.000000 0.000570 0.000000
# 3 -0.001665 -0.000771 0.013095 0.000000 -0.002622 0.000000
# 4 0.000000 0.000000 0.000000 0.049649 0.000000 -0.001910
# 5 -0.001448 0.000570 -0.002622 0.000000 0.021612 0.000000
# 6 0.000000 0.000000 0.000000 -0.001910 0.000000 0.039824
#
#
# Mechanical properties :
#
#
# Convention : Reuss Voigt Hill
#
# Bulk Modulus (GPa) = 35.90349 42.81181 39.35765
# Shear Modulus (GPa) = 30.89960 37.75187 34.32573
#
# Velocity S-wave (km/s) = 3.53549 3.90789 3.72635
# Velocity P-wave (km/s) = 5.58482 6.13846 5.86817
#
# Compressibility (1/GPa) = 0.02785245
#
# Stress axis : x y z
#
# Youngs Moduli (GPa) = 63.90798 169.30879 76.36590
#
# Poissons Ratio (x) = 0.16300 0.12713
# Poissons Ratio (y) = 0.06153 0.05885
# Poissons Ratio (z) = 0.10639 0.13047
#
# Static dielectric constant tensor:
#      x y z
#    x 1.981760 0.000000 0.006360 
#    y 0.000000 2.015790 0.000000 
#    z 0.006360 0.000000 1.949820 
# 
# From -- ./inp_files/140277.got.cif
#   From: 2010.05.17/outbox.cif.g08.bks.cpg/sg12_71_cif.got.tgz:140277.got - 2010.06.03 13:09:07.
