data_PCOD9215133
_publ_section_title
;
Structure prediction by ZEFSAII (Michael W. Deem and Ramdas Pophale) SiO2 
 PCOD9215133
Probable space group: C 2/M
;
_chemical_formula_sum "Si O2"
_cell_formula_units_Z 64
_cell_length_a 30.768510
_cell_length_b 8.903992
_cell_length_c 19.096331
_cell_angle_alpha 90.000000
_cell_angle_beta 141.359638
_cell_angle_gamma 90.000000
_cell_volume 3266.817770
_symmetry_space_group_name_H-M "C 2/M"
_symmetry_group_IT_number 12
_symmetry_cell_setting 'monoclinic'
loop_
_space_group_symop_operation_xyz
x,y,z
-x,y,-z
-x,-y,-z
x,-y,z
1/2+x,1/2+y,z
1/2-x,1/2+y,-z
1/2-x,1/2-y,-z
1/2+x,1/2-y,z
loop_
_atom_site_type_symbol
_atom_site_label
_atom_site_fract_x
_atom_site_fract_y
_atom_site_fract_z
Si Si1 0.095521 0.674110 0.881326
Si Si2 0.033080 0.177432 0.672869
Si Si3 0.752317 0.317603 0.425000
Si Si4 0.746750 0.675332 0.919748
Si Si5 0.469271 0.681404 0.068708
Si Si6 0.885554 0.319961 0.499485
Si Si7 0.611770 0.681592 0.169859
Si Si8 0.374181 0.821343 0.321898
O O1 0.081181 0.500000 0.846781
O O2 0.086738 0.769625 0.799987
O O3 0.045517 0.738338 0.877486
O O4 0.174244 0.684959 0.007982
O O5 0.059694 0.249312 0.634032
O O6 0.958731 0.239651 0.604077
O O7 0.031316 0.000000 0.664165
O O8 0.750377 0.500000 0.427189
O O9 0.750000 0.250000 0.500000
O O10 0.822894 0.275914 0.472265
O O11 0.684671 0.267673 0.294534
O O12 0.727309 0.500000 0.900988
O O13 0.693146 0.759619 0.802781
O O14 0.750000 0.750000 0.000000
O O15 0.465487 0.500000 0.071712
O O16 0.545783 0.719077 0.135747
O O17 0.412262 0.728379 0.938237
O O18 0.894819 0.500000 0.517180
O O19 0.868509 0.286141 0.396810
O O20 0.615029 0.500000 0.171270
O O21 0.378861 0.000000 0.319844
#
# Coordination Sequence:
#
# PCOD9215133 Si02
#       8
#     8   8   8   8   8   8   8   8
#     4  11  24  39  58  88 126 161 198 250 305 362
#     4  12  25  41  64  90 121 163 210 258 305 366
#     4  10  22  41  62  88 122 162 203 248 302 361
#     4  11  23  39  60  87 123 164 202 245 298 357
#     4   9  18  35  62  91 117 154 200 249 299 359
#     4  10  24  43  64  90 123 164 206 254 313 367
#     4   8  17  36  61  88 120 153 197 249 300 359
#     4  11  23  41  66  93 124 161 202 255 310 369
#
# _framework density 19.590931000000001
#
# number of rings (size 3 to 8) (size 9 to 14) (size 15 to 20)
#    0.000    1.750    1.250    3.375    3.500    4.500 
#    0.000    1.875    0.000    0.000    0.000    0.000 
#    0.000    0.000    0.000    0.000    0.000    0.000 
#
# Total GULP energy -178757.485023 kJ/mol
# GULP energy per Si atom -5586.171407 kJ/mol
# Density = 1.954634 g / cm^3
# Si number density = 19.590931 Si / 1000 Ang^3
#
#
#
# Elastic Constant Matrix: (Units=GPa)
#
#
# Indices 1 2 3 4 5 6 
#
# 1 128.3774 44.7315 42.5506 0.0000 -0.4453 0.0000
# 2 44.7315 31.1874 25.9562 0.0000 4.5417 0.0000
# 3 42.5506 25.9562 99.2482 0.0000 15.9222 0.0000
# 4 0.0000 0.0000 0.0000 28.7869 0.0000 -1.3204
# 5 -0.4453 4.5417 15.9222 0.0000 25.8567 0.0000
# 6 0.0000 0.0000 0.0000 -1.3204 0.0000 30.2172
#
#
#
# Elastic Compliance Matrix: (Units=1/GPa)
#
#
# Indices 1 2 3 4 5 6 
#
# 1 0.016327 -0.022570 -0.001973 0.000000 0.005461 0.000000
# 2 -0.022570 0.072197 -0.007887 0.000000 -0.008213 0.000000
# 3 -0.001973 -0.007887 0.014167 0.000000 -0.007373 0.000000
# 4 0.000000 0.000000 0.000000 0.034808 0.000000 0.001521
# 5 0.005461 -0.008213 -0.007373 0.000000 0.044751 0.000000
# 6 0.000000 0.000000 0.000000 0.001521 0.000000 0.033160
#
#
# Mechanical properties :
#
#
# Convention : Reuss Voigt Hill
#
# Bulk Modulus (GPa) = 26.43449 53.92108 40.17779
# Shear Modulus (GPa) = 17.07177 26.67714 21.87445
#
# Velocity S-wave (km/s) = 2.95517 3.69414 3.34512
# Velocity P-wave (km/s) = 5.01663 6.76600 5.95589
#
# Compressibility (1/GPa) = 0.03782936
#
# Stress axis : x y z
#
# Youngs Moduli (GPa) = 61.24908 13.85103 70.58570
#
# Poissons Ratio (x) = 0.31262 0.13927
# Poissons Ratio (y) = 1.38241 0.55673
# Poissons Ratio (z) = 0.12085 0.10925
#
# Static dielectric constant tensor:
#      x y z
#    x 1.683820 0.000000 0.020110 
#    y 0.000000 1.658300 0.000000 
#    z 0.020110 0.000000 1.700480 
# 
# From -- ./inp_files/295684.got.cif
#   From: 2010.05.17/outbox.cif.g08.bks.cpg/sg12_148_cif.got.tgz:295684.got - 2010.06.03 13:09:07.
