data_PCOD9215545
_publ_section_title
;
Structure prediction by ZEFSAII (Michael W. Deem and Ramdas Pophale) SiO2 
 PCOD9215545
Probable space group: C 2/M
;
_chemical_formula_sum "Si O2"
_cell_formula_units_Z 64
_cell_length_a 20.035057
_cell_length_b 16.989209
_cell_length_c 21.732678
_cell_angle_alpha 90.000000
_cell_angle_beta 22.793516
_cell_angle_gamma 90.000000
_cell_volume 2865.822085
_symmetry_space_group_name_H-M "C 2/M"
_symmetry_group_IT_number 12
_symmetry_cell_setting 'monoclinic'
loop_
_space_group_symop_operation_xyz
x,y,z
-x,y,-z
-x,-y,-z
x,-y,z
1/2+x,1/2+y,z
1/2-x,1/2+y,-z
1/2-x,1/2-y,-z
1/2+x,1/2-y,z
loop_
_atom_site_type_symbol
_atom_site_label
_atom_site_fract_x
_atom_site_fract_y
_atom_site_fract_z
Si Si1 0.549689 0.409277 0.177276
Si Si2 0.252749 0.406704 0.344145
Si Si3 0.981084 0.857900 0.371517
Si Si4 0.193750 0.822426 0.825143
Si Si5 0.804321 0.633454 0.180266
Si Si6 0.658274 0.911861 0.717403
Si Si7 0.618281 0.824974 0.115498
Si Si8 0.000107 0.676860 0.648857
O O1 0.506554 0.500000 0.223985
O O2 0.437891 0.381728 0.214405
O O3 0.503179 0.365323 0.279744
O O4 0.748904 0.396773 0.994872
O O5 0.246669 0.500000 0.338486
O O6 0.223853 0.361705 0.305092
O O7 0.123701 0.382084 0.508137
O O8 0.814332 0.902849 0.537052
O O9 0.157790 0.885810 0.254599
O O10 0.954826 0.765873 0.409525
O O11 0.190891 0.728317 0.819564
O O12 0.308695 0.839413 0.786838
O O13 0.000000 0.851225 0.000000
O O14 0.761762 0.600335 0.283287
O O15 0.000000 0.606562 0.000000
O O16 0.513144 0.844989 0.827974
O O17 0.584261 0.000000 0.775808
O O18 0.505225 0.823969 0.273238
O O19 0.750000 0.750000 0.000000
#
# Coordination Sequence:
#
# PCOD9215545 Si02
#       8
#     8   8   8   8   8   8   8   8
#     4  11  24  42  66  95 133 171 217 279 334 403
#     4  11  25  42  64  97 136 179 224 281 349 404
#     4  11  23  42  67 101 132 178 226 275 336 406
#     4  10  22  41  67  97 132 173 228 288 331 401
#     4  10  23  41  69  98 133 176 228 277 333 401
#     4  12  27  43  65  98 138 177 219 275 338 409
#     4  12  26  43  70  98 129 176 226 279 337 405
#     4  11  24  41  67  98 128 173 227 283 334 403
#
# _framework density 22.332159999999998
#
# number of rings (size 3 to 8) (size 9 to 14) (size 15 to 20)
#    0.000    1.000    1.250    4.500    7.000    8.000 
#    0.000    0.000    0.000    0.000    0.000    0.000 
#    0.000    0.000    0.000    0.000    0.000    0.000 
#
# Total GULP energy -178961.119759 kJ/mol
# GULP energy per Si atom -5592.534992 kJ/mol
# Density = 2.228133 g / cm^3
# Si number density = 22.332160 Si / 1000 Ang^3
#
#
#
# Elastic Constant Matrix: (Units=GPa)
#
#
# Indices 1 2 3 4 5 6 
#
# 1 68.9266 16.5427 -18.0147 -0.0099 -1.2487 -0.0091
# 2 16.5427 34.4556 10.0166 -0.0199 -6.3472 0.0106
# 3 -18.0147 10.0166 45.2806 -0.0390 1.3469 0.0155
# 4 -0.0099 -0.0199 -0.0390 27.6716 0.0066 -13.6543
# 5 -1.2487 -6.3472 1.3469 0.0066 40.8298 0.0064
# 6 -0.0091 0.0106 0.0155 -13.6543 0.0064 -37.4123
#
#
#
# Elastic Compliance Matrix: (Units=1/GPa)
#
#
# Indices 1 2 3 4 5 6 
#
# 1 0.020672 -0.013542 0.011275 0.000010 -0.001845 -0.000008
# 2 -0.013542 0.040967 -0.014642 0.000006 0.006437 0.000008
# 3 0.011275 -0.014642 0.029896 0.000033 -0.002918 -0.000007
# 4 0.000010 0.000006 0.000033 0.030623 -0.000003 -0.011176
# 5 -0.001845 0.006437 -0.002918 -0.000003 0.025532 0.000007
# 6 -0.000008 0.000008 -0.000007 -0.011176 0.000007 -0.022650
#
#
# Mechanical properties :
#
#
# Convention : Reuss Voigt Hill
#
# Bulk Modulus (GPa) = 17.32614 18.41688 17.87151
# Shear Modulus (GPa) = 28.07448 15.55903 21.81675
#
# Velocity S-wave (km/s) = 3.54945 2.64239 3.12896
# Velocity P-wave (km/s) = 4.95715 4.19217 4.59063
#
# Compressibility (1/GPa) = 0.05771625
#
# Stress axis : x y z
#
# Youngs Moduli (GPa) = 48.37506 24.40981 33.44945
#
# Poissons Ratio (x) = 0.33057 -0.37714
# Poissons Ratio (y) = 0.65512 0.48976
# Poissons Ratio (z) = -0.54542 0.35740
#
# Static dielectric constant tensor:
#      x y z
#    x 1.790530 0.000010 -0.027090 
#    y 0.000010 1.837010 0.000020 
#    z -0.027090 0.000020 1.830830 
# 
# From -- ./inp_files/347855.got.cif
#   From: 2010.05.17/outbox.cif.g08.bks.cpg/sg12_174_cif.got.tgz:347855.got - 2010.06.03 13:09:07.
