data_PCOD9215448
_publ_section_title
;
Structure prediction by ZEFSAII (Michael W. Deem and Ramdas Pophale) SiO2 
 PCOD9215448
Probable space group: C 2/M
;
_chemical_formula_sum "Si O2"
_cell_formula_units_Z 56
_cell_length_a 30.350513
_cell_length_b 17.653911
_cell_length_c 9.307061
_cell_angle_alpha 90.000000
_cell_angle_beta 35.316210
_cell_angle_gamma 90.000000
_cell_volume 2882.795664
_symmetry_space_group_name_H-M "C 2/M"
_symmetry_group_IT_number 12
_symmetry_cell_setting 'monoclinic'
loop_
_space_group_symop_operation_xyz
x,y,z
-x,y,-z
-x,-y,-z
x,-y,z
1/2+x,1/2+y,z
1/2-x,1/2+y,-z
1/2-x,1/2-y,-z
1/2+x,1/2-y,z
loop_
_atom_site_type_symbol
_atom_site_label
_atom_site_fract_x
_atom_site_fract_y
_atom_site_fract_z
Si Si1 0.431867 0.302206 0.294297
Si Si2 0.345998 0.320682 0.003168
Si Si3 0.855047 0.089536 0.688071
Si Si4 0.265133 0.910681 0.492820
Si Si5 0.480987 0.214928 0.715339
Si Si6 0.736296 0.680874 0.282633
Si Si7 0.937046 0.411418 0.048357
O O1 0.421252 0.383242 0.401875
O O2 0.448132 0.243430 0.378833
O O3 0.348208 0.287500 0.451538
O O4 0.500000 0.299575 0.000000
O O5 0.297438 0.371195 0.241642
O O6 0.293366 0.248970 0.100200
O O7 0.366618 0.370627 0.810026
O O8 0.420208 0.283506 0.877275
O O9 0.781277 0.127909 0.807951
O O10 0.849146 0.000000 0.715163
O O11 0.264088 0.869238 0.341806
O O12 0.350083 0.902258 0.331549
O O13 0.249702 0.000000 0.516937
O O14 0.500000 0.199652 0.500000
O O15 0.448405 0.142063 0.881957
O O16 0.947545 0.500000 0.984427
O O17 0.000000 0.391065 0.000000
#
# Coordination Sequence:
#
# PCOD9215448 Si02
#       7
#     8   8   8   8   8   8   8
#     4  10  23  39  63  91 123 164 210 254 311 371
#     4  12  23  41  64  96 124 167 212 260 311 384
#     4  10  23  42  63  91 130 163 203 261 319 372
#     4  11  23  40  66  96 126 163 208 264 317 369
#     4  12  23  42  65  94 126 167 215 259 311 377
#     4  10  22  41  66  92 123 163 214 255 306 372
#     4  10  24  43  64  94 130 166 211 263 318 374
#
# _framework density 19.425588000000001
#
# number of rings (size 3 to 8) (size 9 to 14) (size 15 to 20)
#    0.857    0.429    2.857    3.000    4.000    0.571 
#    0.000    2.143    0.000    0.000    0.000    0.000 
#    0.000    0.000    0.000    0.000    0.000    0.000 
#
# Total GULP energy -156280.293098 kJ/mol
# GULP energy per Si atom -5581.439039 kJ/mol
# Density = 1.938137 g / cm^3
# Si number density = 19.425588 Si / 1000 Ang^3
#
#
#
# Elastic Constant Matrix: (Units=GPa)
#
#
# Indices 1 2 3 4 5 6 
#
# 1 77.9312 14.8936 12.2027 0.0000 -1.0251 0.0000
# 2 14.8936 96.0517 19.5830 0.0000 12.9228 0.0000
# 3 12.2027 19.5830 49.0744 0.0000 5.6034 0.0000
# 4 0.0000 0.0000 0.0000 5.4686 0.0000 3.5212
# 5 -1.0251 12.9228 5.6034 0.0000 32.3478 0.0000
# 6 0.0000 0.0000 0.0000 3.5212 0.0000 32.2962
#
#
#
# Elastic Compliance Matrix: (Units=1/GPa)
#
#
# Indices 1 2 3 4 5 6 
#
# 1 0.013638 -0.001747 -0.002880 0.000000 0.001629 0.000000
# 2 -0.001747 0.012039 -0.003891 0.000000 -0.004191 0.000000
# 3 -0.002880 -0.003891 0.022933 0.000000 -0.002509 0.000000
# 4 0.000000 0.000000 0.000000 0.196668 0.000000 -0.021443
# 5 0.001629 -0.004191 -0.002509 0.000000 0.033075 0.000000
# 6 0.000000 0.000000 0.000000 -0.021443 0.000000 0.033301
#
#
# Mechanical properties :
#
#
# Convention : Reuss Voigt Hill
#
# Bulk Modulus (GPa) = 31.67209 35.15732 33.41470
# Shear Modulus (GPa) = 14.73995 25.78105 20.26050
#
# Velocity S-wave (km/s) = 2.75760 3.64699 3.23302
# Velocity P-wave (km/s) = 5.14576 5.98930 5.58349
#
# Compressibility (1/GPa) = 0.03157354
#
# Stress axis : x y z
#
# Youngs Moduli (GPa) = 73.32427 83.06283 43.60580
#
# Poissons Ratio (x) = 0.14508 0.12559
# Poissons Ratio (y) = 0.12807 0.16968
# Poissons Ratio (z) = 0.21119 0.32323
#
# Static dielectric constant tensor:
#      x y z
#    x 1.687960 0.000000 -0.024160 
#    y 0.000000 1.656760 0.000000 
#    z -0.024160 0.000000 1.683650 
# 
# From -- ./inp_files/112617.got.cif
#   From: 2010.05.17/outbox.cif.g08.bks.cpg/sg12_57_cif.got.tgz:112617.got - 2010.06.03 13:09:07.
