data_PCOD9215253
_publ_section_title
;
Structure prediction by ZEFSAII (Michael W. Deem and Ramdas Pophale) SiO2 
 PCOD9215253
Probable space group: C 2/M
;
_chemical_formula_sum "Si O2"
_cell_formula_units_Z 64
_cell_length_a 9.583961
_cell_length_b 18.123838
_cell_length_c 32.099105
_cell_angle_alpha 90.000000
_cell_angle_beta 146.107175
_cell_angle_gamma 90.000000
_cell_volume 3109.159186
_symmetry_space_group_name_H-M "C 2/M"
_symmetry_group_IT_number 12
_symmetry_cell_setting 'monoclinic'
loop_
_space_group_symop_operation_xyz
x,y,z
-x,y,-z
-x,-y,-z
x,-y,z
1/2+x,1/2+y,z
1/2-x,1/2+y,-z
1/2-x,1/2-y,-z
1/2+x,1/2-y,z
loop_
_atom_site_type_symbol
_atom_site_label
_atom_site_fract_x
_atom_site_fract_y
_atom_site_fract_z
Si Si1 0.427409 0.670203 0.174307
Si Si2 0.015358 0.307008 0.306707
Si Si3 0.442707 0.914416 0.440858
Si Si4 0.502398 0.418802 0.888162
Si Si5 0.046972 0.862154 0.721973
Si Si6 0.795944 0.585647 0.574905
Si Si7 0.503301 0.710667 0.050164
Si Si8 0.902785 0.416257 0.742757
O O1 0.371516 0.614303 0.122325
O O2 0.426033 0.637074 0.220971
O O3 0.239144 0.739753 0.124083
O O4 0.712198 0.691345 0.233581
O O5 0.055046 0.219879 0.314054
O O6 0.103934 0.356904 0.366847
O O7 0.151929 0.349016 0.302286
O O8 0.500000 0.880363 0.500000
O O9 0.164206 0.911053 0.353129
O O10 0.613840 0.883956 0.446908
O O11 0.518687 0.000000 0.462876
O O12 0.601969 0.500000 0.920640
O O13 0.520187 0.365692 0.931672
O O14 0.200211 0.423214 0.809185
O O15 0.302929 0.887759 0.762644
O O16 0.500000 0.582185 0.500000
O O17 0.887461 0.500000 0.605070
O O18 0.500000 0.702457 0.000000
O O19 0.250000 0.750000 0.000000
O O20 0.802317 0.500000 0.709559
#
# Coordination Sequence:
#
# PCOD9215253 Si02
#       8
#     8   8   8   8   8   8   8   8
#     4  11  23  44  66  99 135 179 228 271 336 416
#     4  11  22  40  64  95 129 168 221 285 330 399
#     4  10  23  42  61  87 126 171 219 274 339 409
#     4  10  23  44  68  99 135 173 225 283 331 392
#     4  12  23  38  67  97 133 168 225 285 337 400
#     4  10  22  41  64  88 122 175 227 269 341 424
#     4  12  25  44  73 100 134 188 223 272 339 427
#     4  10  23  39  62  94 132 171 214 273 340 400
#
# _framework density 20.584343000000001
#
# number of rings (size 3 to 8) (size 9 to 14) (size 15 to 20)
#    0.000    1.250    2.500    3.750    3.500    2.250 
#    0.000    2.500    0.000    0.000    0.000    0.000 
#    0.000    0.000    0.000    0.000    0.000    0.000 
#
# Total GULP energy -178342.676060 kJ/mol
# GULP energy per Si atom -5573.208627 kJ/mol
# Density = 2.053749 g / cm^3
# Si number density = 20.584343 Si / 1000 Ang^3
#
#
#
# Elastic Constant Matrix: (Units=GPa)
#
#
# Indices 1 2 3 4 5 6 
#
# 1 130.5901 38.1766 23.0612 -0.0003 -39.2092 -0.0001
# 2 38.1766 100.6521 16.5463 0.0002 -8.3462 0.0002
# 3 23.0612 16.5463 56.0481 0.0005 -21.7054 0.0001
# 4 -0.0003 0.0002 0.0005 14.0769 0.0000 6.7652
# 5 -39.2092 -8.3462 -21.7054 0.0000 33.5505 0.0000
# 6 -0.0001 0.0002 0.0001 6.7652 0.0000 3.2942
#
#
#
# Elastic Compliance Matrix: (Units=1/GPa)
#
#
# Indices 1 2 3 4 5 6 
#
# 1 0.013188 -0.004005 0.001786 -0.000002 0.015572 0.000004
# 2 -0.004005 0.011674 -0.003318 0.000014 -0.003922 -0.000029
# 3 0.001786 -0.003318 0.024785 -0.000030 0.017297 0.000061
# 4 -0.000002 0.000014 -0.000030 5.445111 -0.000008-11.182311
# 5 0.015572 -0.003922 0.017297 -0.000008 0.058219 0.000016
# 6 0.000004 -0.000029 0.000061-11.182311 0.000016 23.268032
#
#
# Mechanical properties :
#
#
# Convention : Reuss Voigt Hill
#
# Bulk Modulus (GPa) = 25.92328 49.20651 37.56489
# Shear Modulus (GPa) = 0.17334 24.15141 12.16237
#
# Velocity S-wave (km/s) = 0.29050 3.42905 2.43339
# Velocity P-wave (km/s) = 3.56841 6.29560 5.11704
#
# Compressibility (1/GPa) = 0.03857536
#
# Stress axis : x y z
#
# Youngs Moduli (GPa) = 75.82501 85.65835 40.34761
#
# Poissons Ratio (x) = 0.34303 -0.07208
# Poissons Ratio (y) = 0.30365 0.13386
# Poissons Ratio (z) = -0.13545 0.28419
#
# Static dielectric constant tensor:
#      x y z
#    x 1.740260 0.000000 -0.025310 
#    y 0.000000 1.823400 0.000000 
#    z -0.025310 0.000000 1.791550 
# 
# From -- ./inp_files/373008.got.cif
#   From: 2010.05.17/outbox.cif.g08.bks.cpg/sg12_187_cif.got.tgz:373008.got - 2010.06.03 13:09:07.
