data_PCOD9215136
_publ_section_title
;
Structure prediction by ZEFSAII (Michael W. Deem and Ramdas Pophale) SiO2 
 PCOD9215136
Probable space group: C 2/M
;
_chemical_formula_sum "Si O2"
_cell_formula_units_Z 64
_cell_length_a 34.414310
_cell_length_b 7.924146
_cell_length_c 15.467305
_cell_angle_alpha 90.000000
_cell_angle_beta 140.156298
_cell_angle_gamma 90.000000
_cell_volume 2702.451258
_symmetry_space_group_name_H-M "C 2/M"
_symmetry_group_IT_number 12
_symmetry_cell_setting 'monoclinic'
loop_
_space_group_symop_operation_xyz
x,y,z
-x,y,-z
-x,-y,-z
x,-y,z
1/2+x,1/2+y,z
1/2-x,1/2+y,-z
1/2-x,1/2-y,-z
1/2+x,1/2-y,z
loop_
_atom_site_type_symbol
_atom_site_label
_atom_site_fract_x
_atom_site_fract_y
_atom_site_fract_z
Si Si1 0.430112 0.294305 0.384133
Si Si2 0.909919 0.205887 0.158876
Si Si3 0.802335 0.198351 0.850377
Si Si4 0.057174 0.307392 0.036443
Si Si5 0.480307 0.693279 0.753084
Si Si6 0.349261 0.189120 0.553368
Si Si7 0.825219 0.808283 0.328068
Si Si8 0.182313 0.805817 0.315614
O O1 0.500000 0.235026 0.500000
O O2 0.433829 0.500000 0.397932
O O3 0.398477 0.251379 0.238797
O O4 0.384981 0.236499 0.383249
O O5 0.979542 0.260158 0.257727
O O6 0.910952 0.000000 0.155008
O O7 0.858309 0.266979 0.003486
O O8 0.739404 0.219345 0.793223
O O9 0.794911 0.266258 0.738495
O O10 0.814520 0.000000 0.858356
O O11 0.076003 0.500000 0.046059
O O12 0.110499 0.210801 0.174682
O O13 0.032356 0.202552 0.914185
O O14 0.000000 0.321608 0.000000
O O15 0.461518 0.500000 0.705650
O O16 0.422210 0.794871 0.686626
O O17 0.336126 0.304862 0.449427
O O18 0.313819 0.225492 0.581970
O O19 0.333789 0.000000 0.499817
O O20 0.817634 0.000000 0.285120
O O21 0.200157 0.000000 0.354787
#
# Coordination Sequence:
#
# PCOD9215136 Si02
#       8
#     8   8   8   8   8   8   8   8
#     4   9  18  36  65  97 126 154 196 252 303 361
#     4   9  18  35  61  93 125 162 205 250 304 360
#     4  10  22  41  62  88 123 164 204 252 308 359
#     4  11  21  32  50  83 125 163 198 249 311 360
#     4  11  20  34  59  89 121 160 205 251 299 365
#     4  12  25  40  59  87 122 164 204 258 321 366
#     4  11  24  42  64  91 118 158 208 254 305 368
#     4  11  22  38  60  86 117 162 214 256 299 363
#
# _framework density 23.682202
#
# number of rings (size 3 to 8) (size 9 to 14) (size 15 to 20)
#    0.000    1.500    2.500    3.375    0.000    4.500 
#    0.000    0.000    0.000    9.000    0.000    0.000 
#    0.000    0.000    0.000    0.000    0.000    0.000 
#
# Total GULP energy -178637.079605 kJ/mol
# GULP energy per Si atom -5582.408738 kJ/mol
# Density = 2.362830 g / cm^3
# Si number density = 23.682202 Si / 1000 Ang^3
#
#
#
# Elastic Constant Matrix: (Units=GPa)
#
#
# Indices 1 2 3 4 5 6 
#
# 1 179.3266 14.2384 59.3355 0.0000 13.6573 0.0000
# 2 14.2384 48.1399 6.9315 0.0000 6.7039 0.0000
# 3 59.3355 6.9315 82.0924 0.0000 3.1183 0.0000
# 4 0.0000 0.0000 0.0000 0.5308 0.0000 12.6119
# 5 13.6573 6.7039 3.1183 0.0000 33.8651 0.0000
# 6 0.0000 0.0000 0.0000 12.6119 0.0000 18.3031
#
#
#
# Elastic Compliance Matrix: (Units=1/GPa)
#
#
# Indices 1 2 3 4 5 6 
#
# 1 0.007604 -0.001158 -0.005309 0.000000 -0.002349 0.000000
# 2 -0.001158 0.021763 -0.000858 0.000000 -0.003762 0.000000
# 3 -0.005309 -0.000858 0.016060 0.000000 0.000832 0.000000
# 4 0.000000 0.000000 0.000000 -0.122555 0.000000 0.084448
# 5 -0.002349 -0.003762 0.000832 0.000000 0.031144 0.000000
# 6 0.000000 0.000000 0.000000 0.084448 0.000000 -0.003554
#
#
# Mechanical properties :
#
#
# Convention : Reuss Voigt Hill
#
# Bulk Modulus (GPa) = 32.49187 52.28555 42.38871
# Shear Modulus (GPa) = -202.99823 25.81001 -88.59411
#
# Velocity S-wave (km/s) = -9.26843 3.30487 -6.12297
# Velocity P-wave (km/s) = 10.03935 6.05713 5.66126
#
# Compressibility (1/GPa) = 0.03077693
#
# Stress axis : x y z
#
# Youngs Moduli (GPa) = 131.51262 45.95037 62.26826
#
# Poissons Ratio (x) = 0.05319 0.33058
# Poissons Ratio (y) = 0.15223 0.05343
# Poissons Ratio (z) = 0.69820 0.03942
#
# Static dielectric constant tensor:
#      x y z
#    x 1.970360 0.000000 -0.011560 
#    y 0.000000 1.869590 0.000000 
#    z -0.011560 0.000000 1.934620 
# 
# From -- ./inp_files/250043.got.cif
#   From: 2010.05.17/outbox.cif.g08.bks.cpg/sg12_126_cif.got.tgz:250043.got - 2010.06.03 13:09:07.
