data_PCOD9215299
_publ_section_title
;
Structure prediction by ZEFSAII (Michael W. Deem and Ramdas Pophale) SiO2 
 PCOD9215299
Probable space group: C 2/M
;
_chemical_formula_sum "Si O2"
_cell_formula_units_Z 40
_cell_length_a 9.664288
_cell_length_b 25.809652
_cell_length_c 10.980832
_cell_angle_alpha 90.000000
_cell_angle_beta 51.044249
_cell_angle_gamma 90.000000
_cell_volume 2129.909951
_symmetry_space_group_name_H-M "C 2/M"
_symmetry_group_IT_number 12
_symmetry_cell_setting 'monoclinic'
loop_
_space_group_symop_operation_xyz
x,y,z
-x,y,-z
-x,-y,-z
x,-y,z
1/2+x,1/2+y,z
1/2-x,1/2+y,-z
1/2-x,1/2-y,-z
1/2+x,1/2-y,z
loop_
_atom_site_type_symbol
_atom_site_label
_atom_site_fract_x
_atom_site_fract_y
_atom_site_fract_z
Si Si1 0.873459 0.792851 0.185662
Si Si2 0.411228 0.294206 0.680881
Si Si3 0.793700 0.599858 0.650206
Si Si4 0.707243 0.000000 0.914999
Si Si5 0.708618 0.500000 0.857180
Si Si6 0.541564 0.586336 0.340662
O O1 0.758973 0.742255 0.219362
O O2 0.753668 0.844278 0.267197
O O3 0.971673 0.784982 0.261880
O O4 0.000000 0.802246 0.000000
O O5 0.500000 0.282089 0.500000
O O6 0.377614 0.355808 0.697883
O O7 0.760414 0.551639 0.757127
O O8 0.647598 0.591181 0.624239
O O9 0.000000 0.599646 0.500000
O O10 0.820949 0.951196 0.802710
O O11 0.500000 0.000000 0.000000
O O12 0.704178 0.000000 0.060930
O O13 0.500000 0.500000 0.000000
O O14 0.500000 0.567981 0.500000
#
# Coordination Sequence:
#
# PCOD9215299 Si02
#       6
#     8   8   8   4   4   8
#     4  11  23  40  64  97 130 165 214 268 319 371
#     4  10  22  41  64  92 128 171 212 257 317 384
#     4  11  24  41  68  93 123 172 216 259 314 381
#     4  12  27  42  64  96 129 166 204 263 326 378
#     4  12  23  44  66  92 129 162 212 268 314 374
#     4  10  23  43  64  92 131 167 211 259 312 381
#
# _framework density 18.780137
#
# number of rings (size 3 to 8) (size 9 to 14) (size 15 to 20)
#    0.000    1.200    2.000    3.000    5.600    4.000 
#    0.000    0.000    0.000    0.000    0.000    0.000 
#    0.000    0.000    0.000    0.000    0.000    0.000 
#
# Total GULP energy -111671.066375 kJ/mol
# GULP energy per Si atom -5583.553319 kJ/mol
# Density = 1.873739 g / cm^3
# Si number density = 18.780137 Si / 1000 Ang^3
#
#
#
# Elastic Constant Matrix: (Units=GPa)
#
#
# Indices 1 2 3 4 5 6 
#
# 1 113.4610 51.2395 69.1549 0.0000 6.1763 0.0000
# 2 51.2395 95.2778 64.3366 0.0000 -0.9051 0.0000
# 3 69.1549 64.3366 147.4624 0.0000 -6.8879 0.0000
# 4 0.0000 0.0000 0.0000 40.1772 0.0000 -13.2938
# 5 6.1763 -0.9051 -6.8879 0.0000 39.5876 0.0000
# 6 0.0000 0.0000 0.0000 -13.2938 0.0000 41.6742
#
#
#
# Elastic Compliance Matrix: (Units=1/GPa)
#
#
# Indices 1 2 3 4 5 6 
#
# 1 0.013798 -0.004229 -0.004770 0.000000 -0.003079 0.000000
# 2 -0.004229 0.016200 -0.005078 0.000000 0.000147 0.000000
# 3 -0.004770 -0.005078 0.011355 0.000000 0.002604 0.000000
# 4 0.000000 0.000000 0.000000 0.027827 0.000000 0.008877
# 5 -0.003079 0.000147 0.002604 0.000000 0.026197 0.000000
# 6 0.000000 0.000000 0.000000 0.008877 0.000000 0.026827
#
#
# Mechanical properties :
#
#
# Convention : Reuss Voigt Hill
#
# Bulk Modulus (GPa) = 75.75466 80.62925 78.19196
# Shear Modulus (GPa) = 32.30845 35.71915 34.01380
#
# Velocity S-wave (km/s) = 4.15221 4.36588 4.26039
# Velocity P-wave (km/s) = 7.96323 8.27291 8.11955
#
# Compressibility (1/GPa) = 0.01320051
#
# Stress axis : x y z
#
# Youngs Moduli (GPa) = 72.47330 61.72748 88.06519
#
# Poissons Ratio (x) = 0.26105 0.42003
# Poissons Ratio (y) = 0.30650 0.44718
# Poissons Ratio (z) = 0.34567 0.31344
#
# Static dielectric constant tensor:
#      x y z
#    x 1.502210 0.000000 0.061420 
#    y 0.000000 1.628630 0.000000 
#    z 0.061420 0.000000 1.621950 
# 
# From -- ./inp_files/79331.got.cif
#   From: 2010.05.17/outbox.cif.g08.bks.cpg/sg12_40_cif.got.tgz:79331.got - 2010.06.03 13:09:07.
