data_PCOD9215584
_publ_section_title
;
Structure prediction by ZEFSAII (Michael W. Deem and Ramdas Pophale) SiO2 
 PCOD9215584
Probable space group: C 2/M
;
_chemical_formula_sum "Si O2"
_cell_formula_units_Z 48
_cell_length_a 18.590133
_cell_length_b 29.879961
_cell_length_c 9.214261
_cell_angle_alpha 90.000000
_cell_angle_beta 150.690834
_cell_angle_gamma 90.000000
_cell_volume 2505.504625
_symmetry_space_group_name_H-M "C 2/M"
_symmetry_group_IT_number 12
_symmetry_cell_setting 'monoclinic'
loop_
_space_group_symop_operation_xyz
x,y,z
-x,y,-z
-x,-y,-z
x,-y,z
1/2+x,1/2+y,z
1/2-x,1/2+y,-z
1/2-x,1/2-y,-z
1/2+x,1/2-y,z
loop_
_atom_site_type_symbol
_atom_site_label
_atom_site_fract_x
_atom_site_fract_y
_atom_site_fract_z
Si Si1 0.453037 0.798268 0.755207
Si Si2 0.613065 0.372012 0.829181
Si Si3 0.878096 0.053602 0.909924
Si Si4 0.958974 0.550117 0.760331
Si Si5 0.081834 0.623972 0.787222
Si Si6 0.609849 0.703866 0.066192
O O1 0.506666 0.833376 0.729780
O O2 0.277103 0.792153 0.422211
O O3 0.500000 0.814749 0.000000
O O4 0.542029 0.751671 0.899244
O O5 0.500000 0.373784 0.500000
O O6 0.603745 0.416049 0.915073
O O7 0.761372 0.365749 0.000104
O O8 0.602084 0.330707 0.920983
O O9 0.711983 0.063384 0.561620
O O10 0.888271 0.000000 0.956597
O O11 0.000000 0.063843 0.000000
O O12 0.974952 0.500000 0.728070
O O13 0.068077 0.584213 0.876330
O O14 0.000000 0.549200 0.000000
O O15 0.000000 0.607839 0.500000
O O16 0.500000 0.687930 0.000000
#
# Coordination Sequence:
#
# PCOD9215584 Si02
#       6
#     8   8   8   8   8   8
#     4  11  24  42  69  92 123 166 207 258 306 364
#     4  12  28  41  62  94 128 168 204 255 316 369
#     4  10  22  43  66  91 126 165 209 256 304 366
#     4  10  22  41  68  94 121 165 211 254 305 367
#     4  12  24  43  61  93 130 162 206 257 313 368
#     4  11  24  44  66  93 124 163 213 255 304 368
#
# _framework density 19.157817000000001
#
# number of rings (size 3 to 8) (size 9 to 14) (size 15 to 20)
#    0.000    1.000    3.333    3.000    7.000    2.667 
#    0.000    0.000    0.000    0.000    0.000    0.000 
#    0.000    0.000    0.000    0.000    0.000    0.000 
#
# Total GULP energy -133955.100461 kJ/mol
# GULP energy per Si atom -5581.462519 kJ/mol
# Density = 1.911421 g / cm^3
# Si number density = 19.157817 Si / 1000 Ang^3
#
#
#
# Elastic Constant Matrix: (Units=GPa)
#
#
# Indices 1 2 3 4 5 6 
#
# 1 132.6512 69.7746 31.5053 0.0000 10.3930 0.0000
# 2 69.7746 68.0432 19.6311 0.0000 -3.5745 0.0000
# 3 31.5053 19.6311 90.2632 0.0000 -12.0130 0.0000
# 4 0.0000 0.0000 0.0000 7.0757 0.0000 24.7653
# 5 10.3930 -3.5745 -12.0130 0.0000 34.8405 0.0000
# 6 0.0000 0.0000 0.0000 24.7653 0.0000 -184.7365
#
#
#
# Elastic Compliance Matrix: (Units=1/GPa)
#
#
# Indices 1 2 3 4 5 6 
#
# 1 0.019117 -0.018997 -0.003731 0.000000 -0.008938 0.000000
# 2 -0.018997 0.034565 0.000356 0.000000 0.009336 0.000000
# 3 -0.003731 0.000356 0.013056 0.000000 0.005651 0.000000
# 4 0.000000 0.000000 0.000000 0.096194 0.000000 0.012896
# 5 -0.008938 0.009336 0.005651 0.000000 0.034275 0.000000
# 6 0.000000 0.000000 0.000000 0.012896 0.000000 -0.003684
#
#
# Mechanical properties :
#
#
# Convention : Reuss Voigt Hill
#
# Bulk Modulus (GPa) = 45.46722 59.19775 52.33248
# Shear Modulus (GPa) = 20.35859 -17.22762 1.56548
#
# Velocity S-wave (km/s) = 3.26341 -3.00200 0.90494
# Velocity P-wave (km/s) = 6.16314 4.35329 5.33551
#
# Compressibility (1/GPa) = 0.02199387
#
# Stress axis : x y z
#
# Youngs Moduli (GPa) = 52.30867 28.93128 76.59575
#
# Poissons Ratio (x) = 0.54961 0.28575
# Poissons Ratio (y) = 0.99371 -0.02725
# Poissons Ratio (z) = 0.19514 -0.01029
#
# Static dielectric constant tensor:
#      x y z
#    x 1.563080 0.000000 0.001000 
#    y 0.000000 1.666810 0.000000 
#    z 0.001000 0.000000 1.635040 
# 
# From -- ./inp_files/80825.got.cif
#   From: 2010.05.17/outbox.cif.g08.bks.cpg/sg12_41_cif.got.tgz:80825.got - 2010.06.03 13:09:07.
