data_PCOD9215192
_publ_section_title
;
Structure prediction by ZEFSAII (Michael W. Deem and Ramdas Pophale) SiO2 
 PCOD9215192
Probable space group: C 2/M
;
_chemical_formula_sum "Si O2"
_cell_formula_units_Z 34
_cell_length_a 24.184183
_cell_length_b 10.079412
_cell_length_c 12.040613
_cell_angle_alpha 90.000000
_cell_angle_beta 144.725378
_cell_angle_gamma 90.000000
_cell_volume 1694.978733
_symmetry_space_group_name_H-M "C 2/M"
_symmetry_group_IT_number 12
_symmetry_cell_setting 'monoclinic'
loop_
_space_group_symop_operation_xyz
x,y,z
-x,y,-z
-x,-y,-z
x,-y,z
1/2+x,1/2+y,z
1/2-x,1/2+y,-z
1/2-x,1/2-y,-z
1/2+x,1/2-y,z
loop_
_atom_site_type_symbol
_atom_site_label
_atom_site_fract_x
_atom_site_fract_y
_atom_site_fract_z
Si Si1 0.262081 0.500000 0.615326
Si Si2 0.549936 0.000000 0.362803
Si Si3 0.382363 0.000000 0.906721
Si Si4 0.587143 0.709423 0.068403
Si Si5 0.500000 0.500000 0.500000
Si Si6 0.178298 0.000000 0.543308
Si Si7 0.515849 0.706443 0.336249
O O1 0.151812 0.500000 0.467483
O O2 0.317767 0.626348 0.756359
O O3 0.283580 0.500000 0.519482
O O4 0.538813 0.858502 0.405169
O O5 0.464069 0.000000 0.132969
O O6 0.395101 0.861063 0.865211
O O7 0.273869 0.000000 0.774367
O O8 0.500000 0.655583 0.000000
O O9 0.552110 0.705576 0.883846
O O10 0.474901 0.616664 0.366905
O O11 0.112791 0.872334 0.459852
#
# Coordination Sequence:
#
# PCOD9215192 Si02
#       7
#     4   4   4   8   2   4   8
#     4  12  22  33  58  88 129 163 197 234 298 352
#     4  10  24  39  57  90 123 160 198 250 288 359
#     4  10  24  35  53  83 133 161 197 231 298 350
#     4  11  21  37  57  88 123 160 193 246 291 363
#     4  10  22  42  70  86 112 158 198 258 300 356
#     4  11  21  35  57  88 126 168 195 237 285 369
#     4  10  22  41  63  89 120 155 205 242 302 347
#
# _framework density 20.059248
#
# number of rings (size 3 to 8) (size 9 to 14) (size 15 to 20)
#    0.000    1.412    2.353    3.529    6.588    2.353 
#    0.000    0.000    0.000   50.824    0.000    0.000 
#    0.000    0.000    0.000    0.000    0.000    0.000 
#
# Total GULP energy -94647.636054 kJ/mol
# GULP energy per Si atom -5567.508003 kJ/mol
# Density = 2.001359 g / cm^3
# Si number density = 20.059248 Si / 1000 Ang^3
#
#
#
# Elastic Constant Matrix: (Units=GPa)
#
#
# Indices 1 2 3 4 5 6 
#
# 1 -2.2596 15.2743 13.6361 0.0000 -16.5393 0.0000
# 2 15.2743 196.2997 39.0655 0.0000 0.0441 0.0000
# 3 13.6361 39.0655 109.0429 0.0000 15.4795 0.0000
# 4 0.0000 0.0000 0.0000-1247.1109 0.0000 1518.7425
# 5 -16.5393 0.0441 15.4795 0.0000 32.2751 0.0000
# 6 0.0000 0.0000 0.0000 1518.7425 0.0000-1811.3169
#
#
#
# Elastic Compliance Matrix: (Units=1/GPa)
#
#
# Indices 1 2 3 4 5 6 
#
# 1 -0.064168 0.002481 0.012666 0.000000 -0.038961 0.000000
# 2 0.002481 0.005420 -0.002609 0.000000 0.002515 0.000000
# 3 0.012666 -0.002609 0.008155 0.000000 0.002583 0.000000
# 4 0.000000 0.000000 0.000000 0.038000 0.000000 0.031862
# 5 -0.038961 0.002515 0.002583 0.000000 0.009776 0.000000
# 6 0.000000 0.000000 0.000000 0.031862 0.000000 0.026164
#
#
# Mechanical properties :
#
#
# Convention : Reuss Voigt Hill
#
# Bulk Modulus (GPa) = -39.18987 48.78165 4.79589
# Shear Modulus (GPa) = -488.46958 -589.55672 -539.01315
#
# Velocity S-wave (km/s) = -15.62185 -17.16233 -16.41018
# Velocity P-wave (km/s) = 18.57334 19.19260 18.88551
#
# Compressibility (1/GPa) = -0.02551680
#
# Stress axis : x y z
#
# Youngs Moduli (GPa) = -15.58406 184.50666 122.62838
#
# Poissons Ratio (x) = -0.45776 -1.55326
# Poissons Ratio (y) = 0.03866 0.31994
# Poissons Ratio (z) = 0.19739 0.48138
#
# Static dielectric constant tensor:
#      x y z
#    x 1.698320 0.000000 0.011880 
#    y 0.000000 1.775560 0.000000 
#    z 0.011880 0.000000 1.727990 
# 
# From -- ./inp_files/175078.got.cif
#   From: 2010.05.17/outbox.cif.g08.bks.cpg/sg12_88_cif.got.tgz:175078.got - 2010.06.03 13:09:07.
