data_PCOD9215662
_publ_section_title
;
Structure prediction by ZEFSAII (Michael W. Deem and Ramdas Pophale) SiO2 
 PCOD9215662
Probable space group: C 2/M
;
_chemical_formula_sum "Si O2"
_cell_formula_units_Z 42
_cell_length_a 27.154465
_cell_length_b 14.394559
_cell_length_c 13.006863
_cell_angle_alpha 90.000000
_cell_angle_beta 160.156151
_cell_angle_gamma 90.000000
_cell_volume 1725.830274
_symmetry_space_group_name_H-M "C 2/M"
_symmetry_group_IT_number 12
_symmetry_cell_setting 'monoclinic'
loop_
_space_group_symop_operation_xyz
x,y,z
-x,y,-z
-x,-y,-z
x,-y,z
1/2+x,1/2+y,z
1/2-x,1/2+y,-z
1/2-x,1/2-y,-z
1/2+x,1/2-y,z
loop_
_atom_site_type_symbol
_atom_site_label
_atom_site_fract_x
_atom_site_fract_y
_atom_site_fract_z
Si Si1 0.002603 0.855168 0.895156
Si Si2 0.701575 0.102500 0.876475
Si Si3 0.987467 0.899215 0.308890
Si Si4 0.972985 0.311584 0.293712
Si Si5 0.500000 0.000000 0.000000
Si Si6 0.161105 0.664695 0.192038
O O1 0.834799 0.836332 0.536837
O O2 0.065962 0.899660 0.915179
O O3 0.000000 0.904615 0.000000
O O4 0.098929 0.763934 0.105086
O O5 0.649342 0.175866 0.858590
O O6 0.601682 0.121873 0.581564
O O7 0.669425 0.000000 0.855221
O O8 0.862790 0.101912 0.150218
O O9 0.039705 0.792464 0.421120
O O10 0.066467 0.000000 0.476108
O O11 0.900912 0.340467 0.045665
O O12 0.402665 0.081678 0.866139
#
# Coordination Sequence:
#
# PCOD9215662 Si02
#       6
#     8   8   8   8   2   8
#     4  11  25  49  74  99 142 190 238 291 361 425
#     4  10  22  44  70 106 135 190 240 284 351 427
#     4  10  24  42  66  99 140 183 235 287 351 424
#     4  10  22  41  74  95 143 184 235 293 350 418
#     4  12  28  44  74 114 144 176 244 294 358 408
#     4  11  27  46  73 106 142 187 234 296 354 428
#
# _framework density 24.336113000000001
#
# number of rings (size 3 to 8) (size 9 to 14) (size 15 to 20)
#    0.000    1.524    0.952    2.286   14.667    0.381 
#    3.429    1.905    0.000    0.000    0.000    0.000 
#    0.000    0.000    0.000    0.000    0.000    0.000 
#
# Total GULP energy -117021.340331 kJ/mol
# GULP energy per Si atom -5572.444778 kJ/mol
# Density = 2.428072 g / cm^3
# Si number density = 24.336113 Si / 1000 Ang^3
#
#
#
# Elastic Constant Matrix: (Units=GPa)
#
#
# Indices 1 2 3 4 5 6 
#
# 1 102.7615 21.3899 15.2896 0.0000 8.1708 0.0000
# 2 21.3899 174.0711 7.6776 0.0000 13.2864 0.0000
# 3 15.2896 7.6776 84.0467 0.0000 -2.7387 0.0000
# 4 0.0000 0.0000 0.0000 -8.8322 0.0000 -9.6930
# 5 8.1708 13.2864 -2.7387 0.0000 36.2932 0.0000
# 6 0.0000 0.0000 0.0000 -9.6930 0.0000 -10.2742
#
#
#
# Elastic Compliance Matrix: (Units=1/GPa)
#
#
# Indices 1 2 3 4 5 6 
#
# 1 0.010391 -0.001034 -0.001864 0.000000 -0.002101 0.000000
# 2 -0.001034 0.006044 -0.000430 0.000000 -0.002012 0.000000
# 3 -0.001864 -0.000430 0.012326 0.000000 0.001507 0.000000
# 4 0.000000 0.000000 0.000000 3.201423 0.000000 -3.020300
# 5 -0.002101 -0.002012 0.001507 0.000000 0.028877 0.000000
# 6 0.000000 0.000000 0.000000 -3.020300 0.000000 2.752094
#
#
# Mechanical properties :
#
#
# Convention : Reuss Voigt Hill
#
# Bulk Modulus (GPa) = 45.23898 49.95484 47.59691
# Shear Modulus (GPa) = 0.82985 24.53884 12.68434
#
# Velocity S-wave (km/s) = 0.58458 3.17887 2.28549
# Velocity P-wave (km/s) = 4.36867 5.83483 5.15415
#
# Compressibility (1/GPa) = 0.02210483
#
# Stress axis : x y z
#
# Youngs Moduli (GPa) = 96.23696 165.44215 81.13167
#
# Poissons Ratio (x) = 0.17110 0.15125
# Poissons Ratio (y) = 0.09953 0.03485
# Poissons Ratio (z) = 0.17942 0.07107
#
# Static dielectric constant tensor:
#      x y z
#    x 1.968950 0.000000 -0.004540 
#    y 0.000000 1.958750 0.000000 
#    z -0.004540 0.000000 1.938510 
# 
# From -- ./inp_files/251351.got.cif
#   From: 2010.05.17/outbox.cif.g08.bks.cpg/sg12_126_cif.got.tgz:251351.got - 2010.06.03 13:09:07.
