data_PCOD9215047
_publ_section_title
;
Structure prediction by ZEFSAII (Michael W. Deem and Ramdas Pophale) SiO2 
 PCOD9215047
Probable space group: C 2/M
;
_chemical_formula_sum "Si O2"
_cell_formula_units_Z 52
_cell_length_a 20.977504
_cell_length_b 22.291515
_cell_length_c 5.146618
_cell_angle_alpha 90.000000
_cell_angle_beta 79.364698
_cell_angle_gamma 90.000000
_cell_volume 2365.321198
_symmetry_space_group_name_H-M "C 2/M"
_symmetry_group_IT_number 12
_symmetry_cell_setting 'monoclinic'
loop_
_space_group_symop_operation_xyz
x,y,z
-x,y,-z
-x,-y,-z
x,-y,z
1/2+x,1/2+y,z
1/2-x,1/2+y,-z
1/2-x,1/2-y,-z
1/2+x,1/2-y,z
loop_
_atom_site_type_symbol
_atom_site_label
_atom_site_fract_x
_atom_site_fract_y
_atom_site_fract_z
Si Si1 0.600165 0.000000 0.381286
Si Si2 0.040483 0.623141 0.231171
Si Si3 0.646864 0.435328 0.933618
Si Si4 0.170813 0.685201 0.176226
Si Si5 0.315494 0.000000 0.174934
Si Si6 0.743185 0.105095 0.479260
Si Si7 0.686766 0.677194 0.202904
Si Si8 0.453594 0.500000 0.283983
O O1 0.562099 0.059416 0.332835
O O2 0.625160 0.000000 0.658506
O O3 0.660100 0.000000 0.134879
O O4 0.106024 0.658308 0.104541
O O5 0.000000 0.652868 0.500000
O O6 0.000000 0.615279 0.000000
O O7 0.639950 0.500000 0.085711
O O8 0.718595 0.433211 0.760441
O O9 0.595078 0.443994 0.737337
O O10 0.643555 0.374122 0.098245
O O11 0.183333 0.643242 0.418293
O O12 0.160949 0.755701 0.227359
O O13 0.240275 0.679530 0.977930
O O14 0.276565 0.940200 0.279635
O O15 0.796721 0.153434 0.524782
O O16 0.500000 0.500000 0.500000
O O17 0.500000 0.500000 0.000000
#
# Coordination Sequence:
#
# PCOD9215047 Si02
#       8
#     4   8   8   8   4   8   8   4
#     4  12  24  43  62 100 127 181 225 272 324 390
#     4  12  26  45  69  93 138 182 227 279 322 399
#     4   9  22  37  61  99 129 166 218 273 340 397
#     4  10  23  43  63  96 128 173 231 265 348 396
#     4  12  23  34  68 100 139 162 221 277 334 396
#     4  11  21  36  64 100 131 170 208 291 341 397
#     4  10  22  40  70  94 130 171 215 289 337 407
#     4  10  23  41  68  92 136 182 214 262 330 404
#
# _framework density 21.984328999999999
#
# number of rings (size 3 to 8) (size 9 to 14) (size 15 to 20)
#    0.462    0.923    2.308    2.769    7.538    0.000 
#    0.000    0.769    0.000    0.000    0.000    0.000 
#    0.000    0.000    0.000    0.000    0.000    0.000 
#
# Total GULP energy -145102.136485 kJ/mol
# GULP energy per Si atom -5580.851403 kJ/mol
# Density = 2.193429 g / cm^3
# Si number density = 21.984329 Si / 1000 Ang^3
#
#
#
# Elastic Constant Matrix: (Units=GPa)
#
#
# Indices 1 2 3 4 5 6 
#
# 1 123.4716 56.0121 27.6805 0.0000 32.1273 0.0000
# 2 56.0121 152.4029 1.0528 0.0000 14.9156 0.0000
# 3 27.6805 1.0528 54.7420 0.0000 10.3571 0.0000
# 4 0.0000 0.0000 0.0000 11.6093 0.0000 -2.6564
# 5 32.1273 14.9156 10.3571 0.0000 46.0871 0.0000
# 6 0.0000 0.0000 0.0000 -2.6564 0.0000 1.6551
#
#
#
# Elastic Compliance Matrix: (Units=1/GPa)
#
#
# Indices 1 2 3 4 5 6 
#
# 1 0.012752 -0.004022 -0.005154 0.000000 -0.006429 0.000000
# 2 -0.004022 0.008049 0.001923 0.000000 -0.000234 0.000000
# 3 -0.005154 0.001923 0.021175 0.000000 -0.001788 0.000000
# 4 0.000000 0.000000 0.000000 0.136132 0.000000 0.218492
# 5 -0.006429 -0.000234 -0.001788 0.000000 0.026657 0.000000
# 6 0.000000 0.000000 0.000000 0.218492 0.000000 0.954883
#
#
# Mechanical properties :
#
#
# Convention : Reuss Voigt Hill
#
# Bulk Modulus (GPa) = 36.40311 55.56747 45.98529
# Shear Modulus (GPa) = 4.22543 28.26168 16.24355
#
# Velocity S-wave (km/s) = 1.38787 3.58933 2.72116
# Velocity P-wave (km/s) = 4.37754 6.51986 5.55299
#
# Compressibility (1/GPa) = 0.02747018
#
# Stress axis : x y z
#
# Youngs Moduli (GPa) = 78.41929 124.23493 47.22528
#
# Poissons Ratio (x) = 0.49965 0.24341
# Poissons Ratio (y) = 0.31539 -0.09082
# Poissons Ratio (z) = 0.40420 -0.23891
#
# Static dielectric constant tensor:
#      x y z
#    x 1.844650 0.000000 0.004700 
#    y 0.000000 1.801180 0.000000 
#    z 0.004700 0.000000 1.886990 
# 
# From -- ./inp_files/21199.got.cif
#   From: 2010.05.17/outbox.cif.g08.bks.cpg/sg12_11_cif.got.tgz:21199.got - 2010.06.03 13:09:07.
