data_PCOD9215570
_publ_section_title
;
Structure prediction by ZEFSAII (Michael W. Deem and Ramdas Pophale) SiO2 
 PCOD9215570
Probable space group: C 2/M
;
_chemical_formula_sum "Si O2"
_cell_formula_units_Z 56
_cell_length_a 10.619856
_cell_length_b 16.650664
_cell_length_c 14.547018
_cell_angle_alpha 90.000000
_cell_angle_beta 89.791425
_cell_angle_gamma 90.000000
_cell_volume 2572.298021
_symmetry_space_group_name_H-M "C 2/M"
_symmetry_group_IT_number 12
_symmetry_cell_setting 'monoclinic'
loop_
_space_group_symop_operation_xyz
x,y,z
-x,y,-z
-x,-y,-z
x,-y,z
1/2+x,1/2+y,z
1/2-x,1/2+y,-z
1/2-x,1/2-y,-z
1/2+x,1/2-y,z
loop_
_atom_site_type_symbol
_atom_site_label
_atom_site_fract_x
_atom_site_fract_y
_atom_site_fract_z
Si Si1 0.777995 0.090976 0.368872
Si Si2 0.959291 0.909374 0.106470
Si Si3 0.562570 0.089858 0.898396
Si Si4 0.087188 0.677214 0.243102
Si Si5 0.470338 0.659145 0.720009
Si Si6 0.644952 0.685306 0.467813
Si Si7 0.214198 0.247534 0.893838
O O1 0.668390 0.146568 0.327872
O O2 0.811297 0.108403 0.474097
O O3 0.907311 0.112219 0.316432
O O4 0.742315 0.000000 0.353210
O O5 0.867927 0.833357 0.117330
O O6 0.060904 0.887648 0.185208
O O7 0.909647 0.000000 0.122907
O O8 0.000000 0.907398 0.000000
O O9 0.461173 0.103595 0.817806
O O10 0.650572 0.166213 0.881287
O O11 0.617247 0.000000 0.894664
O O12 0.500000 0.098922 0.000000
O O13 0.989089 0.746430 0.271943
O O14 0.171906 0.730734 0.174392
O O15 0.366094 0.664436 0.639995
O O16 0.500000 0.706526 0.500000
O O17 0.750000 0.750000 0.500000
O O18 0.250000 0.250000 0.000000
#
# Coordination Sequence:
#
# PCOD9215570 Si02
#       7
#     8   8   8   8   8   8   8
#     4  11  23  40  66  99 127 162 217 276 328 392
#     4  11  23  39  59  88 128 172 215 269 329 391
#     4  11  23  39  58  85 120 162 214 267 313 378
#     4  12  21  38  65  88 121 171 207 264 332 387
#     4  11  22  39  65  93 129 165 216 268 328 389
#     4  10  22  41  68 101 130 175 220 277 340 406
#     4  12  23  38  61  86 124 167 220 260 322 390
#
# _framework density 21.770416000000001
#
# number of rings (size 3 to 8) (size 9 to 14) (size 15 to 20)
#    0.000    0.857    5.714    2.143    0.000    4.286 
#    0.000    1.429    0.000    0.429    0.000    0.000 
#    0.000    0.000    0.000    0.000    0.000    0.000 
#
# Total GULP energy -156165.835761 kJ/mol
# GULP energy per Si atom -5577.351277 kJ/mol
# Density = 2.172087 g / cm^3
# Si number density = 21.770416 Si / 1000 Ang^3
#
#
#
# Elastic Constant Matrix: (Units=GPa)
#
#
# Indices 1 2 3 4 5 6 
#
# 1 37.9662 25.1703 7.1331 0.0000 16.1684 0.0000
# 2 25.1703 156.9985 25.8524 0.0000 6.8506 0.0000
# 3 7.1331 25.8524 137.2395 0.0000 40.8297 0.0000
# 4 0.0000 0.0000 0.0000 20.8174 0.0000 1.3575
# 5 16.1684 6.8506 40.8297 0.0000 30.8124 0.0000
# 6 0.0000 0.0000 0.0000 1.3575 0.0000 19.2287
#
#
#
# Elastic Compliance Matrix: (Units=1/GPa)
#
#
# Indices 1 2 3 4 5 6 
#
# 1 0.043306 -0.006964 0.008850 0.000000 -0.032903 0.000000
# 2 -0.006964 0.007695 -0.002750 0.000000 0.005588 0.000000
# 3 0.008850 -0.002750 0.014105 0.000000 -0.022723 0.000000
# 4 0.000000 0.000000 0.000000 0.048259 0.000000 -0.003407
# 5 -0.032903 0.005588 -0.022723 0.000000 0.078588 0.000000
# 6 0.000000 0.000000 0.000000 -0.003407 0.000000 0.052246
#
#
# Mechanical properties :
#
#
# Convention : Reuss Voigt Hill
#
# Bulk Modulus (GPa) = 15.77864 49.83508 32.80686
# Shear Modulus (GPa) = 18.72287 32.44158 25.58223
#
# Velocity S-wave (km/s) = 2.93578 3.86446 3.43168
# Velocity P-wave (km/s) = 4.33073 6.54621 5.55014
#
# Compressibility (1/GPa) = 0.06337680
#
# Stress axis : x y z
#
# Youngs Moduli (GPa) = 23.09156 129.95362 70.89794
#
# Poissons Ratio (x) = 0.90506 -0.62744
# Poissons Ratio (y) = 0.16082 0.19496
# Poissons Ratio (z) = -0.20436 0.35736
#
# Static dielectric constant tensor:
#      x y z
#    x 1.822020 0.000000 0.005650 
#    y 0.000000 1.786960 0.000000 
#    z 0.005650 0.000000 2.011780 
# 
# From -- ./inp_files/205025.got.cif
#   From: 2010.05.17/outbox.cif.g08.bks.cpg/sg12_103_cif.got.tgz:205025.got - 2010.06.03 13:09:07.
