data_PCOD9215421
_publ_section_title
;
Structure prediction by ZEFSAII (Michael W. Deem and Ramdas Pophale) SiO2 
 PCOD9215421
Probable space group: C 2/M
;
_chemical_formula_sum "Si O2"
_cell_formula_units_Z 42
_cell_length_a 7.946369
_cell_length_b 20.511518
_cell_length_c 13.187484
_cell_angle_alpha 90.000000
_cell_angle_beta 107.534824
_cell_angle_gamma 90.000000
_cell_volume 2049.579002
_symmetry_space_group_name_H-M "C 2/M"
_symmetry_group_IT_number 12
_symmetry_cell_setting 'monoclinic'
loop_
_space_group_symop_operation_xyz
x,y,z
-x,y,-z
-x,-y,-z
x,-y,z
1/2+x,1/2+y,z
1/2-x,1/2+y,-z
1/2-x,1/2-y,-z
1/2+x,1/2-y,z
loop_
_atom_site_type_symbol
_atom_site_label
_atom_site_fract_x
_atom_site_fract_y
_atom_site_fract_z
Si Si1 0.407451 0.677275 0.204133
Si Si2 0.312115 0.104716 1.000000
Si Si3 0.703318 0.177275 0.795868
Si Si4 0.500000 0.500000 0.000000
Si Si5 0.109911 0.073712 0.623031
Si Si6 0.013120 0.426288 0.623031
O O1 0.255941 0.649251 0.104576
O O2 0.366564 0.750000 0.233128
O O3 0.586784 0.678735 0.173568
O O4 0.431175 0.627623 0.301512
O O5 0.500000 0.074660 0.000000
O O6 0.348634 0.149251 0.104575
O O7 0.152212 0.056176 1.000000
O O8 0.629662 0.127623 0.698488
O O9 0.316302 0.076882 0.632604
O O10 0.000000 0.083097 0.500000
O O11 0.071097 0.000000 0.653904
O O12 0.082807 0.500000 0.653904
O O13 0.000000 0.416903 0.500000
#
# Coordination Sequence:
#
# PCOD9215421 Si02
#       6
#     8   8   8   2   8   8
#     4  12  25  44  67  97 134 178 226 276 336 405
#     4  12  26  46  70 103 141 176 222 278 336 399
#     4  12  25  44  67  97 134 178 226 276 336 405
#     4  12  26  48  68 110 132 180 228 272 340 400
#     4  10  22  41  65  96 130 172 219 277 341 398
#     4  10  22  41  65  96 130 172 219 277 341 398
#
# _framework density 20.492013
#
# number of rings (size 3 to 8) (size 9 to 14) (size 15 to 20)
#    0.000    0.762    1.905    5.429    2.667    3.048 
#    0.000    3.810    0.000    0.000    0.000    0.000 
#    0.000    0.000    0.000    0.000    0.000    0.000 
#
# Total GULP energy -117215.333730 kJ/mol
# GULP energy per Si atom -5581.682559 kJ/mol
# Density = 2.044537 g / cm^3
# Si number density = 20.492013 Si / 1000 Ang^3
#
#
#
# Elastic Constant Matrix: (Units=GPa)
#
#
# Indices 1 2 3 4 5 6 
#
# 1 146.5710 41.8764 12.3289 0.0000 -1.3381 0.0000
# 2 41.8764 172.0970 77.7293 0.0000 0.5566 0.0000
# 3 12.3289 77.7293 76.3869 0.0000 0.2501 0.0000
# 4 0.0000 0.0000 0.0000 -51.3306 0.0000 -0.8863
# 5 -1.3381 0.5566 0.2501 0.0000 24.0141 0.0000
# 6 0.0000 0.0000 0.0000 -0.8863 0.0000 5.8243
#
#
#
# Elastic Compliance Matrix: (Units=1/GPa)
#
#
# Indices 1 2 3 4 5 6 
#
# 1 0.007394 -0.002333 0.001180 0.000000 0.000454 0.000000
# 2 -0.002333 0.011489 -0.011314 0.000000 -0.000279 0.000000
# 3 0.001180 -0.011314 0.024413 0.000000 0.000074 0.000000
# 4 0.000000 0.000000 0.000000 -0.019430 0.000000 -0.002957
# 5 0.000454 -0.000279 0.000074 0.000000 0.041673 0.000000
# 6 0.000000 0.000000 0.000000 -0.002957 0.000000 0.171243
#
#
# Mechanical properties :
#
#
# Convention : Reuss Voigt Hill
#
# Bulk Modulus (GPa) = 54.46182 73.21378 63.83780
# Shear Modulus (GPa) = 18.66799 13.24293 15.95546
#
# Velocity S-wave (km/s) = 3.02153 2.54490 2.79340
# Velocity P-wave (km/s) = 6.22958 6.66640 6.45169
#
# Compressibility (1/GPa) = 0.01836149
#
# Stress axis : x y z
#
# Youngs Moduli (GPa) = 135.24037 87.03743 40.96156
#
# Poissons Ratio (x) = 0.20310 -0.04832
# Poissons Ratio (y) = 0.31558 0.46343
# Poissons Ratio (z) = -0.15952 0.98471
#
# Static dielectric constant tensor:
#      x y z
#    x 1.731750 0.000000 -0.000670 
#    y 0.000000 1.710310 0.000000 
#    z -0.000670 0.000000 1.688690 
# 
# From -- ./inp_files/120936.got.cif
#   From: 2010.05.17/outbox.cif.g08.bks.cpg/sg12_61_cif.got.tgz:120936.got - 2010.06.03 13:09:07.
