data_PCOD9215129
_publ_section_title
;
Structure prediction by ZEFSAII (Michael W. Deem and Ramdas Pophale) SiO2 
 PCOD9215129
Probable space group: C 2/M
;
_chemical_formula_sum "Si O2"
_cell_formula_units_Z 56
_cell_length_a 26.800576
_cell_length_b 9.157243
_cell_length_c 18.751000
_cell_angle_alpha 90.000000
_cell_angle_beta 142.379180
_cell_angle_gamma 90.000000
_cell_volume 2809.126659
_symmetry_space_group_name_H-M "C 2/M"
_symmetry_group_IT_number 12
_symmetry_cell_setting 'monoclinic'
loop_
_space_group_symop_operation_xyz
x,y,z
-x,y,-z
-x,-y,-z
x,-y,z
1/2+x,1/2+y,z
1/2-x,1/2+y,-z
1/2-x,1/2-y,-z
1/2+x,1/2-y,z
loop_
_atom_site_type_symbol
_atom_site_label
_atom_site_fract_x
_atom_site_fract_y
_atom_site_fract_z
Si Si1 0.831772 0.830019 0.565264
Si Si2 0.879630 0.836824 0.000530
Si Si3 0.532371 0.171833 0.191021
Si Si4 0.788416 0.670967 0.113056
Si Si5 0.294920 0.670326 0.361885
Si Si6 0.406172 0.823640 0.369530
Si Si7 0.876923 0.168759 0.828651
O O1 0.750000 0.750000 0.500000
O O2 0.907846 0.750136 0.686382
O O3 0.838458 0.823667 0.487689
O O4 0.827501 0.000000 0.581122
O O5 0.785343 0.816353 0.913117
O O6 0.891485 0.831099 0.929364
O O7 0.903400 0.000000 0.052209
O O8 0.939623 0.718168 0.101188
O O9 0.560911 0.236642 0.147249
O O10 0.543240 0.000000 0.204451
O O11 0.798976 0.500000 0.106781
O O12 0.870489 0.718137 0.249854
O O13 0.750000 0.750000 0.000000
O O14 0.277193 0.500000 0.325172
O O15 0.348699 0.743727 0.361673
O O16 0.211734 0.759423 0.279721
O O17 0.500000 0.792142 0.500000
O O18 0.395639 0.000000 0.362135
O O19 0.879665 0.000000 0.807887
#
# Coordination Sequence:
#
# PCOD9215129 Si02
#       7
#     8   8   8   8   8   8   8
#     4  11  23  39  59  86 123 166 206 252 309 368
#     4  10  22  41  62  87 122 164 208 252 311 378
#     4  12  25  38  57  91 128 164 211 259 304 363
#     4  10  22  42  66  95 126 164 209 260 322 384
#     4  11  23  38  62  93 123 156 204 256 307 367
#     4  10  22  43  69  95 125 162 210 262 319 390
#     4  11  21  38  64  88 120 164 206 249 306 368
#
# _framework density 19.935020999999999
#
# number of rings (size 3 to 8) (size 9 to 14) (size 15 to 20)
#    0.000    1.286    2.857    3.000    0.000    7.143 
#    0.000    2.857    0.000    0.000    0.000    0.000 
#    0.000    0.000    0.000    0.000    0.000    0.000 
#
# Total GULP energy -156322.061659 kJ/mol
# GULP energy per Si atom -5582.930774 kJ/mol
# Density = 1.988965 g / cm^3
# Si number density = 19.935021 Si / 1000 Ang^3
#
#
#
# Elastic Constant Matrix: (Units=GPa)
#
#
# Indices 1 2 3 4 5 6 
#
# 1 33.7551 23.2572 29.8634 0.0000 -9.8673 0.0000
# 2 23.2572 117.6504 53.9964 0.0000 -3.5032 0.0000
# 3 29.8634 53.9964 125.8807 0.0000 -10.4560 0.0000
# 4 0.0000 0.0000 0.0000 28.7964 0.0000 -2.3032
# 5 -9.8673 -3.5032 -10.4560 0.0000 28.1807 0.0000
# 6 0.0000 0.0000 0.0000 -2.3032 0.0000 29.6623
#
#
#
# Elastic Compliance Matrix: (Units=1/GPa)
#
#
# Indices 1 2 3 4 5 6 
#
# 1 0.042630 -0.004835 -0.007067 0.000000 0.011703 0.000000
# 2 -0.004835 0.011136 -0.003771 0.000000 -0.001708 0.000000
# 3 -0.007067 -0.003771 0.011343 0.000000 0.001265 0.000000
# 4 0.000000 0.000000 0.000000 0.034944 0.000000 0.002713
# 5 0.011703 -0.001708 0.001265 0.000000 0.039840 0.000000
# 6 0.000000 0.000000 0.000000 0.002713 0.000000 0.033924
#
#
# Mechanical properties :
#
#
# Convention : Reuss Voigt Hill
#
# Bulk Modulus (GPa) = 29.61939 54.61334 42.11637
# Shear Modulus (GPa) = 23.10342 28.67249 25.88795
#
# Velocity S-wave (km/s) = 3.40801 3.79660 3.60754
# Velocity P-wave (km/s) = 5.51147 6.83184 6.20686
#
# Compressibility (1/GPa) = 0.03376166
#
# Stress axis : x y z
#
# Youngs Moduli (GPa) = 23.45761 89.80182 88.15632
#
# Poissons Ratio (x) = 0.43420 0.62302
# Poissons Ratio (y) = 0.11342 0.33248
# Poissons Ratio (z) = 0.16578 0.33868
#
# Static dielectric constant tensor:
#      x y z
#    x 1.726570 0.000000 -0.015360 
#    y 0.000000 1.676220 0.000000 
#    z -0.015360 0.000000 1.746670 
# 
# From -- ./inp_files/329724.got.cif
#   From: 2010.05.17/outbox.cif.g08.bks.cpg/sg12_165_cif.got.tgz:329724.got - 2010.06.03 13:09:07.
