data_PCOD9215165
_publ_section_title
;
Structure prediction by ZEFSAII (Michael W. Deem and Ramdas Pophale) SiO2 
 PCOD9215165
Probable space group: C 2/M
;
_chemical_formula_sum "Si O2"
_cell_formula_units_Z 40
_cell_length_a 13.721384
_cell_length_b 15.035174
_cell_length_c 19.516662
_cell_angle_alpha 90.000000
_cell_angle_beta 152.026967
_cell_angle_gamma 90.000000
_cell_volume 1888.585096
_symmetry_space_group_name_H-M "C 2/M"
_symmetry_group_IT_number 12
_symmetry_cell_setting 'monoclinic'
loop_
_space_group_symop_operation_xyz
x,y,z
-x,y,-z
-x,-y,-z
x,-y,z
1/2+x,1/2+y,z
1/2-x,1/2+y,-z
1/2-x,1/2-y,-z
1/2+x,1/2-y,z
loop_
_atom_site_type_symbol
_atom_site_label
_atom_site_fract_x
_atom_site_fract_y
_atom_site_fract_z
Si Si1 0.569138 0.601403 0.471808
Si Si2 0.561732 0.393713 0.238106
Si Si3 0.266979 0.136974 0.848934
Si Si4 0.338239 0.338831 0.845985
Si Si5 0.369174 0.105110 0.545622
O O1 0.500000 0.645400 0.500000
O O2 0.635715 0.500000 0.530629
O O3 0.373521 0.598208 0.299209
O O4 0.752335 0.644065 0.539990
O O5 0.578655 0.500000 0.234118
O O6 0.361148 0.377647 0.161000
O O7 0.561031 0.341738 0.166556
O O8 0.757412 0.364223 0.406668
O O9 0.290072 0.240586 0.844117
O O10 0.500000 0.101366 0.000000
O O11 0.113528 0.383318 0.699792
O O12 0.500000 0.381032 0.000000
O O13 0.320623 0.000000 0.516905
#
# Coordination Sequence:
#
# PCOD9215165 Si02
#       5
#     8   8   8   8   8
#     4   9  19  35  57  86 114 146 196 248 287 335
#     4  10  22  41  63  85 113 155 200 236 284 353
#     4  10  23  39  57  84 120 156 192 235 290 351
#     4  11  24  37  56  88 120 149 192 244 291 338
#     4   9  19  37  58  81 113 153 196 239 287 348
#
# _framework density 21.179877000000001
#
# number of rings (size 3 to 8) (size 9 to 14) (size 15 to 20)
#    0.000    2.200    0.000    3.000    0.000   16.000 
#    0.000    2.000    0.000    0.000    0.000    0.000 
#    0.000    0.000    0.000    0.000    0.000    0.000 
#
# Total GULP energy -111636.063058 kJ/mol
# GULP energy per Si atom -5581.803153 kJ/mol
# Density = 2.113167 g / cm^3
# Si number density = 21.179877 Si / 1000 Ang^3
#
#
#
# Elastic Constant Matrix: (Units=GPa)
#
#
# Indices 1 2 3 4 5 6 
#
# 1 147.0789 -14.8826 74.8165 -0.0019 -14.5848 -0.0002
# 2 -14.8826 33.2840 -14.3474 0.0148 -2.8292 0.0030
# 3 74.8165 -14.3474 128.7866 0.0385 13.5118 0.0055
# 4 -0.0019 0.0148 0.0385 125.8047 -0.0017 13.1209
# 5 -14.5848 -2.8292 13.5118 -0.0017 25.9684 -0.0001
# 6 -0.0002 0.0030 0.0055 13.1209 -0.0001 26.3977
#
#
#
# Elastic Compliance Matrix: (Units=1/GPa)
#
#
# Indices 1 2 3 4 5 6 
#
# 1 0.012313 0.003021 -0.008014 0.000002 0.011415 0.000000
# 2 0.003021 0.032373 0.001378 -0.000004 0.004507 -0.000002
# 3 -0.008014 0.001378 0.013783 -0.000005 -0.011523 -0.000001
# 4 0.000002 -0.000004 -0.000005 0.008383 0.000004 -0.004167
# 5 0.011415 0.004507 -0.011523 0.000004 0.051406 0.000000
# 6 0.000000 -0.000002 -0.000001 -0.004167 0.000000 0.039953
#
#
# Mechanical properties :
#
#
# Convention : Reuss Voigt Hill
#
# Bulk Modulus (GPa) = 19.51591 44.48027 31.99809
# Shear Modulus (GPa) = 27.39418 53.20505 40.29961
#
# Velocity S-wave (km/s) = 3.60030 5.01748 4.36676
# Velocity P-wave (km/s) = 5.14949 7.39010 6.36910
#
# Compressibility (1/GPa) = 0.05124023
#
# Stress axis : x y z
#
# Youngs Moduli (GPa) = 81.21183 30.89025 72.55303
#
# Poissons Ratio (x) = -0.09333 0.58146
# Poissons Ratio (y) = -0.24538 -0.10000
# Poissons Ratio (z) = 0.65086 -0.04258
#
# Static dielectric constant tensor:
#      x y z
#    x 1.781350 0.000000 0.008940 
#    y 0.000000 1.803930 0.000000 
#    z 0.008940 0.000000 1.753380 
# 
# From -- ./inp_files/59229.got.cif
#   From: 2010.05.17/outbox.cif.g08.bks.cpg/sg12_30_cif.got.tgz:59229.got - 2010.06.03 13:09:07.
