data_PCOD9215445
_publ_section_title
;
Structure prediction by ZEFSAII (Michael W. Deem and Ramdas Pophale) SiO2 
 PCOD9215445
Probable space group: C 2/M
;
_chemical_formula_sum "Si O2"
_cell_formula_units_Z 32
_cell_length_a 10.471562
_cell_length_b 11.037677
_cell_length_c 23.087989
_cell_angle_alpha 90.000000
_cell_angle_beta 144.444264
_cell_angle_gamma 90.000000
_cell_volume 1551.747189
_symmetry_space_group_name_H-M "C 2/M"
_symmetry_group_IT_number 12
_symmetry_cell_setting 'monoclinic'
loop_
_space_group_symop_operation_xyz
x,y,z
-x,y,-z
-x,-y,-z
x,-y,z
1/2+x,1/2+y,z
1/2-x,1/2+y,-z
1/2-x,1/2-y,-z
1/2+x,1/2-y,z
loop_
_atom_site_type_symbol
_atom_site_label
_atom_site_fract_x
_atom_site_fract_y
_atom_site_fract_z
Si Si1 0.470231 0.239046 0.691819
Si Si2 0.233367 0.000000 0.554859
Si Si3 0.240944 0.000000 0.419456
Si Si4 0.134023 0.631514 0.998457
Si Si5 0.961644 0.754235 0.824057
O O1 0.351568 0.125301 0.617350
O O2 0.364137 0.372881 0.641999
O O3 0.717507 0.239797 0.758567
O O4 0.462904 0.216305 0.758022
O O5 0.211820 0.000000 0.477826
O O6 0.000000 0.000000 0.500000
O O7 0.500000 0.000000 0.500000
O O8 0.029193 0.500000 0.956899
O O9 0.100340 0.673973 0.920489
O O10 0.385007 0.628297 0.112131
O O11 0.000000 0.700722 0.000000
#
# Coordination Sequence:
#
# PCOD9215445 Si02
#       5
#     8   4   4   8   8
#     4  12  26  42  74  97 136 171 230 270 331 409
#     4  12  26  48  68 101 134 167 214 294 350 384
#     4  12  26  48  72  97 130 179 222 274 342 410
#     4  10  22  41  66  91 144 179 221 269 326 394
#     4  11  24  41  62 105 130 181 220 274 323 389
#
# _framework density 20.621915999999999
#
# number of rings (size 3 to 8) (size 9 to 14) (size 15 to 20)
#    0.000    0.750    2.500    4.500    7.000    0.000 
#    0.000    1.250    0.000    0.000    0.000    0.000 
#    0.000    0.000    0.000    0.000    0.000    0.000 
#
# Total GULP energy -89135.696330 kJ/mol
# GULP energy per Si atom -5570.981021 kJ/mol
# Density = 2.057498 g / cm^3
# Si number density = 20.621916 Si / 1000 Ang^3
#
#
#
# Elastic Constant Matrix: (Units=GPa)
#
#
# Indices 1 2 3 4 5 6 
#
# 1 161.3291 3.5380 53.0608 0.0000 2.3929 0.0000
# 2 3.5380 93.2248 25.7192 0.0000 -2.5509 0.0000
# 3 53.0608 25.7192 96.8013 0.0000 3.0179 0.0000
# 4 0.0000 0.0000 0.0000 -9.5035 0.0000 -10.5177
# 5 2.3929 -2.5509 3.0179 0.0000 67.6689 0.0000
# 6 0.0000 0.0000 0.0000 -10.5177 0.0000 -9.0573
#
#
#
# Elastic Compliance Matrix: (Units=1/GPa)
#
#
# Indices 1 2 3 4 5 6 
#
# 1 0.007636 0.000932 -0.004432 0.000000 -0.000037 0.000000
# 2 0.000932 0.011711 -0.003640 0.000000 0.000571 0.000000
# 3 -0.004432 -0.003640 0.013746 0.000000 -0.000594 0.000000
# 4 0.000000 0.000000 0.000000 0.369021 0.000000 -0.428518
# 5 -0.000037 0.000571 -0.000594 0.000000 0.014827 0.000000
# 6 0.000000 0.000000 0.000000 -0.428518 0.000000 0.387201
#
#
# Mechanical properties :
#
#
# Convention : Reuss Voigt Hill
#
# Bulk Modulus (GPa) = 53.15690 57.33235 55.24462
# Shear Modulus (GPa) = 6.06285 27.75741 16.91013
#
# Velocity S-wave (km/s) = 1.71650 3.67279 2.86668
# Velocity P-wave (km/s) = 5.45540 6.77110 6.14855
#
# Compressibility (1/GPa) = 0.01881223
#
# Stress axis : x y z
#
# Youngs Moduli (GPa) = 130.95195 85.38774 72.75043
#
# Poissons Ratio (x) = -0.07958 0.32245
# Poissons Ratio (y) = -0.12204 0.26483
# Poissons Ratio (z) = 0.58041 0.31083
#
# Static dielectric constant tensor:
#      x y z
#    x 1.882320 0.000000 0.064720 
#    y 0.000000 2.209010 0.000000 
#    z 0.064720 0.000000 1.746200 
# 
# From -- ./inp_files/174280.got.cif
#   From: 2010.05.17/outbox.cif.g08.bks.cpg/sg12_88_cif.got.tgz:174280.got - 2010.06.03 13:09:07.
