data_PCOD9215111
_publ_section_title
;
Structure prediction by ZEFSAII (Michael W. Deem and Ramdas Pophale) SiO2 
 PCOD9215111
Probable space group: C 2/M
;
_chemical_formula_sum "Si O2"
_cell_formula_units_Z 42
_cell_length_a 14.328623
_cell_length_b 12.389715
_cell_length_c 12.039130
_cell_angle_alpha 90.000000
_cell_angle_beta 72.280627
_cell_angle_gamma 90.000000
_cell_volume 2035.881945
_symmetry_space_group_name_H-M "C 2/M"
_symmetry_group_IT_number 12
_symmetry_cell_setting 'monoclinic'
loop_
_space_group_symop_operation_xyz
x,y,z
-x,y,-z
-x,-y,-z
x,-y,z
1/2+x,1/2+y,z
1/2-x,1/2+y,-z
1/2-x,1/2-y,-z
1/2+x,1/2-y,z
loop_
_atom_site_type_symbol
_atom_site_label
_atom_site_fract_x
_atom_site_fract_y
_atom_site_fract_z
Si Si1 0.679995 0.123031 0.578706
Si Si2 0.303927 0.774524 0.656149
Si Si3 0.500000 0.500000 0.500000
Si Si4 0.231420 0.622908 0.103037
Si Si5 0.990712 0.202059 0.338722
Si Si6 0.079303 0.211495 0.068591
O O1 0.713369 0.145125 0.440190
O O2 0.766912 0.157181 0.630082
O O3 0.597976 0.213228 0.631459
O O4 0.649282 0.000000 0.604697
O O5 0.254172 0.812516 0.787185
O O6 0.418423 0.765841 0.638940
O O7 0.473902 0.595690 0.416939
O O8 0.208126 0.500000 0.136966
O O9 0.140516 0.678968 0.072786
O O10 0.331798 0.632890 0.998153
O O11 0.025397 0.176587 0.200999
O O12 0.000000 0.222473 0.000000
#
# Coordination Sequence:
#
# PCOD9215111 Si02
#       6
#     8   8   2   8   8   8
#     4  11  23  40  66  98 130 169 222 268 326 388
#     4  10  22  41  61  96 129 169 212 266 329 390
#     4  12  24  44  64  96 136 178 210 264 324 400
#     4  10  22  42  65  92 127 168 214 269 325 381
#     4  11  24  42  66  95 133 172 215 265 325 387
#     4  10  23  44  63  94 128 163 221 265 319 388
#
# _framework density 20.629878999999999
#
# number of rings (size 3 to 8) (size 9 to 14) (size 15 to 20)
#    0.000    1.524    1.905    1.714    2.667    5.333 
#    5.143    6.667    0.000    0.000    0.000    0.000 
#    0.000    0.000    0.000    0.000    0.000    0.000 
#
# Total GULP energy -117051.644746 kJ/mol
# GULP energy per Si atom -5573.887845 kJ/mol
# Density = 2.058292 g / cm^3
# Si number density = 20.629879 Si / 1000 Ang^3
#
#
#
# Elastic Constant Matrix: (Units=GPa)
#
#
# Indices 1 2 3 4 5 6 
#
# 1 92.2161 14.9764 35.5891 0.0000 7.3340 0.0000
# 2 14.9764 107.5110 36.2506 0.0000 -4.4028 0.0000
# 3 35.5891 36.2506 108.1936 0.0000 1.4968 0.0000
# 4 0.0000 0.0000 0.0000 10.2484 0.0000 7.9551
# 5 7.3340 -4.4028 1.4968 0.0000 35.5272 0.0000
# 6 0.0000 0.0000 0.0000 7.9551 0.0000 10.7758
#
#
#
# Elastic Compliance Matrix: (Units=1/GPa)
#
#
# Indices 1 2 3 4 5 6 
#
# 1 0.012655 -0.000534 -0.003949 0.000000 -0.002512 0.000000
# 2 -0.000534 0.010584 -0.003392 0.000000 0.001565 0.000000
# 3 -0.003949 -0.003392 0.011679 0.000000 -0.000097 0.000000
# 4 0.000000 0.000000 0.000000 0.228539 0.000000 -0.168717
# 5 -0.002512 0.001565 -0.000097 0.000000 0.028864 0.000000
# 6 0.000000 0.000000 0.000000 -0.168717 0.000000 0.217354
#
#
# Mechanical properties :
#
#
# Convention : Reuss Voigt Hill
#
# Bulk Modulus (GPa) = 52.17146 53.50589 52.83868
# Shear Modulus (GPa) = 9.40178 26.05057 17.72617
#
# Velocity S-wave (km/s) = 2.13711 3.55739 2.93447
# Velocity P-wave (km/s) = 5.60659 6.54719 6.09506
#
# Compressibility (1/GPa) = 0.01916757
#
# Stress axis : x y z
#
# Youngs Moduli (GPa) = 79.02242 94.48600 85.62027
#
# Poissons Ratio (x) = 0.05047 0.33810
# Poissons Ratio (y) = 0.04221 0.29042
# Poissons Ratio (z) = 0.31205 0.32050
#
# Static dielectric constant tensor:
#      x y z
#    x 1.748940 0.000000 -0.019730 
#    y 0.000000 1.674720 0.000000 
#    z -0.019730 0.000000 1.764130 
# 
# From -- ./inp_files/140955.got.cif
#   From: 2010.05.17/outbox.cif.g08.bks.cpg/sg12_71_cif.got.tgz:140955.got - 2010.06.03 13:09:07.
