data_PCOD9215470
_publ_section_title
;
Structure prediction by ZEFSAII (Michael W. Deem and Ramdas Pophale) SiO2 
 PCOD9215470
Probable space group: C 2/M
;
_chemical_formula_sum "Si O2"
_cell_formula_units_Z 32
_cell_length_a 9.629705
_cell_length_b 31.779673
_cell_length_c 12.050260
_cell_angle_alpha 90.000000
_cell_angle_beta 24.430068
_cell_angle_gamma 90.000000
_cell_volume 1525.178781
_symmetry_space_group_name_H-M "C 2/M"
_symmetry_group_IT_number 12
_symmetry_cell_setting 'monoclinic'
loop_
_space_group_symop_operation_xyz
x,y,z
-x,y,-z
-x,-y,-z
x,-y,z
1/2+x,1/2+y,z
1/2-x,1/2+y,-z
1/2-x,1/2-y,-z
1/2+x,1/2-y,z
loop_
_atom_site_type_symbol
_atom_site_label
_atom_site_fract_x
_atom_site_fract_y
_atom_site_fract_z
Si Si1 0.000000 0.347296 0.500000
Si Si2 0.393031 0.870804 0.953615
Si Si3 0.403326 0.000000 0.697301
Si Si4 0.608193 0.292470 0.050736
Si Si5 0.683688 0.909121 0.540813
O O1 0.722881 0.314567 0.657632
O O2 0.071269 0.379771 0.347511
O O3 0.652020 0.897124 0.692189
O O4 0.500000 0.860029 0.000000
O O5 0.364914 0.828663 0.900211
O O6 0.043319 0.897071 0.224147
O O7 0.500000 0.000000 0.500000
O O8 0.568515 0.042894 0.620311
O O9 0.000000 0.000000 0.000000
O O10 0.500000 0.288080 0.000000
O O11 0.750000 0.250000 0.000000
#
# Coordination Sequence:
#
# PCOD9215470 Si02
#       5
#     4   8   4   8   8
#     4  10  22  41  66  94 134 174 214 281 332 394
#     4  11  24  45  67  95 135 186 220 272 339 404
#     4  12  24  38  69 108 137 172 231 280 330 401
#     4  11  23  41  64  95 130 170 227 276 333 393
#     4  11  23  42  69  98 136 173 227 276 338 386
#
# _framework density 20.981148000000001
#
# number of rings (size 3 to 8) (size 9 to 14) (size 15 to 20)
#    0.000    1.000    3.750    3.000    3.500    1.000 
#    4.500    3.750    0.000    0.000    0.000    0.000 
#    0.000    0.000    0.000    0.000    0.000    0.000 
#
# Total GULP energy -89088.666145 kJ/mol
# GULP energy per Si atom -5568.041634 kJ/mol
# Density = 2.093339 g / cm^3
# Si number density = 20.981148 Si / 1000 Ang^3
#
#
#
# Elastic Constant Matrix: (Units=GPa)
#
#
# Indices 1 2 3 4 5 6 
#
# 1 159.6455 77.4809 22.1230 0.0000 20.4098 0.0000
# 2 77.4809 209.3764 48.2701 0.0000 -5.5097 0.0000
# 3 22.1230 48.2701 77.7725 0.0000 11.4301 0.0000
# 4 0.0000 0.0000 0.0000 20.2731 0.0000 -1.6020
# 5 20.4098 -5.5097 11.4301 0.0000 37.9923 0.0000
# 6 0.0000 0.0000 0.0000 -1.6020 0.0000 27.8195
#
#
#
# Elastic Compliance Matrix: (Units=1/GPa)
#
#
# Indices 1 2 3 4 5 6 
#
# 1 0.008512 -0.003390 0.000447 0.000000 -0.005198 0.000000
# 2 -0.003390 0.007063 -0.004015 0.000000 0.004053 0.000000
# 3 0.000447 -0.004015 0.016054 0.000000 -0.005652 0.000000
# 4 0.000000 0.000000 0.000000 0.049552 0.000000 0.002853
# 5 -0.005198 0.004053 -0.005652 0.000000 0.031402 0.000000
# 6 0.000000 0.000000 0.000000 0.002853 0.000000 0.036110
#
#
# Mechanical properties :
#
#
# Convention : Reuss Voigt Hill
#
# Bulk Modulus (GPa) = 56.45914 82.50470 69.48192
# Shear Modulus (GPa) = 29.67146 37.14499 33.40823
#
# Velocity S-wave (km/s) = 3.76466 4.21218 3.99469
# Velocity P-wave (km/s) = 6.77235 7.94136 7.38004
#
# Compressibility (1/GPa) = 0.01771192
#
# Stress axis : x y z
#
# Youngs Moduli (GPa) = 117.48630 141.58944 62.29144
#
# Poissons Ratio (x) = 0.47992 -0.02781
# Poissons Ratio (y) = 0.39822 0.25010
# Poissons Ratio (z) = -0.05246 0.56848
#
# Static dielectric constant tensor:
#      x y z
#    x 1.814160 0.000000 -0.044470 
#    y 0.000000 1.721210 0.000000 
#    z -0.044470 0.000000 1.845120 
# 
# From -- ./inp_files/125564.got.cif
#   From: 2010.05.17/outbox.cif.g08.bks.cpg/sg12_63_cif.got.tgz:125564.got - 2010.06.03 13:09:07.
