data_PCOD9215439
_publ_section_title
;
Structure prediction by ZEFSAII (Michael W. Deem and Ramdas Pophale) SiO2 
 PCOD9215439
Probable space group: C 2/M
;
_chemical_formula_sum "Si O2"
_cell_formula_units_Z 48
_cell_length_a 15.303832
_cell_length_b 24.085861
_cell_length_c 12.173939
_cell_angle_alpha 90.000000
_cell_angle_beta 150.660253
_cell_angle_gamma 90.000000
_cell_volume 2198.762454
_symmetry_space_group_name_H-M "C 2/M"
_symmetry_group_IT_number 12
_symmetry_cell_setting 'monoclinic'
loop_
_space_group_symop_operation_xyz
x,y,z
-x,y,-z
-x,-y,-z
x,-y,z
1/2+x,1/2+y,z
1/2-x,1/2+y,-z
1/2-x,1/2-y,-z
1/2+x,1/2-y,z
loop_
_atom_site_type_symbol
_atom_site_label
_atom_site_fract_x
_atom_site_fract_y
_atom_site_fract_z
Si Si1 0.500000 0.097043 0.500000
Si Si2 0.420327 0.585382 0.535062
Si Si3 0.909154 0.500000 0.130335
Si Si4 0.042148 0.203112 0.675509
Si Si5 0.077791 0.674670 0.792994
Si Si6 0.274345 0.000000 0.362617
Si Si7 0.459613 0.900482 0.841483
Si Si8 0.935242 0.000000 0.137919
O O1 0.580250 0.136867 0.684680
O O2 0.344950 0.055950 0.378366
O O3 0.500000 0.578684 0.500000
O O4 0.421134 0.650120 0.567402
O O5 0.217763 0.566696 0.322416
O O6 0.522900 0.552513 0.740247
O O7 0.105450 0.500000 0.396304
O O8 0.895810 0.445131 0.042152
O O9 0.779304 0.500000 0.093447
O O10 0.014991 0.263167 0.698195
O O11 0.000000 0.211305 0.500000
O O12 0.237395 0.182315 0.934288
O O13 0.945634 0.642185 0.727953
O O14 0.069729 0.000000 0.182533
O O15 0.500000 0.870380 0.000000
#
# Coordination Sequence:
#
# PCOD9215439 Si02
#       8
#     4   8   4   8   8   4   8   4
#     4  11  22  44  74 100 142 187 238 288 354 417
#     4  11  22  38  61  95 134 172 227 285 344 416
#     4  12  22  40  65  98 136 183 229 289 354 424
#     4  10  22  41  66 103 134 178 235 288 352 414
#     4  11  22  41  71  97 137 184 229 294 350 418
#     4  11  24  44  69 104 138 190 236 293 349 435
#     4  12  23  40  64  97 133 180 233 284 357 415
#     4  12  22  40  66  96 140 176 228 289 347 417
#
# _framework density 21.830462000000001
#
# number of rings (size 3 to 8) (size 9 to 14) (size 15 to 20)
#    0.000    0.833    4.167    4.500    0.000    0.667 
#    0.000    1.667    3.667    0.000    0.000    0.000 
#    0.000    0.000    0.000    0.000    0.000    0.000 
#
# Total GULP energy -133796.792748 kJ/mol
# GULP energy per Si atom -5574.866364 kJ/mol
# Density = 2.178077 g / cm^3
# Si number density = 21.830462 Si / 1000 Ang^3
#
#
#
# Elastic Constant Matrix: (Units=GPa)
#
#
# Indices 1 2 3 4 5 6 
#
# 1 165.7090 70.6242 64.7373 0.0000 1.8388 0.0000
# 2 70.6242 145.3040 13.2198 0.0000 -13.4578 0.0000
# 3 64.7373 13.2198 80.1542 0.0000 -17.8843 0.0000
# 4 0.0000 0.0000 0.0000 25.6262 0.0000 -10.9597
# 5 1.8388 -13.4578 -17.8843 0.0000 49.8203 0.0000
# 6 0.0000 0.0000 0.0000 -10.9597 0.0000 44.5173
#
#
#
# Elastic Compliance Matrix: (Units=1/GPa)
#
#
# Indices 1 2 3 4 5 6 
#
# 1 0.012687 -0.005742 -0.010600 0.000000 -0.005824 0.000000
# 2 -0.005742 0.009705 0.003988 0.000000 0.004265 0.000000
# 3 -0.010600 0.003988 0.022510 0.000000 0.009549 0.000000
# 4 0.000000 0.000000 0.000000 0.043615 0.000000 0.010737
# 5 -0.005824 0.004265 0.009549 0.000000 0.024867 0.000000
# 6 0.000000 0.000000 0.000000 0.010737 0.000000 0.025107
#
#
# Mechanical properties :
#
#
# Convention : Reuss Voigt Hill
#
# Bulk Modulus (GPa) = 49.51448 76.48107 62.99777
# Shear Modulus (GPa) = 29.42421 40.16515 34.79468
#
# Velocity S-wave (km/s) = 3.67529 4.29402 3.99665
# Velocity P-wave (km/s) = 6.38287 7.72625 7.08646
#
# Compressibility (1/GPa) = 0.02019611
#
# Stress axis : x y z
#
# Youngs Moduli (GPa) = 78.81914 103.03962 44.42554
#
# Poissons Ratio (x) = 0.59162 0.47089
# Poissons Ratio (y) = 0.45255 -0.17718
# Poissons Ratio (z) = 0.83545 -0.41096
#
# Static dielectric constant tensor:
#      x y z
#    x 1.788320 0.000000 0.007280 
#    y 0.000000 1.806190 0.000000 
#    z 0.007280 0.000000 1.942040 
# 
# From -- ./inp_files/149937.got.cif
#   From: 2010.05.17/outbox.cif.g08.bks.cpg/sg12_75_cif.got.tgz:149937.got - 2010.06.03 13:09:07.
