data_PCOD9215812
_publ_section_title
;
Structure prediction by ZEFSAII (Michael W. Deem and Ramdas Pophale) SiO2 
 PCOD9215812
Probable space group: C 2/M
;
_chemical_formula_sum "Si O2"
_cell_formula_units_Z 48
_cell_length_a 18.795006
_cell_length_b 14.086786
_cell_length_c 16.170001
_cell_angle_alpha 90.000000
_cell_angle_beta 33.542681
_cell_angle_gamma 90.000000
_cell_volume 2365.605462
_symmetry_space_group_name_H-M "C 2/M"
_symmetry_group_IT_number 12
_symmetry_cell_setting 'monoclinic'
loop_
_space_group_symop_operation_xyz
x,y,z
-x,y,-z
-x,-y,-z
x,-y,z
1/2+x,1/2+y,z
1/2-x,1/2+y,-z
1/2-x,1/2-y,-z
1/2+x,1/2-y,z
loop_
_atom_site_type_symbol
_atom_site_label
_atom_site_fract_x
_atom_site_fract_y
_atom_site_fract_z
Si Si1 0.764064 0.885902 0.044454
Si Si2 0.982457 0.386008 0.612245
Si Si3 0.341151 0.887608 0.036158
Si Si4 0.722408 0.773443 0.433024
Si Si5 0.650683 0.389725 0.375451
Si Si6 0.996338 0.208638 0.099738
O O1 0.649580 0.853692 0.216966
O O2 0.772017 0.000000 0.041085
O O3 0.724867 0.863018 0.988033
O O4 0.896540 0.843366 0.949022
O O5 0.983121 0.500000 0.613936
O O6 0.103712 0.344835 0.542486
O O7 0.000000 0.355990 0.500000
O O8 0.240333 0.870849 0.208447
O O9 0.373496 0.000000 0.003620
O O10 0.463931 0.819936 0.930540
O O11 0.750000 0.750000 0.500000
O O12 0.686956 0.681302 0.413229
O O13 0.854103 0.813179 0.268077
O O14 0.500000 0.378171 0.500000
O O15 0.670574 0.500000 0.379463
O O16 0.000000 0.182202 0.000000
#
# Coordination Sequence:
#
# PCOD9215812 Si02
#       6
#     8   8   8   8   8   8
#     4  10  23  42  67  93 119 164 219 260 303 367
#     4  10  22  43  67  88 119 168 214 253 303 368
#     4  10  22  42  66  90 122 165 213 258 303 368
#     4  12  26  39  61  96 132 163 198 254 318 374
#     4  10  23  42  66  92 123 167 212 255 306 369
#     4  12  24  39  61  95 130 164 200 255 321 370
#
# _framework density 20.290787000000002
#
# number of rings (size 3 to 8) (size 9 to 14) (size 15 to 20)
#    0.000    1.333    1.667    3.000    4.667    2.667 
#    0.000    0.000    0.000    0.000    0.000    0.000 
#    0.000    0.000    0.000    0.000    0.000    0.000 
#
# Total GULP energy -134265.991257 kJ/mol
# GULP energy per Si atom -5594.416302 kJ/mol
# Density = 2.024460 g / cm^3
# Si number density = 20.290787 Si / 1000 Ang^3
#
#
#
# Elastic Constant Matrix: (Units=GPa)
#
#
# Indices 1 2 3 4 5 6 
#
# 1 87.9377 7.4752 -7.1697 0.0000 8.9923 0.0000
# 2 7.4752 38.5911 4.6996 0.0000 -0.2704 0.0000
# 3 -7.1697 4.6996 55.5693 0.0001 -10.5605 0.0000
# 4 0.0000 0.0000 0.0001 20.3923 0.0000 -0.3589
# 5 8.9923 -0.2704 -10.5605 0.0000 38.9828 0.0000
# 6 0.0000 0.0000 0.0000 -0.3589 0.0000 -3.1632
#
#
#
# Elastic Compliance Matrix: (Units=1/GPa)
#
#
# Indices 1 2 3 4 5 6 
#
# 1 0.011936 -0.002486 0.001290 0.000000 -0.002421 0.000000
# 2 -0.002486 0.026707 -0.002567 0.000000 0.000063 0.000000
# 3 0.001290 -0.002567 0.019314 0.000000 0.004917 0.000000
# 4 0.000000 0.000000 0.000000 0.048940 0.000000 -0.005553
# 5 -0.002421 0.000063 0.004917 0.000000 0.027543 0.000000
# 6 0.000000 0.000000 0.000000 -0.005553 0.000000 -0.315502
#
#
# Mechanical properties :
#
#
# Convention : Reuss Voigt Hill
#
# Bulk Modulus (GPa) = 19.82950 21.34538 20.58744
# Shear Modulus (GPa) = -31.90298 23.04857 -4.42720
#
# Velocity S-wave (km/s) = -3.96951 3.37399 -1.47872
# Velocity P-wave (km/s) = 3.34895 5.07158 2.69309
#
# Compressibility (1/GPa) = 0.05042991
#
# Stress axis : x y z
#
# Youngs Moduli (GPa) = 83.78178 37.44280 51.77720
#
# Poissons Ratio (x) = 0.09309 -0.06680
# Poissons Ratio (y) = 0.20829 0.13294
# Poissons Ratio (z) = -0.10809 0.09613
#
# Static dielectric constant tensor:
#      x y z
#    x 1.666330 0.000000 0.009440 
#    y 0.000000 1.733970 0.000000 
#    z 0.009440 0.000000 1.680930 
# 
# From -- ./inp_files/278037.got.cif
#   From: 2010.05.17/outbox.cif.g08.bks.cpg/sg12_140_cif.got.tgz:278037.got - 2010.06.03 13:09:07.
