data_PCOD9215479
_publ_section_title
;
Structure prediction by ZEFSAII (Michael W. Deem and Ramdas Pophale) SiO2 
 PCOD9215479
Probable space group: C 2/M
;
_chemical_formula_sum "Si O2"
_cell_formula_units_Z 28
_cell_length_a 10.302974
_cell_length_b 21.957161
_cell_length_c 7.153405
_cell_angle_alpha 90.000000
_cell_angle_beta 49.738353
_cell_angle_gamma 90.000000
_cell_volume 1234.905401
_symmetry_space_group_name_H-M "C 2/M"
_symmetry_group_IT_number 12
_symmetry_cell_setting 'monoclinic'
loop_
_space_group_symop_operation_xyz
x,y,z
-x,y,-z
-x,-y,-z
x,-y,z
1/2+x,1/2+y,z
1/2-x,1/2+y,-z
1/2-x,1/2-y,-z
1/2+x,1/2-y,z
loop_
_atom_site_type_symbol
_atom_site_label
_atom_site_fract_x
_atom_site_fract_y
_atom_site_fract_z
Si Si1 0.311388 0.000000 0.596637
Si Si2 0.439012 0.223644 0.764358
Si Si3 0.297781 0.500000 0.722986
Si Si4 0.000000 0.194993 0.000000
Si Si5 0.243707 0.603744 0.072900
O O1 0.500000 0.000000 0.500000
O O2 0.292637 0.000000 0.393243
O O3 0.241434 0.060700 0.758630
O O4 0.500000 0.238694 0.500000
O O5 0.415796 0.150202 0.793253
O O6 0.250000 0.250000 0.000000
O O7 0.569577 0.255646 0.785647
O O8 0.500000 0.500000 0.500000
O O9 0.252151 0.559066 0.889161
O O10 0.100874 0.149233 0.039631
#
# Coordination Sequence:
#
# PCOD9215479 Si02
#       5
#     4   8   4   4   8
#     4  11  24  41  66  96 134 175 222 286 349 408
#     4  10  23  40  62  94 132 176 225 279 342 410
#     4  11  24  43  70  98 132 181 229 284 348 413
#     4  10  22  41  66  95 136 180 228 282 344 414
#     4  10  23  40  63  98 132 173 228 284 342 413
#
# _framework density 22.673802999999999
#
# number of rings (size 3 to 8) (size 9 to 14) (size 15 to 20)
#    0.000    1.714    0.000    2.571    0.000   22.857 
#    0.000    0.000    0.000    0.000    0.000    0.000 
#    0.000    0.000    0.000    0.000    0.000    0.000 
#
# Total GULP energy -77937.835159 kJ/mol
# GULP energy per Si atom -5566.988226 kJ/mol
# Density = 2.262220 g / cm^3
# Si number density = 22.673803 Si / 1000 Ang^3
#
#
#
# Elastic Constant Matrix: (Units=GPa)
#
#
# Indices 1 2 3 4 5 6 
#
# 1 82.7454 37.8679 51.8472 0.0000 33.7988 0.0000
# 2 37.8679 165.1864 73.2020 0.0000 32.6825 0.0000
# 3 51.8472 73.2020 181.8528 0.0000 46.8374 0.0000
# 4 0.0000 0.0000 0.0000 8.8036 0.0000 -1.3628
# 5 33.7988 32.6825 46.8374 0.0000 54.3255 0.0000
# 6 0.0000 0.0000 0.0000 -1.3628 0.0000 5.4833
#
#
#
# Elastic Compliance Matrix: (Units=1/GPa)
#
#
# Indices 1 2 3 4 5 6 
#
# 1 0.017463 -0.001372 -0.002366 0.000000 -0.007999 0.000000
# 2 -0.001372 0.007730 -0.002240 0.000000 -0.001866 0.000000
# 3 -0.002366 -0.002240 0.008161 0.000000 -0.004217 0.000000
# 4 0.000000 0.000000 0.000000 0.118135 0.000000 0.029361
# 5 -0.007999 -0.001866 -0.004217 0.000000 0.028142 0.000000
# 6 0.000000 0.000000 0.000000 0.029361 0.000000 0.189668
#
#
# Mechanical properties :
#
#
# Convention : Reuss Voigt Hill
#
# Bulk Modulus (GPa) = 46.73326 83.95764 65.34545
# Shear Modulus (GPa) = 12.87371 31.51365 22.19368
#
# Velocity S-wave (km/s) = 2.38540 3.73214 3.13201
# Velocity P-wave (km/s) = 5.31439 7.46195 6.47778
#
# Compressibility (1/GPa) = 0.02139804
#
# Stress axis : x y z
#
# Youngs Moduli (GPa) = 57.26287 129.36548 122.53029
#
# Poissons Ratio (x) = 0.17750 0.28995
# Poissons Ratio (y) = 0.07857 0.27446
# Poissons Ratio (z) = 0.13550 0.28977
#
# Static dielectric constant tensor:
#      x y z
#    x 2.064810 0.000000 0.121580 
#    y 0.000000 1.160080 0.000000 
#    z 0.121580 0.000000 1.731520 
# 
# From -- ./inp_files/5928.got.cif
#   From: 2010.05.17/outbox.cif.g08.bks.cpg/sg12_3_cif.got.tgz:5928.got - 2010.06.03 13:09:07.
