data_PCOD9215954
_publ_section_title
;
Structure prediction by ZEFSAII (Michael W. Deem and Ramdas Pophale) SiO2 
 PCOD9215954
Probable space group: C 2/M
;
_chemical_formula_sum "Si O2"
_cell_formula_units_Z 48
_cell_length_a 15.463082
_cell_length_b 24.637099
_cell_length_c 11.199554
_cell_angle_alpha 90.000000
_cell_angle_beta 34.122001
_cell_angle_gamma 90.000000
_cell_volume 2393.403190
_symmetry_space_group_name_H-M "C 2/M"
_symmetry_group_IT_number 12
_symmetry_cell_setting 'monoclinic'
loop_
_space_group_symop_operation_xyz
x,y,z
-x,y,-z
-x,-y,-z
x,-y,z
1/2+x,1/2+y,z
1/2-x,1/2+y,-z
1/2-x,1/2-y,-z
1/2+x,1/2-y,z
loop_
_atom_site_type_symbol
_atom_site_label
_atom_site_fract_x
_atom_site_fract_y
_atom_site_fract_z
Si Si1 0.376431 0.500000 0.026809
Si Si2 0.364694 0.500000 0.753902
Si Si3 0.127350 0.303239 0.509741
Si Si4 0.331488 0.617556 0.138660
Si Si5 0.722105 0.811802 0.061018
Si Si6 0.834831 0.701683 0.250466
Si Si7 0.314522 0.617122 0.731571
O O1 0.418123 0.500000 0.834230
O O2 0.500000 0.500000 0.000000
O O3 0.289124 0.556988 0.144821
O O4 0.500000 0.500000 0.500000
O O5 0.280120 0.556140 0.816358
O O6 0.219015 0.355885 0.362594
O O7 0.138358 0.296776 0.639351
O O8 0.210575 0.249202 0.362009
O O9 0.948365 0.312905 0.689064
O O10 0.334104 0.659369 0.026107
O O11 0.500000 0.615068 0.000000
O O12 0.750000 0.750000 0.000000
O O13 0.748017 0.844364 0.910372
O O14 0.767537 0.642925 0.290098
O O15 0.000000 0.711900 0.000000
O O16 0.500000 0.621748 0.500000
#
# Coordination Sequence:
#
# PCOD9215954 Si02
#       7
#     4   4   8   8   8   8   8
#     4  10  22  44  70  99 136 178 233 289 338 403
#     4  10  22  42  68  98 132 182 231 284 341 409
#     4  11  25  41  66  96 137 174 219 273 339 407
#     4  11  25  42  69  98 132 173 226 276 333 398
#     4  12  24  41  66  96 132 172 217 268 336 406
#     4  11  23  43  65  97 135 175 220 277 337 402
#     4  11  23  40  67  94 130 172 223 274 332 398
#
# _framework density 20.055126000000001
#
# number of rings (size 3 to 8) (size 9 to 14) (size 15 to 20)
#    0.000    1.000    3.333    3.000    7.000    1.333 
#    0.000    2.917    0.000    0.000    0.000    0.000 
#    0.000    0.000    0.000    0.000    0.000    0.000 
#
# Total GULP energy -133889.434923 kJ/mol
# GULP energy per Si atom -5578.726455 kJ/mol
# Density = 2.000948 g / cm^3
# Si number density = 20.055126 Si / 1000 Ang^3
#
#
#
# Elastic Constant Matrix: (Units=GPa)
#
#
# Indices 1 2 3 4 5 6 
#
# 1 67.0289 30.5778 8.3672 0.0001 7.6949 -0.0001
# 2 30.5778 184.3889 45.0720 0.0000 4.6483 0.0000
# 3 8.3672 45.0720 103.0471 -0.0001 6.5775 -0.0001
# 4 0.0001 0.0000 -0.0001 21.6877 -0.0002 -0.3531
# 5 7.6949 4.6483 6.5775 -0.0002 32.8358 0.0001
# 6 -0.0001 0.0000 -0.0001 -0.3531 0.0001 28.7498
#
#
#
# Elastic Compliance Matrix: (Units=1/GPa)
#
#
# Indices 1 2 3 4 5 6 
#
# 1 0.016531 -0.002664 0.000047 0.000000 -0.003506 0.000000
# 2 -0.002664 0.006506 -0.002644 0.000000 0.000233 0.000000
# 3 0.000047 -0.002644 0.010974 0.000000 -0.001835 0.000000
# 4 0.000000 0.000000 0.000000 0.046118 0.000000 0.000566
# 5 -0.003506 0.000233 -0.001835 0.000000 0.031611 0.000000
# 6 0.000000 0.000000 0.000000 0.000566 0.000000 0.034790
#
#
# Mechanical properties :
#
#
# Convention : Reuss Voigt Hill
#
# Bulk Modulus (GPa) = 42.57556 58.05542 50.31549
# Shear Modulus (GPa) = 30.32473 34.68454 32.50463
#
# Velocity S-wave (km/s) = 3.89275 4.16319 4.03024
# Velocity P-wave (km/s) = 6.44050 7.21944 6.84106
#
# Compressibility (1/GPa) = 0.02348765
#
# Stress axis : x y z
#
# Youngs Moduli (GPa) = 60.49204 153.71339 91.12369
#
# Poissons Ratio (x) = 0.40957 -0.00428
# Poissons Ratio (y) = 0.16118 0.24093
# Poissons Ratio (z) = -0.00284 0.40642
#
# Static dielectric constant tensor:
#      x y z
#    x 1.762490 0.000000 -0.012070 
#    y 0.000000 1.134320 0.000000 
#    z -0.012070 0.000000 1.697430 
# 
# From -- ./inp_files/149684.got.cif
#   From: 2010.05.17/outbox.cif.g08.bks.cpg/sg12_75_cif.got.tgz:149684.got - 2010.06.03 13:09:07.
