data_PCOD9215046
_publ_section_title
;
Structure prediction by ZEFSAII (Michael W. Deem and Ramdas Pophale) SiO2 
 PCOD9215046
Probable space group: C 2/M
;
_chemical_formula_sum "Si O2"
_cell_formula_units_Z 50
_cell_length_a 8.231090
_cell_length_b 26.536463
_cell_length_c 17.818478
_cell_angle_alpha 90.000000
_cell_angle_beta 141.666727
_cell_angle_gamma 90.000000
_cell_volume 2413.943090
_symmetry_space_group_name_H-M "C 2/M"
_symmetry_group_IT_number 12
_symmetry_cell_setting 'monoclinic'
loop_
_space_group_symop_operation_xyz
x,y,z
-x,y,-z
-x,-y,-z
x,-y,z
1/2+x,1/2+y,z
1/2-x,1/2+y,-z
1/2-x,1/2-y,-z
1/2+x,1/2-y,z
loop_
_atom_site_type_symbol
_atom_site_label
_atom_site_fract_x
_atom_site_fract_y
_atom_site_fract_z
Si Si1 0.644847 0.729234 0.676150
Si Si2 0.288585 0.636813 0.571594
Si Si3 0.500000 0.000000 0.000000
Si Si4 0.419114 0.829006 0.645624
Si Si5 0.542449 0.368182 0.098386
Si Si6 0.457363 0.805803 0.065706
Si Si7 0.186566 0.905664 0.827536
O O1 0.428170 0.691458 0.632416
O O2 0.544771 0.785873 0.637736
O O3 0.900782 0.726747 0.820664
O O4 0.734167 0.702630 0.632900
O O5 0.474724 0.598350 0.683871
O O6 0.000000 0.633827 0.500000
O O7 0.238379 0.632722 0.464114
O O8 0.646185 0.955679 0.103185
O O9 0.656406 0.852970 0.778857
O O10 0.455860 0.397595 0.142911
O O11 0.500000 0.392247 0.000000
O O12 0.338502 0.321450 0.024496
O O13 0.619048 0.858663 0.118262
O O14 0.500000 0.781911 0.000000
#
# Coordination Sequence:
#
# PCOD9215046 Si02
#       7
#     8   8   2   8   8   8   8
#     4  11  24  37  55  91 122 180 230 272 296 360
#     4  11  22  42  62  83 125 170 209 260 311 364
#     4  12  20  44  80 108 114 154 204 252 336 406
#     4  12  24  36  58  86 130 175 230 263 306 362
#     4  11  20  38  60  91 126 171 208 261 327 371
#     4   9  19  37  57  85 126 168 209 267 327 364
#     4  10  22  40  70  94 124 156 204 259 321 397
#
# _framework density 20.713000000000001
#
# number of rings (size 3 to 8) (size 9 to 14) (size 15 to 20)
#    0.000    1.280    5.600    1.920    4.480    1.280 
#    0.000    0.800    0.000    0.000    0.000   10.080 
#    0.000    0.000    0.000    0.000    0.000    0.000 
#
# Total GULP energy -139350.778261 kJ/mol
# GULP energy per Si atom -5574.031130 kJ/mol
# Density = 2.066586 g / cm^3
# Si number density = 20.713000 Si / 1000 Ang^3
#
#
#
# Elastic Constant Matrix: (Units=GPa)
#
#
# Indices 1 2 3 4 5 6 
#
# 1 79.3894 15.9145 26.3372 0.0000 -13.9087 0.0000
# 2 15.9145 70.8486 39.5364 0.0000 -1.6937 0.0000
# 3 26.3372 39.5364 189.5870 0.0000 -15.0843 0.0000
# 4 0.0000 0.0000 0.0000 31.9198 0.0000 -2.4614
# 5 -13.9087 -1.6937 -15.0843 0.0000 33.1388 0.0000
# 6 0.0000 0.0000 0.0000 -2.4614 0.0000 -3.7605
#
#
#
# Elastic Compliance Matrix: (Units=1/GPa)
#
#
# Indices 1 2 3 4 5 6 
#
# 1 0.014401 -0.002524 -0.001041 0.000000 0.005441 0.000000
# 2 -0.002524 0.016433 -0.003210 0.000000 -0.001680 0.000000
# 3 -0.001041 -0.003210 0.006268 0.000000 0.002252 0.000000
# 4 0.000000 0.000000 0.000000 0.029823 0.000000 -0.019520
# 5 0.005441 -0.001680 0.002252 0.000000 0.033399 0.000000
# 6 0.000000 0.000000 0.000000 -0.019520 0.000000 -0.253145
#
#
# Mechanical properties :
#
#
# Convention : Reuss Voigt Hill
#
# Bulk Modulus (GPa) = 42.46037 55.93344 49.19691
# Shear Modulus (GPa) = -38.04570 29.46208 -4.29181
#
# Velocity S-wave (km/s) = -4.29044 3.77556 -1.44102
# Velocity P-wave (km/s) = 2.00000 6.78742 4.58634
#
# Compressibility (1/GPa) = 0.02355137
#
# Stress axis : x y z
#
# Youngs Moduli (GPa) = 69.44085 60.85462 159.54400
#
# Poissons Ratio (x) = 0.15357 0.16614
# Poissons Ratio (y) = 0.17524 0.51213
# Poissons Ratio (z) = 0.07231 0.19534
#
# Static dielectric constant tensor:
#      x y z
#    x 1.852100 0.000000 -0.024470 
#    y 0.000000 1.672870 0.000000 
#    z -0.024470 0.000000 1.820680 
# 
# From -- ./inp_files/259746.got.cif
#   From: 2010.05.17/outbox.cif.g08.bks.cpg/sg12_130_cif.got.tgz:259746.got - 2010.06.03 13:09:07.
