data_PCOD9215240
_publ_section_title
;
Structure prediction by ZEFSAII (Michael W. Deem and Ramdas Pophale) SiO2 
 PCOD9215240
Probable space group: C 2/M
;
_chemical_formula_sum "Si O2"
_cell_formula_units_Z 52
_cell_length_a 10.041484
_cell_length_b 17.157729
_cell_length_c 21.475913
_cell_angle_alpha 90.000000
_cell_angle_beta 41.194426
_cell_angle_gamma 90.000000
_cell_volume 2436.922894
_symmetry_space_group_name_H-M "C 2/M"
_symmetry_group_IT_number 12
_symmetry_cell_setting 'monoclinic'
loop_
_space_group_symop_operation_xyz
x,y,z
-x,y,-z
-x,-y,-z
x,-y,z
1/2+x,1/2+y,z
1/2-x,1/2+y,-z
1/2-x,1/2-y,-z
1/2+x,1/2-y,z
loop_
_atom_site_type_symbol
_atom_site_label
_atom_site_fract_x
_atom_site_fract_y
_atom_site_fract_z
Si Si1 0.218915 0.911482 0.365200
Si Si2 0.926545 0.411659 0.158096
Si Si3 0.122756 0.355705 0.280530
Si Si4 0.738024 0.871049 0.905681
Si Si5 0.517046 0.254057 0.563719
Si Si6 0.738124 0.692984 0.907369
Si Si7 0.067642 0.000000 0.816981
O O1 0.333129 0.913798 0.259105
O O2 0.391332 0.883754 0.352392
O O3 0.054995 0.843720 0.415697
O O4 0.151600 0.000000 0.400752
O O5 0.974693 0.500000 0.122253
O O6 0.759131 0.378251 0.170397
O O7 0.127677 0.360712 0.094802
O O8 0.199153 0.322286 0.186705
O O9 0.259341 0.430693 0.246134
O O10 0.117071 0.292288 0.338026
O O11 0.781540 0.782573 0.908369
O O12 0.500000 0.887253 0.000000
O O13 0.889707 0.932221 0.880581
O O14 0.500000 0.219870 0.500000
O O15 0.750000 0.250000 0.500000
O O16 0.500000 0.677631 0.000000
#
# Coordination Sequence:
#
# PCOD9215240 Si02
#       7
#     8   8   8   8   8   8   4
#     4  10  22  46  73 102 140 180 229 289 350 420
#     4  10  22  41  63  96 136 178 234 284 343 410
#     4  11  25  46  71 104 143 178 238 293 349 418
#     4  11  25  41  60  95 142 191 234 291 350 411
#     4  12  26  48  79 108 142 185 231 289 364 426
#     4  10  25  41  69 101 135 188 233 282 346 420
#     4  12  27  42  68  97 137 193 228 294 362 406
#
# _framework density 21.338387000000001
#
# number of rings (size 3 to 8) (size 9 to 14) (size 15 to 20)
#    0.000    1.231    3.077    1.154    9.692    3.077 
#    1.385    0.385    0.000    0.000    0.000    0.000 
#    0.000    0.000    0.000    0.000    0.000    0.000 
#
# Total GULP energy -144834.805264 kJ/mol
# GULP energy per Si atom -5570.569433 kJ/mol
# Density = 2.128982 g / cm^3
# Si number density = 21.338387 Si / 1000 Ang^3
#
#
#
# Elastic Constant Matrix: (Units=GPa)
#
#
# Indices 1 2 3 4 5 6 
#
# 1 66.5996 50.5950 32.4056 0.0131 -18.7997 -0.0034
# 2 50.5950 174.0352 55.8566 -0.0013 -29.6155 -0.0003
# 3 32.4056 55.8566 88.1616 0.0204 -8.4462 -0.0053
# 4 0.0131 -0.0013 0.0204 113.1725 -0.0144 -31.9130
# 5 -18.7997 -29.6155 -8.4462 -0.0144 47.1717 0.0036
# 6 -0.0034 -0.0003 -0.0053 -31.9130 0.0036 34.1906
#
#
#
# Elastic Compliance Matrix: (Units=1/GPa)
#
#
# Indices 1 2 3 4 5 6 
#
# 1 0.021937 -0.003806 -0.005132 -0.000001 0.005435 0.000000
# 2 -0.003806 0.008600 -0.003742 0.000002 0.003213 0.000000
# 3 -0.005132 -0.003742 0.015444 -0.000003 -0.001629 0.000000
# 4 -0.000001 0.000002 -0.000003 0.011993 0.000003 0.011194
# 5 0.005435 0.003213 -0.001629 0.000003 0.025090 0.000000
# 6 0.000000 0.000000 0.000000 0.011194 0.000000 0.039696
#
#
# Mechanical properties :
#
#
# Convention : Reuss Voigt Hill
#
# Bulk Modulus (GPa) = 48.49130 67.39009 57.94069
# Shear Modulus (GPa) = 32.25956 51.56959 41.91458
#
# Velocity S-wave (km/s) = 3.89242 4.92138 4.43683
# Velocity P-wave (km/s) = 6.55557 7.99647 7.31160
#
# Compressibility (1/GPa) = 0.02062226
#
# Stress axis : x y z
#
# Youngs Moduli (GPa) = 45.58440 116.27828 64.75069
#
# Poissons Ratio (x) = 0.44252 0.33228
# Poissons Ratio (y) = 0.17348 0.24230
# Poissons Ratio (z) = 0.23392 0.43512
#
# Static dielectric constant tensor:
#      x y z
#    x 1.784330 0.000000 0.059840 
#    y 0.000000 1.753810 0.000000 
#    z 0.059840 0.000000 1.846950 
# 
# From -- ./inp_files/301059.got.cif
#   From: 2010.05.17/outbox.cif.g08.bks.cpg/sg12_151_cif.got.tgz:301059.got - 2010.06.03 13:09:07.
