data_PCOD9215808
_publ_section_title
;
Structure prediction by ZEFSAII (Michael W. Deem and Ramdas Pophale) SiO2 
 PCOD9215808
Probable space group: C 2/M
;
_chemical_formula_sum "Si O2"
_cell_formula_units_Z 48
_cell_length_a 23.012389
_cell_length_b 15.133792
_cell_length_c 6.345523
_cell_angle_alpha 90.000000
_cell_angle_beta 69.796368
_cell_angle_gamma 90.000000
_cell_volume 2073.947737
_symmetry_space_group_name_H-M "C 2/M"
_symmetry_group_IT_number 12
_symmetry_cell_setting 'monoclinic'
loop_
_space_group_symop_operation_xyz
x,y,z
-x,y,-z
-x,-y,-z
x,-y,z
1/2+x,1/2+y,z
1/2-x,1/2+y,-z
1/2-x,1/2-y,-z
1/2+x,1/2-y,z
loop_
_atom_site_type_symbol
_atom_site_label
_atom_site_fract_x
_atom_site_fract_y
_atom_site_fract_z
Si Si1 0.771564 0.838528 0.086395
Si Si2 0.384833 0.397638 0.650644
Si Si3 0.463520 0.288304 0.853645
Si Si4 0.857416 0.596754 0.627434
Si Si5 0.141503 0.763558 0.687218
Si Si6 0.023035 0.600148 0.213481
O O1 0.710453 0.896797 0.185896
O O2 0.797643 0.804796 0.278549
O O3 0.750000 0.750000 0.000000
O O4 0.824845 0.882597 0.877140
O O5 0.391796 0.500000 0.594454
O O6 0.441036 0.357069 0.712916
O O7 0.379295 0.338950 0.449367
O O8 0.498468 0.202125 0.720044
O O9 0.500000 0.331868 0.000000
O O10 0.403459 0.250634 0.055474
O O11 0.864534 0.500000 0.518069
O O12 0.857375 0.674164 0.452290
O O13 0.910644 0.604484 0.742017
O O14 0.002232 0.500000 0.296568
O O15 0.000000 0.598606 0.000000
#
# Coordination Sequence:
#
# PCOD9215808 Si02
#       6
#     8   8   8   8   8   8
#     4  11  22  42  65  90 131 170 207 257 312 376
#     4  11  24  42  64  92 127 166 211 262 318 370
#     4  10  22  42  66  89 125 169 211 261 318 376
#     4  11  21  37  63  97 129 167 214 252 309 383
#     4  11  23  41  63  92 129 163 208 263 316 367
#     4   9  18  37  63  90 126 166 204 254 315 375
#
# _framework density 23.144265999999998
#
# number of rings (size 3 to 8) (size 9 to 14) (size 15 to 20)
#    0.000    1.500    3.333    2.000    0.000    5.000 
#    0.000    1.667    0.000    5.000    0.000    0.000 
#    0.000    0.000    0.000    0.000    0.000    0.000 
#
# Total GULP energy -133739.647550 kJ/mol
# GULP energy per Si atom -5572.485315 kJ/mol
# Density = 2.309159 g / cm^3
# Si number density = 23.144266 Si / 1000 Ang^3
#
#
#
# Elastic Constant Matrix: (Units=GPa)
#
#
# Indices 1 2 3 4 5 6 
#
# 1 98.1571 23.3137 36.1494 0.0000 18.1894 0.0000
# 2 23.3137 207.0126 61.5083 0.0000 24.5283 0.0000
# 3 36.1494 61.5083 132.7448 0.0000 29.3693 0.0000
# 4 0.0000 0.0000 0.0000 -9.3327 0.0000 21.9060
# 5 18.1894 24.5283 29.3693 0.0000 62.3016 0.0000
# 6 0.0000 0.0000 0.0000 21.9060 0.0000 -40.5770
#
#
#
# Elastic Compliance Matrix: (Units=1/GPa)
#
#
# Indices 1 2 3 4 5 6 
#
# 1 0.011583 -0.000300 -0.002560 0.000000 -0.002057 0.000000
# 2 -0.000300 0.005677 -0.002315 0.000000 -0.001056 0.000000
# 3 -0.002560 -0.002315 0.009977 0.000000 -0.003044 0.000000
# 4 0.000000 0.000000 0.000000 0.401041 0.000000 0.216506
# 5 -0.002057 -0.001056 -0.003044 0.000000 0.018502 0.000000
# 6 0.000000 0.000000 0.000000 0.216506 0.000000 0.092239
#
#
# Mechanical properties :
#
#
# Convention : Reuss Voigt Hill
#
# Bulk Modulus (GPa) = 59.22051 75.53970 67.38011
# Shear Modulus (GPa) = 9.00902 23.60793 16.30848
#
# Velocity S-wave (km/s) = 1.97510 3.19726 2.65739
# Velocity P-wave (km/s) = 5.55378 6.80731 6.21224
#
# Compressibility (1/GPa) = 0.01688604
#
# Stress axis : x y z
#
# Youngs Moduli (GPa) = 86.33310 176.13397 100.23284
#
# Poissons Ratio (x) = 0.05285 0.25662
# Poissons Ratio (y) = 0.02591 0.23207
# Poissons Ratio (z) = 0.22103 0.40781
#
# Static dielectric constant tensor:
#      x y z
#    x 1.981090 0.000000 -0.091750 
#    y 0.000000 1.829370 0.000000 
#    z -0.091750 0.000000 1.913390 
# 
# From -- ./inp_files/28136.got.cif
#   From: 2010.05.17/outbox.cif.g08.bks.cpg/sg12_15_cif.got.tgz:28136.got - 2010.06.03 13:09:07.
