data_PCOD9215276
_publ_section_title
;
Structure prediction by ZEFSAII (Michael W. Deem and Ramdas Pophale) SiO2 
 PCOD9215276
Probable space group: C 2/M
;
_chemical_formula_sum "Si O2"
_cell_formula_units_Z 48
_cell_length_a 14.610299
_cell_length_b 10.031127
_cell_length_c 23.509205
_cell_angle_alpha 90.000000
_cell_angle_beta 44.550589
_cell_angle_gamma 90.000000
_cell_volume 2417.121277
_symmetry_space_group_name_H-M "C 2/M"
_symmetry_group_IT_number 12
_symmetry_cell_setting 'monoclinic'
loop_
_space_group_symop_operation_xyz
x,y,z
-x,y,-z
-x,-y,-z
x,-y,z
1/2+x,1/2+y,z
1/2-x,1/2+y,-z
1/2-x,1/2-y,-z
1/2+x,1/2-y,z
loop_
_atom_site_type_symbol
_atom_site_label
_atom_site_fract_x
_atom_site_fract_y
_atom_site_fract_z
Si Si1 0.132977 0.154518 0.907001
Si Si2 0.183195 0.150837 0.369340
Si Si3 0.885334 0.151736 0.219935
Si Si4 0.465399 0.713937 0.378262
Si Si5 0.124623 0.842590 0.196553
Si Si6 0.322264 0.859278 0.529837
O O1 0.107808 0.166793 0.850669
O O2 0.245436 0.259287 0.872173
O O3 0.172774 0.000000 0.900427
O O4 0.000000 0.179277 0.000000
O O5 0.291220 0.237731 0.288360
O O6 0.156510 0.235206 0.437940
O O7 0.058498 0.146025 0.383306
O O8 0.225014 0.000000 0.363731
O O9 0.025249 0.163585 0.187957
O O10 0.837690 0.000000 0.253258
O O11 0.549766 0.722079 0.283765
O O12 0.413514 0.843841 0.434313
O O13 0.328930 0.644869 0.422331
O O14 0.148693 0.000000 0.198624
O O15 0.347724 0.000000 0.547731
#
# Coordination Sequence:
#
# PCOD9215276 Si02
#       6
#     8   8   8   8   8   8
#     4  10  23  43  67  97 129 160 200 254 311 371
#     4  12  24  39  62  91 124 162 209 263 313 362
#     4  10  22  41  64  90 125 165 204 251 308 373
#     4  11  24  40  62  90 125 166 210 260 308 364
#     4  11  22  41  66  91 124 168 208 251 309 369
#     4  11  25  44  63  88 125 169 216 260 309 368
#
# _framework density 19.858332000000001
#
# number of rings (size 3 to 8) (size 9 to 14) (size 15 to 20)
#    0.000    1.167    3.333    2.500    0.000    9.000 
#    0.000    0.000    0.000    0.000    0.000    0.000 
#    0.000    0.000    0.000    0.000    0.000    0.000 
#
# Total GULP energy -134037.353756 kJ/mol
# GULP energy per Si atom -5584.889740 kJ/mol
# Density = 1.981313 g / cm^3
# Si number density = 19.858332 Si / 1000 Ang^3
#
#
#
# Elastic Constant Matrix: (Units=GPa)
#
#
# Indices 1 2 3 4 5 6 
#
# 1 95.9463 48.9763 18.2007 0.0000 -16.0937 0.0000
# 2 48.9763 138.1113 69.6792 0.0000 -8.4667 0.0000
# 3 18.2007 69.6792 108.4461 0.0000 -19.2106 0.0000
# 4 0.0000 0.0000 0.0000 -49.2516 0.0000 43.7911
# 5 -16.0937 -8.4667 -19.2106 0.0000 21.1447 0.0000
# 6 0.0000 0.0000 0.0000 43.7911 0.0000 -9.2443
#
#
#
# Elastic Compliance Matrix: (Units=1/GPa)
#
#
# Indices 1 2 3 4 5 6 
#
# 1 0.015111 -0.006550 0.003868 0.000000 0.012393 0.000000
# 2 -0.006550 0.013651 -0.009042 0.000000 -0.007734 0.000000
# 3 0.003868 -0.009042 0.016997 0.000000 0.014766 0.000000
# 4 0.000000 0.000000 0.000000 0.006321 0.000000 0.029945
# 5 0.012393 -0.007734 0.014766 0.000000 0.067044 0.000000
# 6 0.000000 0.000000 0.000000 0.029945 0.000000 0.033679
#
#
# Mechanical properties :
#
#
# Convention : Reuss Voigt Hill
#
# Bulk Modulus (GPa) = 44.82106 68.46846 56.64476
# Shear Modulus (GPa) = 27.21982 6.23959 16.72970
#
# Velocity S-wave (km/s) = 3.70631 1.77451 2.90565
# Velocity P-wave (km/s) = 6.39805 6.22509 6.31217
#
# Compressibility (1/GPa) = 0.02231094
#
# Stress axis : x y z
#
# Youngs Moduli (GPa) = 66.17638 73.25480 58.83281
#
# Poissons Ratio (x) = 0.47984 -0.22756
# Poissons Ratio (y) = 0.43348 0.53196
# Poissons Ratio (z) = -0.25596 0.66236
#
# Static dielectric constant tensor:
#      x y z
#    x 1.705050 0.000000 0.006770 
#    y 0.000000 1.717290 0.000000 
#    z 0.006770 0.000000 1.677690 
# 
# From -- ./inp_files/360232.got.cif
#   From: 2010.05.17/outbox.cif.g08.bks.cpg/sg12_181_cif.got.tgz:360232.got - 2010.06.03 13:09:07.
