data_PCOD9215871
_publ_section_title
;
Structure prediction by ZEFSAII (Michael W. Deem and Ramdas Pophale) SiO2 
 PCOD9215871
Probable space group: C 2/M
;
_chemical_formula_sum "Si O2"
_cell_formula_units_Z 48
_cell_length_a 18.401271
_cell_length_b 11.827540
_cell_length_c 11.169167
_cell_angle_alpha 90.000000
_cell_angle_beta 107.593309
_cell_angle_gamma 90.000000
_cell_volume 2317.175341
_symmetry_space_group_name_H-M "C 2/M"
_symmetry_group_IT_number 12
_symmetry_cell_setting 'monoclinic'
loop_
_space_group_symop_operation_xyz
x,y,z
-x,y,-z
-x,-y,-z
x,-y,z
1/2+x,1/2+y,z
1/2-x,1/2+y,-z
1/2-x,1/2-y,-z
1/2+x,1/2-y,z
loop_
_atom_site_type_symbol
_atom_site_label
_atom_site_fract_x
_atom_site_fract_y
_atom_site_fract_z
Si Si1 0.917000 0.741208 0.647652
Si Si2 0.070134 0.500000 0.930559
Si Si3 0.455340 0.635787 0.167110
Si Si4 0.103718 0.130471 0.601237
Si Si5 0.784618 0.634970 0.695465
Si Si6 0.489911 0.000000 0.639249
Si Si7 0.668580 0.224196 0.024135
O O1 0.928293 0.809258 0.531372
O O2 0.828625 0.713262 0.623503
O O3 0.948866 0.616764 0.646256
O O4 0.962215 0.803310 0.778747
O O5 0.122422 0.610294 0.969198
O O6 0.049035 0.500000 0.779139
O O7 0.000000 0.500000 0.000000
O O8 0.463317 0.500000 0.163192
O O9 0.419015 0.670775 0.277891
O O10 0.394575 0.679937 0.039208
O O11 0.194629 0.137205 0.637999
O O12 0.081459 0.000000 0.585060
O O13 0.806890 0.500000 0.706340
O O14 0.808398 0.696427 0.829419
O O15 0.500000 0.000000 0.500000
O O16 0.750000 0.250000 0.000000
#
# Coordination Sequence:
#
# PCOD9215871 Si02
#       7
#     8   4   8   8   8   4   8
#     4  12  23  41  65  98 132 172 224 278 340 416
#     4  12  26  48  76 106 137 191 243 289 361 433
#     4  11  24  42  66  96 130 172 222 275 339 404
#     4  10  22  42  67  92 129 174 219 268 343 413
#     4  11  23  43  68  96 130 180 224 275 341 419
#     4  12  24  38  64 104 138 172 226 300 348 400
#     4  12  25  42  72  99 133 175 232 287 339 419
#
# _framework density 20.714876
#
# number of rings (size 3 to 8) (size 9 to 14) (size 15 to 20)
#    0.000    0.667    5.000    3.500    1.167    1.333 
#    0.000    2.500    1.833    0.000    0.000    0.000 
#    0.000    0.000    0.000    0.000    0.000    0.000 
#
# Total GULP energy -133774.261376 kJ/mol
# GULP energy per Si atom -5573.927557 kJ/mol
# Density = 2.066773 g / cm^3
# Si number density = 20.714876 Si / 1000 Ang^3
#
#
#
# Elastic Constant Matrix: (Units=GPa)
#
#
# Indices 1 2 3 4 5 6 
#
# 1 98.0564 26.4579 16.2293 0.0000 12.3158 0.0000
# 2 26.4579 84.0900 25.7678 0.0000 10.2395 0.0000
# 3 16.2293 25.7678 94.6533 0.0000 16.9481 0.0000
# 4 0.0000 0.0000 0.0000 37.8204 0.0000 -0.9848
# 5 12.3158 10.2395 16.9481 0.0000 32.5536 0.0000
# 6 0.0000 0.0000 0.0000 -0.9848 0.0000 23.8176
#
#
#
# Elastic Compliance Matrix: (Units=1/GPa)
#
#
# Indices 1 2 3 4 5 6 
#
# 1 0.011510 -0.003066 -0.000586 0.000000 -0.003085 0.000000
# 2 -0.003066 0.013974 -0.002977 0.000000 -0.001686 0.000000
# 3 -0.000586 -0.002977 0.012427 0.000000 -0.005311 0.000000
# 4 0.000000 0.000000 0.000000 0.026469 0.000000 0.001094
# 5 -0.003085 -0.001686 -0.005311 0.000000 0.035181 0.000000
# 6 0.000000 0.000000 0.000000 0.001094 0.000000 0.042031
#
#
# Mechanical properties :
#
#
# Convention : Reuss Voigt Hill
#
# Bulk Modulus (GPa) = 40.56395 45.96775 43.26585
# Shear Modulus (GPa) = 30.66199 32.72799 31.69499
#
# Velocity S-wave (km/s) = 3.85150 3.97914 3.91584
# Velocity P-wave (km/s) = 6.27720 6.58409 6.43248
#
# Compressibility (1/GPa) = 0.02465243
#
# Stress axis : x y z
#
# Youngs Moduli (GPa) = 86.88064 71.56060 80.47109
#
# Poissons Ratio (x) = 0.21942 0.04719
# Poissons Ratio (y) = 0.26639 0.23954
# Poissons Ratio (z) = 0.05095 0.21301
#
# Static dielectric constant tensor:
#      x y z
#    x 1.843180 0.000000 0.001530 
#    y 0.000000 1.720260 0.000000 
#    z 0.001530 0.000000 1.681970 
# 
# From -- ./inp_files/154329.got.cif
#   From: 2010.05.17/outbox.cif.g08.bks.cpg/sg12_78_cif.got.tgz:154329.got - 2010.06.03 13:09:07.
