data_PCOD9215214
_publ_section_title
;
Structure prediction by ZEFSAII (Michael W. Deem and Ramdas Pophale) SiO2 
 PCOD9215214
Probable space group: C 2/M
;
_chemical_formula_sum "Si O2"
_cell_formula_units_Z 56
_cell_length_a 26.170041
_cell_length_b 17.598888
_cell_length_c 9.674163
_cell_angle_alpha 90.000000
_cell_angle_beta 35.695098
_cell_angle_gamma 90.000000
_cell_volume 2599.697701
_symmetry_space_group_name_H-M "C 2/M"
_symmetry_group_IT_number 12
_symmetry_cell_setting 'monoclinic'
loop_
_space_group_symop_operation_xyz
x,y,z
-x,y,-z
-x,-y,-z
x,-y,z
1/2+x,1/2+y,z
1/2-x,1/2+y,-z
1/2-x,1/2-y,-z
1/2+x,1/2-y,z
loop_
_atom_site_type_symbol
_atom_site_label
_atom_site_fract_x
_atom_site_fract_y
_atom_site_fract_z
Si Si1 0.145810 0.587835 0.339849
Si Si2 0.462837 0.342211 0.939942
Si Si3 0.667399 0.784537 0.763678
Si Si4 0.099363 0.586119 0.734951
Si Si5 0.717303 0.815204 0.964381
Si Si6 0.892503 0.093105 0.581769
Si Si7 0.650011 0.586585 0.024957
O O1 0.121211 0.500000 0.366924
O O2 0.099904 0.618850 0.577909
O O3 0.142312 0.638900 0.211598
O O4 0.248347 0.589889 0.159520
O O5 0.537440 0.362042 0.664299
O O6 0.375779 0.376215 0.061205
O O7 0.500000 0.375720 0.000000
O O8 0.425089 0.258929 0.056147
O O9 0.750000 0.750000 0.500000
O O10 0.653730 0.866819 0.726024
O O11 0.686384 0.783792 0.885587
O O12 0.134658 0.500000 0.644916
O O13 0.000000 0.582378 0.000000
O O14 0.796182 0.874196 0.758051
O O15 0.750000 0.750000 0.000000
O O16 0.899804 0.113968 0.728234
O O17 0.897182 0.000000 0.557659
O O18 0.623044 0.500000 0.069463
#
# Coordination Sequence:
#
# PCOD9215214 Si02
#       7
#     8   8   8   8   8   8   8
#     4   9  19  39  65  90 118 156 207 259 309 371
#     4  12  24  37  56  86 124 162 201 249 302 361
#     4  12  25  42  62  89 127 166 208 255 307 374
#     4  10  22  42  66  89 120 163 206 255 316 376
#     4  11  22  38  63  91 123 165 211 256 304 367
#     4  10  22  41  63  90 125 159 197 251 314 373
#     4   9  18  35  59  86 121 162 198 239 297 368
#
# _framework density 21.540965
#
# number of rings (size 3 to 8) (size 9 to 14) (size 15 to 20)
#    0.000    1.571    0.000    6.857    0.000    4.571 
#    0.000    4.286    0.000    2.571    0.000    0.000 
#    0.000    0.000    0.000    0.000    0.000    0.000 
#
# Total GULP energy -156221.742918 kJ/mol
# GULP energy per Si atom -5579.347961 kJ/mol
# Density = 2.149194 g / cm^3
# Si number density = 21.540965 Si / 1000 Ang^3
#
#
#
# Elastic Constant Matrix: (Units=GPa)
#
#
# Indices 1 2 3 4 5 6 
#
# 1 92.2685 22.6899 31.9629 0.0000 31.2396 0.0000
# 2 22.6899 61.6872 31.2469 0.0000 11.1864 0.0000
# 3 31.9629 31.2469 134.8331 0.0000 24.0224 0.0000
# 4 0.0000 0.0000 0.0000 26.5577 0.0000 2.8234
# 5 31.2396 11.1864 24.0224 0.0000 37.4703 0.0000
# 6 0.0000 0.0000 0.0000 2.8234 0.0000 31.2533
#
#
#
# Elastic Compliance Matrix: (Units=1/GPa)
#
#
# Indices 1 2 3 4 5 6 
#
# 1 0.015927 -0.003262 -0.000934 0.000000 -0.011706 0.000000
# 2 -0.003262 0.019362 -0.003577 0.000000 -0.000767 0.000000
# 3 -0.000934 -0.003577 0.009187 0.000000 -0.004043 0.000000
# 4 0.000000 0.000000 0.000000 0.038019 0.000000 -0.003435
# 5 -0.011706 -0.000767 -0.004043 0.000000 0.039268 0.000000
# 6 0.000000 0.000000 0.000000 -0.003435 0.000000 0.032307
#
#
# Mechanical properties :
#
#
# Convention : Reuss Voigt Hill
#
# Bulk Modulus (GPa) = 34.56691 51.17646 42.87169
# Shear Modulus (GPa) = 27.89238 32.58220 30.23729
#
# Velocity S-wave (km/s) = 3.60231 3.89340 3.75068
# Velocity P-wave (km/s) = 5.77790 6.63481 6.22112
#
# Compressibility (1/GPa) = 0.02892940
#
# Stress axis : x y z
#
# Youngs Moduli (GPa) = 62.78633 51.64816 108.84576
#
# Poissons Ratio (x) = 0.16850 0.10166
# Poissons Ratio (y) = 0.20484 0.38933
# Poissons Ratio (z) = 0.05864 0.18474
#
# Static dielectric constant tensor:
#      x y z
#    x 1.814090 0.000000 0.000140 
#    y 0.000000 1.851610 0.000000 
#    z 0.000140 0.000000 1.807040 
# 
# From -- ./inp_files/105985.got.cif
#   From: 2010.05.17/outbox.cif.g08.bks.cpg/sg12_53_cif.got.tgz:105985.got - 2010.06.03 13:09:07.
