data_PCOD9215286
_publ_section_title
;
Structure prediction by ZEFSAII (Michael W. Deem and Ramdas Pophale) SiO2 
 PCOD9215286
Probable space group: C 2/M
;
_chemical_formula_sum "Si O2"
_cell_formula_units_Z 48
_cell_length_a 31.470337
_cell_length_b 8.789365
_cell_length_c 18.194896
_cell_angle_alpha 90.000000
_cell_angle_beta 29.824305
_cell_angle_gamma 90.000000
_cell_volume 2503.016018
_symmetry_space_group_name_H-M "C 2/M"
_symmetry_group_IT_number 12
_symmetry_cell_setting 'monoclinic'
loop_
_space_group_symop_operation_xyz
x,y,z
-x,y,-z
-x,-y,-z
x,-y,z
1/2+x,1/2+y,z
1/2-x,1/2+y,-z
1/2-x,1/2-y,-z
1/2+x,1/2-y,z
loop_
_atom_site_type_symbol
_atom_site_label
_atom_site_fract_x
_atom_site_fract_y
_atom_site_fract_z
Si Si1 0.993569 0.182406 0.423643
Si Si2 0.668070 0.818663 0.417207
Si Si3 0.169100 0.818811 0.578812
Si Si4 0.828462 0.318112 0.089821
Si Si5 0.992903 0.318264 0.096725
Si Si6 0.329485 0.682279 0.925269
O O1 0.915829 0.266747 0.501145
O O2 0.000000 0.222025 0.500000
O O3 0.082537 0.216702 0.249500
O O4 0.978811 0.000000 0.440818
O O5 0.665734 0.747633 0.501849
O O6 0.750742 0.756628 0.250494
O O7 0.671324 0.000000 0.417507
O O8 0.250000 0.750000 0.500000
O O9 0.083664 0.770213 0.749788
O O10 0.176639 0.000000 0.564330
O O11 0.816014 0.500000 0.106157
O O12 0.831833 0.252887 0.002736
O O13 0.917606 0.286928 0.997349
O O14 0.975944 0.500000 0.127904
O O15 0.000000 0.280376 0.000000
O O16 0.321117 0.500000 0.942566
O O17 0.250000 0.750000 0.000000
#
# Coordination Sequence:
#
# PCOD9215286 Si02
#       6
#     8   8   8   8   8   8
#     4  10  22  41  64  91 125 164 205 251 306 365
#     4  12  25  41  64  93 125 161 206 256 307 366
#     4  12  25  42  65  92 126 164 205 253 305 364
#     4  11  23  40  63  90 125 165 205 253 307 364
#     4  10  22  41  65  93 125 162 204 250 302 360
#     4  11  23  39  62  91 124 162 206 255 307 367
#
# _framework density 19.176863999999998
#
# number of rings (size 3 to 8) (size 9 to 14) (size 15 to 20)
#    0.000    1.000    0.000    7.000    0.000    8.667 
#    0.000    0.000    0.000    0.000    0.000    0.000 
#    0.000    0.000    0.000    0.000    0.000    0.000 
#
# Total GULP energy -134363.271920 kJ/mol
# GULP energy per Si atom -5598.469663 kJ/mol
# Density = 1.913322 g / cm^3
# Si number density = 19.176864 Si / 1000 Ang^3
#
#
#
# Elastic Constant Matrix: (Units=GPa)
#
#
# Indices 1 2 3 4 5 6 
#
# 1 215.9257 113.3950 122.1659 0.0015 9.1276 -0.0008
# 2 113.3950 138.2938 121.4948 -0.0015 -6.4254 -0.0003
# 3 122.1659 121.4948 190.2130 0.0013 5.4647 -0.0008
# 4 0.0015 -0.0015 0.0013 12.6657 -0.0009 -17.0972
# 5 9.1276 -6.4254 5.4647 -0.0009 39.8631 0.0003
# 6 -0.0008 -0.0003 -0.0008 -17.0972 0.0003 23.1002
#
#
#
# Elastic Compliance Matrix: (Units=1/GPa)
#
#
# Indices 1 2 3 4 5 6 
#
# 1 0.008815 -0.005567 -0.002030 -0.001510 -0.002637 -0.001117
# 2 -0.005567 0.020694 -0.009813 0.004484 0.005956 0.003319
# 3 -0.002030 -0.009813 0.012912 -0.002311 -0.002887 -0.001710
# 4 -0.001510 0.004484 -0.002311 87.221663 0.002865 64.555840
# 5 -0.002637 0.005956 -0.002887 0.002865 0.027046 0.002120
# 6 -0.001117 0.003319 -0.001710 64.555840 0.002120 47.823353
#
#
# Mechanical properties :
#
#
# Convention : Reuss Voigt Hill
#
# Bulk Modulus (GPa) = 131.57668 139.83822 135.70745
# Shear Modulus (GPa) = 0.03700 27.61758 13.82729
#
# Velocity S-wave (km/s) = 0.13905 3.79905 2.68813
# Velocity P-wave (km/s) = 8.29379 9.60845 8.97522
#
# Compressibility (1/GPa) = 0.00760013
#
# Stress axis : x y z
#
# Youngs Moduli (GPa) = 113.44752 48.32347 77.44820
#
# Poissons Ratio (x) = 0.26902 0.15719
# Poissons Ratio (y) = 0.63158 0.76003
# Poissons Ratio (z) = 0.23025 0.47422
#
# Static dielectric constant tensor:
#      x y z
#    x 1.626770 0.000000 0.000520 
#    y 0.000000 1.641720 0.000000 
#    z 0.000520 0.000000 1.627440 
# 
# From -- ./inp_files/295363.got.cif
#   From: 2010.05.17/outbox.cif.g08.bks.cpg/sg12_148_cif.got.tgz:295363.got - 2010.06.03 13:09:07.
