data_PCOD9215197
_publ_section_title
;
Structure prediction by ZEFSAII (Michael W. Deem and Ramdas Pophale) SiO2 
 PCOD9215197
Probable space group: C 2/M
;
_chemical_formula_sum "Si O2"
_cell_formula_units_Z 40
_cell_length_a 18.121267
_cell_length_b 8.834097
_cell_length_c 13.814237
_cell_angle_alpha 90.000000
_cell_angle_beta 71.221282
_cell_angle_gamma 90.000000
_cell_volume 2093.734493
_symmetry_space_group_name_H-M "C 2/M"
_symmetry_group_IT_number 12
_symmetry_cell_setting 'monoclinic'
loop_
_space_group_symop_operation_xyz
x,y,z
-x,y,-z
-x,-y,-z
x,-y,z
1/2+x,1/2+y,z
1/2-x,1/2+y,-z
1/2-x,1/2-y,-z
1/2+x,1/2-y,z
loop_
_atom_site_type_symbol
_atom_site_label
_atom_site_fract_x
_atom_site_fract_y
_atom_site_fract_z
Si Si1 0.167197 0.318999 0.005116
Si Si2 0.031595 0.818877 0.194664
Si Si3 0.927053 0.819035 0.599585
Si Si4 0.634321 0.819156 0.793121
Si Si5 0.234676 0.680376 0.401000
O O1 0.168270 0.500000 0.018250
O O2 0.099445 0.247079 0.098667
O O3 0.250000 0.250000 0.000000
O O4 0.150554 0.288113 0.899230
O O5 0.051493 0.786780 0.298333
O O6 0.949546 0.745421 0.200933
O O7 0.027117 0.000000 0.184949
O O8 0.850094 0.731941 0.599704
O O9 0.000000 0.781714 0.500000
O O10 0.912467 0.000000 0.597017
O O11 0.700632 0.743758 0.699739
O O12 0.635793 0.000000 0.778391
O O13 0.239754 0.500000 0.403745
O O14 0.250000 0.750000 0.500000
#
# Coordination Sequence:
#
# PCOD9215197 Si02
#       5
#     8   8   8   8   8
#     4  11  24  41  62  89 123 163 205 254 308 361
#     4  11  23  39  63  93 124 161 204 252 306 364
#     4  10  22  41  63  89 123 160 201 250 302 358
#     4  11  24  42  63  89 123 161 204 253 304 359
#     4  12  25  41  64  92 123 160 202 249 302 361
#
# _framework density 19.104620000000001
#
# number of rings (size 3 to 8) (size 9 to 14) (size 15 to 20)
#    0.000    1.000    0.000    6.600    0.000   14.000 
#    0.000    0.000    0.000    0.000    0.000    0.000 
#    0.000    0.000    0.000    0.000    0.000    0.000 
#
# Total GULP energy -111968.203691 kJ/mol
# GULP energy per Si atom -5598.410185 kJ/mol
# Density = 1.906114 g / cm^3
# Si number density = 19.104620 Si / 1000 Ang^3
#
#
#
# Elastic Constant Matrix: (Units=GPa)
#
#
# Indices 1 2 3 4 5 6 
#
# 1 213.4831 117.1498 128.1527 0.0000 -6.0015 0.0000
# 2 117.1498 128.4966 126.8974 0.0000 7.1473 0.0000
# 3 128.1527 126.8974 205.1622 0.0000 -12.2072 0.0000
# 4 0.0000 0.0000 0.0000 32.1406 0.0000 0.1102
# 5 -6.0015 7.1473 -12.2072 0.0000 40.7791 0.0000
# 6 0.0000 0.0000 0.0000 0.1102 0.0000 44.1955
#
#
#
# Elastic Compliance Matrix: (Units=1/GPa)
#
#
# Indices 1 2 3 4 5 6 
#
# 1 0.009785 -0.008178 -0.000899 0.000000 0.002604 0.000000
# 2 -0.008178 0.029249 -0.013602 0.000000 -0.010402 0.000000
# 3 -0.000899 -0.013602 0.014236 0.000000 0.006513 0.000000
# 4 0.000000 0.000000 0.000000 0.031114 0.000000 -0.000078
# 5 0.002604 -0.010402 0.006513 0.000000 0.028679 0.000000
# 6 0.000000 0.000000 0.000000 -0.000078 0.000000 0.022627
#
#
# Mechanical properties :
#
#
# Convention : Reuss Voigt Hill
#
# Bulk Modulus (GPa) = 126.37498 143.50461 134.93980
# Shear Modulus (GPa) = 27.22064 35.08586 31.15325
#
# Velocity S-wave (km/s) = 3.77877 4.29010 4.04253
# Velocity P-wave (km/s) = 9.23750 9.99091 9.62158
#
# Compressibility (1/GPa) = 0.00791296
#
# Stress axis : x y z
#
# Youngs Moduli (GPa) = 102.20198 34.18869 70.24327
#
# Poissons Ratio (x) = 0.27959 0.06312
# Poissons Ratio (y) = 0.83580 0.95545
# Poissons Ratio (z) = 0.09184 0.46504
#
# Static dielectric constant tensor:
#      x y z
#    x 1.615280 0.000000 0.005120 
#    y 0.000000 1.641600 0.000000 
#    z 0.005120 0.000000 1.633560 
# 
# From -- ./inp_files/151747.got.cif
#   From: 2010.05.17/outbox.cif.g08.bks.cpg/sg12_76_cif.got.tgz:151747.got - 2010.06.03 13:09:07.
