data_PCOD9215910
_publ_section_title
;
Structure prediction by ZEFSAII (Michael W. Deem and Ramdas Pophale) SiO2 
 PCOD9215910
Probable space group: C 2/M
;
_chemical_formula_sum "Si O2"
_cell_formula_units_Z 40
_cell_length_a 13.883262
_cell_length_b 11.407176
_cell_length_c 11.122238
_cell_angle_alpha 90.000000
_cell_angle_beta 93.614145
_cell_angle_gamma 90.000000
_cell_volume 1757.912521
_symmetry_space_group_name_H-M "C 2/M"
_symmetry_group_IT_number 12
_symmetry_cell_setting 'monoclinic'
loop_
_space_group_symop_operation_xyz
x,y,z
-x,y,-z
-x,-y,-z
x,-y,z
1/2+x,1/2+y,z
1/2-x,1/2+y,-z
1/2-x,1/2-y,-z
1/2+x,1/2-y,z
loop_
_atom_site_type_symbol
_atom_site_label
_atom_site_fract_x
_atom_site_fract_y
_atom_site_fract_z
Si Si1 0.088321 0.133700 0.587154
Si Si2 0.628325 0.871349 0.261856
Si Si3 0.809877 0.629103 0.002913
Si Si4 0.091411 0.334951 0.737416
Si Si5 0.215537 0.130579 0.374600
O O1 0.095213 0.196325 0.714308
O O2 0.182012 0.142043 0.509748
O O3 0.000000 0.183777 0.500000
O O4 0.065754 0.000000 0.606407
O O5 0.517230 0.872563 0.293060
O O6 0.674317 0.747308 0.306945
O O7 0.671765 0.000000 0.301017
O O8 0.632300 0.868732 0.117232
O O9 0.758679 0.500000 0.001322
O O10 0.873906 0.631967 0.128113
O O11 0.750000 0.750000 0.000000
O O12 0.171115 0.374406 0.646226
O O13 0.177234 0.000000 0.333096
#
# Coordination Sequence:
#
# PCOD9215910 Si02
#       5
#     8   8   8   8   8
#     4  10  22  42  67  98 137 176 220 276 333 389
#     4  11  24  42  66  99 134 172 219 274 331 391
#     4  11  24  43  68  97 135 173 219 273 330 393
#     4  12  23  41  70  97 130 178 223 268 333 392
#     4  11  23  43  69  97 133 176 222 273 328 392
#
# _framework density 22.754261
#
# number of rings (size 3 to 8) (size 9 to 14) (size 15 to 20)
#    0.000    1.000    4.000    3.000    0.000    3.200 
#    0.000    4.000    0.000    3.600    0.000    0.000 
#    0.000    0.000    0.000    0.000    0.000    0.000 
#
# Total GULP energy -111589.297620 kJ/mol
# GULP energy per Si atom -5579.464881 kJ/mol
# Density = 2.270247 g / cm^3
# Si number density = 22.754261 Si / 1000 Ang^3
#
#
#
# Elastic Constant Matrix: (Units=GPa)
#
#
# Indices 1 2 3 4 5 6 
#
# 1 111.9744 42.6225 19.8892 0.0000 -22.2260 0.0000
# 2 42.6225 213.8998 58.4163 0.0000 -0.3942 0.0000
# 3 19.8892 58.4163 78.6961 0.0000 -10.3020 0.0000
# 4 0.0000 0.0000 0.0000 38.8145 0.0000 3.4200
# 5 -22.2260 -0.3942 -10.3020 0.0000 27.9112 0.0000
# 6 0.0000 0.0000 0.0000 3.4200 0.0000 17.3666
#
#
#
# Elastic Compliance Matrix: (Units=1/GPa)
#
#
# Indices 1 2 3 4 5 6 
#
# 1 0.011641 -0.002294 -0.000031 0.000000 0.009225 0.000000
# 2 -0.002294 0.006385 -0.004610 0.000000 -0.003438 0.000000
# 3 -0.000031 -0.004610 0.016944 0.000000 0.006164 0.000000
# 4 0.000000 0.000000 0.000000 0.026219 0.000000 -0.005163
# 5 0.009225 -0.003438 0.006164 0.000000 0.045401 0.000000
# 6 0.000000 0.000000 0.000000 -0.005163 0.000000 0.058599
#
#
# Mechanical properties :
#
#
# Convention : Reuss Voigt Hill
#
# Bulk Modulus (GPa) = 47.39605 71.82513 59.61059
# Shear Modulus (GPa) = 26.86870 35.72795 31.29832
#
# Velocity S-wave (km/s) = 3.44003 3.96683 3.71279
# Velocity P-wave (km/s) = 6.05419 7.25363 6.68088
#
# Compressibility (1/GPa) = 0.02109880
#
# Stress axis : x y z
#
# Youngs Moduli (GPa) = 85.90645 156.62269 59.01879
#
# Poissons Ratio (x) = 0.35928 0.00186
# Poissons Ratio (y) = 0.19706 0.27206
# Poissons Ratio (z) = 0.00270 0.72199
#
# Static dielectric constant tensor:
#      x y z
#    x 1.892860 0.000000 0.033640 
#    y 0.000000 2.013890 0.000000 
#    z 0.033640 0.000000 1.820780 
# 
# From -- ./inp_files/140380.got.cif
#   From: 2010.05.17/outbox.cif.g08.bks.cpg/sg12_71_cif.got.tgz:140380.got - 2010.06.03 13:09:07.
