data_PCOD9215293
_publ_section_title
;
Structure prediction by ZEFSAII (Michael W. Deem and Ramdas Pophale) SiO2 
 PCOD9215293
Probable space group: C 2/M
;
_chemical_formula_sum "Si O2"
_cell_formula_units_Z 58
_cell_length_a 23.547654
_cell_length_b 7.823088
_cell_length_c 15.692993
_cell_angle_alpha 90.000000
_cell_angle_beta 121.522453
_cell_angle_gamma 90.000000
_cell_volume 2464.297237
_symmetry_space_group_name_H-M "C 2/M"
_symmetry_group_IT_number 12
_symmetry_cell_setting 'monoclinic'
loop_
_space_group_symop_operation_xyz
x,y,z
-x,y,-z
-x,-y,-z
x,-y,z
1/2+x,1/2+y,z
1/2-x,1/2+y,-z
1/2-x,1/2-y,-z
1/2+x,1/2-y,z
loop_
_atom_site_type_symbol
_atom_site_label
_atom_site_fract_x
_atom_site_fract_y
_atom_site_fract_z
Si Si1 0.384947 0.304275 0.250496
Si Si2 0.738004 0.704436 0.588475
Si Si3 0.899891 0.190575 0.951665
Si Si4 0.000000 0.500000 0.500000
Si Si5 0.409347 0.699265 0.470083
Si Si6 0.620820 0.194864 0.246403
Si Si7 0.016407 0.299169 0.818673
Si Si8 0.741504 0.794893 0.091833
O O1 0.379591 0.500000 0.216105
O O2 0.405322 0.303439 0.364036
O O3 0.436594 0.222424 0.226104
O O4 0.310022 0.233302 0.187868
O O5 0.734847 0.500000 0.600292
O O6 0.750000 0.750000 0.500000
O O7 0.663872 0.758892 0.556611
O O8 0.804752 0.771185 0.688551
O O9 0.903360 0.304819 0.870343
O O10 0.824687 0.208794 0.925958
O O11 0.913478 0.000000 0.931802
O O12 0.946819 0.228215 0.068642
O O13 0.037634 0.347956 0.472467
O O14 0.423464 0.500000 0.508316
O O15 0.558611 0.274025 0.248979
O O16 0.628935 0.000000 0.283542
O O17 0.009210 0.500000 0.828208
O O18 0.733795 0.000000 0.098033
O O19 0.750000 0.750000 0.000000
#
# Coordination Sequence:
#
# PCOD9215293 Si02
#       8
#     8   8   8   2   8   8   8   8
#     4  10  22  41  64  91 136 176 219 275 338 401
#     4  10  23  46  74 102 137 175 225 291 353 418
#     4  12  24  38  59  91 131 175 224 274 331 399
#     4  12  26  44  76 106 140 180 230 290 340 446
#     4  10  24  47  72 106 144 183 224 286 356 413
#     4  10  23  44  65  91 127 174 224 278 341 396
#     4  11  23  38  62  94 133 177 226 277 332 403
#     4  11  21  36  59  88 122 169 215 266 324 387
#
# _framework density 23.536123
#
# number of rings (size 3 to 8) (size 9 to 14) (size 15 to 20)
#    0.000    1.379    1.379    3.517    1.931    7.172 
#    4.966    1.379    0.000    0.000    0.000    0.000 
#    0.000    0.000    0.000    0.000    0.000    0.000 
#
# Total GULP energy -161783.583475 kJ/mol
# GULP energy per Si atom -5578.744258 kJ/mol
# Density = 2.348255 g / cm^3
# Si number density = 23.536123 Si / 1000 Ang^3
#
#
#
# Elastic Constant Matrix: (Units=GPa)
#
#
# Indices 1 2 3 4 5 6 
#
# 1 174.8815 24.6667 23.0041 0.0000 36.5767 0.0000
# 2 24.6667 77.1401 13.8884 0.0000 19.3183 0.0000
# 3 23.0041 13.8884 39.5529 0.0000 8.7388 0.0000
# 4 0.0000 0.0000 0.0000 6.1477 0.0000 -10.3164
# 5 36.5767 19.3183 8.7388 0.0000 35.8421 0.0000
# 6 0.0000 0.0000 0.0000 -10.3164 0.0000 25.9455
#
#
#
# Elastic Compliance Matrix: (Units=1/GPa)
#
#
# Indices 1 2 3 4 5 6 
#
# 1 0.007563 -0.000176 -0.002804 0.000000 -0.006940 0.000000
# 2 -0.000176 0.015514 -0.003739 0.000000 -0.007271 0.000000
# 3 -0.002804 -0.003739 0.028694 0.000000 -0.002120 0.000000
# 4 0.000000 0.000000 0.000000 0.488829 0.000000 0.194367
# 5 -0.006940 -0.007271 -0.002120 0.000000 0.039418 0.000000
# 6 0.000000 0.000000 0.000000 0.194367 0.000000 0.115826
#
#
# Mechanical properties :
#
#
# Convention : Reuss Voigt Hill
#
# Bulk Modulus (GPa) = 26.08601 46.07700 36.08150
# Shear Modulus (GPa) = 6.92465 28.92141 17.92303
#
# Velocity S-wave (km/s) = 1.71713 3.50924 2.76254
# Velocity P-wave (km/s) = 3.87799 6.00328 5.05362
#
# Compressibility (1/GPa) = 0.03833472
#
# Stress axis : x y z
#
# Youngs Moduli (GPa) = 132.21823 64.45972 34.84994
#
# Poissons Ratio (x) = 0.01132 0.09771
# Poissons Ratio (y) = 0.02323 0.13030
# Poissons Ratio (z) = 0.37072 0.24100
#
# Static dielectric constant tensor:
#      x y z
#    x 1.894760 0.000000 0.061890 
#    y 0.000000 1.910110 0.000000 
#    z 0.061890 0.000000 1.896010 
# 
# From -- ./inp_files/282249.got.cif
#   From: 2010.05.17/outbox.cif.g08.bks.cpg/sg12_142_cif.got.tgz:282249.got - 2010.06.03 13:09:07.
