data_PCOD9215040
_publ_section_title
;
Structure prediction by ZEFSAII (Michael W. Deem and Ramdas Pophale) SiO2 
 PCOD9215040
Probable space group: C 2/M
;
_chemical_formula_sum "Si O2"
_cell_formula_units_Z 48
_cell_length_a 18.702839
_cell_length_b 16.936607
_cell_length_c 15.380909
_cell_angle_alpha 90.000000
_cell_angle_beta 154.514121
_cell_angle_gamma 90.000000
_cell_volume 2096.408071
_symmetry_space_group_name_H-M "C 2/M"
_symmetry_group_IT_number 12
_symmetry_cell_setting 'monoclinic'
loop_
_space_group_symop_operation_xyz
x,y,z
-x,y,-z
-x,-y,-z
x,-y,z
1/2+x,1/2+y,z
1/2-x,1/2+y,-z
1/2-x,1/2-y,-z
1/2+x,1/2-y,z
loop_
_atom_site_type_symbol
_atom_site_label
_atom_site_fract_x
_atom_site_fract_y
_atom_site_fract_z
Si Si1 0.373919 0.000000 0.737324
Si Si2 0.565750 0.406535 0.874662
Si Si3 0.330546 0.819131 0.276888
Si Si4 0.307298 0.695348 0.687834
Si Si5 0.759378 0.000000 0.223522
Si Si6 0.166219 0.849459 0.805829
Si Si7 0.445107 0.161140 0.731034
O O1 0.248455 0.000000 0.680821
O O2 0.363516 0.078571 0.669404
O O3 0.564273 0.000000 0.981767
O O4 0.568776 0.500000 0.868327
O O5 0.420005 0.376004 0.776758
O O6 0.554211 0.367385 0.766654
O O7 0.733466 0.374252 0.103632
O O8 0.500000 0.855114 0.500000
O O9 0.215752 0.804299 0.235151
O O10 0.368183 0.733959 0.276255
O O11 0.393367 0.774174 0.745812
O O12 0.132325 0.687130 0.445286
O O13 0.836908 0.078144 0.265578
O O14 0.356839 0.845583 0.049600
#
# Coordination Sequence:
#
# PCOD9215040 Si02
#       7
#     4   8   8   8   4   8   8
#     4   9  18  34  63 101 127 181 215 280 342 404
#     4  12  27  47  71 100 142 184 230 287 348 408
#     4  12  27  45  71 102 136 185 235 287 341 407
#     4  11  25  43  66 103 136 182 232 284 347 410
#     4   9  18  36  64  96 138 166 226 273 341 407
#     4  11  22  45  69 101 139 182 226 284 346 412
#     4  10  22  40  69  97 140 177 230 279 344 421
#
# _framework density 22.896305999999999
#
# number of rings (size 3 to 8) (size 9 to 14) (size 15 to 20)
#    0.000    1.167    2.500    3.000    5.833    3.000 
#    0.000    0.417    0.000    0.000    0.000    0.000 
#    0.000    0.000    0.000    0.000    0.000    0.000 
#
# Total GULP energy -134519.026076 kJ/mol
# GULP energy per Si atom -5604.959420 kJ/mol
# Density = 2.284419 g / cm^3
# Si number density = 22.896306 Si / 1000 Ang^3
#
#
#
# Elastic Constant Matrix: (Units=GPa)
#
#
# Indices 1 2 3 4 5 6 
#
# 1 149.1911 49.8764 13.7510 0.0000 -18.9430 0.0000
# 2 49.8764 112.7237 14.0001 0.0000 -10.6174 0.0000
# 3 13.7510 14.0001 78.0198 0.0000 5.5575 0.0000
# 4 0.0000 0.0000 0.0000 1.6949 0.0000 3.4149
# 5 -18.9430 -10.6174 5.5575 0.0000 21.2235 0.0000
# 6 0.0000 0.0000 0.0000 3.4149 0.0000 -2.0577
#
#
#
# Elastic Compliance Matrix: (Units=1/GPa)
#
#
# Indices 1 2 3 4 5 6 
#
# 1 0.008695 -0.003043 -0.001458 0.000000 0.006620 0.000000
# 2 -0.003043 0.010705 -0.001603 0.000000 0.003059 0.000000
# 3 -0.001458 -0.001603 0.013768 0.000000 -0.005708 0.000000
# 4 0.000000 0.000000 0.000000 0.135831 0.000000 0.225421
# 5 0.006620 0.003059 -0.005708 0.000000 0.056052 0.000000
# 6 0.000000 0.000000 0.000000 0.225421 0.000000 -0.111884
#
#
# Mechanical properties :
#
#
# Convention : Reuss Voigt Hill
#
# Bulk Modulus (GPa) = 47.70612 55.02105 51.36359
# Shear Modulus (GPa) = 37.77560 21.65929 29.71745
#
# Velocity S-wave (km/s) = 4.06625 3.07900 3.60657
# Velocity P-wave (km/s) = 6.55185 6.05996 6.31070
#
# Compressibility (1/GPa) = 0.02096167
#
# Stress axis : x y z
#
# Youngs Moduli (GPa) = 115.00893 93.41729 72.62986
#
# Poissons Ratio (x) = 0.28423 0.10590
# Poissons Ratio (y) = 0.34992 0.11639
# Poissons Ratio (z) = 0.16770 0.14970
#
# Static dielectric constant tensor:
#      x y z
#    x 1.841120 0.000000 0.023000 
#    y 0.000000 1.782180 0.000000 
#    z 0.023000 0.000000 1.887280 
# 
# From -- ./inp_files/226755.got.cif
#   From: 2010.05.17/outbox.cif.g08.bks.cpg/sg12_114_cif.got.tgz:226755.got - 2010.06.03 13:09:07.
