data_PCOD9215896
_publ_section_title
;
Structure prediction by ZEFSAII (Michael W. Deem and Ramdas Pophale) SiO2 
 PCOD9215896
Probable space group: C 2/M
;
_chemical_formula_sum "Si O2"
_cell_formula_units_Z 36
_cell_length_a 18.878782
_cell_length_b 19.997895
_cell_length_c 8.074470
_cell_angle_alpha 90.000000
_cell_angle_beta 142.122121
_cell_angle_gamma 90.000000
_cell_volume 1871.659572
_symmetry_space_group_name_H-M "C 2/M"
_symmetry_group_IT_number 12
_symmetry_cell_setting 'monoclinic'
loop_
_space_group_symop_operation_xyz
x,y,z
-x,y,-z
-x,-y,-z
x,-y,z
1/2+x,1/2+y,z
1/2-x,1/2+y,-z
1/2-x,1/2-y,-z
1/2+x,1/2-y,z
loop_
_atom_site_type_symbol
_atom_site_label
_atom_site_fract_x
_atom_site_fract_y
_atom_site_fract_z
Si Si1 0.500000 0.179169 0.500000
Si Si2 0.630760 0.500000 0.802318
Si Si3 0.158773 0.000000 0.238235
Si Si4 0.000000 0.880206 0.000000
Si Si5 0.563999 0.690904 0.450466
Si Si6 0.787079 0.388708 0.922715
Si Si7 0.871603 0.500000 0.824542
O O1 0.451591 0.229714 0.552243
O O2 0.606414 0.138425 0.772565
O O3 0.500000 0.500000 0.500000
O O4 0.624654 0.500000 0.986569
O O5 0.703653 0.437091 0.873418
O O6 0.105105 0.932600 0.214479
O O7 0.292480 0.000000 0.516815
O O8 0.002453 0.836652 0.171752
O O9 0.500000 0.664230 0.500000
O O10 0.698019 0.668848 0.698849
O O11 0.838610 0.435092 0.872605
O O12 0.000000 0.500000 0.000000
#
# Coordination Sequence:
#
# PCOD9215896 Si02
#       7
#     4   4   4   4   8   8   4
#     4  10  26  41  66  91 134 184 216 258 322 400
#     4  11  24  38  74  98 123 166 221 280 329 386
#     4  11  22  37  65 100 129 161 212 279 338 379
#     4  11  20  40  68 100 130 165 212 282 332 379
#     4  10  22  42  67  96 132 167 223 265 322 391
#     4  11  22  46  65  92 132 173 219 271 330 385
#     4  11  26  41  63  95 136 167 215 279 328 394
#
# _framework density 19.234266000000002
#
# number of rings (size 3 to 8) (size 9 to 14) (size 15 to 20)
#    0.667    0.667    2.222    4.000    6.222    0.889 
#    2.000    1.667    0.000    0.000    0.000    0.000 
#    0.000    0.000    0.000    0.000    0.000    0.000 
#
# Total GULP energy -100402.397302 kJ/mol
# GULP energy per Si atom -5577.910961 kJ/mol
# Density = 1.919049 g / cm^3
# Si number density = 19.234266 Si / 1000 Ang^3
#
#
#
# Elastic Constant Matrix: (Units=GPa)
#
#
# Indices 1 2 3 4 5 6 
#
# 1 96.5275 29.8569 53.7303 0.0000 -0.0427 0.0000
# 2 29.8569 89.1491 68.8198 0.0000 6.3574 0.0000
# 3 53.7303 68.8198 182.4624 0.0000 15.3180 0.0000
# 4 0.0000 0.0000 0.0000 61.1941 0.0000 -253.2838
# 5 -0.0427 6.3574 15.3180 0.0000 45.3157 0.0000
# 6 0.0000 0.0000 0.0000 -253.2838 0.0000 1802.2678
#
#
#
# Elastic Compliance Matrix: (Units=1/GPa)
#
#
# Indices 1 2 3 4 5 6 
#
# 1 0.012697 -0.001939 -0.003120 0.000000 0.001339 0.000000
# 2 -0.001939 0.016123 -0.005475 0.000000 -0.000413 0.000000
# 3 -0.003120 -0.005475 0.008646 0.000000 -0.002157 0.000000
# 4 0.000000 0.000000 0.000000 0.039065 0.000000 0.005490
# 5 0.001339 -0.000413 -0.002157 0.000000 0.022856 0.000000
# 6 0.000000 0.000000 0.000000 0.005490 0.000000 0.001326
#
#
# Mechanical properties :
#
#
# Convention : Reuss Voigt Hill
#
# Bulk Modulus (GPa) = 60.98982 74.77257 67.88119
# Shear Modulus (GPa) = 39.29383 396.13765 217.71574
#
# Velocity S-wave (km/s) = 4.52476 14.36667 10.65070
# Velocity P-wave (km/s) = 7.68607 17.72458 13.66083
#
# Compressibility (1/GPa) = 0.01639618
#
# Stress axis : x y z
#
# Youngs Moduli (GPa) = 78.76023 62.02362 115.66686
#
# Poissons Ratio (x) = 0.12029 0.36085
# Poissons Ratio (y) = 0.15275 0.63332
# Poissons Ratio (z) = 0.24571 0.33960
#
# Static dielectric constant tensor:
#      x y z
#    x 1.664850 0.000000 -0.007160 
#    y 0.000000 1.788930 0.000000 
#    z -0.007160 0.000000 1.644840 
# 
# From -- ./inp_files/89810.got.cif
#   From: 2010.05.17/outbox.cif.g08.bks.cpg/sg12_45_cif.got.tgz:89810.got - 2010.06.03 13:09:07.
