data_PCOD9215269
_publ_section_title
;
Structure prediction by ZEFSAII (Michael W. Deem and Ramdas Pophale) SiO2 
 PCOD9215269
Probable space group: C 2/M
;
_chemical_formula_sum "Si O2"
_cell_formula_units_Z 56
_cell_length_a 18.142158
_cell_length_b 8.869137
_cell_length_c 18.850857
_cell_angle_alpha 90.000000
_cell_angle_beta 75.523093
_cell_angle_gamma 90.000000
_cell_volume 2936.893715
_symmetry_space_group_name_H-M "C 2/M"
_symmetry_group_IT_number 12
_symmetry_cell_setting 'monoclinic'
loop_
_space_group_symop_operation_xyz
x,y,z
-x,y,-z
-x,-y,-z
x,-y,z
1/2+x,1/2+y,z
1/2-x,1/2+y,-z
1/2-x,1/2-y,-z
1/2+x,1/2-y,z
loop_
_atom_site_type_symbol
_atom_site_label
_atom_site_fract_x
_atom_site_fract_y
_atom_site_fract_z
Si Si1 0.694261 0.819484 0.072052
Si Si2 0.114208 0.179828 0.361644
Si Si3 0.097726 0.179777 0.783776
Si Si4 0.258925 0.679916 0.789026
Si Si5 0.981157 0.680285 0.922937
Si Si6 0.829936 0.679802 0.504391
Si Si7 0.954661 0.320298 0.352129
O O1 0.714369 0.750743 0.143416
O O2 0.606734 0.786118 0.073093
O O3 0.703372 0.000000 0.071498
O O4 0.750000 0.750000 0.000000
O O5 0.177826 0.208236 0.286365
O O6 0.142228 0.247294 0.429163
O O7 0.035359 0.255191 0.357374
O O8 0.104251 0.000000 0.370521
O O9 0.179171 0.249052 0.784632
O O10 0.071667 0.243129 0.714105
O O11 0.036581 0.232535 0.856817
O O12 0.102351 0.000000 0.780494
O O13 0.249983 0.500000 0.799250
O O14 0.992908 0.500000 0.910552
O O15 0.000000 0.716511 0.000000
O O16 0.822093 0.500000 0.515096
O O17 0.750000 0.750000 0.500000
O O18 0.892413 0.707368 0.428299
O O19 0.960563 0.500000 0.339838
#
# Coordination Sequence:
#
# PCOD9215269 Si02
#       7
#     8   8   8   8   8   8   8
#     4  11  23  39  63  93 124 161 203 248 300 358
#     4  11  24  41  64  93 123 159 203 252 304 358
#     4  12  25  40  63  93 122 157 203 253 304 358
#     4  11  24  42  62  87 123 162 202 250 303 360
#     4  10  22  41  64  90 123 163 202 244 301 363
#     4  11  24  41  63  91 123 162 205 251 304 360
#     4  11  24  42  63  89 124 163 202 247 302 362
#
# _framework density 19.067765999999999
#
# number of rings (size 3 to 8) (size 9 to 14) (size 15 to 20)
#    0.000    1.000    0.000    6.429    0.000   14.571 
#    0.000    0.000    0.000    0.000    0.000    0.000 
#    0.000    0.000    0.000    0.000    0.000    0.000 
#
# Total GULP energy -156756.396316 kJ/mol
# GULP energy per Si atom -5598.442726 kJ/mol
# Density = 1.902437 g / cm^3
# Si number density = 19.067766 Si / 1000 Ang^3
#
#
#
# Elastic Constant Matrix: (Units=GPa)
#
#
# Indices 1 2 3 4 5 6 
#
# 1 224.7221 120.5822 122.9971 0.0000 10.8469 0.0000
# 2 120.5822 129.6397 120.6125 0.0000 -10.6583 0.0000
# 3 122.9971 120.6125 175.1176 0.0000 12.9580 0.0000
# 4 0.0000 0.0000 0.0000 35.9996 0.0000 3.7427
# 5 10.8469 -10.6583 12.9580 0.0000 42.7605 0.0000
# 6 0.0000 0.0000 0.0000 3.7427 0.0000 36.9577
#
#
#
# Elastic Compliance Matrix: (Units=1/GPa)
#
#
# Indices 1 2 3 4 5 6 
#
# 1 0.009778 -0.009593 0.000102 0.000000 -0.004902 0.000000
# 2 -0.009593 0.036154 -0.019446 0.000000 0.017338 0.000000
# 3 0.000102 -0.019446 0.019838 0.000000 -0.010885 0.000000
# 4 0.000000 0.000000 0.000000 0.028074 0.000000 -0.002843
# 5 -0.004902 0.017338 -0.010885 0.000000 0.032250 0.000000
# 6 0.000000 0.000000 0.000000 -0.002843 0.000000 0.027346
#
#
# Mechanical properties :
#
#
# Convention : Reuss Voigt Hill
#
# Bulk Modulus (GPa) = 126.65221 139.76256 133.20738
# Shear Modulus (GPa) = 23.37043 34.16273 28.76658
#
# Velocity S-wave (km/s) = 3.50473 4.23738 3.88835
# Velocity P-wave (km/s) = 9.10735 9.86901 9.49582
#
# Compressibility (1/GPa) = 0.00789564
#
# Stress axis : x y z
#
# Youngs Moduli (GPa) = 102.26891 27.65937 50.40880
#
# Poissons Ratio (x) = 0.26534 -0.00515
# Poissons Ratio (y) = 0.98107 0.98026
# Poissons Ratio (z) = -0.01044 0.53787
#
# Static dielectric constant tensor:
#      x y z
#    x 1.619930 0.000000 -0.005560 
#    y 0.000000 1.637610 0.000000 
#    z -0.005560 0.000000 1.623940 
# 
# From -- ./inp_files/274991.got.cif
#   From: 2010.05.17/outbox.cif.g08.bks.cpg/sg12_138_cif.got.tgz:274991.got - 2010.06.03 13:09:07.
