data_PCOD9215668
_publ_section_title
;
Structure prediction by ZEFSAII (Michael W. Deem and Ramdas Pophale) SiO2 
 PCOD9215668
Probable space group: C 2/M
;
_chemical_formula_sum "Si O2"
_cell_formula_units_Z 58
_cell_length_a 16.485400
_cell_length_b 11.641674
_cell_length_c 20.596648
_cell_angle_alpha 90.000000
_cell_angle_beta 138.121058
_cell_angle_gamma 90.000000
_cell_volume 2638.767304
_symmetry_space_group_name_H-M "C 2/M"
_symmetry_group_IT_number 12
_symmetry_cell_setting 'monoclinic'
loop_
_space_group_symop_operation_xyz
x,y,z
-x,y,-z
-x,-y,-z
x,-y,z
1/2+x,1/2+y,z
1/2-x,1/2+y,-z
1/2-x,1/2-y,-z
1/2+x,1/2-y,z
loop_
_atom_site_type_symbol
_atom_site_label
_atom_site_fract_x
_atom_site_fract_y
_atom_site_fract_z
Si Si1 0.289358 0.315442 0.958722
Si Si2 0.523461 0.875079 0.777069
Si Si3 0.000000 0.500000 0.500000
Si Si4 0.641732 0.876449 0.100144
Si Si5 0.259745 0.753022 0.724570
Si Si6 0.875911 0.130482 0.469721
Si Si7 0.483016 0.627446 0.825830
Si Si8 0.996195 0.315659 0.614631
O O1 0.170142 0.383804 0.867886
O O2 0.308017 0.223610 0.913864
O O3 0.250000 0.250000 0.000000
O O4 0.417962 0.369462 0.056798
O O5 0.498113 0.748963 0.795114
O O6 0.482141 0.865531 0.677817
O O7 0.478512 0.000000 0.777255
O O8 0.024045 0.400753 0.458034
O O9 0.666510 0.844648 0.188920
O O10 0.697495 0.000000 0.117332
O O11 0.500000 0.881388 0.000000
O O12 0.222806 0.806884 0.633822
O O13 0.345242 0.642338 0.768692
O O14 0.135924 0.724284 0.688376
O O15 0.000000 0.128126 0.500000
O O16 0.909411 0.206580 0.551490
O O17 0.842543 0.000000 0.464769
O O18 0.496981 0.500000 0.802604
#
# Coordination Sequence:
#
# PCOD9215668 Si02
#       8
#     8   8   2   8   8   8   8   8
#     4  10  22  42  60  89 129 174 216 264 317 385
#     4  11  24  42  67  94 127 171 223 268 320 389
#     4  12  20  40  66  96 130 156 216 270 328 384
#     4  11  22  37  62  96 132 169 214 269 327 387
#     4  11  21  40  63  96 126 168 211 267 325 388
#     4   9  19  36  59  92 126 158 200 256 320 378
#     4  11  26  43  64  93 134 178 215 265 330 389
#     4  11  22  38  68  96 121 165 211 267 325 384
#
# _framework density 21.979959999999998
#
# number of rings (size 3 to 8) (size 9 to 14) (size 15 to 20)
#    0.000    1.379    5.517    0.828    0.966    6.621 
#    0.000    1.379    0.000    0.000    0.000    0.000 
#    0.000    0.000    0.000    0.000    0.000    0.000 
#
# Total GULP energy -161481.765821 kJ/mol
# GULP energy per Si atom -5568.336752 kJ/mol
# Density = 2.192993 g / cm^3
# Si number density = 21.979960 Si / 1000 Ang^3
#
#
#
# Elastic Constant Matrix: (Units=GPa)
#
#
# Indices 1 2 3 4 5 6 
#
# 1 27.5976 26.5944 22.2611 0.0000 -4.0180 0.0000
# 2 26.5944 171.0797 44.3659 0.0000 -4.6320 0.0000
# 3 22.2611 44.3659 110.6713 0.0000 -2.7520 0.0000
# 4 0.0000 0.0000 0.0000 -0.1609 0.0000 -2.9150
# 5 -4.0180 -4.6320 -2.7520 0.0000 29.8870 0.0000
# 6 0.0000 0.0000 0.0000 -2.9150 0.0000 25.0454
#
#
#
# Elastic Compliance Matrix: (Units=1/GPa)
#
#
# Indices 1 2 3 4 5 6 
#
# 1 0.048150 -0.005436 -0.007383 0.000000 0.004951 0.000000
# 2 -0.005436 0.007155 -0.001769 0.000000 0.000215 0.000000
# 3 -0.007383 -0.001769 0.011224 0.000000 -0.000233 0.000000
# 4 0.000000 0.000000 0.000000 -1.999550 0.000000 -0.232721
# 5 0.004951 0.000215 -0.000233 0.000000 0.034137 0.000000
# 6 0.000000 0.000000 0.000000 -0.232721 0.000000 0.012842
#
#
# Mechanical properties :
#
#
# Convention : Reuss Voigt Hill
#
# Bulk Modulus (GPa) = 26.77233 55.08795 40.93014
# Shear Modulus (GPa) = -2.71089 25.36280 11.32596
#
# Velocity S-wave (km/s) = -1.11177 3.40060 2.27245
# Velocity P-wave (km/s) = 3.24942 6.36679 5.05444
#
# Compressibility (1/GPa) = 0.03735199
#
# Stress axis : x y z
#
# Youngs Moduli (GPa) = 20.76862 139.76252 89.09238
#
# Poissons Ratio (x) = 0.75979 0.65774
# Poissons Ratio (y) = 0.11290 0.15764
# Poissons Ratio (z) = 0.15333 0.24730
#
# Static dielectric constant tensor:
#      x y z
#    x 1.810070 0.000000 0.053900 
#    y 0.000000 1.856270 0.000000 
#    z 0.053900 0.000000 1.796520 
# 
# From -- ./inp_files/315990.got.cif
#   From: 2010.05.17/outbox.cif.g08.bks.cpg/sg12_158_cif.got.tgz:315990.got - 2010.06.03 13:09:07.
