data_PCOD9215191
_publ_section_title
;
Structure prediction by ZEFSAII (Michael W. Deem and Ramdas Pophale) SiO2 
 PCOD9215191
Probable space group: C 2/M
;
_chemical_formula_sum "Si O2"
_cell_formula_units_Z 48
_cell_length_a 24.394059
_cell_length_b 8.692413
_cell_length_c 12.223074
_cell_angle_alpha 90.000000
_cell_angle_beta 90.878707
_cell_angle_gamma 90.000000
_cell_volume 2591.515364
_symmetry_space_group_name_H-M "C 2/M"
_symmetry_group_IT_number 12
_symmetry_cell_setting 'monoclinic'
loop_
_space_group_symop_operation_xyz
x,y,z
-x,y,-z
-x,-y,-z
x,-y,z
1/2+x,1/2+y,z
1/2-x,1/2+y,-z
1/2-x,1/2-y,-z
1/2+x,1/2-y,z
loop_
_atom_site_type_symbol
_atom_site_label
_atom_site_fract_x
_atom_site_fract_y
_atom_site_fract_z
Si Si1 0.663689 0.184116 0.019766
Si Si2 0.732391 0.683852 0.827641
Si Si3 0.546998 0.684285 0.087979
Si Si4 0.585637 0.186767 0.538044
Si Si5 0.709247 0.184770 0.589532
Si Si6 0.482135 0.186321 0.676124
O O1 0.709974 0.223454 0.111776
O O2 0.604888 0.245278 0.053606
O O3 0.662392 0.000000 0.008585
O O4 0.685020 0.256855 0.907443
O O5 0.729397 0.500000 0.817876
O O6 0.726868 0.759382 0.709603
O O7 0.551212 0.500000 0.088213
O O8 0.530905 0.742167 0.207829
O O9 0.500000 0.729751 0.000000
O O10 0.647026 0.238835 0.563426
O O11 0.541288 0.232792 0.628485
O O12 0.561904 0.231642 0.418701
O O13 0.585713 0.000000 0.538562
O O14 0.750000 0.250000 0.500000
O O15 0.709879 0.000000 0.585554
O O16 0.481179 0.000000 0.685064
#
# Coordination Sequence:
#
# PCOD9215191 Si02
#       6
#     8   8   8   8   8   8
#     4  10  22  41  65  88 114 156 203 244 292 358
#     4  10  22  41  63  89 120 154 195 248 303 353
#     4  11  25  40  56  87 126 156 190 245 300 349
#     4   8  18  37  61  86 114 148 194 245 289 339
#     4  11  23  38  58  89 123 159 200 242 292 352
#     4   9  18  38  64  86 110 150 198 245 292 346
#
# _framework density 18.521982000000001
#
# number of rings (size 3 to 8) (size 9 to 14) (size 15 to 20)
#    0.000    2.167    0.000    3.000    4.667    3.333 
#    0.000    3.333    0.000    0.000    0.000    0.000 
#    0.000    0.000    0.000    0.000    0.000    0.000 
#
# Total GULP energy -134053.594914 kJ/mol
# GULP energy per Si atom -5585.566455 kJ/mol
# Density = 1.847983 g / cm^3
# Si number density = 18.521982 Si / 1000 Ang^3
#
#
#
# Elastic Constant Matrix: (Units=GPa)
#
#
# Indices 1 2 3 4 5 6 
#
# 1 153.3755 44.4404 102.4724 0.0000 -14.3661 0.0000
# 2 44.4404 41.0882 48.4538 0.0000 -1.8019 0.0000
# 3 102.4724 48.4538 177.7076 0.0000 -14.6607 0.0000
# 4 0.0000 0.0000 0.0000 36.5001 0.0000 -2.9551
# 5 -14.3661 -1.8019 -14.6607 0.0000 15.8104 0.0000
# 6 0.0000 0.0000 0.0000 -2.9551 0.0000 28.4892
#
#
#
# Elastic Compliance Matrix: (Units=1/GPa)
#
#
# Indices 1 2 3 4 5 6 
#
# 1 0.012359 -0.007802 -0.004490 0.000000 0.006177 0.000000
# 2 -0.007802 0.041227 -0.007514 0.000000 -0.009358 0.000000
# 3 -0.004490 -0.007514 0.010674 0.000000 0.004962 0.000000
# 4 0.000000 0.000000 0.000000 0.027629 0.000000 0.002866
# 5 0.006177 -0.009358 0.004962 0.000000 0.072397 0.000000
# 6 0.000000 0.000000 0.000000 0.002866 0.000000 0.035398
#
#
# Mechanical properties :
#
#
# Convention : Reuss Voigt Hill
#
# Bulk Modulus (GPa) = 40.56985 84.76715 62.66850
# Shear Modulus (GPa) = 20.20105 27.94692 24.07398
#
# Velocity S-wave (km/s) = 3.30609 3.88861 3.60912
# Velocity P-wave (km/s) = 6.04357 8.12568 7.16071
#
# Compressibility (1/GPa) = 0.02464885
#
# Stress axis : x y z
#
# Youngs Moduli (GPa) = 80.91522 24.25604 93.68273
#
# Poissons Ratio (x) = 0.18923 0.42060
# Poissons Ratio (y) = 0.63126 0.70396
# Poissons Ratio (z) = 0.36328 0.18227
#
# Static dielectric constant tensor:
#      x y z
#    x 1.628980 0.000000 0.015310 
#    y 0.000000 1.624650 0.000000 
#    z 0.015310 0.000000 1.601750 
# 
# From -- ./inp_files/172284.got.cif
#   From: 2010.05.17/outbox.cif.g08.bks.cpg/sg12_87_cif.got.tgz:172284.got - 2010.06.03 13:09:07.
