data_PCOD9215332
_publ_section_title
;
Structure prediction by ZEFSAII (Michael W. Deem and Ramdas Pophale) SiO2 
 PCOD9215332
Probable space group: C 2/M
;
_chemical_formula_sum "Si O2"
_cell_formula_units_Z 44
_cell_length_a 8.817881
_cell_length_b 19.883024
_cell_length_c 13.748326
_cell_angle_alpha 90.000000
_cell_angle_beta 66.422408
_cell_angle_gamma 90.000000
_cell_volume 2209.215467
_symmetry_space_group_name_H-M "C 2/M"
_symmetry_group_IT_number 12
_symmetry_cell_setting 'monoclinic'
loop_
_space_group_symop_operation_xyz
x,y,z
-x,y,-z
-x,-y,-z
x,-y,z
1/2+x,1/2+y,z
1/2-x,1/2+y,-z
1/2-x,1/2-y,-z
1/2+x,1/2-y,z
loop_
_atom_site_type_symbol
_atom_site_label
_atom_site_fract_x
_atom_site_fract_y
_atom_site_fract_z
Si Si1 0.000000 0.375658 0.500000
Si Si2 0.588356 0.178638 0.681588
Si Si3 0.600667 0.683807 0.269154
Si Si4 0.163419 0.420696 0.159796
Si Si5 0.194103 0.677073 0.975648
Si Si6 0.830356 0.924791 0.320306
O O1 0.927746 0.332976 0.429119
O O2 0.847190 0.417560 0.582084
O O3 0.480110 0.244218 0.732998
O O4 0.771621 0.188822 0.674779
O O5 0.502907 0.115335 0.757577
O O6 0.704106 0.661984 0.147907
O O7 0.455851 0.630949 0.325255
O O8 0.139747 0.500000 0.147469
O O9 0.292845 0.413382 0.215522
O O10 0.219449 0.379313 0.051385
O O11 0.250000 0.750000 0.000000
O O12 0.000000 0.679559 0.000000
O O13 0.894866 0.000000 0.317802
#
# Coordination Sequence:
#
# PCOD9215332 Si02
#       6
#     4   8   8   8   8   8
#     4  10  23  44  74  90 127 168 218 266 337 386
#     4  11  23  42  65  98 127 172 212 276 318 386
#     4  12  24  41  66  96 135 166 220 266 326 376
#     4  10  22  41  64  94 131 172 216 263 320 379
#     4  12  24  40  66  94 129 179 215 259 317 386
#     4  10  24  44  67  96 130 170 216 270 323 385
#
# _framework density 19.916571999999999
#
# number of rings (size 3 to 8) (size 9 to 14) (size 15 to 20)
#    0.000    1.091    3.636    2.455    2.545    6.182 
#    0.000    2.727    0.000    0.000    0.000    0.000 
#    0.000    0.000    0.000    0.000    0.000    0.000 
#
# Total GULP energy -123007.855732 kJ/mol
# GULP energy per Si atom -5591.266170 kJ/mol
# Density = 1.987124 g / cm^3
# Si number density = 19.916572 Si / 1000 Ang^3
#
#
#
# Elastic Constant Matrix: (Units=GPa)
#
#
# Indices 1 2 3 4 5 6 
#
# 1 112.8319 67.7040 37.3243 0.0000 6.7460 0.0000
# 2 67.7040 134.0574 41.4501 0.0000 6.5393 0.0000
# 3 37.3243 41.4501 104.3613 0.0000 17.3442 0.0000
# 4 0.0000 0.0000 0.0000 9.3487 0.0000 -0.7273
# 5 6.7460 6.5393 17.3442 0.0000 20.0310 0.0000
# 6 0.0000 0.0000 0.0000 -0.7273 0.0000 19.4051
#
#
#
# Elastic Compliance Matrix: (Units=1/GPa)
#
#
# Indices 1 2 3 4 5 6 
#
# 1 0.013214 -0.005944 -0.002276 0.000000 -0.000540 0.000000
# 2 -0.005944 0.011178 -0.002383 0.000000 0.000416 0.000000
# 3 -0.002276 -0.002383 0.012949 0.000000 -0.009668 0.000000
# 4 0.000000 0.000000 0.000000 0.107279 0.000000 0.004021
# 5 -0.000540 0.000416 -0.009668 0.000000 0.058340 0.000000
# 6 0.000000 0.000000 0.000000 0.004021 0.000000 0.051684
#
#
# Mechanical properties :
#
#
# Convention : Reuss Voigt Hill
#
# Bulk Modulus (GPa) = 61.97107 71.57861 66.77484
# Shear Modulus (GPa) = 17.77920 23.40844 20.59382
#
# Velocity S-wave (km/s) = 2.99102 3.43202 3.21908
# Velocity P-wave (km/s) = 6.56591 7.19182 6.88598
#
# Compressibility (1/GPa) = 0.01613656
#
# Stress axis : x y z
#
# Youngs Moduli (GPa) = 75.67567 89.46278 77.22504
#
# Poissons Ratio (x) = 0.53175 0.17573
# Poissons Ratio (y) = 0.44980 0.18403
# Poissons Ratio (z) = 0.17221 0.21319
#
# Static dielectric constant tensor:
#      x y z
#    x 1.684220 0.000000 0.005040 
#    y 0.000000 1.670940 0.000000 
#    z 0.005040 0.000000 1.719180 
# 
# From -- ./inp_files/195385.got.cif
#   From: 2010.05.17/outbox.cif.g08.bks.cpg/sg12_98_cif.got.tgz:195385.got - 2010.06.03 13:09:07.
