data_PCOD9215735
_publ_section_title
;
Structure prediction by ZEFSAII (Michael W. Deem and Ramdas Pophale) SiO2 
 PCOD9215735
Probable space group: C 2/M
;
_chemical_formula_sum "Si O2"
_cell_formula_units_Z 48
_cell_length_a 16.255512
_cell_length_b 8.849710
_cell_length_c 29.522453
_cell_angle_alpha 90.000000
_cell_angle_beta 35.323703
_cell_angle_gamma 90.000000
_cell_volume 2455.594317
_symmetry_space_group_name_H-M "C 2/M"
_symmetry_group_IT_number 12
_symmetry_cell_setting 'monoclinic'
loop_
_space_group_symop_operation_xyz
x,y,z
-x,y,-z
-x,-y,-z
x,-y,z
1/2+x,1/2+y,z
1/2-x,1/2+y,-z
1/2-x,1/2-y,-z
1/2+x,1/2-y,z
loop_
_atom_site_type_symbol
_atom_site_label
_atom_site_fract_x
_atom_site_fract_y
_atom_site_fract_z
Si Si1 0.652550 0.319263 0.004776
Si Si2 0.383702 0.317596 0.413803
Si Si3 0.182585 0.181548 0.325516
Si Si4 0.847056 0.680625 0.161923
Si Si5 0.835754 0.680750 0.834018
Si Si6 0.369398 0.680973 0.314307
O O1 0.646624 0.500000 0.011525
O O2 0.727719 0.283160 0.923336
O O3 0.750000 0.250000 0.000000
O O4 0.495643 0.252710 0.080587
O O5 0.378730 0.500000 0.417231
O O6 0.250000 0.250000 0.500000
O O7 0.530453 0.272330 0.372838
O O8 0.376582 0.273461 0.364009
O O9 0.299671 0.217127 0.234270
O O10 0.231060 0.260328 0.349909
O O11 0.180807 0.000000 0.332584
O O12 0.854806 0.500000 0.154508
O O13 0.726349 0.743383 0.182990
O O14 0.842469 0.500000 0.826411
O O15 0.992372 0.746035 0.771393
O O16 0.377346 0.500000 0.308229
#
# Coordination Sequence:
#
# PCOD9215735 Si02
#       6
#     8   8   8   8   8   8
#     4  11  24  39  55  84 122 161 209 261 309 365
#     4  10  23  44  66  92 128 162 201 254 310 371
#     4  10  22  42  64  91 128 165 204 254 310 369
#     4  11  22  39  62  87 121 163 208 258 310 364
#     4  11  23  39  60  87 122 163 208 256 309 367
#     4  11  23  41  65  95 127 162 209 259 305 367
#
# _framework density 19.547201000000001
#
# number of rings (size 3 to 8) (size 9 to 14) (size 15 to 20)
#    0.000    1.333    1.667    3.500    0.000   12.667 
#    0.000    3.333    0.000    0.000    0.000    0.000 
#    0.000    0.000    0.000    0.000    0.000    0.000 
#
# Total GULP energy -134184.500510 kJ/mol
# GULP energy per Si atom -5591.020855 kJ/mol
# Density = 1.950271 g / cm^3
# Si number density = 19.547201 Si / 1000 Ang^3
#
#
#
# Elastic Constant Matrix: (Units=GPa)
#
#
# Indices 1 2 3 4 5 6 
#
# 1 150.1475 32.2314 51.1643 0.0000 -8.5162 0.0003
# 2 32.2314 29.0223 37.2097 0.0000 0.5817 0.0002
# 3 51.1643 37.2097 115.5553 0.0000 -13.8886 0.0000
# 4 0.0000 0.0000 0.0000 33.1344 0.0000 -4.2390
# 5 -8.5162 0.5817 -13.8886 0.0000 15.0583 0.0000
# 6 0.0003 0.0002 0.0000 -4.2390 0.0000 38.2132
#
#
#
# Elastic Compliance Matrix: (Units=1/GPa)
#
#
# Indices 1 2 3 4 5 6 
#
# 1 0.009195 -0.010116 -0.000159 0.000000 0.005444 0.000000
# 2 -0.010116 0.077212 -0.024102 0.000000 -0.030933 0.000000
# 3 -0.000159 -0.024102 0.018654 0.000000 0.018046 0.000000
# 4 0.000000 0.000000 0.000000 0.030615 0.000000 0.003396
# 5 0.005444 -0.030933 0.018046 0.000000 0.087327 0.000000
# 6 0.000000 0.000000 0.000000 0.003396 0.000000 0.026546
#
#
# Mechanical properties :
#
#
# Convention : Reuss Voigt Hill
#
# Bulk Modulus (GPa) = 27.54317 59.54843 43.54580
# Shear Modulus (GPa) = 15.13295 28.88915 22.01105
#
# Velocity S-wave (km/s) = 2.78542 3.84854 3.35930
# Velocity P-wave (km/s) = 4.94630 7.09073 6.11328
#
# Compressibility (1/GPa) = 0.03630664
#
# Stress axis : x y z
#
# Youngs Moduli (GPa) = 108.75703 12.95135 53.60703
#
# Poissons Ratio (x) = 0.13102 0.00854
# Poissons Ratio (y) = 1.10022 1.29201
# Poissons Ratio (z) = 0.01733 0.31215
#
# Static dielectric constant tensor:
#      x y z
#    x 1.663080 0.000000 0.018120 
#    y 0.000000 1.652900 0.000000 
#    z 0.018120 0.000000 1.671780 
# 
# From -- ./inp_files/360209.got.cif
#   From: 2010.05.17/outbox.cif.g08.bks.cpg/sg12_181_cif.got.tgz:360209.got - 2010.06.03 13:09:07.
