data_PCOD9215398
_publ_section_title
;
Structure prediction by ZEFSAII (Michael W. Deem and Ramdas Pophale) SiO2 
 PCOD9215398
Probable space group: C 2/M
;
_chemical_formula_sum "Si O2"
_cell_formula_units_Z 58
_cell_length_a 18.819808
_cell_length_b 9.157973
_cell_length_c 22.710536
_cell_angle_alpha 90.000000
_cell_angle_beta 46.621074
_cell_angle_gamma 90.000000
_cell_volume 2844.940492
_symmetry_space_group_name_H-M "C 2/M"
_symmetry_group_IT_number 12
_symmetry_cell_setting 'monoclinic'
loop_
_space_group_symop_operation_xyz
x,y,z
-x,y,-z
-x,-y,-z
x,-y,z
1/2+x,1/2+y,z
1/2-x,1/2+y,-z
1/2-x,1/2-y,-z
1/2+x,1/2-y,z
loop_
_atom_site_type_symbol
_atom_site_label
_atom_site_fract_x
_atom_site_fract_y
_atom_site_fract_z
Si Si1 0.301543 0.334794 0.523632
Si Si2 0.421673 0.674721 0.204593
Si Si3 0.557893 0.323928 0.022205
Si Si4 0.545150 0.322392 0.245279
Si Si5 0.976746 0.757100 0.610222
Si Si6 0.229769 0.831728 0.326593
Si Si7 0.500000 0.000000 0.500000
Si Si8 0.274178 0.175882 0.923742
O O1 0.264459 0.500000 0.542406
O O2 0.250000 0.250000 0.500000
O O3 0.419107 0.338552 0.451997
O O4 0.280936 0.272455 0.600457
O O5 0.414843 0.500000 0.204474
O O6 0.507189 0.726702 0.111585
O O7 0.454906 0.708151 0.252432
O O8 0.317400 0.742033 0.247811
O O9 0.547162 0.500000 0.029717
O O10 0.500000 0.263172 0.000000
O O11 0.671930 0.299274 0.948783
O O12 0.550913 0.500000 0.250772
O O13 0.536762 0.239667 0.311993
O O14 0.639368 0.260965 0.157593
O O15 0.875178 0.826295 0.645197
O O16 0.990900 0.624579 0.557292
O O17 0.259850 0.000000 0.312559
O O18 0.291692 0.000000 0.918760
O O19 0.250000 0.250000 0.000000
#
# Coordination Sequence:
#
# PCOD9215398 Si02
#       8
#     8   8   8   8   8   8   2   8
#     4  11  24  43  69  95 130 174 216 268 339 410
#     4  10  22  41  65  93 131 177 226 282 339 408
#     4   9  19  38  61  90 129 175 226 276 336 399
#     4  11  24  44  68 100 137 180 230 285 351 423
#     4  12  26  46  69  97 135 178 222 285 350 411
#     4  11  24  42  63  92 129 169 214 271 342 405
#     4  12  28  48  74 104 136 170 238 300 332 432
#     4  11  22  40  68  98 134 180 231 287 346 410
#
# _framework density 20.387070000000001
#
# number of rings (size 3 to 8) (size 9 to 14) (size 15 to 20)
#    0.000    1.241    2.759    2.483    4.828    3.310 
#    0.000    0.000    0.000    2.069    0.000    0.000 
#    0.000    0.000    0.000    0.000    0.000    0.000 
#
# Total GULP energy -161488.723595 kJ/mol
# GULP energy per Si atom -5568.576676 kJ/mol
# Density = 2.034067 g / cm^3
# Si number density = 20.387070 Si / 1000 Ang^3
#
#
#
# Elastic Constant Matrix: (Units=GPa)
#
#
# Indices 1 2 3 4 5 6 
#
# 1 109.0280 26.3120 23.0539 0.0000 -2.0734 0.0000
# 2 26.3120 54.2120 16.1938 0.0000 2.6007 0.0001
# 3 23.0539 16.1938 92.9889 0.0000 0.2689 0.0000
# 4 0.0000 0.0000 0.0000 -7.4248 0.0000 14.0635
# 5 -2.0734 2.6007 0.2689 0.0000 41.0984 0.0000
# 6 0.0000 0.0001 0.0000 14.0635 0.0000 -33.2809
#
#
#
# Elastic Compliance Matrix: (Units=1/GPa)
#
#
# Indices 1 2 3 4 5 6 
#
# 1 0.010709 -0.004688 -0.001841 0.000000 0.000849 0.000000
# 2 -0.004688 0.021571 -0.002590 0.000000 -0.001585 0.000000
# 3 -0.001841 -0.002590 0.011661 0.000000 -0.000005 0.000000
# 4 0.000000 0.000000 0.000000 -0.674748 0.000000 -0.285128
# 5 0.000849 -0.001585 -0.000005 0.000000 0.024475 0.000000
# 6 0.000000 0.000000 0.000000 -0.285128 0.000000 -0.150534
#
#
# Mechanical properties :
#
#
# Convention : Reuss Voigt Hill
#
# Bulk Modulus (GPa) = 38.90523 43.03870 40.97196
# Shear Modulus (GPa) = -6.84875 12.78982 2.97053
#
# Velocity S-wave (km/s) = -1.83484 2.50741 1.20840
# Velocity P-wave (km/s) = 3.82568 5.43502 4.69975
#
# Compressibility (1/GPa) = 0.02570349
#
# Stress axis : x y z
#
# Youngs Moduli (GPa) = 93.38097 46.35809 85.75317
#
# Poissons Ratio (x) = 0.21734 0.15787
# Poissons Ratio (y) = 0.43781 0.22207
# Poissons Ratio (z) = 0.17191 0.12005
#
# Static dielectric constant tensor:
#      x y z
#    x 1.757430 0.000000 -0.001170 
#    y 0.000000 1.703270 0.000000 
#    z -0.001170 0.000000 1.746500 
# 
# From -- ./inp_files/346444.got.cif
#   From: 2010.05.17/outbox.cif.g08.bks.cpg/sg12_174_cif.got.tgz:346444.got - 2010.06.03 13:09:07.
