data_PCOD9215320
_publ_section_title
;
Structure prediction by ZEFSAII (Michael W. Deem and Ramdas Pophale) SiO2 
 PCOD9215320
Probable space group: C 2/M
;
_chemical_formula_sum "Si O2"
_cell_formula_units_Z 48
_cell_length_a 15.224493
_cell_length_b 14.608299
_cell_length_c 11.566404
_cell_angle_alpha 90.000000
_cell_angle_beta 48.139897
_cell_angle_gamma 90.000000
_cell_volume 1915.873156
_symmetry_space_group_name_H-M "C 2/M"
_symmetry_group_IT_number 12
_symmetry_cell_setting 'monoclinic'
loop_
_space_group_symop_operation_xyz
x,y,z
-x,y,-z
-x,-y,-z
x,-y,z
1/2+x,1/2+y,z
1/2-x,1/2+y,-z
1/2-x,1/2-y,-z
1/2+x,1/2-y,z
loop_
_atom_site_type_symbol
_atom_site_label
_atom_site_fract_x
_atom_site_fract_y
_atom_site_fract_z
Si Si1 0.359983 0.220465 0.683464
Si Si2 0.248319 0.597053 0.785586
Si Si3 0.267483 0.894366 0.559440
Si Si4 0.959578 0.401101 0.183991
Si Si5 0.197936 0.102790 0.992751
Si Si6 0.020365 0.209876 0.744099
O O1 0.305550 0.313794 0.682568
O O2 0.348595 0.144719 0.592966
O O3 0.472906 0.258810 0.657587
O O4 0.272611 0.175655 0.855316
O O5 0.302537 0.500000 0.699245
O O6 0.112816 0.595030 0.870753
O O7 0.258952 0.602993 0.913013
O O8 0.352445 0.896620 0.373763
O O9 0.153357 0.828857 0.638912
O O10 0.230771 0.000000 0.613856
O O11 0.018214 0.500000 0.157893
O O12 0.010089 0.301058 0.156817
O O13 0.063031 0.132641 0.127446
O O14 0.209572 0.000000 0.935121
#
# Coordination Sequence:
#
# PCOD9215320 Si02
#       6
#     8   8   8   8   8   8
#     4  11  23  41  65  94 133 172 214 272 332 387
#     4   9  18  37  61  85 123 167 206 260 318 376
#     4  11  24  43  66  96 135 175 218 273 330 389
#     4  10  22  41  64  93 130 169 217 271 325 390
#     4  10  22  42  64  94 131 167 215 272 327 393
#     4  11  22  40  66  96 127 171 220 264 323 395
#
# _framework density 25.053850000000001
#
# number of rings (size 3 to 8) (size 9 to 14) (size 15 to 20)
#    0.000    1.667    1.667    3.500    0.000    3.333 
#    6.000    4.167    0.000   12.000    0.000    0.000 
#    0.000    0.000    0.000    0.000    0.000    0.000 
#
# Total GULP energy -134129.960951 kJ/mol
# GULP energy per Si atom -5588.748373 kJ/mol
# Density = 2.499683 g / cm^3
# Si number density = 25.053850 Si / 1000 Ang^3
#
#
#
# Elastic Constant Matrix: (Units=GPa)
#
#
# Indices 1 2 3 4 5 6 
#
# 1 40.3648 30.4627 5.7785 0.0000 4.0589 0.0000
# 2 30.4627 195.8654 14.6996 0.0000 -1.6521 0.0000
# 3 5.7785 14.6996 45.1233 0.0000 -15.7017 0.0000
# 4 0.0000 0.0000 0.0000 18.0560 0.0000 -4.0321
# 5 4.0589 -1.6521 -15.7017 0.0000 32.9813 0.0000
# 6 0.0000 0.0000 0.0000 -4.0321 0.0000 39.2623
#
#
#
# Elastic Compliance Matrix: (Units=1/GPa)
#
#
# Indices 1 2 3 4 5 6 
#
# 1 0.029216 -0.004263 -0.004409 0.000000 -0.005908 0.000000
# 2 -0.004263 0.005867 -0.001295 0.000000 0.000202 0.000000
# 3 -0.004409 -0.001295 0.027943 0.000000 0.013781 0.000000
# 4 0.000000 0.000000 0.000000 0.056683 0.000000 0.005821
# 5 -0.005908 0.000202 0.013781 0.000000 0.037618 0.000000
# 6 0.000000 0.000000 0.000000 0.005821 0.000000 0.026068
#
#
# Mechanical properties :
#
#
# Convention : Reuss Voigt Hill
#
# Bulk Modulus (GPa) = 23.20519 42.58168 32.89343
# Shear Modulus (GPa) = 22.96797 33.42077 28.19437
#
# Velocity S-wave (km/s) = 3.03106 3.65630 3.35826
# Velocity P-wave (km/s) = 4.64026 5.90404 5.30988
#
# Compressibility (1/GPa) = 0.04309382
#
# Stress axis : x y z
#
# Youngs Moduli (GPa) = 34.22731 170.43116 35.78661
#
# Poissons Ratio (x) = 0.72654 0.15777
# Poissons Ratio (y) = 0.14591 0.04635
# Poissons Ratio (z) = 0.15089 0.22075
#
# Static dielectric constant tensor:
#      x y z
#    x 1.993320 0.000000 -0.005310 
#    y 0.000000 1.944530 0.000000 
#    z -0.005310 0.000000 2.075040 
# 
# From -- ./inp_files/143555.got.cif
#   From: 2010.05.17/outbox.cif.g08.bks.cpg/sg12_72_cif.got.tgz:143555.got - 2010.06.03 13:09:07.
