data_PCOD9215432
_publ_section_title
;
Structure prediction by ZEFSAII (Michael W. Deem and Ramdas Pophale) SiO2 
 PCOD9215432
Probable space group: C 2/M
;
_chemical_formula_sum "Si O2"
_cell_formula_units_Z 40
_cell_length_a 13.645477
_cell_length_b 22.739069
_cell_length_c 8.172197
_cell_angle_alpha 90.000000
_cell_angle_beta 133.288691
_cell_angle_gamma 90.000000
_cell_volume 1845.766615
_symmetry_space_group_name_H-M "C 2/M"
_symmetry_group_IT_number 12
_symmetry_cell_setting 'monoclinic'
loop_
_space_group_symop_operation_xyz
x,y,z
-x,y,-z
-x,-y,-z
x,-y,z
1/2+x,1/2+y,z
1/2-x,1/2+y,-z
1/2-x,1/2-y,-z
1/2+x,1/2-y,z
loop_
_atom_site_type_symbol
_atom_site_label
_atom_site_fract_x
_atom_site_fract_y
_atom_site_fract_z
Si Si1 0.902967 0.500000 0.729028
Si Si2 0.640505 0.668313 0.092807
Si Si3 0.412887 0.124455 0.563651
Si Si4 0.833349 0.710333 0.723982
Si Si5 0.663259 0.500000 0.687292
Si Si6 0.846810 0.128462 0.259642
O O1 0.927110 0.559328 0.653411
O O2 0.747363 0.500000 0.614538
O O3 0.000000 0.500000 0.000000
O O4 0.760835 0.638497 0.331420
O O5 0.633155 0.738510 0.109722
O O6 0.341787 0.656962 0.077212
O O7 0.500000 0.643746 0.000000
O O8 0.500000 0.132810 0.500000
O O9 0.439277 0.172455 0.737881
O O10 0.750000 0.750000 0.500000
O O11 0.742214 0.662606 0.710909
O O12 0.500000 0.500000 0.500000
O O13 0.702116 0.561284 0.814197
O O14 0.000000 0.128859 0.500000
#
# Coordination Sequence:
#
# PCOD9215432 Si02
#       6
#     4   8   8   8   4   8
#     4  12  27  48  74 102 145 184 232 289 349 423
#     4  11  26  43  70 103 139 182 233 294 349 413
#     4  11  26  47  69 102 143 186 234 288 348 421
#     4  10  22  41  65  98 138 182 229 282 348 408
#     4  10  24  42  76 102 137 179 231 283 354 404
#     4  11  22  43  70 103 141 182 235 289 353 417
#
# _framework density 21.671211
#
# number of rings (size 3 to 8) (size 9 to 14) (size 15 to 20)
#    0.000    1.200    2.000    3.300    5.600    9.600 
#    0.000    1.000    0.000    0.000    0.000    0.000 
#    0.000    0.000    0.000    0.000    0.000    0.000 
#
# Total GULP energy -111757.024600 kJ/mol
# GULP energy per Si atom -5587.851230 kJ/mol
# Density = 2.162189 g / cm^3
# Si number density = 21.671211 Si / 1000 Ang^3
#
#
#
# Elastic Constant Matrix: (Units=GPa)
#
#
# Indices 1 2 3 4 5 6 
#
# 1 154.9096 70.7589 33.1963 0.0000 -24.5398 0.0000
# 2 70.7589 205.2495 59.5962 0.0000 -31.9809 0.0000
# 3 33.1963 59.5962 87.3713 0.0000 -13.2668 0.0000
# 4 0.0000 0.0000 0.0000 45.7887 0.0000 -18.2028
# 5 -24.5398 -31.9809 -13.2668 0.0000 48.3576 0.0000
# 6 0.0000 0.0000 0.0000 -18.2028 0.0000 37.5527
#
#
#
# Elastic Compliance Matrix: (Units=1/GPa)
#
#
# Indices 1 2 3 4 5 6 
#
# 1 0.008036 -0.002017 -0.001316 0.000000 0.002383 0.000000
# 2 -0.002017 0.007032 -0.003630 0.000000 0.002631 0.000000
# 3 -0.001316 -0.003630 0.014562 0.000000 0.000927 0.000000
# 4 0.000000 0.000000 0.000000 0.027052 0.000000 0.013113
# 5 0.002383 0.002631 0.000927 0.000000 0.023883 0.000000
# 6 0.000000 0.000000 0.000000 0.013113 0.000000 0.032985
#
#
# Mechanical properties :
#
#
# Convention : Reuss Voigt Hill
#
# Bulk Modulus (GPa) = 63.67876 86.07036 74.87456
# Shear Modulus (GPa) = 37.67580 45.27174 41.47377
#
# Velocity S-wave (km/s) = 4.17408 4.57555 4.37941
# Velocity P-wave (km/s) = 7.25799 8.22902 7.75871
#
# Compressibility (1/GPa) = 0.01570382
#
# Stress axis : x y z
#
# Youngs Moduli (GPa) = 124.43701 142.21663 68.67083
#
# Poissons Ratio (x) = 0.28687 0.09034
# Poissons Ratio (y) = 0.25101 0.24930
# Poissons Ratio (z) = 0.16370 0.51630
#
# Static dielectric constant tensor:
#      x y z
#    x 1.789070 0.000000 0.063750 
#    y 0.000000 1.770770 0.000000 
#    z 0.063750 0.000000 1.875220 
# 
# From -- ./inp_files/50987.got.cif
#   From: 2010.05.17/outbox.cif.g08.bks.cpg/sg12_26_cif.got.tgz:50987.got - 2010.06.03 13:09:07.
