data_PCOD9215767
_publ_section_title
;
Structure prediction by ZEFSAII (Michael W. Deem and Ramdas Pophale) SiO2 
 PCOD9215767
Probable space group: C 2/M
;
_chemical_formula_sum "Si O2"
_cell_formula_units_Z 56
_cell_length_a 32.067867
_cell_length_b 8.674089
_cell_length_c 12.145375
_cell_angle_alpha 90.000000
_cell_angle_beta 56.215557
_cell_angle_gamma 90.000000
_cell_volume 2807.868086
_symmetry_space_group_name_H-M "C 2/M"
_symmetry_group_IT_number 12
_symmetry_cell_setting 'monoclinic'
loop_
_space_group_symop_operation_xyz
x,y,z
-x,y,-z
-x,-y,-z
x,-y,z
1/2+x,1/2+y,z
1/2-x,1/2+y,-z
1/2-x,1/2-y,-z
1/2+x,1/2-y,z
loop_
_atom_site_type_symbol
_atom_site_label
_atom_site_fract_x
_atom_site_fract_y
_atom_site_fract_z
Si Si1 0.322325 0.183530 0.148132
Si Si2 0.384939 0.183088 0.669734
Si Si3 0.194226 0.815791 0.592760
Si Si4 0.601845 0.313433 0.583368
Si Si5 0.506579 0.687602 0.865391
Si Si6 0.909561 0.185100 0.866897
Si Si7 0.773866 0.815767 0.853216
O O1 0.328061 0.263158 0.257454
O O2 0.266382 0.213021 0.183974
O O3 0.328423 0.000000 0.149691
O O4 0.361823 0.247264 0.001858
O O5 0.407441 0.244088 0.522696
O O6 0.409455 0.255580 0.742473
O O7 0.326932 0.236836 0.755344
O O8 0.387801 0.000000 0.671805
O O9 0.250000 0.750000 0.500000
O O10 0.155859 0.766019 0.553239
O O11 0.197047 0.000000 0.585337
O O12 0.601635 0.500000 0.575309
O O13 0.558485 0.265967 0.732179
O O14 0.506977 0.500000 0.868461
O O15 0.459419 0.732370 0.859615
O O16 0.500000 0.743060 0.000000
O O17 0.906022 0.000000 0.872349
O O18 0.780949 0.000000 0.852570
O O19 0.750000 0.750000 0.000000
#
# Coordination Sequence:
#
# PCOD9215767 Si02
#       7
#     8   8   8   8   8   8   8
#     4  11  23  38  59  89 125 160 200 251 305 365
#     4  12  25  40  59  88 127 165 205 253 307 370
#     4  11  23  39  62  90 122 161 203 250 303 362
#     4  10  22  42  65  89 121 161 207 255 305 363
#     4   9  19  39  67  95 119 150 201 258 307 364
#     4  11  22  38  64  92 119 156 203 255 308 362
#     4  11  22  37  59  87 122 164 206 249 300 359
#
# _framework density 19.943957000000001
#
# number of rings (size 3 to 8) (size 9 to 14) (size 15 to 20)
#    0.000    1.286    1.429    4.714    0.000    9.143 
#    0.000    4.286    0.000    3.000    0.000    0.000 
#    0.000    0.000    0.000    0.000    0.000    0.000 
#
# Total GULP energy -156622.915952 kJ/mol
# GULP energy per Si atom -5593.675570 kJ/mol
# Density = 1.989856 g / cm^3
# Si number density = 19.943957 Si / 1000 Ang^3
#
#
#
# Elastic Constant Matrix: (Units=GPa)
#
#
# Indices 1 2 3 4 5 6 
#
# 1 137.1431 38.1784 60.3516 0.0000 11.6927 0.0000
# 2 38.1784 44.4715 17.1445 0.0000 4.4139 0.0000
# 3 60.3516 17.1445 133.5570 0.0000 16.1607 0.0000
# 4 0.0000 0.0000 0.0000 30.4818 0.0000 2.3091
# 5 11.6927 4.4139 16.1607 0.0000 36.5756 0.0000
# 6 0.0000 0.0000 0.0000 2.3091 0.0000 21.4654
#
#
#
# Elastic Compliance Matrix: (Units=1/GPa)
#
#
# Indices 1 2 3 4 5 6 
#
# 1 0.011396 -0.008154 -0.003995 0.000000 -0.000894 0.000000
# 2 -0.008154 0.029581 0.000004 0.000000 -0.000965 0.000000
# 3 -0.003995 0.000004 0.009654 0.000000 -0.002989 0.000000
# 4 0.000000 0.000000 0.000000 0.033076 0.000000 -0.003558
# 5 -0.000894 -0.000965 -0.002989 0.000000 0.029064 0.000000
# 6 0.000000 0.000000 0.000000 -0.003558 0.000000 0.046969
#
#
# Mechanical properties :
#
#
# Convention : Reuss Voigt Hill
#
# Bulk Modulus (GPa) = 37.96375 60.72449 49.34412
# Shear Modulus (GPa) = 25.93241 31.00438 28.46840
#
# Velocity S-wave (km/s) = 3.60983 3.94709 3.78222
# Velocity P-wave (km/s) = 6.03747 7.16145 6.62334
#
# Compressibility (1/GPa) = 0.02634092
#
# Stress axis : x y z
#
# Youngs Moduli (GPa) = 87.75154 33.80551 103.58822
#
# Poissons Ratio (x) = 0.27567 0.41379
# Poissons Ratio (y) = 0.71557 -0.00045
# Poissons Ratio (z) = 0.35053 -0.00015
#
# Static dielectric constant tensor:
#      x y z
#    x 1.695780 0.000000 0.006030 
#    y 0.000000 1.671530 0.000000 
#    z 0.006030 0.000000 1.681770 
# 
# From -- ./inp_files/187176.got.cif
#   From: 2010.05.17/outbox.cif.g08.bks.cpg/sg12_94_cif.got.tgz:187176.got - 2010.06.03 13:09:07.
