data_PCOD9215201
_publ_section_title
;
Structure prediction by ZEFSAII (Michael W. Deem and Ramdas Pophale) SiO2 
 PCOD9215201
Probable space group: C 2/M
;
_chemical_formula_sum "Si O2"
_cell_formula_units_Z 56
_cell_length_a 9.900233
_cell_length_b 14.224384
_cell_length_c 25.044644
_cell_angle_alpha 90.000000
_cell_angle_beta 60.355760
_cell_angle_gamma 90.000000
_cell_volume 3065.279869
_symmetry_space_group_name_H-M "C 2/M"
_symmetry_group_IT_number 12
_symmetry_cell_setting 'monoclinic'
loop_
_space_group_symop_operation_xyz
x,y,z
-x,y,-z
-x,-y,-z
x,-y,z
1/2+x,1/2+y,z
1/2-x,1/2+y,-z
1/2-x,1/2-y,-z
1/2+x,1/2-y,z
loop_
_atom_site_type_symbol
_atom_site_label
_atom_site_fract_x
_atom_site_fract_y
_atom_site_fract_z
Si Si1 0.318902 0.754516 0.045198
Si Si2 0.904647 0.110706 0.850172
Si Si3 0.081977 0.757803 0.252760
Si Si4 0.276011 0.256553 0.661386
Si Si5 0.512059 0.887579 0.561319
Si Si6 0.771773 0.887944 0.149386
Si Si7 0.165767 0.112540 0.444517
O O1 0.236335 0.840396 0.091354
O O2 0.286016 0.663929 0.089399
O O3 0.500000 0.766315 0.000000
O O4 0.250000 0.750000 0.000000
O O5 0.909949 0.158531 0.791385
O O6 0.065636 0.128888 0.850795
O O7 0.884773 0.000000 0.850258
O O8 0.190323 0.769247 0.282848
O O9 0.138063 0.664827 0.209583
O O10 0.907548 0.755584 0.308594
O O11 0.379187 0.170650 0.618088
O O12 0.320612 0.345519 0.616925
O O13 0.500000 0.871981 0.500000
O O14 0.682702 0.859342 0.550341
O O15 0.493275 0.000000 0.574205
O O16 0.747751 0.000000 0.149660
O O17 0.000000 0.144682 0.500000
O O18 0.164838 0.000000 0.443632
#
# Coordination Sequence:
#
# PCOD9215201 Si02
#       7
#     8   8   8   8   8   8   8
#     4  11  22  39  63  96 128 155 198 251 292 347
#     4  10  22  41  63  89 124 163 200 245 299 350
#     4  11  24  40  60  91 120 155 203 255 293 346
#     4  12  23  39  63  88 118 158 202 246 302 360
#     4  10  23  41  61  87 119 156 198 246 304 368
#     4  10  22  41  65  88 121 167 202 239 298 359
#     4  10  23  41  60  87 122 155 194 250 308 360
#
# _framework density 18.269131999999999
#
# number of rings (size 3 to 8) (size 9 to 14) (size 15 to 20)
#    0.000    1.429    4.286    0.429    2.000    4.571 
#    0.000    1.429    0.000    0.000    0.000    0.000 
#    0.000    0.000    0.000    0.000    0.000    0.000 
#
# Total GULP energy -156329.406630 kJ/mol
# GULP energy per Si atom -5583.193094 kJ/mol
# Density = 1.822755 g / cm^3
# Si number density = 18.269132 Si / 1000 Ang^3
#
#
#
# Elastic Constant Matrix: (Units=GPa)
#
#
# Indices 1 2 3 4 5 6 
#
# 1 68.6721 39.6950 19.3118 0.0000 -4.3789 0.0000
# 2 39.6950 91.7690 42.1936 0.0000 -0.9164 0.0000
# 3 19.3118 42.1936 97.4025 0.0000 -3.8772 0.0000
# 4 0.0000 0.0000 0.0000 -22.3596 0.0000 -0.1485
# 5 -4.3789 -0.9164 -3.8772 0.0000 47.7887 0.0000
# 6 0.0000 0.0000 0.0000 -0.1485 0.0000 24.8209
#
#
#
# Elastic Compliance Matrix: (Units=1/GPa)
#
#
# Indices 1 2 3 4 5 6 
#
# 1 0.019546 -0.008349 -0.000194 0.000000 0.001615 0.000000
# 2 -0.008349 0.017176 -0.005821 0.000000 -0.000908 0.000000
# 3 -0.000194 -0.005821 0.012863 0.000000 0.000914 0.000000
# 4 0.000000 0.000000 0.000000 -0.044722 0.000000 -0.000268
# 5 0.001615 -0.000908 0.000914 0.000000 0.021130 0.000000
# 6 0.000000 0.000000 0.000000 -0.000268 0.000000 0.040287
#
#
# Mechanical properties :
#
#
# Convention : Reuss Voigt Hill
#
# Bulk Modulus (GPa) = 47.94854 51.13825 49.54340
# Shear Modulus (GPa) = 49.03842 20.49288 34.76565
#
# Velocity S-wave (km/s) = 5.18657 3.35284 4.36704
# Velocity P-wave (km/s) = 7.88479 6.56057 7.25297
#
# Compressibility (1/GPa) = 0.02085569
#
# Stress axis : x y z
#
# Youngs Moduli (GPa) = 51.16224 58.22166 77.74100
#
# Poissons Ratio (x) = 0.48610 0.01510
# Poissons Ratio (y) = 0.42716 0.45254
# Poissons Ratio (z) = 0.00994 0.33892
#
# Static dielectric constant tensor:
#      x y z
#    x 1.606760 0.000000 -0.021250 
#    y 0.000000 1.608450 0.000000 
#    z -0.021250 0.000000 1.399890 
# 
# From -- ./inp_files/300160.got.cif
#   From: 2010.05.17/outbox.cif.g08.bks.cpg/sg12_151_cif.got.tgz:300160.got - 2010.06.03 13:09:07.
