data_PCOD9215712
_publ_section_title
;
Structure prediction by ZEFSAII (Michael W. Deem and Ramdas Pophale) SiO2 
 PCOD9215712
Probable space group: C 2/M
;
_chemical_formula_sum "Si O2"
_cell_formula_units_Z 36
_cell_length_a 11.437661
_cell_length_b 27.317224
_cell_length_c 4.889635
_cell_angle_alpha 90.000000
_cell_angle_beta 106.449401
_cell_angle_gamma 90.000000
_cell_volume 1465.212495
_symmetry_space_group_name_H-M "C 2/M"
_symmetry_group_IT_number 12
_symmetry_cell_setting 'monoclinic'
loop_
_space_group_symop_operation_xyz
x,y,z
-x,y,-z
-x,-y,-z
x,-y,z
1/2+x,1/2+y,z
1/2-x,1/2+y,-z
1/2-x,1/2-y,-z
1/2+x,1/2-y,z
loop_
_atom_site_type_symbol
_atom_site_label
_atom_site_fract_x
_atom_site_fract_y
_atom_site_fract_z
Si Si1 0.864642 0.599791 0.540344
Si Si2 0.000000 0.890277 0.500000
Si Si3 0.142366 0.706232 0.553153
Si Si4 0.728038 0.442633 0.935126
Si Si5 0.385307 0.696046 0.764800
O O1 0.838311 0.656329 0.613277
O O2 0.833280 0.566893 0.779511
O O3 0.000000 0.594726 0.500000
O O4 0.772302 0.583602 0.239699
O O5 0.102687 0.920957 0.726836
O O6 0.066868 0.853801 0.332234
O O7 0.255645 0.696339 0.835275
O O8 0.144543 0.763777 0.484227
O O9 0.000000 0.699513 0.500000
O O10 0.712714 0.500000 0.977044
O O11 0.500000 0.717361 0.000000
#
# Coordination Sequence:
#
# PCOD9215712 Si02
#       5
#     8   4   8   8   8
#     4  11  25  47  72 107 144 184 239 298 365 431
#     4  12  25  46  68 104 142 190 235 304 354 438
#     4  10  22  42  64 105 137 186 232 289 354 435
#     4  12  27  47  74 103 141 190 246 302 358 420
#     4  11  23  42  68  99 145 189 235 288 360 432
#
# _framework density 24.569817
#
# number of rings (size 3 to 8) (size 9 to 14) (size 15 to 20)
#    0.000    0.889    3.333    3.000    0.000    7.111 
#    0.000    2.222    0.000    0.000    0.000    0.000 
#    0.000    0.000    0.000    0.000    0.000    0.000 
#
# Total GULP energy -100350.436571 kJ/mol
# GULP energy per Si atom -5575.024254 kJ/mol
# Density = 2.451390 g / cm^3
# Si number density = 24.569817 Si / 1000 Ang^3
#
#
#
# Elastic Constant Matrix: (Units=GPa)
#
#
# Indices 1 2 3 4 5 6 
#
# 1 125.9784 32.7593 40.2279 0.0000 31.8839 0.0000
# 2 32.7593 182.0285 37.8733 0.0000 3.1747 0.0000
# 3 40.2279 37.8733 92.9824 0.0000 7.2579 0.0000
# 4 0.0000 0.0000 0.0000 37.9698 0.0000 -82.0012
# 5 31.8839 3.1747 7.2579 0.0000 46.7690 0.0000
# 6 0.0000 0.0000 0.0000 -82.0012 0.0000-2138.5712
#
#
#
# Elastic Compliance Matrix: (Units=1/GPa)
#
#
# Indices 1 2 3 4 5 6 
#
# 1 0.011222 -0.001094 -0.003865 0.000000 -0.006976 0.000000
# 2 -0.001094 0.006109 -0.002066 0.000000 0.000652 0.000000
# 3 -0.003865 -0.002066 0.013212 0.000000 0.000725 0.000000
# 4 0.000000 0.000000 0.000000 0.024323 0.000000 -0.000933
# 5 -0.006976 0.000652 0.000725 0.000000 0.025981 0.000000
# 6 0.000000 0.000000 0.000000 -0.000933 0.000000 -0.000432
#
#
# Mechanical properties :
#
#
# Convention : Reuss Voigt Hill
#
# Bulk Modulus (GPa) = 60.63042 69.19002 64.91022
# Shear Modulus (GPa) = 50.01891 -391.42458 -170.70284
#
# Velocity S-wave (km/s) = 4.51686 -12.63554 -8.34431
# Velocity P-wave (km/s) = 7.20646 13.58876 8.14620
#
# Compressibility (1/GPa) = 0.01649337
#
# Stress axis : x y z
#
# Youngs Moduli (GPa) = 89.10919 163.69377 75.68978
#
# Poissons Ratio (x) = 0.17904 0.29255
# Poissons Ratio (y) = 0.09747 0.15637
# Poissons Ratio (z) = 0.34442 0.33818
#
# Static dielectric constant tensor:
#      x y z
#    x 2.476320 0.000000 0.273540 
#    y 0.000000 1.945300 0.000000 
#    z 0.273540 0.000000 2.192990 
# 
# From -- ./inp_files/12283.got.cif
#   From: 2010.05.17/outbox.cif.g08.bks.cpg/sg12_7_cif.got.tgz:12283.got - 2010.06.03 13:09:07.
