data_PCOD9215365
_publ_section_title
;
Structure prediction by ZEFSAII (Michael W. Deem and Ramdas Pophale) SiO2 
 PCOD9215365
Probable space group: C 2/M
;
_chemical_formula_sum "Si O2"
_cell_formula_units_Z 58
_cell_length_a 19.909610
_cell_length_b 20.209559
_cell_length_c 9.435110
_cell_angle_alpha 90.000000
_cell_angle_beta 136.930909
_cell_angle_gamma 90.000000
_cell_volume 2592.452512
_symmetry_space_group_name_H-M "C 2/M"
_symmetry_group_IT_number 12
_symmetry_cell_setting 'monoclinic'
loop_
_space_group_symop_operation_xyz
x,y,z
-x,y,-z
-x,-y,-z
x,-y,z
1/2+x,1/2+y,z
1/2-x,1/2+y,-z
1/2-x,1/2-y,-z
1/2+x,1/2-y,z
loop_
_atom_site_type_symbol
_atom_site_label
_atom_site_fract_x
_atom_site_fract_y
_atom_site_fract_z
Si Si1 0.344228 0.109552 0.746406
Si Si2 0.906219 0.192475 0.766458
Si Si3 0.902608 0.316784 0.567789
Si Si4 0.793922 0.921471 0.108375
Si Si5 0.131462 0.314114 0.949517
Si Si6 0.619139 0.424888 0.462949
Si Si7 0.710409 0.674111 0.131521
Si Si8 0.000000 0.500000 0.000000
O O1 0.374604 0.124638 0.632882
O O2 0.360618 0.174060 0.867695
O O3 0.233596 0.083728 0.591038
O O4 0.420232 0.056714 0.921256
O O5 0.877054 0.248586 0.609964
O O6 0.934553 0.129108 0.714749
O O7 0.826478 0.174799 0.762836
O O8 0.000000 0.214837 0.000000
O O9 0.829048 0.321769 0.323237
O O10 0.019327 0.318887 0.725000
O O11 0.701874 0.873646 0.005887
O O12 0.873341 0.911777 0.356764
O O13 0.771612 0.000000 0.069550
O O14 0.824487 0.890929 0.005274
O O15 0.169885 0.239466 0.991007
O O16 0.586267 0.500000 0.389706
#
# Coordination Sequence:
#
# PCOD9215365 Si02
#       8
#     8   8   8   8   8   8   8   2
#     4  11  19  33  57  94 130 164 210 262 326 399
#     4  12  23  41  69 103 133 166 224 289 331 389
#     4  12  21  38  66  99 133 170 210 276 339 394
#     4  10  25  47  67  94 138 185 222 273 331 402
#     4  11  22  39  66  94 133 174 222 266 332 405
#     4  10  22  41  65  91 128 179 221 268 334 394
#     4  12  24  42  67 100 137 176 224 278 337 395
#     4  12  20  28  56  96 132 164 208 254 328 400
#
# _framework density 22.372637999999998
#
# number of rings (size 3 to 8) (size 9 to 14) (size 15 to 20)
#    0.000    0.828    6.207    2.483    0.966    1.379 
#    1.241    1.379    0.000    1.655    0.000    0.000 
#    0.000    0.000    0.000    0.000    0.000    0.000 
#
# Total GULP energy -161807.835946 kJ/mol
# GULP energy per Si atom -5579.580550 kJ/mol
# Density = 2.232172 g / cm^3
# Si number density = 22.372638 Si / 1000 Ang^3
#
#
#
# Elastic Constant Matrix: (Units=GPa)
#
#
# Indices 1 2 3 4 5 6 
#
# 1 47.3665 22.4413 13.1005 0.0000 -6.9699 0.0000
# 2 22.4413 114.8699 12.8014 0.0000 -31.0722 0.0000
# 3 13.1005 12.8014 47.7834 0.0000 -5.3614 0.0000
# 4 0.0000 0.0000 0.0000 19.6397 0.0000 5.4034
# 5 -6.9699 -31.0722 -5.3614 0.0000 26.1930 0.0000
# 6 0.0000 0.0000 0.0000 5.4034 0.0000 27.6527
#
#
#
# Elastic Compliance Matrix: (Units=1/GPa)
#
#
# Indices 1 2 3 4 5 6 
#
# 1 0.024663 -0.004017 -0.005613 0.000000 0.000648 0.000000
# 2 -0.004017 0.013621 -0.000875 0.000000 0.014910 0.000000
# 3 -0.005613 -0.000875 0.022944 0.000000 0.002165 0.000000
# 4 0.000000 0.000000 0.000000 0.053810 0.000000 -0.010515
# 5 0.000648 0.014910 0.002165 0.000000 0.056482 0.000000
# 6 0.000000 0.000000 0.000000 -0.010515 0.000000 0.038217
#
#
# Mechanical properties :
#
#
# Convention : Reuss Voigt Hill
#
# Bulk Modulus (GPa) = 24.86435 34.07848 29.47141
# Shear Modulus (GPa) = 20.47895 25.47551 22.97723
#
# Velocity S-wave (km/s) = 3.02877 3.37811 3.20820
# Velocity P-wave (km/s) = 4.83416 5.52094 5.18893
#
# Compressibility (1/GPa) = 0.04021823
#
# Stress axis : x y z
#
# Youngs Moduli (GPa) = 40.54644 73.41564 43.58463
#
# Poissons Ratio (x) = 0.29494 0.24463
# Poissons Ratio (y) = 0.16289 0.03813
# Poissons Ratio (z) = 0.22758 0.06422
#
# Static dielectric constant tensor:
#      x y z
#    x 1.943350 0.000000 0.023460 
#    y 0.000000 1.763680 0.000000 
#    z 0.023460 0.000000 1.808470 
# 
# From -- ./inp_files/168991.got.cif
#   From: 2010.05.17/outbox.cif.g08.bks.cpg/sg12_85_cif.got.tgz:168991.got - 2010.06.03 13:09:07.
