data_PCOD9215380
_publ_section_title
;
Structure prediction by ZEFSAII (Michael W. Deem and Ramdas Pophale) SiO2 
 PCOD9215380
Probable space group: C 2/M
;
_chemical_formula_sum "Si O2"
_cell_formula_units_Z 42
_cell_length_a 13.665846
_cell_length_b 12.034063
_cell_length_c 12.305784
_cell_angle_alpha 90.000000
_cell_angle_beta 107.173646
_cell_angle_gamma 90.000000
_cell_volume 1933.525114
_symmetry_space_group_name_H-M "C 2/M"
_symmetry_group_IT_number 12
_symmetry_cell_setting 'monoclinic'
loop_
_space_group_symop_operation_xyz
x,y,z
-x,y,-z
-x,-y,-z
x,-y,z
1/2+x,1/2+y,z
1/2-x,1/2+y,-z
1/2-x,1/2-y,-z
1/2+x,1/2-y,z
loop_
_atom_site_type_symbol
_atom_site_label
_atom_site_fract_x
_atom_site_fract_y
_atom_site_fract_z
Si Si1 0.065365 0.122273 0.132733
Si Si2 0.447142 0.786735 0.245924
Si Si3 0.672183 0.679146 0.612401
Si Si4 0.629794 0.123787 0.438013
Si Si5 0.000000 0.000000 0.500000
Si Si6 0.765374 0.372151 0.064379
O O1 0.182148 0.132166 0.133922
O O2 0.023807 0.213849 0.199221
O O3 0.048917 0.000000 0.177107
O O4 0.000000 0.127893 0.000000
O O5 0.367048 0.704768 0.279725
O O6 0.517950 0.847116 0.356690
O O7 0.379522 0.865957 0.148825
O O8 0.663859 0.792640 0.542370
O O9 0.786768 0.635852 0.631776
O O10 0.589968 0.595737 0.534283
O O11 0.633235 0.000000 0.481495
O O12 0.749784 0.500000 0.010178
O O13 0.750000 0.250000 0.000000
#
# Coordination Sequence:
#
# PCOD9215380 Si02
#       6
#     8   8   8   8   2   8
#     4  10  22  41  65  92 126 171 221 270 323 389
#     4  12  23  41  67  97 130 172 221 271 331 390
#     4  11  25  42  68  99 130 176 217 266 327 389
#     4  11  24  43  65  97 137 169 213 267 328 394
#     4  12  20  48  62  96 136 166 224 270 308 404
#     4  11  24  45  67  95 130 172 224 276 334 397
#
# _framework density 21.721982000000001
#
# number of rings (size 3 to 8) (size 9 to 14) (size 15 to 20)
#    0.000    0.952    4.762    1.714    1.333    2.286 
#    0.000    4.762    0.000    0.000    0.000    0.000 
#    0.000    0.000    0.000    0.000    0.000    0.000 
#
# Total GULP energy -116994.801582 kJ/mol
# GULP energy per Si atom -5571.181028 kJ/mol
# Density = 2.167254 g / cm^3
# Si number density = 21.721982 Si / 1000 Ang^3
#
#
#
# Elastic Constant Matrix: (Units=GPa)
#
#
# Indices 1 2 3 4 5 6 
#
# 1 92.4853 17.3481 -3.7664 0.0000 -3.1945 0.0000
# 2 17.3481 156.4426 18.8014 0.0000 -14.8623 0.0000
# 3 -3.7664 18.8014 17.4538 0.0000 -3.1049 0.0000
# 4 0.0000 0.0000 0.0000 -8.5722 0.0000 1.4425
# 5 -3.1945 -14.8623 -3.1049 0.0000 31.1891 0.0000
# 6 0.0000 0.0000 0.0000 1.4425 0.0000 48.3517
#
#
#
# Elastic Compliance Matrix: (Units=1/GPa)
#
#
# Indices 1 2 3 4 5 6 
#
# 1 0.011342 -0.001716 0.004436 0.000000 0.000785 0.000000
# 2 -0.001716 0.007844 -0.008333 0.000000 0.002732 0.000000
# 3 0.004436 -0.008333 0.067803 0.000000 0.003233 0.000000
# 4 0.000000 0.000000 0.000000 -0.116074 0.000000 0.003463
# 5 0.000785 0.002732 0.003233 0.000000 0.033767 0.000000
# 6 0.000000 0.000000 0.000000 0.003463 0.000000 0.020578
#
#
# Mechanical properties :
#
#
# Convention : Reuss Voigt Hill
#
# Bulk Modulus (GPa) = 13.19925 36.79420 24.99673
# Shear Modulus (GPa) = 80.98314 29.79364 55.38839
#
# Velocity S-wave (km/s) = 6.11249 3.70752 5.05511
# Velocity P-wave (km/s) = 7.47706 5.94163 6.75313
#
# Compressibility (1/GPa) = 0.07576185
#
# Stress axis : x y z
#
# Youngs Moduli (GPa) = 88.16588 127.49384 14.74856
#
# Poissons Ratio (x) = 0.21881 -0.06543
# Poissons Ratio (y) = 0.15132 0.12291
# Poissons Ratio (z) = -0.39111 1.06246
#
# Static dielectric constant tensor:
#      x y z
#    x 1.824170 0.000000 0.012380 
#    y 0.000000 1.805810 0.000000 
#    z 0.012380 0.000000 1.832050 
# 
# From -- ./inp_files/141064.got.cif
#   From: 2010.05.17/outbox.cif.g08.bks.cpg/sg12_71_cif.got.tgz:141064.got - 2010.06.03 13:09:07.
