data_PCOD9215707
_publ_section_title
;
Structure prediction by ZEFSAII (Michael W. Deem and Ramdas Pophale) SiO2 
 PCOD9215707
Probable space group: C 2/M
;
_chemical_formula_sum "Si O2"
_cell_formula_units_Z 34
_cell_length_a 15.643662
_cell_length_b 24.484627
_cell_length_c 5.261502
_cell_angle_alpha 90.000000
_cell_angle_beta 40.419120
_cell_angle_gamma 90.000000
_cell_volume 1306.673984
_symmetry_space_group_name_H-M "C 2/M"
_symmetry_group_IT_number 12
_symmetry_cell_setting 'monoclinic'
loop_
_space_group_symop_operation_xyz
x,y,z
-x,y,-z
-x,-y,-z
x,-y,z
1/2+x,1/2+y,z
1/2-x,1/2+y,-z
1/2-x,1/2-y,-z
1/2+x,1/2-y,z
loop_
_atom_site_type_symbol
_atom_site_label
_atom_site_fract_x
_atom_site_fract_y
_atom_site_fract_z
Si Si1 0.500000 0.000000 0.500000
Si Si2 0.591928 0.789440 0.542692
Si Si3 0.635089 0.089239 0.524904
Si Si4 0.590851 0.672150 0.542015
Si Si5 0.649583 0.441183 0.560541
O O1 0.599045 0.048722 0.380136
O O2 0.500000 0.792280 0.500000
O O3 0.665356 0.847135 0.399294
O O4 0.664808 0.730470 0.384525
O O5 0.500000 0.788193 0.000000
O O6 0.749949 0.064025 0.434639
O O7 0.500000 0.088170 0.000000
O O8 0.500000 0.673088 0.500000
O O9 0.666570 0.614996 0.370872
O O10 0.500000 0.671594 0.000000
O O11 0.665467 0.500000 0.396481
O O12 0.500000 0.440751 0.000000
#
# Coordination Sequence:
#
# PCOD9215707 Si02
#       5
#     2   8   8   8   8
#     4  12  22  40  66  96 128 172 204 274 318 390
#     4   9  18  36  63  93 125 166 214 266 321 381
#     4  11  23  42  65  95 129 166 216 267 321 387
#     4   9  19  39  62  91 129 169 214 265 321 384
#     4  10  22  42  63  93 132 170 214 264 323 385
#
# _framework density 26.02026
#
# number of rings (size 3 to 8) (size 9 to 14) (size 15 to 20)
#    0.000    2.118    2.353    0.353    0.000    1.412 
#    8.471    0.000    0.000   19.765    0.000    0.000 
#    0.000    0.000    0.000    0.000    0.000    0.000 
#
# Total GULP energy -94898.702090 kJ/mol
# GULP energy per Si atom -5582.276594 kJ/mol
# Density = 2.596104 g / cm^3
# Si number density = 26.020260 Si / 1000 Ang^3
#
#
#
# Elastic Constant Matrix: (Units=GPa)
#
#
# Indices 1 2 3 4 5 6 
#
# 1 101.2913 8.6474 43.3761 0.0000 -9.3142 0.0000
# 2 8.6474 312.8688 56.9589 0.0000 -11.0477 0.0000
# 3 43.3761 56.9589 112.4606 0.0000 4.4118 0.0000
# 4 0.0000 0.0000 0.0000 2.4663 0.0000 2.0749
# 5 -9.3142 -11.0477 4.4118 0.0000 43.1934 0.0000
# 6 0.0000 0.0000 0.0000 2.0749 0.0000 51.6260
#
#
#
# Elastic Compliance Matrix: (Units=1/GPa)
#
#
# Indices 1 2 3 4 5 6 
#
# 1 0.012385 0.000740 -0.005285 0.000000 0.003400 0.000000
# 2 0.000740 0.003617 -0.002168 0.000000 0.001306 0.000000
# 3 -0.005285 -0.002168 0.012144 0.000000 -0.002935 0.000000
# 4 0.000000 0.000000 0.000000 0.419649 0.000000 -0.016866
# 5 0.003400 0.001306 -0.002935 0.000000 0.024519 0.000000
# 6 0.000000 0.000000 0.000000 -0.016866 0.000000 0.020048
#
#
# Mechanical properties :
#
#
# Convention : Reuss Voigt Hill
#
# Bulk Modulus (GPa) = 67.94143 82.73172 75.33657
# Shear Modulus (GPa) = 9.79058 47.29971 28.54515
#
# Velocity S-wave (km/s) = 1.94187 4.26820 3.31575
# Velocity P-wave (km/s) = 5.58529 7.49361 6.60869
#
# Compressibility (1/GPa) = 0.01471856
#
# Stress axis : x y z
#
# Youngs Moduli (GPa) = 80.74136 276.49843 82.34629
#
# Poissons Ratio (x) = -0.20458 0.43521
# Poissons Ratio (y) = -0.05974 0.17856
# Poissons Ratio (z) = 0.42673 0.59955
#
# Static dielectric constant tensor:
#      x y z
#    x 1.912320 0.000000 0.041470 
#    y 0.000000 2.068500 0.000000 
#    z 0.041470 0.000000 2.185490 
# 
# From -- ./inp_files/12004.got.cif
#   From: 2010.05.17/outbox.cif.g08.bks.cpg/sg12_7_cif.got.tgz:12004.got - 2010.06.03 13:09:07.
