data_PCOD9215291
_publ_section_title
;
Structure prediction by ZEFSAII (Michael W. Deem and Ramdas Pophale) SiO2 
 PCOD9215291
Probable space group: C 2/M
;
_chemical_formula_sum "Si O2"
_cell_formula_units_Z 40
_cell_length_a 7.251264
_cell_length_b 12.972469
_cell_length_c 24.360619
_cell_angle_alpha 90.000000
_cell_angle_beta 51.348642
_cell_angle_gamma 90.000000
_cell_volume 1789.591827
_symmetry_space_group_name_H-M "C 2/M"
_symmetry_group_IT_number 12
_symmetry_cell_setting 'monoclinic'
loop_
_space_group_symop_operation_xyz
x,y,z
-x,y,-z
-x,-y,-z
x,-y,z
1/2+x,1/2+y,z
1/2-x,1/2+y,-z
1/2-x,1/2-y,-z
1/2+x,1/2-y,z
loop_
_atom_site_type_symbol
_atom_site_label
_atom_site_fract_x
_atom_site_fract_y
_atom_site_fract_z
Si Si1 0.252870 0.620208 0.804623
Si Si2 0.137527 0.880273 0.644322
Si Si3 0.270290 0.384753 0.096614
Si Si4 0.505094 0.307131 0.556886
Si Si5 0.750390 0.669964 0.067191
O O1 0.296589 0.500000 0.805731
O O2 0.455995 0.654045 0.725569
O O3 0.255261 0.666039 0.865288
O O4 0.989409 0.628037 0.827967
O O5 0.329026 0.789074 0.601985
O O6 0.007561 0.877331 0.609730
O O7 0.217457 0.000000 0.639298
O O8 0.268308 0.500000 0.072920
O O9 0.504065 0.374473 0.090353
O O10 0.262551 0.293165 0.053811
O O11 0.500000 0.367083 0.500000
O O12 0.750000 0.250000 0.500000
O O13 0.000000 0.624182 0.000000
#
# Coordination Sequence:
#
# PCOD9215291 Si02
#       5
#     8   8   8   8   8
#     4  10  24  44  66  96 130 173 223 269 328 392
#     4  10  22  41  64  91 130 170 206 260 320 373
#     4  11  25  42  65  93 125 167 220 274 331 395
#     4   9  20  38  63  96 123 160 209 246 307 382
#     4  12  25  44  65  95 129 173 222 275 336 386
#
# _framework density 22.351465999999999
#
# number of rings (size 3 to 8) (size 9 to 14) (size 15 to 20)
#    0.000    1.600    2.000    1.200    2.800    6.000 
#    3.600    3.000    0.000    0.000    0.000    0.000 
#    0.000    0.000    0.000    0.000    0.000    0.000 
#
# Total GULP energy -111406.615523 kJ/mol
# GULP energy per Si atom -5570.330776 kJ/mol
# Density = 2.230059 g / cm^3
# Si number density = 22.351466 Si / 1000 Ang^3
#
#
#
# Elastic Constant Matrix: (Units=GPa)
#
#
# Indices 1 2 3 4 5 6 
#
# 1 96.4970 21.7584 60.6930 0.0005 -5.3033 -0.0002
# 2 21.7584 106.0286 42.8826 0.0002 -13.3958 -0.0001
# 3 60.6930 42.8826 189.1296 0.0002 -5.3304 -0.0001
# 4 0.0005 0.0002 0.0002 -15.2809 -0.0002 11.0831
# 5 -5.3033 -13.3958 -5.3304 -0.0002 37.7638 0.0001
# 6 -0.0002 -0.0001 -0.0001 11.0831 0.0001 27.7624
#
#
#
# Elastic Compliance Matrix: (Units=1/GPa)
#
#
# Indices 1 2 3 4 5 6 
#
# 1 0.013128 -0.000971 -0.003966 0.000000 0.000939 0.000000
# 2 -0.000971 0.010899 -0.002063 0.000000 0.003439 0.000000
# 3 -0.003966 -0.002063 0.007019 0.000000 -0.000298 0.000000
# 4 0.000000 0.000000 0.000000 -0.050748 0.000000 0.020259
# 5 0.000939 0.003439 -0.000298 0.000000 0.027790 0.000000
# 6 0.000000 0.000000 0.000000 0.020259 0.000000 0.027932
#
#
# Mechanical properties :
#
#
# Convention : Reuss Voigt Hill
#
# Bulk Modulus (GPa) = 58.66233 71.36922 65.01578
# Shear Modulus (GPa) = 89.75924 27.80382 58.78153
#
# Velocity S-wave (km/s) = 6.34392 3.53078 5.13379
# Velocity P-wave (km/s) = 8.94219 6.97292 8.01824
#
# Compressibility (1/GPa) = 0.01704671
#
# Stress axis : x y z
#
# Youngs Moduli (GPa) = 76.17150 91.74788 142.46096
#
# Poissons Ratio (x) = 0.08911 0.56504
# Poissons Ratio (y) = 0.07398 0.29385
# Poissons Ratio (z) = 0.30212 0.18925
#
# Static dielectric constant tensor:
#      x y z
#    x 3.227740 0.000000 0.740970 
#    y 0.000000 1.840200 0.000000 
#    z 0.740970 0.000000 2.271680 
# 
# From -- ./inp_files/372451.got.cif
#   From: 2010.05.17/outbox.cif.g08.bks.cpg/sg12_187_cif.got.tgz:372451.got - 2010.06.03 13:09:07.
