data_PCOD9215315
_publ_section_title
;
Structure prediction by ZEFSAII (Michael W. Deem and Ramdas Pophale) SiO2 
 PCOD9215315
Probable space group: C 2/M
;
_chemical_formula_sum "Si O2"
_cell_formula_units_Z 40
_cell_length_a 15.201213
_cell_length_b 18.996601
_cell_length_c 8.136249
_cell_angle_alpha 90.000000
_cell_angle_beta 129.864338
_cell_angle_gamma 90.000000
_cell_volume 1803.404370
_symmetry_space_group_name_H-M "C 2/M"
_symmetry_group_IT_number 12
_symmetry_cell_setting 'monoclinic'
loop_
_space_group_symop_operation_xyz
x,y,z
-x,y,-z
-x,-y,-z
x,-y,z
1/2+x,1/2+y,z
1/2-x,1/2+y,-z
1/2-x,1/2-y,-z
1/2+x,1/2-y,z
loop_
_atom_site_type_symbol
_atom_site_label
_atom_site_fract_x
_atom_site_fract_y
_atom_site_fract_z
Si Si1 0.628071 0.500000 0.380587
Si Si2 0.383156 0.794694 0.469676
Si Si3 0.641289 0.500000 0.023946
Si Si4 0.873720 0.856204 0.431101
Si Si5 0.223576 0.369434 0.945416
Si Si6 0.478947 0.080716 0.780300
O O1 0.677040 0.500000 0.256799
O O2 0.655577 0.428766 0.512293
O O3 0.492515 0.500000 0.178126
O O4 0.500000 0.791419 0.500000
O O5 0.373353 0.716619 0.533667
O O6 0.289510 0.816485 0.222052
O O7 0.395958 0.858442 0.613213
O O8 0.693400 0.431447 0.007025
O O9 0.000000 0.865187 0.500000
O O10 0.780829 0.840936 0.178699
O O11 0.100114 0.403142 0.837649
O O12 0.443229 0.000000 0.702132
O O13 0.500000 0.086674 0.000000
#
# Coordination Sequence:
#
# PCOD9215315 Si02
#       6
#     4   8   4   8   8   8
#     4  11  24  41  60  90 126 164 211 257 302 354
#     4   9  22  39  62  95 126 161 203 253 308 366
#     4  11  23  40  61  93 120 165 210 255 304 365
#     4  11  21  41  64  92 125 165 206 256 304 365
#     4  11  21  39  66  91 122 168 203 249 312 365
#     4  10  22  41  64  93 127 160 205 255 305 366
#
# _framework density 22.180273
#
# number of rings (size 3 to 8) (size 9 to 14) (size 15 to 20)
#    0.000    1.600    3.000    1.500    1.400    2.800 
#    3.600    2.000    0.000    0.000    0.000    0.000 
#    0.000    0.000    0.000    0.000    0.000    0.000 
#
# Total GULP energy -111782.490858 kJ/mol
# GULP energy per Si atom -5589.124543 kJ/mol
# Density = 2.212979 g / cm^3
# Si number density = 22.180273 Si / 1000 Ang^3
#
#
#
# Elastic Constant Matrix: (Units=GPa)
#
#
# Indices 1 2 3 4 5 6 
#
# 1 17.3809 11.4208 -4.6872 0.0000 -7.3546 0.0000
# 2 11.4208 209.6804 59.6326 0.0000 -23.1691 0.0000
# 3 -4.6872 59.6326 105.4065 0.0000 -2.3664 0.0000
# 4 0.0000 0.0000 0.0000 -8.4690 0.0000 -31.0178
# 5 -7.3546 -23.1691 -2.3664 0.0000 26.2740 0.0000
# 6 0.0000 0.0000 0.0000 -31.0178 0.0000 -9.4243
#
#
#
# Elastic Compliance Matrix: (Units=1/GPa)
#
#
# Indices 1 2 3 4 5 6 
#
# 1 0.068220 -0.003399 0.005329 0.000000 0.016578 0.000000
# 2 -0.003399 0.006508 -0.003733 0.000000 0.004451 0.000000
# 3 0.005329 -0.003733 0.011819 0.000000 -0.000736 0.000000
# 4 0.000000 0.000000 0.000000 0.010682 0.000000 -0.035156
# 5 0.016578 0.004451 -0.000736 0.000000 0.046560 0.000000
# 6 0.000000 0.000000 0.000000 -0.035156 0.000000 0.009599
#
#
# Mechanical properties :
#
#
# Convention : Reuss Voigt Hill
#
# Bulk Modulus (GPa) = 12.05682 51.68891 31.87286
# Shear Modulus (GPa) = 27.07949 19.41625 23.24787
#
# Velocity S-wave (km/s) = 3.49790 2.96190 3.24100
# Velocity P-wave (km/s) = 4.66491 5.92045 5.32978
#
# Compressibility (1/GPa) = 0.08294062
#
# Stress axis : x y z
#
# Youngs Moduli (GPa) = 14.65839 153.66218 84.60662
#
# Poissons Ratio (x) = 0.52237 -0.45087
# Poissons Ratio (y) = 0.04983 0.31583
# Poissons Ratio (z) = -0.07811 0.57361
#
# Static dielectric constant tensor:
#      x y z
#    x 1.818350 0.000000 0.013290 
#    y 0.000000 1.816420 0.000000 
#    z 0.013290 0.000000 1.810690 
# 
# From -- ./inp_files/74994.got.cif
#   From: 2010.05.17/outbox.cif.g08.bks.cpg/sg12_38_cif.got.tgz:74994.got - 2010.06.03 13:09:07.
