data_PCOD9215175
_publ_section_title
;
Structure prediction by ZEFSAII (Michael W. Deem and Ramdas Pophale) SiO2 
 PCOD9215175
Probable space group: C 2/M
;
_chemical_formula_sum "Si O2"
_cell_formula_units_Z 48
_cell_length_a 20.380515
_cell_length_b 8.628801
_cell_length_c 14.024341
_cell_angle_alpha 90.000000
_cell_angle_beta 90.135416
_cell_angle_gamma 90.000000
_cell_volume 2466.305421
_symmetry_space_group_name_H-M "C 2/M"
_symmetry_group_IT_number 12
_symmetry_cell_setting 'monoclinic'
loop_
_space_group_symop_operation_xyz
x,y,z
-x,y,-z
-x,-y,-z
x,-y,z
1/2+x,1/2+y,z
1/2-x,1/2+y,-z
1/2-x,1/2-y,-z
1/2+x,1/2-y,z
loop_
_atom_site_type_symbol
_atom_site_label
_atom_site_fract_x
_atom_site_fract_y
_atom_site_fract_z
Si Si1 0.299236 0.814210 0.079124
Si Si2 0.550654 0.188843 0.919012
Si Si3 0.862414 0.814489 0.631788
Si Si4 0.491186 0.814636 0.715558
Si Si5 0.398424 0.686600 0.416529
Si Si6 0.772316 0.185362 0.287960
O O1 0.374555 0.760996 0.063441
O O2 0.278191 0.759420 0.183878
O O3 0.298379 0.000000 0.075610
O O4 0.250000 0.750000 0.000000
O O5 0.525523 0.236107 0.814363
O O6 0.550853 0.000000 0.920042
O O7 0.500000 0.240905 0.000000
O O8 0.883454 0.767241 0.524857
O O9 0.793376 0.741853 0.660688
O O10 0.919957 0.759074 0.701856
O O11 0.856967 0.000000 0.633759
O O12 0.537617 0.762551 0.629000
O O13 0.485271 0.000000 0.716719
O O14 0.406791 0.500000 0.414556
O O15 0.335970 0.727931 0.350854
O O16 0.770978 0.000000 0.278972
#
# Coordination Sequence:
#
# PCOD9215175 Si02
#       6
#     8   8   8   8   8   8
#     4  11  23  41  65  93 124 162 202 252 309 366
#     4   9  20  39  62  88 120 158 199 247 302 356
#     4  11  24  40  60  90 126 164 205 256 311 367
#     4  11  22  38  63  92 123 162 207 254 305 368
#     4  10  22  41  63  87 123 165 206 255 312 366
#     4  11  23  41  64  90 122 163 208 258 308 366
#
# _framework density 19.462311
#
# number of rings (size 3 to 8) (size 9 to 14) (size 15 to 20)
#    0.000    1.500    1.667    3.000    2.333    4.000 
#    0.000    0.000    0.000    4.000    0.000    0.000 
#    0.000    0.000    0.000    0.000    0.000    0.000 
#
# Total GULP energy -134202.663892 kJ/mol
# GULP energy per Si atom -5591.777662 kJ/mol
# Density = 1.941801 g / cm^3
# Si number density = 19.462311 Si / 1000 Ang^3
#
#
#
# Elastic Constant Matrix: (Units=GPa)
#
#
# Indices 1 2 3 4 5 6 
#
# 1 48.7610 13.8037 5.4188 0.0000 -0.0643 0.0000
# 2 13.8037 30.6019 12.0064 0.0000 3.8131 0.0000
# 3 5.4188 12.0064 84.9475 0.0000 1.4834 0.0000
# 4 0.0000 0.0000 0.0000 29.1353 0.0000 -1.6183
# 5 -0.0643 3.8131 1.4834 0.0000 41.6876 0.0000
# 6 0.0000 0.0000 0.0000 -1.6183 0.0000 31.7687
#
#
#
# Elastic Compliance Matrix: (Units=1/GPa)
#
#
# Indices 1 2 3 4 5 6 
#
# 1 0.023553 -0.010751 -0.000001 0.000000 0.001020 0.000000
# 2 -0.010751 0.039881 -0.004890 0.000000 -0.003490 0.000000
# 3 -0.000001 -0.004890 0.012463 0.000000 0.000004 0.000000
# 4 0.000000 0.000000 0.000000 0.034420 0.000000 0.001753
# 5 0.001020 -0.003490 0.000004 0.000000 0.024309 0.000000
# 6 0.000000 0.000000 0.000000 0.001753 0.000000 0.031567
#
#
# Mechanical properties :
#
#
# Convention : Reuss Voigt Hill
#
# Bulk Modulus (GPa) = 22.41472 25.19647 23.80560
# Shear Modulus (GPa) = 23.54641 29.39042 26.46841
#
# Velocity S-wave (km/s) = 3.48206 3.89024 3.69180
# Velocity P-wave (km/s) = 5.26387 5.75787 5.51640
#
# Compressibility (1/GPa) = 0.04461354
#
# Stress axis : x y z
#
# Youngs Moduli (GPa) = 42.45732 25.07488 80.23684
#
# Poissons Ratio (x) = 0.26958 0.00006
# Poissons Ratio (y) = 0.45646 0.39235
# Poissons Ratio (z) = 0.00003 0.12261
#
# Static dielectric constant tensor:
#      x y z
#    x 1.659650 0.000000 0.007380 
#    y 0.000000 1.660580 0.000000 
#    z 0.007380 0.000000 1.657260 
# 
# From -- ./inp_files/221507.got.cif
#   From: 2010.05.17/outbox.cif.g08.bks.cpg/sg12_111_cif.got.tgz:221507.got - 2010.06.03 13:09:07.
