data_PCOD9215172
_publ_section_title
;
Structure prediction by ZEFSAII (Michael W. Deem and Ramdas Pophale) SiO2 
 PCOD9215172
Probable space group: C 2/M
;
_chemical_formula_sum "Si O2"
_cell_formula_units_Z 56
_cell_length_a 21.396646
_cell_length_b 29.529589
_cell_length_c 9.106499
_cell_angle_alpha 90.000000
_cell_angle_beta 150.204405
_cell_angle_gamma 90.000000
_cell_volume 2859.103494
_symmetry_space_group_name_H-M "C 2/M"
_symmetry_group_IT_number 12
_symmetry_cell_setting 'monoclinic'
loop_
_space_group_symop_operation_xyz
x,y,z
-x,y,-z
-x,-y,-z
x,-y,z
1/2+x,1/2+y,z
1/2-x,1/2+y,-z
1/2-x,1/2-y,-z
1/2+x,1/2-y,z
loop_
_atom_site_type_symbol
_atom_site_label
_atom_site_fract_x
_atom_site_fract_y
_atom_site_fract_z
Si Si1 0.502478 0.382392 0.175913
Si Si2 0.033515 0.446331 0.898889
Si Si3 0.104863 0.048134 0.837465
Si Si4 0.129240 0.429221 0.690519
Si Si5 0.015672 0.225544 0.861536
Si Si6 0.721829 0.124850 0.134207
Si Si7 0.749643 0.267320 0.829794
O O1 0.402796 0.410939 0.065301
O O2 0.477541 0.328968 0.128496
O O3 0.636362 0.388868 0.531371
O O4 0.500000 0.396445 0.000000
O O5 0.063196 0.500000 0.926123
O O6 0.910423 0.430392 0.558400
O O7 0.137314 0.409210 0.061574
O O8 0.000000 0.443999 0.000000
O O9 0.000000 0.054235 0.500000
O O10 0.080866 0.000000 0.864837
O O11 0.239021 0.045917 0.032570
O O12 0.000000 0.447232 0.500000
O O13 0.165752 0.384870 0.857078
O O14 0.890379 0.240604 0.519388
O O15 0.141486 0.242811 0.040449
O O16 0.000000 0.239514 0.000000
O O17 0.721803 0.179230 0.140790
O O18 0.750000 0.250000 0.000000
#
# Coordination Sequence:
#
# PCOD9215172 Si02
#       7
#     8   8   8   8   8   8   8
#     4  10  23  42  63  89 126 167 205 255 317 368
#     4  10  23  41  63  91 126 168 213 263 317 373
#     4  11  23  38  62  92 121 163 212 255 307 370
#     4  10  22  41  63  86 126 162 208 255 312 367
#     4  10  23  44  67  93 129 170 206 257 323 387
#     4  10  23  42  61  94 125 166 209 258 317 374
#     4  11  24  41  68  98 129 163 216 267 319 375
#
# _framework density 19.586559999999999
#
# number of rings (size 3 to 8) (size 9 to 14) (size 15 to 20)
#    0.000    1.714    1.429    1.286    4.000   10.000 
#    0.000    0.000    0.000    0.000    0.000    0.000 
#    0.000    0.000    0.000    0.000    0.000    0.000 
#
# Total GULP energy -155876.453365 kJ/mol
# GULP energy per Si atom -5567.016192 kJ/mol
# Density = 1.954198 g / cm^3
# Si number density = 19.586560 Si / 1000 Ang^3
#
#
#
# Elastic Constant Matrix: (Units=GPa)
#
#
# Indices 1 2 3 4 5 6 
#
# 1 99.3199 43.7158 53.9762 0.0000 -0.0124 0.0000
# 2 43.7158 67.4460 35.8662 0.0000 7.2486 0.0000
# 3 53.9762 35.8662 113.1591 0.0000 2.9728 0.0000
# 4 0.0000 0.0000 0.0000 55.7688 0.0000 21.5897
# 5 -0.0124 7.2486 2.9728 0.0000 38.9444 0.0000
# 6 0.0000 0.0000 0.0000 21.5897 0.0000 37.4239
#
#
#
# Elastic Compliance Matrix: (Units=1/GPa)
#
#
# Indices 1 2 3 4 5 6 
#
# 1 0.016546 -0.008067 -0.005386 0.000000 0.001918 0.000000
# 2 -0.008067 0.022096 -0.003054 0.000000 -0.003882 0.000000
# 3 -0.005386 -0.003054 0.012384 0.000000 -0.000379 0.000000
# 4 0.000000 0.000000 0.000000 0.023087 0.000000 -0.013319
# 5 0.001918 -0.003882 -0.000379 0.000000 0.026430 0.000000
# 6 0.000000 0.000000 0.000000 -0.013319 0.000000 0.034405
#
#
# Mechanical properties :
#
#
# Convention : Reuss Voigt Hill
#
# Bulk Modulus (GPa) = 55.51330 60.78236 58.14783
# Shear Modulus (GPa) = 28.74123 36.18521 32.46322
#
# Velocity S-wave (km/s) = 3.83482 4.30286 4.07556
# Velocity P-wave (km/s) = 6.92906 7.46902 7.20410
#
# Compressibility (1/GPa) = 0.01801370
#
# Stress axis : x y z
#
# Youngs Moduli (GPa) = 60.43610 45.25649 80.74839
#
# Poissons Ratio (x) = 0.36507 0.43492
# Poissons Ratio (y) = 0.48751 0.24659
# Poissons Ratio (z) = 0.32552 0.13820
#
# Static dielectric constant tensor:
#      x y z
#    x 1.715770 0.000000 -0.015000 
#    y 0.000000 1.699270 0.000000 
#    z -0.015000 0.000000 1.700380 
# 
# From -- ./inp_files/91655.got.cif
#   From: 2010.05.17/outbox.cif.g08.bks.cpg/sg12_46_cif.got.tgz:91655.got - 2010.06.03 13:09:07.
