data_PCOD9215295
_publ_section_title
;
Structure prediction by ZEFSAII (Michael W. Deem and Ramdas Pophale) SiO2 
 PCOD9215295
Probable space group: C 2/M
;
_chemical_formula_sum "Si O2"
_cell_formula_units_Z 56
_cell_length_a 19.245299
_cell_length_b 8.370918
_cell_length_c 29.148086
_cell_angle_alpha 90.000000
_cell_angle_beta 145.099503
_cell_angle_gamma 90.000000
_cell_volume 2686.704871
_symmetry_space_group_name_H-M "C 2/M"
_symmetry_group_IT_number 12
_symmetry_cell_setting 'monoclinic'
loop_
_space_group_symop_operation_xyz
x,y,z
-x,y,-z
-x,-y,-z
x,-y,z
1/2+x,1/2+y,z
1/2-x,1/2+y,-z
1/2-x,1/2-y,-z
1/2+x,1/2-y,z
loop_
_atom_site_type_symbol
_atom_site_label
_atom_site_fract_x
_atom_site_fract_y
_atom_site_fract_z
Si Si1 0.701965 0.817507 0.630952
Si Si2 0.705204 0.309430 0.223853
Si Si3 0.376886 0.679968 0.586284
Si Si4 0.800186 0.691684 0.097115
Si Si5 0.432998 0.185938 0.527179
Si Si6 0.939699 0.309243 0.081180
Si Si7 0.387679 0.307742 0.243243
O O1 0.773458 0.743370 0.712441
O O2 0.676312 0.756216 0.565541
O O3 0.563804 0.821955 0.574394
O O4 0.746269 0.000000 0.648679
O O5 0.725162 0.500000 0.237297
O O6 0.566523 0.270893 0.136823
O O7 0.797875 0.245702 0.235659
O O8 0.355369 0.500000 0.589194
O O9 0.250000 0.750000 0.500000
O O10 0.449141 0.695143 0.577692
O O11 0.473863 0.755130 0.673760
O O12 0.793002 0.500000 0.092915
O O13 0.894524 0.739938 0.107831
O O14 0.839610 0.750535 0.168249
O O15 0.669920 0.760843 0.011683
O O16 0.409550 0.000000 0.528273
O O17 0.954783 0.500000 0.088686
O O18 0.392729 0.500000 0.246724
#
# Coordination Sequence:
#
# PCOD9215295 Si02
#       7
#     8   8   8   8   8   8   8
#     4   8  16  30  54  82 109 145 186 232 285 340
#     4  11  21  36  61  92 124 160 203 248 298 360
#     4  11  24  39  56  81 114 155 199 244 295 350
#     4  10  22  42  67  92 120 158 201 243 295 362
#     4   9  16  33  56  78 107 145 191 236 285 340
#     4  10  22  41  64  92 125 157 193 246 301 355
#     4  11  24  41  61  88 123 160 200 251 306 356
#
# _framework density 20.843375999999999
#
# number of rings (size 3 to 8) (size 9 to 14) (size 15 to 20)
#    0.000    2.000    1.429    3.000    0.000    5.143 
#    0.000   10.000    0.000    0.000    0.000    0.000 
#    0.000    0.000    0.000    0.000    0.000    0.000 
#
# Total GULP energy -156031.107137 kJ/mol
# GULP energy per Si atom -5572.539541 kJ/mol
# Density = 2.079594 g / cm^3
# Si number density = 20.843376 Si / 1000 Ang^3
#
#
#
# Elastic Constant Matrix: (Units=GPa)
#
#
# Indices 1 2 3 4 5 6 
#
# 1 35.2706 5.3736 49.6753 0.0000 -1.2157 0.0000
# 2 5.3736 27.0188 8.3748 -0.0001 0.0247 0.0001
# 3 49.6753 8.3748 142.5368 0.0000 -11.3977 0.0000
# 4 0.0000 -0.0001 0.0000 18.0776 0.0000 0.1411
# 5 -1.2157 0.0247 -11.3977 0.0000 38.7351 0.0000
# 6 0.0000 0.0001 0.0000 0.1411 0.0000 19.0160
#
#
#
# Elastic Compliance Matrix: (Units=1/GPa)
#
#
# Indices 1 2 3 4 5 6 
#
# 1 0.057014 -0.005170 -0.019891 0.000000 -0.004060 0.000000
# 2 -0.005170 0.038185 -0.000468 0.000000 -0.000324 0.000000
# 3 -0.019891 -0.000468 0.014261 0.000000 0.003572 0.000000
# 4 0.000000 0.000000 0.000000 0.055320 0.000000 -0.000410
# 5 -0.004060 -0.000324 0.003572 0.000000 0.026740 0.000000
# 6 0.000000 0.000000 0.000000 -0.000410 0.000000 0.052590
#
#
# Mechanical properties :
#
#
# Convention : Reuss Voigt Hill
#
# Bulk Modulus (GPa) = 17.12244 36.85259 26.98752
# Shear Modulus (GPa) = 15.89139 24.59259 20.24199
#
# Velocity S-wave (km/s) = 2.76419 3.43866 3.11970
# Velocity P-wave (km/s) = 4.29189 5.78662 5.09437
#
# Compressibility (1/GPa) = 0.05840290
#
# Stress axis : x y z
#
# Youngs Moduli (GPa) = 17.53944 26.18844 70.12133
#
# Poissons Ratio (x) = 0.13540 1.39477
# Poissons Ratio (y) = 0.09068 0.03279
# Poissons Ratio (z) = 0.34887 0.01225
#
# Static dielectric constant tensor:
#      x y z
#    x 1.830570 0.000000 -0.023830 
#    y 0.000000 1.745090 0.000000 
#    z -0.023830 0.000000 1.784520 
# 
# From -- ./inp_files/380730.got.cif
#   From: 2010.05.17/outbox.cif.g08.bks.cpg/sg12_191_cif.got.tgz:380730.got - 2010.06.03 13:09:07.
