data_PCOD9215530
_publ_section_title
;
Structure prediction by ZEFSAII (Michael W. Deem and Ramdas Pophale) SiO2 
 PCOD9215530
Probable space group: C 2/M
;
_chemical_formula_sum "Si O2"
_cell_formula_units_Z 44
_cell_length_a 9.408563
_cell_length_b 18.288309
_cell_length_c 16.700436
_cell_angle_alpha 90.000000
_cell_angle_beta 127.309156
_cell_angle_gamma 90.000000
_cell_volume 2285.585569
_symmetry_space_group_name_H-M "C 2/M"
_symmetry_group_IT_number 12
_symmetry_cell_setting 'monoclinic'
loop_
_space_group_symop_operation_xyz
x,y,z
-x,y,-z
-x,-y,-z
x,-y,z
1/2+x,1/2+y,z
1/2-x,1/2+y,-z
1/2-x,1/2-y,-z
1/2+x,1/2-y,z
loop_
_atom_site_type_symbol
_atom_site_label
_atom_site_fract_x
_atom_site_fract_y
_atom_site_fract_z
Si Si1 0.078852 0.168210 0.616480
Si Si2 0.769576 0.367320 0.124093
Si Si3 0.427266 0.367100 0.101371
Si Si4 0.705622 0.000000 0.098825
Si Si5 0.534827 0.000000 0.204669
Si Si6 0.122803 0.000000 0.620166
Si Si7 0.040351 0.251243 0.271844
O O1 0.277381 0.204213 0.682475
O O2 0.000000 0.174936 0.500000
O O3 0.964702 0.211173 0.644255
O O4 0.084868 0.081936 0.641232
O O5 0.604461 0.398015 0.118795
O O6 0.910142 0.430504 0.153922
O O7 0.874631 0.306941 0.209673
O O8 0.690617 0.337324 0.013410
O O9 0.310245 0.429279 0.103449
O O10 0.495106 0.307559 0.187375
O O11 0.683103 0.000000 0.186020
O O12 0.500000 0.000000 0.000000
O O13 0.663107 0.000000 0.325451
O O14 0.000000 0.000000 0.500000
#
# Coordination Sequence:
#
# PCOD9215530 Si02
#       7
#     8   8   8   4   4   4   8
#     4  11  24  44  70  97 128 171 225 280 337 393
#     4  11  23  40  61  92 130 178 211 267 327 394
#     4  11  24  40  60  92 136 172 218 263 327 395
#     4  12  23  39  63  96 123 176 225 273 315 385
#     4  12  21  40  67  91 130 167 227 266 326 391
#     4  10  22  41  67  95 123 164 216 274 324 382
#     4  12  23  42  64  95 132 172 217 272 337 392
#
# _framework density 19.251083000000001
#
# number of rings (size 3 to 8) (size 9 to 14) (size 15 to 20)
#    0.000    0.727    5.455    2.727    0.000    1.455 
#    3.273    0.000    0.000    0.000    0.000   10.182 
#    0.000    0.000    0.000    0.000    0.000    0.000 
#
# Total GULP energy -122749.045843 kJ/mol
# GULP energy per Si atom -5579.502084 kJ/mol
# Density = 1.920727 g / cm^3
# Si number density = 19.251083 Si / 1000 Ang^3
#
#
#
# Elastic Constant Matrix: (Units=GPa)
#
#
# Indices 1 2 3 4 5 6 
#
# 1 103.4014 44.4764 22.2848 0.0000 3.3693 0.0000
# 2 44.4764 109.6547 32.5740 0.0000 -5.0875 0.0000
# 3 22.2848 32.5740 104.7528 0.0000 2.7862 0.0000
# 4 0.0000 0.0000 0.0000 33.1487 0.0000 6.4269
# 5 3.3693 -5.0875 2.7862 0.0000 31.2707 0.0000
# 6 0.0000 0.0000 0.0000 6.4269 0.0000 19.3212
#
#
#
# Elastic Compliance Matrix: (Units=1/GPa)
#
#
# Indices 1 2 3 4 5 6 
#
# 1 0.011951 -0.004625 -0.001052 0.000000 -0.001946 0.000000
# 2 -0.004625 0.011954 -0.002805 0.000000 0.002693 0.000000
# 3 -0.001052 -0.002805 0.010677 0.000000 -0.001294 0.000000
# 4 0.000000 0.000000 0.000000 0.032247 0.000000 -0.010726
# 5 -0.001946 0.002693 -0.001294 0.000000 0.032742 0.000000
# 6 0.000000 0.000000 0.000000 -0.010726 0.000000 0.055325
#
#
# Mechanical properties :
#
#
# Convention : Reuss Voigt Hill
#
# Bulk Modulus (GPa) = 56.76435 57.38659 57.07547
# Shear Modulus (GPa) = 28.13244 31.31304 29.72274
#
# Velocity S-wave (km/s) = 3.82690 4.03744 3.93358
# Velocity P-wave (km/s) = 7.00551 7.18393 7.09528
#
# Compressibility (1/GPa) = 0.01761669
#
# Stress axis : x y z
#
# Youngs Moduli (GPa) = 83.67780 83.65717 93.66118
#
# Poissons Ratio (x) = 0.38690 0.09857
# Poissons Ratio (y) = 0.38700 0.26270
# Poissons Ratio (z) = 0.08806 0.23464
#
# Static dielectric constant tensor:
#      x y z
#    x 1.653530 0.000000 -0.017180 
#    y 0.000000 1.672140 0.000000 
#    z -0.017180 0.000000 1.832860 
# 
# From -- ./inp_files/195482.got.cif
#   From: 2010.05.17/outbox.cif.g08.bks.cpg/sg12_98_cif.got.tgz:195482.got - 2010.06.03 13:09:07.
