data_PCOD9215300
_publ_section_title
;
Structure prediction by ZEFSAII (Michael W. Deem and Ramdas Pophale) SiO2 
 PCOD9215300
Probable space group: C 2/M
;
_chemical_formula_sum "Si O2"
_cell_formula_units_Z 52
_cell_length_a 8.878219
_cell_length_b 14.340689
_cell_length_c 32.896043
_cell_angle_alpha 90.000000
_cell_angle_beta 144.170454
_cell_angle_gamma 90.000000
_cell_volume 2451.739521
_symmetry_space_group_name_H-M "C 2/M"
_symmetry_group_IT_number 12
_symmetry_cell_setting 'monoclinic'
loop_
_space_group_symop_operation_xyz
x,y,z
-x,y,-z
-x,-y,-z
x,-y,z
1/2+x,1/2+y,z
1/2-x,1/2+y,-z
1/2-x,1/2-y,-z
1/2+x,1/2-y,z
loop_
_atom_site_type_symbol
_atom_site_label
_atom_site_fract_x
_atom_site_fract_y
_atom_site_fract_z
Si Si1 0.500000 0.857093 0.000000
Si Si2 0.132001 0.745213 0.862189
Si Si3 0.533231 0.284620 0.551341
Si Si4 0.454865 0.397130 0.039402
Si Si5 0.167003 0.606333 0.313666
Si Si6 0.588098 0.296915 0.766368
Si Si7 0.142169 0.895118 0.357625
O O1 0.728841 0.805077 0.073203
O O2 0.669900 0.894971 0.997891
O O3 0.359846 0.676330 0.898713
O O4 0.041595 0.804297 0.803845
O O5 0.888857 0.687229 0.824324
O O6 0.500000 0.328792 0.500000
O O7 0.669929 0.355057 0.612232
O O8 0.698244 0.188676 0.587186
O O9 0.250000 0.250000 0.500000
O O10 0.556038 0.500000 0.069077
O O11 0.500000 0.381173 0.000000
O O12 0.071356 0.500000 0.298864
O O13 0.369130 0.603858 0.320732
O O14 0.972189 0.689799 0.260093
O O15 0.411978 0.362948 0.700356
O O16 0.252262 0.000000 0.384404
#
# Coordination Sequence:
#
# PCOD9215300 Si02
#       7
#     4   8   8   8   8   8   8
#     4  12  23  44  67  94 128 170 214 272 343 410
#     4  12  22  41  66  89 125 167 215 260 334 397
#     4  11  22  39  64  98 131 163 207 260 312 371
#     4  11  24  41  63  94 128 162 209 270 331 398
#     4  10  22  41  64  92 129 170 213 258 313 378
#     4  11  23  40  64  94 123 169 214 271 316 380
#     4  10  22  41  65  92 127 169 214 259 312 383
#
# _framework density 21.209429
#
# number of rings (size 3 to 8) (size 9 to 14) (size 15 to 20)
#    0.000    1.077    5.385    1.615    0.000    2.462 
#    0.000    3.846    0.000    0.000    0.000    0.000 
#    0.000    0.000    0.000    0.000    0.000    0.000 
#
# Total GULP energy -144841.010992 kJ/mol
# GULP energy per Si atom -5570.808115 kJ/mol
# Density = 2.116116 g / cm^3
# Si number density = 21.209429 Si / 1000 Ang^3
#
#
#
# Elastic Constant Matrix: (Units=GPa)
#
#
# Indices 1 2 3 4 5 6 
#
# 1 87.2392 4.0275 3.8984 0.0000 0.0749 0.0000
# 2 4.0275 91.4944 12.7211 0.0000 -5.1185 0.0000
# 3 3.8984 12.7211 76.8688 0.0000 -22.8432 0.0000
# 4 0.0000 0.0000 0.0000 -1.1589 0.0000 -7.4731
# 5 0.0749 -5.1185 -22.8432 0.0000 45.4127 0.0000
# 6 0.0000 0.0000 0.0000 -7.4731 0.0000 9.9916
#
#
#
# Elastic Compliance Matrix: (Units=1/GPa)
#
#
# Indices 1 2 3 4 5 6 
#
# 1 0.011511 -0.000441 -0.000625 0.000000 -0.000383 0.000000
# 2 -0.000441 0.011210 -0.001713 0.000000 0.000402 0.000000
# 3 -0.000625 -0.001713 0.015599 0.000000 0.007654 0.000000
# 4 0.000000 0.000000 0.000000 -0.148184 0.000000 -0.110833
# 5 -0.000383 0.000402 0.007654 0.000000 0.025917 0.000000
# 6 0.000000 0.000000 0.000000 -0.110833 0.000000 0.017187
#
#
# Mechanical properties :
#
#
# Convention : Reuss Voigt Hill
#
# Bulk Modulus (GPa) = 30.52299 32.98849 31.75574
# Shear Modulus (GPa) = -99.44034 26.51277 -36.46378
#
# Velocity S-wave (km/s) = -6.85469 3.53943 -4.15085
# Velocity P-wave (km/s) = 6.94453 5.68251 2.82273
#
# Compressibility (1/GPa) = 0.03276219
#
# Stress axis : x y z
#
# Youngs Moduli (GPa) = 86.87079 89.20796 64.10643
#
# Poissons Ratio (x) = 0.03937 0.04004
# Poissons Ratio (y) = 0.03834 0.10982
# Poissons Ratio (z) = 0.05426 0.15283
#
# Static dielectric constant tensor:
#      x y z
#    x 1.820460 0.000000 -0.022340 
#    y 0.000000 1.774780 0.000000 
#    z -0.022340 0.000000 1.739870 
# 
# From -- ./inp_files/372642.got.cif
#   From: 2010.05.17/outbox.cif.g08.bks.cpg/sg12_187_cif.got.tgz:372642.got - 2010.06.03 13:09:07.
