data_PCOD9215259
_publ_section_title
;
Structure prediction by ZEFSAII (Michael W. Deem and Ramdas Pophale) SiO2 
 PCOD9215259
Probable space group: C 2/M
;
_chemical_formula_sum "Si O2"
_cell_formula_units_Z 64
_cell_length_a 33.161734
_cell_length_b 8.326749
_cell_length_c 16.839706
_cell_angle_alpha 90.000000
_cell_angle_beta 42.529375
_cell_angle_gamma 90.000000
_cell_volume 3143.210165
_symmetry_space_group_name_H-M "C 2/M"
_symmetry_group_IT_number 12
_symmetry_cell_setting 'monoclinic'
loop_
_space_group_symop_operation_xyz
x,y,z
-x,y,-z
-x,-y,-z
x,-y,z
1/2+x,1/2+y,z
1/2-x,1/2+y,-z
1/2-x,1/2-y,-z
1/2+x,1/2-y,z
loop_
_atom_site_type_symbol
_atom_site_label
_atom_site_fract_x
_atom_site_fract_y
_atom_site_fract_z
Si Si1 0.653950 0.314934 0.763220
Si Si2 0.518369 0.804034 0.220204
Si Si3 0.394943 0.187931 0.319325
Si Si4 0.641295 0.194299 0.960912
Si Si5 0.163519 0.690667 0.347641
Si Si6 0.025245 0.304295 0.547422
Si Si7 0.755153 0.192624 0.902506
Si Si8 0.719421 0.684311 0.423400
O O1 0.637999 0.500000 0.777780
O O2 0.613272 0.214077 0.762265
O O3 0.648136 0.261338 0.862585
O O4 0.723136 0.289250 0.638746
O O5 0.458679 0.755188 0.259624
O O6 0.510964 0.751761 0.322334
O O7 0.519380 0.000000 0.218615
O O8 0.579201 0.751392 0.090470
O O9 0.339773 0.275372 0.441657
O O10 0.389672 0.000000 0.347104
O O11 0.696576 0.240666 0.936887
O O12 0.641138 0.000000 0.956188
O O13 0.168212 0.500000 0.356071
O O14 0.094617 0.738837 0.455895
O O15 0.188888 0.730638 0.224362
O O16 0.202529 0.782114 0.356408
O O17 0.023208 0.500000 0.549047
O O18 0.000000 0.246807 0.500000
O O19 0.759986 0.000000 0.893314
O O20 0.750000 0.250000 0.000000
O O21 0.736650 0.500000 0.409352
#
# Coordination Sequence:
#
# PCOD9215259 Si02
#       8
#     8   8   8   8   8   8   8   8
#     4  12  25  41  62  89 122 160 203 251 307 367
#     4   9  19  37  61  89 120 159 206 250 297 359
#     4  11  22  40  64  91 122 157 202 252 304 364
#     4  10  22  41  64  89 120 161 208 255 300 357
#     4  11  21  37  64  94 124 159 203 253 308 361
#     4   9  18  33  60  94 123 155 200 249 295 354
#     4  11  24  40  62  91 125 163 207 252 304 359
#     4  12  23  39  62  91 126 161 200 249 307 366
#
# _framework density 20.361350999999999
#
# number of rings (size 3 to 8) (size 9 to 14) (size 15 to 20)
#    0.000    1.375    2.500    3.750    1.750    1.000 
#    0.000    3.750    0.000    1.500    0.000    0.000 
#    0.000    0.000    0.000    0.000    0.000    0.000 
#
# Total GULP energy -178942.046779 kJ/mol
# GULP energy per Si atom -5591.938962 kJ/mol
# Density = 2.031501 g / cm^3
# Si number density = 20.361351 Si / 1000 Ang^3
#
#
#
# Elastic Constant Matrix: (Units=GPa)
#
#
# Indices 1 2 3 4 5 6 
#
# 1 69.4634 -1.9143 22.3049 0.0000 10.3426 -0.0001
# 2 -1.9143 24.9173 5.1117 -0.0011 -0.8211 0.0009
# 3 22.3049 5.1117 114.8842 -0.0004 -1.2807 0.0002
# 4 0.0000 -0.0011 -0.0004 23.5480 0.0000 3.6300
# 5 10.3426 -0.8211 -1.2807 0.0000 33.1234 0.0000
# 6 -0.0001 0.0009 0.0002 3.6300 0.0000 19.2910
#
#
#
# Elastic Compliance Matrix: (Units=1/GPa)
#
#
# Indices 1 2 3 4 5 6 
#
# 1 0.016271 0.001756 -0.003295 0.000000 -0.005165 0.000000
# 2 0.001756 0.040721 -0.002149 0.000002 0.000378 -0.000002
# 3 -0.003295 -0.002149 0.009455 0.000000 0.001341 0.000000
# 4 0.000000 0.000002 0.000000 0.043735 0.000000 -0.008230
# 5 -0.005165 0.000378 0.001341 0.000000 0.031864 0.000000
# 6 0.000000 -0.000002 0.000000 -0.008230 0.000000 0.053386
#
#
# Mechanical properties :
#
#
# Convention : Reuss Voigt Hill
#
# Bulk Modulus (GPa) = 16.92855 28.91883 22.92369
# Shear Modulus (GPa) = 22.47213 27.44332 24.95772
#
# Velocity S-wave (km/s) = 3.32575 3.67524 3.50486
# Velocity P-wave (km/s) = 4.80412 5.67834 5.25943
#
# Compressibility (1/GPa) = 0.05907181
#
# Stress axis : x y z
#
# Youngs Moduli (GPa) = 61.45755 24.55748 105.76798
#
# Poissons Ratio (x) = -0.04312 0.34849
# Poissons Ratio (y) = -0.10791 0.22724
# Poissons Ratio (z) = 0.20249 0.05276
#
# Static dielectric constant tensor:
#      x y z
#    x 1.707140 0.000000 0.010280 
#    y 0.000000 1.714010 0.000000 
#    z 0.010280 0.000000 1.708820 
# 
# From -- ./inp_files/249838.got.cif
#   From: 2010.05.17/outbox.cif.g08.bks.cpg/sg12_125_cif.got.tgz:249838.got - 2010.06.03 13:09:07.
