data_PCOD9215373
_publ_section_title
;
Structure prediction by ZEFSAII (Michael W. Deem and Ramdas Pophale) SiO2 
 PCOD9215373
Probable space group: C 2/M
;
_chemical_formula_sum "Si O2"
_cell_formula_units_Z 56
_cell_length_a 7.291377
_cell_length_b 13.628841
_cell_length_c 25.098040
_cell_angle_alpha 90.000000
_cell_angle_beta 122.972545
_cell_angle_gamma 90.000000
_cell_volume 2092.352068
_symmetry_space_group_name_H-M "C 2/M"
_symmetry_group_IT_number 12
_symmetry_cell_setting 'monoclinic'
loop_
_space_group_symop_operation_xyz
x,y,z
-x,y,-z
-x,-y,-z
x,-y,z
1/2+x,1/2+y,z
1/2-x,1/2+y,-z
1/2-x,1/2-y,-z
1/2+x,1/2-y,z
loop_
_atom_site_type_symbol
_atom_site_label
_atom_site_fract_x
_atom_site_fract_y
_atom_site_fract_z
Si Si1 0.637256 0.887001 0.806543
Si Si2 0.680690 0.386798 0.370516
Si Si3 0.150293 0.615236 0.092654
Si Si4 0.812506 0.613154 0.670084
Si Si5 0.794062 0.207801 0.449130
Si Si6 0.003669 0.822199 0.061091
Si Si7 0.006719 0.886316 0.231260
O O1 0.423916 0.847240 0.742318
O O2 0.755482 0.840137 0.875615
O O3 0.816963 0.880895 0.787826
O O4 0.598734 0.000000 0.815161
O O5 0.756007 0.500000 0.381647
O O6 0.447974 0.382860 0.364487
O O7 0.836399 0.309338 0.422954
O O8 0.613630 0.347608 0.301696
O O9 0.082464 0.500000 0.082497
O O10 0.979642 0.703354 0.057099
O O11 0.330931 0.627469 0.073819
O O12 0.276752 0.641065 0.168100
O O13 0.885400 0.500000 0.680706
O O14 0.858112 0.655264 0.618594
O O15 0.750000 0.250000 0.500000
O O16 0.000000 0.140990 0.500000
O O17 0.000000 0.858696 0.000000
O O18 0.971481 0.000000 0.240109
#
# Coordination Sequence:
#
# PCOD9215373 Si02
#       7
#     8   8   8   8   8   8   8
#     4   9  20  39  65  97 128 169 221 272 330 396
#     4  10  22  41  65  92 125 161 209 266 321 383
#     4  10  23  43  65  97 140 179 227 288 344 407
#     4  10  23  43  66  92 125 167 217 267 321 386
#     4  12  26  43  61  92 128 164 207 256 322 390
#     4  11  23  42  68 101 138 183 233 280 348 415
#     4   8  17  36  61  89 121 161 206 262 326 378
#
# _framework density 26.764137000000002
#
# number of rings (size 3 to 8) (size 9 to 14) (size 15 to 20)
#    0.000    2.000    1.429    1.714    4.000    3.714 
#    0.000    2.857    0.000    0.000    0.000    0.000 
#    0.000    0.000    0.000    0.000    0.000    0.000 
#
# Total GULP energy -156450.585250 kJ/mol
# GULP energy per Si atom -5587.520902 kJ/mol
# Density = 2.670322 g / cm^3
# Si number density = 26.764137 Si / 1000 Ang^3
#
#
#
# Elastic Constant Matrix: (Units=GPa)
#
#
# Indices 1 2 3 4 5 6 
#
# 1 42.8905 1.1506 28.5897 0.0000 -12.5789 0.0000
# 2 1.1506 130.2209 45.1093 0.0000 -3.6353 0.0000
# 3 28.5897 45.1093 249.7190 0.0000 -22.8361 0.0000
# 4 0.0000 0.0000 0.0000 23.8724 0.0000 -0.4988
# 5 -12.5789 -3.6353 -22.8361 0.0000 50.6824 0.0000
# 6 0.0000 0.0000 0.0000 -0.4988 0.0000 27.8565
#
#
#
# Elastic Compliance Matrix: (Units=1/GPa)
#
#
# Indices 1 2 3 4 5 6 
#
# 1 0.026703 0.000856 -0.002712 0.000000 0.005467 0.000000
# 2 0.000856 0.008220 -0.001574 0.000000 0.000093 0.000000
# 3 -0.002712 -0.001574 0.004722 0.000000 0.001342 0.000000
# 4 0.000000 0.000000 0.000000 0.041905 0.000000 0.000750
# 5 0.005467 0.000093 0.001342 0.000000 0.021699 0.000000
# 6 0.000000 0.000000 0.000000 0.000750 0.000000 0.035912
#
#
# Mechanical properties :
#
#
# Convention : Reuss Voigt Hill
#
# Bulk Modulus (GPa) = 30.50201 63.61440 47.05821
# Shear Modulus (GPa) = 31.85749 43.68098 37.76923
#
# Velocity S-wave (km/s) = 3.45382 4.04427 3.76065
# Velocity P-wave (km/s) = 5.22748 6.75487 6.03965
#
# Compressibility (1/GPa) = 0.03278473
#
# Stress axis : x y z
#
# Youngs Moduli (GPa) = 37.44855 121.65986 211.77218
#
# Poissons Ratio (x) = -0.10415 0.57430
# Poissons Ratio (y) = -0.03206 0.33340
# Poissons Ratio (z) = 0.10156 0.19153
#
# Static dielectric constant tensor:
#      x y z
#    x 2.243300 0.000000 0.064200 
#    y 0.000000 2.110080 0.000000 
#    z 0.064200 0.000000 2.074610 
# 
# From -- ./inp_files/333000.got.cif
#   From: 2010.05.17/outbox.cif.g08.bks.cpg/sg12_167_cif.got.tgz:333000.got - 2010.06.03 13:09:07.
