data_PCOD9215747
_publ_section_title
;
Structure prediction by ZEFSAII (Michael W. Deem and Ramdas Pophale) SiO2 
 PCOD9215747
Probable space group: C 2/M
;
_chemical_formula_sum "Si O2"
_cell_formula_units_Z 32
_cell_length_a 8.360658
_cell_length_b 28.008061
_cell_length_c 8.334951
_cell_angle_alpha 90.000000
_cell_angle_beta 125.216275
_cell_angle_gamma 90.000000
_cell_volume 1594.551601
_symmetry_space_group_name_H-M "C 2/M"
_symmetry_group_IT_number 12
_symmetry_cell_setting 'monoclinic'
loop_
_space_group_symop_operation_xyz
x,y,z
-x,y,-z
-x,-y,-z
x,-y,z
1/2+x,1/2+y,z
1/2-x,1/2+y,-z
1/2-x,1/2-y,-z
1/2+x,1/2-y,z
loop_
_atom_site_type_symbol
_atom_site_label
_atom_site_fract_x
_atom_site_fract_y
_atom_site_fract_z
Si Si1 0.686540 0.419468 0.994502
Si Si2 0.093546 0.740681 0.267428
Si Si3 0.264211 0.688800 0.050204
Si Si4 0.669547 0.500000 0.723366
Si Si5 0.955917 0.500000 0.287691
O O1 0.748159 0.367711 0.967997
O O2 0.648083 0.453726 0.821860
O O3 0.500000 0.413142 0.000000
O O4 0.838777 0.451375 0.182601
O O5 0.250000 0.750000 0.500000
O O6 0.195175 0.711093 0.181665
O O7 0.985456 0.790806 0.161632
O O8 0.892639 0.709105 0.171489
O O9 0.500000 0.500000 0.500000
O O10 0.868871 0.500000 0.738675
O O11 0.000000 0.500000 0.500000
#
# Coordination Sequence:
#
# PCOD9215747 Si02
#       5
#     8   8   8   4   4
#     4  11  24  44  70  98 139 179 223 287 345 401
#     4  10  22  42  64  92 135 179 226 284 336 398
#     4  10  24  41  67  95 136 176 231 280 341 399
#     4  11  24  43  74 102 136 173 224 281 342 418
#     4  11  24  47  70 104 136 177 222 277 344 418
#
# _framework density 20.068339999999999
#
# number of rings (size 3 to 8) (size 9 to 14) (size 15 to 20)
#    0.000    1.500    0.000    5.250   14.000    2.000 
#    4.500    0.000    0.000    0.000    0.000    0.000 
#    0.000    0.000    0.000    0.000    0.000    0.000 
#
# Total GULP energy -89170.326661 kJ/mol
# GULP energy per Si atom -5573.145416 kJ/mol
# Density = 2.002266 g / cm^3
# Si number density = 20.068340 Si / 1000 Ang^3
#
#
#
# Elastic Constant Matrix: (Units=GPa)
#
#
# Indices 1 2 3 4 5 6 
#
# 1 109.2400 43.5782 45.1941 0.0000 -3.6122 0.0000
# 2 43.5782 216.7441 88.2590 0.0000 -4.0051 0.0000
# 3 45.1941 88.2590 202.7861 0.0000 1.2872 0.0000
# 4 0.0000 0.0000 0.0000 -42.7852 0.0000 0.5585
# 5 -3.6122 -4.0051 1.2872 0.0000 31.2313 0.0000
# 6 0.0000 0.0000 0.0000 0.5585 0.0000 35.5993
#
#
#
# Elastic Compliance Matrix: (Units=1/GPa)
#
#
# Indices 1 2 3 4 5 6 
#
# 1 0.010459 -0.001374 -0.001740 0.000000 0.001105 0.000000
# 2 -0.001374 0.005809 -0.002226 0.000000 0.000678 0.000000
# 3 -0.001740 -0.002226 0.006293 0.000000 -0.000746 0.000000
# 4 0.000000 0.000000 0.000000 -0.023368 0.000000 0.000367
# 5 0.001105 0.000678 -0.000746 0.000000 0.032265 0.000000
# 6 0.000000 0.000000 0.000000 0.000367 0.000000 0.028085
#
#
# Mechanical properties :
#
#
# Convention : Reuss Voigt Hill
#
# Bulk Modulus (GPa) = 84.17444 98.09253 91.13348
# Shear Modulus (GPa) = 67.40124 28.25832 47.82978
#
# Velocity S-wave (km/s) = 5.80162 3.75654 4.88725
# Velocity P-wave (km/s) = 9.32273 8.23413 8.79529
#
# Compressibility (1/GPa) = 0.01188009
#
# Stress axis : x y z
#
# Youngs Moduli (GPa) = 95.61512 172.14393 158.91121
#
# Poissons Ratio (x) = 0.23650 0.27650
# Poissons Ratio (y) = 0.13136 0.35380
# Poissons Ratio (z) = 0.16636 0.38326
#
# Static dielectric constant tensor:
#      x y z
#    x 1.801360 0.000000 0.017210 
#    y 0.000000 1.692400 0.000000 
#    z 0.017210 0.000000 1.712380 
# 
# From -- ./inp_files/40706.got.cif
#   From: 2010.05.17/outbox.cif.g08.bks.cpg/sg12_21_cif.got.tgz:40706.got - 2010.06.03 13:09:07.
