data_PCOD9215033
_publ_section_title
;
Structure prediction by ZEFSAII (Michael W. Deem and Ramdas Pophale) SiO2 
 PCOD9215033
Probable space group: C 2/M
;
_chemical_formula_sum "Si O2"
_cell_formula_units_Z 48
_cell_length_a 26.680116
_cell_length_b 14.470442
_cell_length_c 9.824736
_cell_angle_alpha 90.000000
_cell_angle_beta 41.206650
_cell_angle_gamma 90.000000
_cell_volume 2498.783822
_symmetry_space_group_name_H-M "C 2/M"
_symmetry_group_IT_number 12
_symmetry_cell_setting 'monoclinic'
loop_
_space_group_symop_operation_xyz
x,y,z
-x,y,-z
-x,-y,-z
x,-y,z
1/2+x,1/2+y,z
1/2-x,1/2+y,-z
1/2-x,1/2-y,-z
1/2+x,1/2-y,z
loop_
_atom_site_type_symbol
_atom_site_label
_atom_site_fract_x
_atom_site_fract_y
_atom_site_fract_z
Si Si1 0.203502 0.000000 0.574242
Si Si2 0.463798 0.000000 0.226501
Si Si3 0.793931 0.793933 0.537382
Si Si4 0.290778 0.000000 0.671653
Si Si5 0.034969 0.286770 0.777880
Si Si6 0.546011 0.500000 0.045811
Si Si7 0.779559 0.192625 0.069316
Si Si8 0.041438 0.157875 0.275317
O O1 0.201366 0.095284 0.493656
O O2 0.268710 0.000000 0.555279
O O3 0.131411 0.000000 0.820154
O O4 0.380723 0.000000 0.469791
O O5 0.482820 0.106539 0.216124
O O6 0.500000 0.000000 0.000000
O O7 0.750000 0.750000 0.500000
O O8 0.876944 0.746789 0.388214
O O9 0.741290 0.762925 0.768161
O O10 0.259298 0.093080 0.811068
O O11 0.999646 0.241540 0.715674
O O12 0.000000 0.263103 0.000000
O O13 0.532646 0.584351 0.172627
O O14 0.500000 0.500000 0.000000
O O15 0.750000 0.250000 0.000000
O O16 0.869667 0.174469 0.877690
O O17 0.000000 0.131948 0.500000
#
# Coordination Sequence:
#
# PCOD9215033 Si02
#       8
#     4   4   8   4   8   4   8   8
#     4  12  22  38  67 101 132 173 227 292 340 407
#     4  10  22  40  68  99 131 178 228 280 340 405
#     4  12  22  40  67  99 134 178 236 282 345 415
#     4  12  22  46  72  96 141 181 228 288 351 409
#     4  11  22  40  66 100 137 176 228 288 347 412
#     4  12  23  42  67 101 137 178 224 281 355 417
#     4  12  26  45  70  98 138 189 232 284 353 419
#     4  12  25  43  66  98 138 180 226 288 348 418
#
# _framework density 19.209344999999999
#
# number of rings (size 3 to 8) (size 9 to 14) (size 15 to 20)
#    0.000    0.333    5.000    4.750    0.000    2.000 
#    0.000    2.917    0.000    0.000    0.000    0.000 
#    0.000    0.000    0.000    0.000    0.000    0.000 
#
# Total GULP energy -133603.896461 kJ/mol
# GULP energy per Si atom -5566.829019 kJ/mol
# Density = 1.916562 g / cm^3
# Si number density = 19.209345 Si / 1000 Ang^3
#
#
#
# Elastic Constant Matrix: (Units=GPa)
#
#
# Indices 1 2 3 4 5 6 
#
# 1 89.2617 24.9775 39.6660 0.0000 20.5086 0.0000
# 2 24.9775 152.5968 30.7807 0.0000 21.7584 0.0000
# 3 39.6660 30.7807 143.5959 0.0000 12.3193 0.0000
# 4 0.0000 0.0000 0.0000 78.5677 0.0000 45.0983
# 5 20.5086 21.7584 12.3193 0.0000 34.9974 0.0000
# 6 0.0000 0.0000 0.0000 45.0983 0.0000 52.9461
#
#
#
# Elastic Compliance Matrix: (Units=1/GPa)
#
#
# Indices 1 2 3 4 5 6 
#
# 1 0.014422 -0.000729 -0.003239 0.000000 -0.006858 0.000000
# 2 -0.000729 0.007432 -0.001064 0.000000 -0.003818 0.000000
# 3 -0.003239 -0.001064 0.008112 0.000000 -0.000296 0.000000
# 4 0.000000 0.000000 0.000000 0.024904 0.000000 -0.021213
# 5 -0.006858 -0.003818 -0.000296 0.000000 0.035070 0.000000
# 6 0.000000 0.000000 0.000000 -0.021213 0.000000 0.036956
#
#
# Mechanical properties :
#
#
# Convention : Reuss Voigt Hill
#
# Bulk Modulus (GPa) = 50.24901 64.03366 57.14134
# Shear Modulus (GPa) = 34.82015 52.63759 43.72887
#
# Velocity S-wave (km/s) = 4.26216 5.24038 4.77638
# Velocity P-wave (km/s) = 7.10189 8.36794 7.76077
#
# Compressibility (1/GPa) = 0.01990089
#
# Stress axis : x y z
#
# Youngs Moduli (GPa) = 69.33767 134.55899 123.27097
#
# Poissons Ratio (x) = 0.09815 0.39930
# Poissons Ratio (y) = 0.05058 0.13115
# Poissons Ratio (z) = 0.22460 0.14316
#
# Static dielectric constant tensor:
#      x y z
#    x 2.334940 0.000000 0.348850 
#    y 0.000000 1.763140 0.000000 
#    z 0.348850 0.000000 1.821810 
# 
# From -- ./inp_files/111535.got.cif
#   From: 2010.05.17/outbox.cif.g08.bks.cpg/sg12_56_cif.got.tgz:111535.got - 2010.06.03 13:09:07.
