data_PCOD9215623
_publ_section_title
;
Structure prediction by ZEFSAII (Michael W. Deem and Ramdas Pophale) SiO2 
 PCOD9215623
Probable space group: C 2/M
;
_chemical_formula_sum "Si O2"
_cell_formula_units_Z 56
_cell_length_a 26.280120
_cell_length_b 17.762062
_cell_length_c 8.959843
_cell_angle_alpha 90.000000
_cell_angle_beta 136.122661
_cell_angle_gamma 90.000000
_cell_volume 2898.862021
_symmetry_space_group_name_H-M "C 2/M"
_symmetry_group_IT_number 12
_symmetry_cell_setting 'monoclinic'
loop_
_space_group_symop_operation_xyz
x,y,z
-x,y,-z
-x,-y,-z
x,-y,z
1/2+x,1/2+y,z
1/2-x,1/2+y,-z
1/2-x,1/2-y,-z
1/2+x,1/2-y,z
loop_
_atom_site_type_symbol
_atom_site_label
_atom_site_fract_x
_atom_site_fract_y
_atom_site_fract_z
Si Si1 0.784880 0.319925 0.168765
Si Si2 0.581144 0.200818 0.340967
Si Si3 0.564699 0.500000 0.423399
Si Si4 0.603155 0.500000 0.833735
Si Si5 0.636415 0.366308 0.410017
Si Si6 0.214352 0.589457 0.116040
Si Si7 0.409672 0.184941 0.983233
Si Si8 0.156364 0.849546 0.109214
O O1 0.866582 0.314926 0.407859
O O2 0.734986 0.327716 0.209545
O O3 0.750000 0.250000 0.000000
O O4 0.782061 0.390042 0.050763
O O5 0.592520 0.289707 0.341643
O O6 0.604057 0.171372 0.223728
O O7 0.497117 0.177595 0.190820
O O8 0.612646 0.500000 0.675679
O O9 0.482018 0.500000 0.301956
O O10 0.584417 0.429526 0.365404
O O11 0.631911 0.421101 0.959850
O O12 0.713761 0.372066 0.658980
O O13 0.654899 0.375715 0.276259
O O14 0.215601 0.500000 0.145497
O O15 0.142447 0.629288 0.034091
O O16 0.389389 0.271182 0.987317
#
# Coordination Sequence:
#
# PCOD9215623 Si02
#       8
#     8   8   4   4   8   8   8   8
#     4  12  23  41  63  94 125 166 215 270 326 381
#     4  10  22  41  69  94 124 163 221 272 325 394
#     4  11  23  39  55  95 134 175 204 257 337 385
#     4  11  25  37  59  93 138 169 210 263 327 403
#     4  11  21  39  68  92 127 171 213 270 321 390
#     4  12  25  42  64  94 132 174 217 269 327 388
#     4  10  22  44  66  96 126 169 217 268 330 387
#     4  11  23  40  63  96 127 169 219 264 322 396
#
# _framework density 19.317924999999999
#
# number of rings (size 3 to 8) (size 9 to 14) (size 15 to 20)
#    0.000    1.000    3.571    3.000    1.000    5.143 
#    0.000    3.571    0.000    0.000    0.000    0.000 
#    0.000    0.000    0.000    0.000    0.000    0.000 
#
# Total GULP energy -156292.591906 kJ/mol
# GULP energy per Si atom -5581.878282 kJ/mol
# Density = 1.927396 g / cm^3
# Si number density = 19.317925 Si / 1000 Ang^3
#
#
#
# Elastic Constant Matrix: (Units=GPa)
#
#
# Indices 1 2 3 4 5 6 
#
# 1 82.7568 11.4548 -2.8522 0.0000 7.5450 0.0000
# 2 11.4548 42.9416 1.6763 0.0000 -2.2845 0.0000
# 3 -2.8522 1.6763 59.2811 0.0000 5.5566 0.0000
# 4 0.0000 0.0000 0.0000 28.4299 0.0000 -10.3529
# 5 7.5450 -2.2845 5.5566 0.0000 31.5252 0.0000
# 6 0.0000 0.0000 0.0000 -10.3529 0.0000 20.5501
#
#
#
# Elastic Compliance Matrix: (Units=1/GPa)
#
#
# Indices 1 2 3 4 5 6 
#
# 1 0.012954 -0.003686 0.001061 0.000000 -0.003554 0.000000
# 2 -0.003686 0.024467 -0.001137 0.000000 0.002856 0.000000
# 3 0.001061 -0.001137 0.017269 0.000000 -0.003380 0.000000
# 4 0.000000 0.000000 0.000000 0.043077 0.000000 0.021702
# 5 -0.003554 0.002856 -0.003380 0.000000 0.033374 0.000000
# 6 0.000000 0.000000 0.000000 0.021702 0.000000 0.059594
#
#
# Mechanical properties :
#
#
# Convention : Reuss Voigt Hill
#
# Bulk Modulus (GPa) = 21.20191 22.83749 22.01970
# Shear Modulus (GPa) = 23.36644 27.74775 25.55710
#
# Velocity S-wave (km/s) = 3.48166 3.79406 3.64122
# Velocity P-wave (km/s) = 5.21169 5.57143 5.39456
#
# Compressibility (1/GPa) = 0.04716557
#
# Stress axis : x y z
#
# Youngs Moduli (GPa) = 77.19363 40.87134 57.90800
#
# Poissons Ratio (x) = 0.15066 -0.06142
# Poissons Ratio (y) = 0.28455 0.06583
# Poissons Ratio (z) = -0.08188 0.04647
#
# Static dielectric constant tensor:
#      x y z
#    x 1.668520 0.000000 -0.007100 
#    y 0.000000 1.679700 0.000000 
#    z -0.007100 0.000000 1.705310 
# 
# From -- ./inp_files/105986.got.cif
#   From: 2010.05.17/outbox.cif.g08.bks.cpg/sg12_53_cif.got.tgz:105986.got - 2010.06.03 13:09:07.
