data_PCOD9215719
_publ_section_title
;
Structure prediction by ZEFSAII (Michael W. Deem and Ramdas Pophale) SiO2 
 PCOD9215719
Probable space group: C 2/M
;
_chemical_formula_sum "Si O2"
_cell_formula_units_Z 40
_cell_length_a 17.936532
_cell_length_b 11.519960
_cell_length_c 8.094037
_cell_angle_alpha 90.000000
_cell_angle_beta 85.461344
_cell_angle_gamma 90.000000
_cell_volume 1667.211206
_symmetry_space_group_name_H-M "C 2/M"
_symmetry_group_IT_number 12
_symmetry_cell_setting 'monoclinic'
loop_
_space_group_symop_operation_xyz
x,y,z
-x,y,-z
-x,-y,-z
x,-y,z
1/2+x,1/2+y,z
1/2-x,1/2+y,-z
1/2-x,1/2-y,-z
1/2+x,1/2-y,z
loop_
_atom_site_type_symbol
_atom_site_label
_atom_site_fract_x
_atom_site_fract_y
_atom_site_fract_z
Si Si1 0.612191 0.811203 0.694237
Si Si2 0.379032 0.630814 0.051579
Si Si3 0.042932 0.333142 0.151784
Si Si4 0.746643 0.628783 0.181198
Si Si5 0.186334 0.628914 0.333296
O O1 0.524640 0.836730 0.705912
O O2 0.663301 0.870018 0.829691
O O3 0.651553 0.849563 0.520685
O O4 0.616589 0.680234 0.764002
O O5 0.403503 0.500000 0.042628
O O6 0.429828 0.707435 0.920295
O O7 0.295370 0.636958 0.987176
O O8 0.117331 0.380603 0.219059
O O9 0.000000 0.382317 0.000000
O O10 0.723585 0.500000 0.251110
O O11 0.724196 0.745737 0.284558
O O12 0.224701 0.500000 0.325245
#
# Coordination Sequence:
#
# PCOD9215719 Si02
#       5
#     8   8   8   8   8
#     4  11  21  35  60  92 122 156 199 250 303 356
#     4   9  20  40  63  88 123 164 205 249 300 362
#     4   9  21  40  61  88 120 158 202 250 302 357
#     4  10  22  42  64  88 122 163 205 250 301 360
#     4  11  24  41  61  90 126 161 201 251 305 362
#
# _framework density 23.992160999999999
#
# number of rings (size 3 to 8) (size 9 to 14) (size 15 to 20)
#    0.000    2.000    0.000    2.400    0.000    8.000 
#    0.000   20.000    0.000    9.600    0.000    0.000 
#    0.000    0.000    0.000    0.000    0.000    0.000 
#
# Total GULP energy -111479.622605 kJ/mol
# GULP energy per Si atom -5573.981130 kJ/mol
# Density = 2.393755 g / cm^3
# Si number density = 23.992161 Si / 1000 Ang^3
#
#
#
# Elastic Constant Matrix: (Units=GPa)
#
#
# Indices 1 2 3 4 5 6 
#
# 1 99.5427 21.3841 1.8885 0.0000 0.7699 0.0000
# 2 21.3841 227.3622 40.6034 0.0000 -21.3240 0.0000
# 3 1.8885 40.6034 85.9279 0.0000 2.4110 0.0000
# 4 0.0000 0.0000 0.0000 -15.5308 0.0000 -23.0877
# 5 0.7699 -21.3240 2.4110 0.0000 33.5934 0.0000
# 6 0.0000 0.0000 0.0000 -23.0877 0.0000 -15.7880
#
#
#
# Elastic Compliance Matrix: (Units=1/GPa)
#
#
# Indices 1 2 3 4 5 6 
#
# 1 0.010287 -0.001117 0.000329 0.000000 -0.000968 0.000000
# 2 -0.001117 0.005299 -0.002580 0.000000 0.003575 0.000000
# 3 0.000329 -0.002580 0.012922 0.000000 -0.002573 0.000000
# 4 0.000000 0.000000 0.000000 0.054850 0.000000 -0.080210
# 5 -0.000968 0.003575 -0.002573 0.000000 0.032244 0.000000
# 6 0.000000 0.000000 0.000000 -0.080210 0.000000 0.053956
#
#
# Mechanical properties :
#
#
# Convention : Reuss Voigt Hill
#
# Bulk Modulus (GPa) = 45.93022 60.06499 52.99760
# Shear Modulus (GPa) = 27.24028 23.71870 25.47949
#
# Velocity S-wave (km/s) = 3.37320 3.14762 3.26236
# Velocity P-wave (km/s) = 5.86146 6.18867 6.02728
#
# Compressibility (1/GPa) = 0.02177216
#
# Stress axis : x y z
#
# Youngs Moduli (GPa) = 97.20839 188.70389 77.38951
#
# Poissons Ratio (x) = 0.21080 -0.02546
# Poissons Ratio (y) = 0.10859 0.19965
# Poissons Ratio (z) = -0.03198 0.48682
#
# Static dielectric constant tensor:
#      x y z
#    x 1.959390 0.000000 -0.055460 
#    y 0.000000 1.996930 0.000000 
#    z -0.055460 0.000000 1.983120 
# 
# From -- ./inp_files/83390.got.cif
#   From: 2010.05.17/outbox.cif.g08.bks.cpg/sg12_42_cif.got.tgz:83390.got - 2010.06.03 13:09:07.
