data_PCOD9215334
_publ_section_title
;
Structure prediction by ZEFSAII (Michael W. Deem and Ramdas Pophale) SiO2 
 PCOD9215334
Probable space group: C 2/M
;
_chemical_formula_sum "Si O2"
_cell_formula_units_Z 64
_cell_length_a 21.177607
_cell_length_b 24.580519
_cell_length_c 18.088627
_cell_angle_alpha 90.000000
_cell_angle_beta 18.139661
_cell_angle_gamma 90.000000
_cell_volume 2931.571760
_symmetry_space_group_name_H-M "C 2/M"
_symmetry_group_IT_number 12
_symmetry_cell_setting 'monoclinic'
loop_
_space_group_symop_operation_xyz
x,y,z
-x,y,-z
-x,-y,-z
x,-y,z
1/2+x,1/2+y,z
1/2-x,1/2+y,-z
1/2-x,1/2-y,-z
1/2+x,1/2-y,z
loop_
_atom_site_type_symbol
_atom_site_label
_atom_site_fract_x
_atom_site_fract_y
_atom_site_fract_z
Si Si1 0.119422 0.364787 0.038057
Si Si2 0.751839 0.190221 0.464697
Si Si3 0.179235 0.561785 0.703768
Si Si4 0.897990 0.436350 0.721341
Si Si5 0.738163 0.615151 0.750696
Si Si6 0.555555 0.389764 0.207315
Si Si7 0.205174 0.845927 0.307149
Si Si8 0.770216 0.770849 0.277020
O O1 0.950649 0.338024 0.278266
O O2 0.019946 0.421776 0.121869
O O3 0.329767 0.367301 0.847852
O O4 0.155027 0.334584 0.920402
O O5 0.750000 0.250000 0.500000
O O6 0.758895 0.201182 0.369724
O O7 0.942206 0.155769 0.284101
O O8 0.168533 0.500000 0.742883
O O9 0.377081 0.570044 0.431993
O O10 0.208948 0.608276 0.733431
O O11 0.933043 0.500000 0.687930
O O12 0.794697 0.420679 0.758389
O O13 0.115321 0.406403 0.477450
O O14 0.738398 0.417084 0.959479
O O15 0.787368 0.678577 0.711401
O O16 0.500000 0.610905 0.000000
O O17 0.162458 0.787416 0.392339
O O18 0.000000 0.868609 0.500000
O O19 0.000000 0.758144 0.000000
#
# Coordination Sequence:
#
# PCOD9215334 Si02
#       8
#     8   8   8   8   8   8   8   8
#     4  11  25  45  69  97 135 181 227 282 355 417
#     4  11  24  43  67 100 141 179 225 288 345 417
#     4  11  25  46  71 100 136 179 234 296 353 421
#     4  11  24  40  63  96 135 177 229 291 346 412
#     4  10  22  41  64  94 131 179 230 283 341 416
#     4  11  23  45  66  99 140 178 231 285 351 423
#     4  12  25  45  70 101 135 182 229 293 353 418
#     4  11  22  42  68  97 136 180 229 282 344 416
#
# _framework density 21.831292000000001
#
# number of rings (size 3 to 8) (size 9 to 14) (size 15 to 20)
#    0.000    1.000    1.250    6.750    1.750    4.750 
#    2.250    0.000    0.000    0.000    0.000    0.000 
#    0.000    0.000    0.000    0.000    0.000    0.000 
#
# Total GULP energy -178769.417720 kJ/mol
# GULP energy per Si atom -5586.544304 kJ/mol
# Density = 2.178160 g / cm^3
# Si number density = 21.831292 Si / 1000 Ang^3
#
#
#
# Elastic Constant Matrix: (Units=GPa)
#
#
# Indices 1 2 3 4 5 6 
#
# 1 72.7467 20.0653 29.6819 0.0416 5.9434 0.0532
# 2 20.0653 130.3819 19.6328 0.0510 -2.7699 0.0738
# 3 29.6819 19.6328 109.4771 0.1117 0.7161 0.0343
# 4 0.0416 0.0510 0.1117 25.8607 -0.0583 2.6620
# 5 5.9434 -2.7699 0.7161 -0.0583 48.0480 -0.0232
# 6 0.0532 0.0738 0.0343 2.6620 -0.0232 28.2050
#
#
#
# Elastic Compliance Matrix: (Units=1/GPa)
#
#
# Indices 1 2 3 4 5 6 
#
# 1 0.016074 -0.001914 -0.004001 -0.000007 -0.002039 -0.000021
# 2 -0.001914 0.008122 -0.000942 -0.000006 0.000719 -0.000015
# 3 -0.004001 -0.000942 0.010386 -0.000036 0.000286 0.000001
# 4 -0.000007 -0.000006 -0.000036 0.039048 0.000047 -0.003685
# 5 -0.002039 0.000719 0.000286 0.000047 0.021102 0.000015
# 6 -0.000021 -0.000015 0.000001 -0.003685 0.000015 0.035803
#
#
# Mechanical properties :
#
#
# Convention : Reuss Voigt Hill
#
# Bulk Modulus (GPa) = 47.92540 50.15178 49.03859
# Shear Modulus (GPa) = 33.06761 36.63777 34.85269
#
# Velocity S-wave (km/s) = 3.89612 4.10106 3.99990
# Velocity P-wave (km/s) = 6.49923 6.74145 6.62145
#
# Compressibility (1/GPa) = 0.02086576
#
# Stress axis : x y z
#
# Youngs Moduli (GPa) = 62.21394 123.12922 96.28076
#
# Poissons Ratio (x) = 0.23573 0.38524
# Poissons Ratio (y) = 0.11911 0.09071
# Poissons Ratio (z) = 0.24893 0.11600
#
# Static dielectric constant tensor:
#      x y z
#    x 2.098190 -0.001120 0.020370 
#    y -0.001120 1.771380 0.001280 
#    z 0.020370 0.001280 1.890600 
# 
# From -- ./inp_files/286410.got.cif
#   From: 2010.05.17/outbox.cif.g08.bks.cpg/sg12_144_cif.got.tgz:286410.got - 2010.06.03 13:09:07.
