data_PCOD9215153
_publ_section_title
;
Structure prediction by ZEFSAII (Michael W. Deem and Ramdas Pophale) SiO2 
 PCOD9215153
Probable space group: C 2/M
;
_chemical_formula_sum "Si O2"
_cell_formula_units_Z 48
_cell_length_a 11.838320
_cell_length_b 19.288283
_cell_length_c 11.004124
_cell_angle_alpha 90.000000
_cell_angle_beta 81.708182
_cell_angle_gamma 90.000000
_cell_volume 2486.424523
_symmetry_space_group_name_H-M "C 2/M"
_symmetry_group_IT_number 12
_symmetry_cell_setting 'monoclinic'
loop_
_space_group_symop_operation_xyz
x,y,z
-x,y,-z
-x,-y,-z
x,-y,z
1/2+x,1/2+y,z
1/2-x,1/2+y,-z
1/2-x,1/2-y,-z
1/2+x,1/2-y,z
loop_
_atom_site_type_symbol
_atom_site_label
_atom_site_fract_x
_atom_site_fract_y
_atom_site_fract_z
Si Si1 0.562589 0.848066 0.662998
Si Si2 0.631433 0.328015 0.960543
Si Si3 0.739953 0.197291 0.812143
Si Si4 0.606109 0.420842 0.755245
Si Si5 0.531201 0.305739 0.358985
Si Si6 0.149599 0.581702 0.405698
O O1 0.640832 0.850202 0.770153
O O2 0.531852 0.767242 0.652359
O O3 0.443574 0.889762 0.675996
O O4 0.628410 0.876353 0.533592
O O5 0.689794 0.270989 0.863913
O O6 0.630094 0.400413 0.890361
O O7 0.500000 0.305850 0.000000
O O8 0.698467 0.330864 0.076549
O O9 0.836224 0.205745 0.693410
O O10 0.569229 0.500000 0.747247
O O11 0.515328 0.365904 0.720380
O O12 0.723185 0.410115 0.663037
O O13 0.500000 0.327004 0.500000
O O14 0.129684 0.500000 0.430132
#
# Coordination Sequence:
#
# PCOD9215153 Si02
#       6
#     8   8   8   8   8   8
#     4  11  20  36  65  93 125 161 199 259 304 376
#     4  11  22  42  63  88 125 165 211 257 309 363
#     4  11  23  38  63  97 124 155 206 267 307 355
#     4  11  24  42  62  85 126 170 210 252 306 374
#     4  12  23  38  63  97 126 159 208 252 316 373
#     4  10  22  41  62  92 129 168 199 246 318 373
#
# _framework density 19.304829999999999
#
# number of rings (size 3 to 8) (size 9 to 14) (size 15 to 20)
#    0.000    1.000    5.000    3.000    0.000    3.333 
#    0.000    3.333    0.000    2.000    0.000    0.000 
#    0.000    0.000    0.000    0.000    0.000    0.000 
#
# Total GULP energy -134045.061574 kJ/mol
# GULP energy per Si atom -5585.210899 kJ/mol
# Density = 1.926089 g / cm^3
# Si number density = 19.304830 Si / 1000 Ang^3
#
#
#
# Elastic Constant Matrix: (Units=GPa)
#
#
# Indices 1 2 3 4 5 6 
#
# 1 82.3307 36.6744 23.0762 0.0000 5.3648 0.0000
# 2 36.6744 111.0298 20.8973 0.0000 -0.9524 0.0000
# 3 23.0762 20.8973 54.6946 0.0000 4.4911 0.0000
# 4 0.0000 0.0000 0.0000 21.9584 0.0000 -2.4830
# 5 5.3648 -0.9524 4.4911 0.0000 43.4872 0.0000
# 6 0.0000 0.0000 0.0000 -2.4830 0.0000 28.9851
#
#
#
# Elastic Compliance Matrix: (Units=1/GPa)
#
#
# Indices 1 2 3 4 5 6 
#
# 1 0.015467 -0.004220 -0.004789 0.000000 -0.001506 0.000000
# 2 -0.004220 0.010872 -0.002456 0.000000 0.001012 0.000000
# 3 -0.004789 -0.002456 0.021380 0.000000 -0.001671 0.000000
# 4 0.000000 0.000000 0.000000 0.045986 0.000000 0.003939
# 5 -0.001506 0.001012 -0.001671 0.000000 0.023376 0.000000
# 6 0.000000 0.000000 0.000000 0.003939 0.000000 0.034838
#
#
# Mechanical properties :
#
#
# Convention : Reuss Voigt Hill
#
# Bulk Modulus (GPa) = 40.34541 45.48343 42.91442
# Shear Modulus (GPa) = 27.30573 30.04662 28.67617
#
# Velocity S-wave (km/s) = 3.76500 3.94944 3.85832
# Velocity P-wave (km/s) = 6.31227 6.66403 6.49053
#
# Compressibility (1/GPa) = 0.02478596
#
# Stress axis : x y z
#
# Youngs Moduli (GPa) = 64.65545 91.98290 46.77326
#
# Poissons Ratio (x) = 0.38819 0.22402
# Poissons Ratio (y) = 0.27286 0.11489
# Poissons Ratio (z) = 0.30966 0.22594
#
# Static dielectric constant tensor:
#      x y z
#    x 1.701160 0.000000 0.007310 
#    y 0.000000 1.649430 0.000000 
#    z 0.007310 0.000000 1.696490 
# 
# From -- ./inp_files/131038.got.cif
#   From: 2010.05.17/outbox.cif.g08.bks.cpg/sg12_66_cif.got.tgz:131038.got - 2010.06.03 13:09:07.
