data_PCOD9215370
_publ_section_title
;
Structure prediction by ZEFSAII (Michael W. Deem and Ramdas Pophale) SiO2 
 PCOD9215370
Probable space group: C 2/M
;
_chemical_formula_sum "Si O2"
_cell_formula_units_Z 42
_cell_length_a 29.030300
_cell_length_b 10.088698
_cell_length_c 7.167218
_cell_angle_alpha 90.000000
_cell_angle_beta 53.267210
_cell_angle_gamma 90.000000
_cell_volume 1682.305055
_symmetry_space_group_name_H-M "C 2/M"
_symmetry_group_IT_number 12
_symmetry_cell_setting 'monoclinic'
loop_
_space_group_symop_operation_xyz
x,y,z
-x,y,-z
-x,-y,-z
x,-y,z
1/2+x,1/2+y,z
1/2-x,1/2+y,-z
1/2-x,1/2-y,-z
1/2+x,1/2-y,z
loop_
_atom_site_type_symbol
_atom_site_label
_atom_site_fract_x
_atom_site_fract_y
_atom_site_fract_z
Si Si1 0.359407 0.000000 0.473741
Si Si2 0.483856 0.751845 0.762092
Si Si3 0.603539 0.704566 0.547740
Si Si4 0.306684 0.500000 0.588518
Si Si5 0.500000 0.000000 0.000000
Si Si6 0.726999 0.500000 0.889576
Si Si7 0.677676 0.000000 0.850398
Si Si8 0.639806 0.713473 0.042511
O O1 0.390840 0.863773 0.448087
O O2 0.294978 0.000000 0.704726
O O3 0.355722 0.000000 0.261654
O O4 0.500000 0.772133 0.500000
O O5 0.536734 0.668409 0.720234
O O6 0.484387 0.885095 0.880706
O O7 0.418978 0.696737 0.930404
O O8 0.652177 0.626702 0.544483
O O9 0.620941 0.672531 0.294437
O O10 0.245318 0.500000 0.638686
O O11 0.285349 0.500000 0.857816
O O12 0.695778 0.625505 0.870928
O O13 0.659155 0.133924 0.996986
#
# Coordination Sequence:
#
# PCOD9215370 Si02
#       8
#     4   8   8   4   2   4   4   8
#     4  12  25  38  59  91 127 165 210 262 311 367
#     4  10  23  40  63  98 130 164 210 263 320 379
#     4  10  22  41  65  92 124 161 209 262 313 380
#     4  10  22  42  66  89 120 167 211 256 319 378
#     4  12  22  36  64  92 128 176 206 254 308 380
#     4  10  22  42  66  89 120 167 211 256 319 378
#     4  12  25  38  59  91 127 165 210 262 311 367
#     4  10  22  41  65  92 124 161 209 262 313 380
#
# _framework density 24.965744000000001
#
# number of rings (size 3 to 8) (size 9 to 14) (size 15 to 20)
#    0.000    1.524    0.000    4.286    5.333    9.905 
#    0.000    3.810    0.000    1.143    0.000    0.000 
#    0.000    0.000    0.000    0.000    0.000    0.000 
#
# Total GULP energy -117210.542471 kJ/mol
# GULP energy per Si atom -5581.454403 kJ/mol
# Density = 2.490892 g / cm^3
# Si number density = 24.965744 Si / 1000 Ang^3
#
#
#
# Elastic Constant Matrix: (Units=GPa)
#
#
# Indices 1 2 3 4 5 6 
#
# 1 108.6385 8.2809 45.1888 0.0000 -40.4646 0.0000
# 2 8.2809 81.3908 17.9127 0.0000 -27.3619 0.0000
# 3 45.1888 17.9127 121.9575 0.0000 -28.0195 0.0000
# 4 0.0000 0.0000 0.0000 -8.2793 0.0000 -7.5065
# 5 -40.4646 -27.3619 -28.0195 0.0000 63.7422 0.0000
# 6 0.0000 0.0000 0.0000 -7.5065 0.0000 46.9230
#
#
#
# Elastic Compliance Matrix: (Units=1/GPa)
#
#
# Indices 1 2 3 4 5 6 
#
# 1 0.013424 0.002045 -0.003465 0.000000 0.007876 0.000000
# 2 0.002045 0.014735 -0.001302 0.000000 0.007051 0.000000
# 3 -0.003465 -0.001302 0.010056 0.000000 0.001662 0.000000
# 4 0.000000 0.000000 0.000000 -0.105484 0.000000 -0.016875
# 5 0.007876 0.007051 0.001662 0.000000 0.024446 0.000000
# 6 0.000000 0.000000 0.000000 -0.016875 0.000000 0.018612
#
#
# Mechanical properties :
#
#
# Convention : Reuss Voigt Hill
#
# Bulk Modulus (GPa) = 30.51420 50.52797 40.52108
# Shear Modulus (GPa) = -637.54234 36.51747 -300.51244
#
# Velocity S-wave (km/s) = -15.99754 3.82868 -10.98322
# Velocity P-wave (km/s) = 18.13779 6.31094 12.02396
#
# Compressibility (1/GPa) = 0.03277163
#
# Stress axis : x y z
#
# Youngs Moduli (GPa) = 74.49439 67.86437 99.43852
#
# Poissons Ratio (x) = -0.13876 0.34452
# Poissons Ratio (y) = -0.15231 0.12946
# Poissons Ratio (z) = 0.25810 0.08835
#
# Static dielectric constant tensor:
#      x y z
#    x 2.021110 0.000000 0.001230 
#    y 0.000000 3.442000 0.000000 
#    z 0.001230 0.000000 2.030910 
# 
# From -- ./inp_files/102386.got.cif
#   From: 2010.05.17/outbox.cif.g08.bks.cpg/sg12_52_cif.got.tgz:102386.got - 2010.06.03 13:09:07.
