data_PCOD9215557
_publ_section_title
;
Structure prediction by ZEFSAII (Michael W. Deem and Ramdas Pophale) SiO2 
 PCOD9215557
Probable space group: C 2/M
;
_chemical_formula_sum "Si O2"
_cell_formula_units_Z 48
_cell_length_a 8.834893
_cell_length_b 13.405407
_cell_length_c 29.293219
_cell_angle_alpha 90.000000
_cell_angle_beta 40.169406
_cell_angle_gamma 90.000000
_cell_volume 2237.904816
_symmetry_space_group_name_H-M "C 2/M"
_symmetry_group_IT_number 12
_symmetry_cell_setting 'monoclinic'
loop_
_space_group_symop_operation_xyz
x,y,z
-x,y,-z
-x,-y,-z
x,-y,z
1/2+x,1/2+y,z
1/2-x,1/2+y,-z
1/2-x,1/2-y,-z
1/2+x,1/2-y,z
loop_
_atom_site_type_symbol
_atom_site_label
_atom_site_fract_x
_atom_site_fract_y
_atom_site_fract_z
Si Si1 0.176337 0.882865 0.916700
Si Si2 0.023013 0.112452 0.262157
Si Si3 0.604785 0.262529 0.845296
Si Si4 0.391587 0.884937 0.704840
Si Si5 0.169523 0.882520 0.598913
Si Si6 0.587412 0.696291 0.430959
O O1 0.393376 0.809521 0.878720
O O2 0.057386 0.831718 0.899855
O O3 0.242002 0.000000 0.893048
O O4 0.000000 0.882102 0.000000
O O5 0.181381 0.185655 0.196748
O O6 0.754048 0.122003 0.308452
O O7 0.028965 0.127678 0.315361
O O8 0.097476 0.000000 0.235290
O O9 0.721690 0.332613 0.780144
O O10 0.649140 0.840012 0.640786
O O11 0.418801 0.000000 0.711232
O O12 0.381253 0.814739 0.568621
O O13 0.073672 0.836658 0.573910
O O14 0.220564 0.000000 0.583000
O O15 0.500000 0.654935 0.500000
#
# Coordination Sequence:
#
# PCOD9215557 Si02
#       6
#     8   8   8   8   8   8
#     4  11  26  46  71 106 144 183 225 272 336 409
#     4  10  22  41  67  99 132 172 226 284 339 399
#     4  12  22  44  71 100 137 180 227 280 335 394
#     4  11  24  42  68  99 133 176 234 288 337 406
#     4  11  25  44  68  97 131 175 227 284 348 409
#     4  12  26  46  69  98 137 183 229 287 352 412
#
# _framework density 21.448633000000001
#
# number of rings (size 3 to 8) (size 9 to 14) (size 15 to 20)
#    0.000    0.833    3.333    3.500    2.333    1.667 
#    0.000    2.500    0.000    4.000    0.000    0.000 
#    0.000    0.000    0.000    0.000    0.000    0.000 
#
# Total GULP energy -134066.605589 kJ/mol
# GULP energy per Si atom -5586.108566 kJ/mol
# Density = 2.139982 g / cm^3
# Si number density = 21.448633 Si / 1000 Ang^3
#
#
#
# Elastic Constant Matrix: (Units=GPa)
#
#
# Indices 1 2 3 4 5 6 
#
# 1 73.6134 65.4288 28.3120 0.0007 9.9229 -0.0002
# 2 65.4288 175.0076 54.3030 -0.0013 6.7915 0.0005
# 3 28.3120 54.3030 93.8152 -0.0001 16.5626 0.0004
# 4 0.0007 -0.0013 -0.0001 -0.1694 0.0002 1.7297
# 5 9.9229 6.7915 16.5626 0.0002 39.6330 -0.0006
# 6 -0.0002 0.0005 0.0004 1.7297 -0.0006 31.1888
#
#
#
# Elastic Compliance Matrix: (Units=1/GPa)
#
#
# Indices 1 2 3 4 5 6 
#
# 1 0.021108 -0.007276 -0.001561 0.000089 -0.003386 -0.000005
# 2 -0.007276 0.009483 -0.003593 -0.000062 0.001698 0.000003
# 3 -0.001561 -0.003593 0.014071 0.000003 -0.004874 0.000000
# 4 0.000089 -0.000062 0.000003 -3.769094 0.000005 0.209036
# 5 -0.003386 0.001698 -0.004874 0.000005 0.027825 0.000000
# 6 -0.000005 0.000003 0.000000 0.209036 0.000000 0.020470
#
#
# Mechanical properties :
#
#
# Convention : Reuss Voigt Hill
#
# Bulk Modulus (GPa) = 50.50006 70.94709 60.72357
# Shear Modulus (GPa) = -1.37186 27.08999 12.85906
#
# Velocity S-wave (km/s) = -0.80062 3.55775 2.45118
# Velocity P-wave (km/s) = 4.76876 7.07293 6.03189
#
# Compressibility (1/GPa) = 0.01980196
#
# Stress axis : x y z
#
# Youngs Moduli (GPa) = 47.37533 105.44934 71.07016
#
# Poissons Ratio (x) = 0.76723 0.11093
# Poissons Ratio (y) = 0.34469 0.25537
# Poissons Ratio (z) = 0.07395 0.37891
#
# Static dielectric constant tensor:
#      x y z
#    x 1.808670 0.000000 0.023150 
#    y 0.000000 1.795340 0.000000 
#    z 0.023150 0.000000 1.795990 
# 
# From -- ./inp_files/356299.got.cif
#   From: 2010.05.17/outbox.cif.g08.bks.cpg/sg12_179_cif.got.tgz:356299.got - 2010.06.03 13:09:07.
