data_PCOD9215220
_publ_section_title
;
Structure prediction by ZEFSAII (Michael W. Deem and Ramdas Pophale) SiO2 
 PCOD9215220
Probable space group: C 2/M
;
_chemical_formula_sum "Si O2"
_cell_formula_units_Z 64
_cell_length_a 30.536785
_cell_length_b 15.130069
_cell_length_c 9.873954
_cell_angle_alpha 90.000000
_cell_angle_beta 46.777202
_cell_angle_gamma 90.000000
_cell_volume 3324.312307
_symmetry_space_group_name_H-M "C 2/M"
_symmetry_group_IT_number 12
_symmetry_cell_setting 'monoclinic'
loop_
_space_group_symop_operation_xyz
x,y,z
-x,y,-z
-x,-y,-z
x,-y,z
1/2+x,1/2+y,z
1/2-x,1/2+y,-z
1/2-x,1/2-y,-z
1/2+x,1/2-y,z
loop_
_atom_site_type_symbol
_atom_site_label
_atom_site_fract_x
_atom_site_fract_y
_atom_site_fract_z
Si Si1 0.932029 0.763643 0.664914
Si Si2 0.672917 0.399142 0.163212
Si Si3 0.928687 0.397886 0.172395
Si Si4 0.737094 0.342870 0.290651
Si Si5 0.132592 0.273427 0.919280
Si Si6 0.775067 0.356521 0.736036
Si Si7 0.402386 0.099147 0.542243
Si Si8 0.695629 0.402195 0.671432
O O1 0.884229 0.835005 0.710554
O O2 0.925891 0.672857 0.593728
O O3 0.000000 0.795402 0.500000
O O4 0.913019 0.744254 0.860525
O O5 0.655974 0.500000 0.168345
O O6 0.712382 0.395755 0.215622
O O7 0.716517 0.362832 0.953798
O O8 0.909786 0.500000 0.187483
O O9 0.896006 0.331706 0.139388
O O10 0.916820 0.378437 0.355354
O O11 0.000000 0.392476 0.000000
O O12 0.808560 0.325324 0.148788
O O13 0.710245 0.244676 0.327014
O O14 0.714111 0.383728 0.478686
O O15 0.155905 0.179718 0.809408
O O16 0.830045 0.399466 0.697230
O O17 0.755927 0.399516 0.635217
O O18 0.424709 0.000000 0.523879
O O19 0.668299 0.500000 0.744124
#
# Coordination Sequence:
#
# PCOD9215220 Si02
#       8
#     8   8   8   8   8   8   8   8
#     4  12  26  43  63  88 125 172 220 265 305 366
#     4  12  24  41  64  91 125 165 209 262 318 374
#     4  10  22  41  63  90 127 169 214 261 308 370
#     4  11  21  38  63  93 127 159 196 261 323 376
#     4  11  23  39  65  93 127 169 209 256 317 370
#     4  11  20  38  63  91 126 162 200 250 320 383
#     4  11  22  38  64  94 124 162 207 259 318 376
#     4  11  22  37  60  96 134 163 198 248 313 381
#
# _framework density 19.252102000000001
#
# number of rings (size 3 to 8) (size 9 to 14) (size 15 to 20)
#    0.000    0.875    3.750    6.375    0.000    3.000 
#    0.000    0.000    0.000    0.375    0.000    0.000 
#    0.000    0.000    0.000    0.000    0.000    0.000 
#
# Total GULP energy -178834.652876 kJ/mol
# GULP energy per Si atom -5588.582902 kJ/mol
# Density = 1.920828 g / cm^3
# Si number density = 19.252102 Si / 1000 Ang^3
#
#
#
# Elastic Constant Matrix: (Units=GPa)
#
#
# Indices 1 2 3 4 5 6 
#
# 1 51.3890 33.8073 35.2064 0.0000 5.9200 0.0000
# 2 33.8073 110.7929 26.5320 0.0000 4.7585 0.0000
# 3 35.2064 26.5320 96.9529 0.0000 0.1662 0.0000
# 4 0.0000 0.0000 0.0000 17.0061 0.0000 12.4798
# 5 5.9200 4.7585 0.1662 0.0000 31.8429 0.0000
# 6 0.0000 0.0000 0.0000 12.4798 0.0000 54.7802
#
#
#
# Elastic Compliance Matrix: (Units=1/GPa)
#
#
# Indices 1 2 3 4 5 6 
#
# 1 0.031013 -0.007029 -0.009330 0.000000 -0.004667 0.000000
# 2 -0.007029 0.011317 -0.000544 0.000000 -0.000382 0.000000
# 3 -0.009330 -0.000544 0.013848 0.000000 0.001744 0.000000
# 4 0.000000 0.000000 0.000000 0.070606 0.000000 -0.016085
# 5 -0.004667 -0.000382 0.001744 0.000000 0.032320 0.000000
# 6 0.000000 0.000000 0.000000 -0.016085 0.000000 0.021919
#
#
# Mechanical properties :
#
#
# Convention : Reuss Voigt Hill
#
# Bulk Modulus (GPa) = 44.69751 50.02515 47.36133
# Shear Modulus (GPa) = 22.49339 31.63178 27.06259
#
# Velocity S-wave (km/s) = 3.42184 4.05783 3.75333
# Velocity P-wave (km/s) = 6.23533 6.92786 6.59070
#
# Compressibility (1/GPa) = 0.02237261
#
# Stress axis : x y z
#
# Youngs Moduli (GPa) = 32.24452 88.36081 72.21094
#
# Poissons Ratio (x) = 0.62105 0.67375
# Poissons Ratio (y) = 0.22663 0.03929
# Poissons Ratio (z) = 0.30085 0.04808
#
# Static dielectric constant tensor:
#      x y z
#    x 1.662060 0.000000 -0.002980 
#    y 0.000000 1.673810 0.000000 
#    z -0.002980 0.000000 1.686030 
# 
# From -- ./inp_files/111938.got.cif
#   From: 2010.05.17/outbox.cif.g08.bks.cpg/sg12_56_cif.got.tgz:111938.got - 2010.06.03 13:09:07.
