data_PCOD9215554
_publ_section_title
;
Structure prediction by ZEFSAII (Michael W. Deem and Ramdas Pophale) SiO2 
 PCOD9215554
Probable space group: C 2/M
;
_chemical_formula_sum "Si O2"
_cell_formula_units_Z 58
_cell_length_a 13.199710
_cell_length_b 11.897872
_cell_length_c 14.322040
_cell_angle_alpha 90.000000
_cell_angle_beta 102.017566
_cell_angle_gamma 90.000000
_cell_volume 2199.959246
_symmetry_space_group_name_H-M "C 2/M"
_symmetry_group_IT_number 12
_symmetry_cell_setting 'monoclinic'
loop_
_space_group_symop_operation_xyz
x,y,z
-x,y,-z
-x,-y,-z
x,-y,z
1/2+x,1/2+y,z
1/2-x,1/2+y,-z
1/2-x,1/2-y,-z
1/2+x,1/2-y,z
loop_
_atom_site_type_symbol
_atom_site_label
_atom_site_fract_x
_atom_site_fract_y
_atom_site_fract_z
Si Si1 0.685606 0.733982 0.130020
Si Si2 0.993503 0.331610 0.154897
Si Si3 0.166945 0.629960 0.398309
Si Si4 0.375885 0.633019 0.076967
Si Si5 0.000000 0.500000 0.000000
Si Si6 0.439921 0.845454 0.352499
Si Si7 0.788999 0.877119 0.673488
Si Si8 0.397190 0.619151 0.418483
O O1 0.615992 0.834253 0.161142
O O2 0.783505 0.801122 0.110242
O O3 0.712830 0.645310 0.215677
O O4 0.635769 0.668070 0.033491
O O5 0.958837 0.375765 0.248049
O O6 0.972640 0.199440 0.138742
O O7 0.950557 0.402538 0.060373
O O8 0.165366 0.500000 0.357381
O O9 0.051564 0.632812 0.420806
O O10 0.165487 0.757319 0.353145
O O11 0.288703 0.632623 0.454479
O O12 0.376362 0.500000 0.088462
O O13 0.333031 0.887296 0.377019
O O14 0.412526 0.714474 0.347007
O O15 0.837563 0.000000 0.660752
O O16 0.500000 0.622701 0.500000
O O17 0.391862 0.500000 0.369335
#
# Coordination Sequence:
#
# PCOD9215554 Si02
#       8
#     8   8   8   8   2   8   8   8
#     4  11  23  41  59  89 118 169 222 275 343 394
#     4  12  25  42  63  95 124 177 225 284 335 398
#     4  10  22  41  67  98 135 177 223 267 337 405
#     4  11  25  42  61  85 122 165 223 278 343 398
#     4  12  28  44  66  88 138 182 238 278 352 400
#     4  11  23  40  65  99 132 174 225 279 331 401
#     4  11  23  39  61  93 131 171 222 283 340 396
#     4   9  21  44  72 104 142 178 218 273 342 421
#
# _framework density 26.364125999999999
#
# number of rings (size 3 to 8) (size 9 to 14) (size 15 to 20)
#    0.000    1.241    4.138    0.828    2.897    3.862 
#    0.000    0.000    0.000   10.345    0.000    0.000 
#    0.000    0.000    0.000    0.000    0.000    0.000 
#
# Total GULP energy -161475.211199 kJ/mol
# GULP energy per Si atom -5568.110731 kJ/mol
# Density = 2.630412 g / cm^3
# Si number density = 26.364126 Si / 1000 Ang^3
#
#
#
# Elastic Constant Matrix: (Units=GPa)
#
#
# Indices 1 2 3 4 5 6 
#
# 1 138.3528 6.1598 14.2914 0.0000 -5.5760 0.0000
# 2 6.1598 239.8883 44.2046 0.0000 -17.5132 0.0000
# 3 14.2914 44.2046 70.8319 0.0000 -3.5357 0.0000
# 4 0.0000 0.0000 0.0000 -5.7074 0.0000 -19.2078
# 5 -5.5760 -17.5132 -3.5357 0.0000 31.9862 0.0000
# 6 0.0000 0.0000 0.0000 -19.2078 0.0000 -8.9003
#
#
#
# Elastic Compliance Matrix: (Units=1/GPa)
#
#
# Indices 1 2 3 4 5 6 
#
# 1 0.007429 0.000185 -0.001553 0.000000 0.001225 0.000000
# 2 0.000185 0.004884 -0.002967 0.000000 0.002378 0.000000
# 3 -0.001553 -0.002967 0.016278 0.000000 -0.000096 0.000000
# 4 0.000000 0.000000 0.000000 0.027976 0.000000 -0.060375
# 5 0.001225 0.002378 -0.000096 0.000000 0.032769 0.000000
# 6 0.000000 0.000000 0.000000 -0.060375 0.000000 0.017940
#
#
# Mechanical properties :
#
#
# Convention : Reuss Voigt Hill
#
# Bulk Modulus (GPa) = 50.19700 64.26496 57.23098
# Shear Modulus (GPa) = 40.78740 29.10351 34.94546
#
# Velocity S-wave (km/s) = 3.93756 3.32611 3.64468
# Velocity P-wave (km/s) = 6.30506 6.25935 6.28225
#
# Compressibility (1/GPa) = 0.01992151
#
# Stress axis : x y z
#
# Youngs Moduli (GPa) = 134.59914 204.74280 61.43266
#
# Poissons Ratio (x) = -0.03785 0.09542
# Poissons Ratio (y) = -0.02488 0.18225
# Poissons Ratio (z) = 0.20906 0.60741
#
# Static dielectric constant tensor:
#      x y z
#    x 2.086360 0.000000 0.052400 
#    y 0.000000 2.062960 0.000000 
#    z 0.052400 0.000000 2.184180 
# 
# From -- ./inp_files/268796.got.cif
#   From: 2010.05.17/outbox.cif.g08.bks.cpg/sg12_135_cif.got.tgz:268796.got - 2010.06.03 13:09:07.
