data_PCOD9215388
_publ_section_title
;
Structure prediction by ZEFSAII (Michael W. Deem and Ramdas Pophale) SiO2 
 PCOD9215388
Probable space group: C 2/M
;
_chemical_formula_sum "Si O2"
_cell_formula_units_Z 64
_cell_length_a 17.088140
_cell_length_b 14.666163
_cell_length_c 24.240422
_cell_angle_alpha 90.000000
_cell_angle_beta 31.682431
_cell_angle_gamma 90.000000
_cell_volume 3190.693388
_symmetry_space_group_name_H-M "C 2/M"
_symmetry_group_IT_number 12
_symmetry_cell_setting 'monoclinic'
loop_
_space_group_symop_operation_xyz
x,y,z
-x,y,-z
-x,-y,-z
x,-y,z
1/2+x,1/2+y,z
1/2-x,1/2+y,-z
1/2-x,1/2-y,-z
1/2+x,1/2-y,z
loop_
_atom_site_type_symbol
_atom_site_label
_atom_site_fract_x
_atom_site_fract_y
_atom_site_fract_z
Si Si1 0.479565 0.105596 0.681581
Si Si2 0.645765 0.395189 0.205297
Si Si3 0.908961 0.728204 0.999410
Si Si4 0.435119 0.157330 0.200820
Si Si5 0.276501 0.900492 0.906344
Si Si6 0.527997 0.792769 0.545074
Si Si7 0.872151 0.233329 0.342415
Si Si8 0.373611 0.400801 0.652669
O O1 0.336186 0.108349 0.807680
O O2 0.450012 0.148132 0.639431
O O3 0.593961 0.174227 0.643429
O O4 0.528651 0.000000 0.649184
O O5 0.639246 0.500000 0.190531
O O6 0.777429 0.340918 0.095968
O O7 0.491852 0.341682 0.288228
O O8 0.669473 0.395321 0.256915
O O9 0.832502 0.816974 0.018790
O O10 0.000000 0.751372 0.000000
O O11 0.014517 0.684720 0.890255
O O12 0.575037 0.107771 0.145453
O O13 0.401485 0.242417 0.260981
O O14 0.279199 0.105055 0.290096
O O15 0.208863 0.000000 0.955136
O O16 0.500000 0.826492 0.500000
O O17 0.703478 0.795726 0.451763
O O18 0.471950 0.688014 0.581419
O O19 0.446253 0.500000 0.599911
#
# Coordination Sequence:
#
# PCOD9215388 Si02
#       8
#     8   8   8   8   8   8   8   8
#     4  10  22  41  66  88 118 163 213 257 309 375
#     4  11  24  43  66  93 128 169 212 261 319 381
#     4  12  23  40  67  93 132 169 212 259 316 378
#     4  11  22  40  65  93 131 171 207 260 315 374
#     4  10  22  41  65  93 126 168 214 261 311 377
#     4  12  24  41  66  93 129 166 207 264 322 376
#     4  11  23  43  65  91 128 167 213 260 318 376
#     4  11  23  41  65  97 132 166 210 260 317 381
#
# _framework density 20.058336000000001
#
# number of rings (size 3 to 8) (size 9 to 14) (size 15 to 20)
#    0.000    1.000    6.250    1.125    0.000    3.500 
#    0.000    0.000    0.000    0.000    0.000    0.000 
#    0.000    0.000    0.000    0.000    0.000    0.000 
#
# Total GULP energy -178780.275320 kJ/mol
# GULP energy per Si atom -5586.883604 kJ/mol
# Density = 2.001268 g / cm^3
# Si number density = 20.058336 Si / 1000 Ang^3
#
#
#
# Elastic Constant Matrix: (Units=GPa)
#
#
# Indices 1 2 3 4 5 6 
#
# 1 69.1841 16.5682 10.5143 -0.0011 -2.4760 0.0005
# 2 16.5682 78.6748 -0.2849 -0.0012 -23.4262 0.0006
# 3 10.5143 -0.2849 36.6889 -0.0020 -4.7564 0.0014
# 4 -0.0011 -0.0012 -0.0020 -14.9930 0.0003 3.8123
# 5 -2.4760 -23.4262 -4.7564 0.0003 39.4843 -0.0002
# 6 0.0005 0.0006 0.0014 3.8123 -0.0002 3.6460
#
#
#
# Elastic Compliance Matrix: (Units=1/GPa)
#
#
# Indices 1 2 3 4 5 6 
#
# 1 0.016082 -0.003983 -0.004892 0.000000 -0.001944 0.000000
# 2 -0.003983 0.016488 0.002545 -0.000001 0.009839 -0.000001
# 3 -0.004892 0.002545 0.029291 -0.000005 0.004732 -0.000005
# 4 0.000000 -0.000001 -0.000005 -0.052689 -0.000001 0.055093
# 5 -0.001944 0.009839 0.004732 -0.000001 0.031612 0.000000
# 6 0.000000 -0.000001 -0.000005 0.055093 0.000000 0.216669
#
#
# Mechanical properties :
#
#
# Convention : Reuss Voigt Hill
#
# Bulk Modulus (GPa) = 20.32444 26.46035 23.39240
# Shear Modulus (GPa) = 17.45116 16.14414 16.79765
#
# Velocity S-wave (km/s) = 2.95281 2.84008 2.89699
# Velocity P-wave (km/s) = 4.66692 4.89644 4.78305
#
# Compressibility (1/GPa) = 0.04920185
#
# Stress axis : x y z
#
# Youngs Moduli (GPa) = 62.18148 60.64864 34.13987
#
# Poissons Ratio (x) = 0.24158 0.16700
# Poissons Ratio (y) = 0.24769 -0.08689
# Poissons Ratio (z) = 0.30418 -0.15436
#
# Static dielectric constant tensor:
#      x y z
#    x 1.713610 0.000000 0.018570 
#    y 0.000000 1.707850 0.000000 
#    z 0.018570 0.000000 1.696030 
# 
# From -- ./inp_files/344042.got.cif
#   From: 2010.05.17/outbox.cif.g08.bks.cpg/sg12_173_cif.got.tgz:344042.got - 2010.06.03 13:09:07.
