data_PCOD9215632
_publ_section_title
;
Structure prediction by ZEFSAII (Michael W. Deem and Ramdas Pophale) SiO2 
 PCOD9215632
Probable space group: C 2/M
;
_chemical_formula_sum "Si O2"
_cell_formula_units_Z 64
_cell_length_a 9.185011
_cell_length_b 17.003769
_cell_length_c 30.847222
_cell_angle_alpha 90.000000
_cell_angle_beta 37.748747
_cell_angle_gamma 90.000000
_cell_volume 2949.403920
_symmetry_space_group_name_H-M "C 2/M"
_symmetry_group_IT_number 12
_symmetry_cell_setting 'monoclinic'
loop_
_space_group_symop_operation_xyz
x,y,z
-x,y,-z
-x,-y,-z
x,-y,z
1/2+x,1/2+y,z
1/2-x,1/2+y,-z
1/2-x,1/2-y,-z
1/2+x,1/2-y,z
loop_
_atom_site_type_symbol
_atom_site_label
_atom_site_fract_x
_atom_site_fract_y
_atom_site_fract_z
Si Si1 0.871456 0.088003 0.686928
Si Si2 0.524897 0.328263 0.425595
Si Si3 0.894758 0.094109 0.281507
Si Si4 0.767885 0.194254 0.861857
Si Si5 0.243726 0.349685 0.045247
Si Si6 0.145641 0.378784 0.159645
Si Si7 0.887536 0.339534 0.418283
Si Si8 0.355213 0.410664 0.923334
O O1 0.892814 0.126703 0.635884
O O2 0.600209 0.089760 0.765638
O O3 0.015458 0.124758 0.692793
O O4 0.963339 0.000000 0.661667
O O5 0.725427 0.322959 0.414804
O O6 0.296517 0.370314 0.501758
O O7 0.469978 0.241518 0.420802
O O8 0.613682 0.111191 0.349046
O O9 0.052007 0.141856 0.209607
O O10 0.938905 0.000000 0.266355
O O11 0.499908 0.198366 0.905261
O O12 0.859173 0.283545 0.841942
O O13 0.761576 0.150353 0.909737
O O14 0.190776 0.404311 0.099232
O O15 0.500000 0.312335 0.000000
O O16 0.280745 0.390517 0.990191
O O17 0.359360 0.403451 0.140499
O O18 0.287590 0.500000 0.928028
#
# Coordination Sequence:
#
# PCOD9215632 Si02
#       8
#     8   8   8   8   8   8   8   8
#     4  11  24  42  65  95 134 181 229 279 339 407
#     4  10  22  41  70 101 135 179 223 280 331 406
#     4  11  25  42  65  95 137 182 224 282 343 404
#     4  12  24  43  69  99 134 174 227 284 340 408
#     4  10  24  44  66  94 130 172 219 273 338 406
#     4  11  24  43  68  96 131 178 226 277 337 410
#     4  10  22  42  68 102 138 175 226 275 338 400
#     4  11  26  42  67 102 134 171 218 282 350 411
#
# _framework density 21.699299
#
# number of rings (size 3 to 8) (size 9 to 14) (size 15 to 20)
#    0.000    1.250    1.250    3.375    1.750   12.250 
#    0.000    2.500    0.000    0.000    0.000    0.000 
#    0.000    0.000    0.000    0.000    0.000    0.000 
#
# Total GULP energy -178768.892311 kJ/mol
# GULP energy per Si atom -5586.527885 kJ/mol
# Density = 2.164991 g / cm^3
# Si number density = 21.699299 Si / 1000 Ang^3
#
#
#
# Elastic Constant Matrix: (Units=GPa)
#
#
# Indices 1 2 3 4 5 6 
#
# 1 121.6981 26.3996 64.6756 -0.0618 7.2873 -0.0182
# 2 26.3996 79.1157 16.7674 0.0940 5.4744 0.0330
# 3 64.6756 16.7674 116.8408 0.2394 0.9643 0.0802
# 4 -0.0618 0.0940 0.2394 91.3340 0.0629 19.1203
# 5 7.2873 5.4744 0.9643 0.0629 38.0459 0.0209
# 6 -0.0182 0.0330 0.0802 19.1203 0.0209 21.3490
#
#
#
# Elastic Compliance Matrix: (Units=1/GPa)
#
#
# Indices 1 2 3 4 5 6 
#
# 1 0.012307 -0.002620 -0.006421 0.000025 -0.001818 0.000018
# 2 -0.002620 0.013722 -0.000507 -0.000012 -0.001460 -0.000010
# 3 -0.006421 -0.000507 0.012178 -0.000032 0.000994 -0.000023
# 4 0.000025 -0.000012 -0.000032 0.013475 -0.000018 -0.012069
# 5 -0.001818 -0.001460 0.000994 -0.000018 0.026817 -0.000013
# 6 0.000018 -0.000010 -0.000023 -0.012069 -0.000013 0.057649
#
#
# Mechanical properties :
#
#
# Convention : Reuss Voigt Hill
#
# Bulk Modulus (GPa) = 52.32731 59.25998 55.79364
# Shear Modulus (GPa) = 30.93762 44.13324 37.53543
#
# Velocity S-wave (km/s) = 3.78000 4.51472 4.16360
# Velocity P-wave (km/s) = 6.57406 7.38552 6.99157
#
# Compressibility (1/GPa) = 0.01911048
#
# Stress axis : x y z
#
# Youngs Moduli (GPa) = 81.25571 72.87344 82.11716
#
# Poissons Ratio (x) = 0.19092 0.52730
# Poissons Ratio (y) = 0.21289 0.04163
# Poissons Ratio (z) = 0.52177 0.03694
#
# Static dielectric constant tensor:
#      x y z
#    x 1.787920 0.000000 -0.007950 
#    y 0.000000 1.765580 0.000000 
#    z -0.007950 0.000000 1.817670 
# 
# From -- ./inp_files/372894.got.cif
#   From: 2010.05.17/outbox.cif.g08.bks.cpg/sg12_187_cif.got.tgz:372894.got - 2010.06.03 13:09:07.
