data_PCOD9215489
_publ_section_title
;
Structure prediction by ZEFSAII (Michael W. Deem and Ramdas Pophale) SiO2 
 PCOD9215489
Probable space group: C 2/M
;
_chemical_formula_sum "Si O2"
_cell_formula_units_Z 48
_cell_length_a 20.795936
_cell_length_b 7.843235
_cell_length_c 22.361696
_cell_angle_alpha 90.000000
_cell_angle_beta 42.233331
_cell_angle_gamma 90.000000
_cell_volume 2451.577149
_symmetry_space_group_name_H-M "C 2/M"
_symmetry_group_IT_number 12
_symmetry_cell_setting 'monoclinic'
loop_
_space_group_symop_operation_xyz
x,y,z
-x,y,-z
-x,-y,-z
x,-y,z
1/2+x,1/2+y,z
1/2-x,1/2+y,-z
1/2-x,1/2-y,-z
1/2+x,1/2-y,z
loop_
_atom_site_type_symbol
_atom_site_label
_atom_site_fract_x
_atom_site_fract_y
_atom_site_fract_z
Si Si1 0.891411 0.299845 0.064735
Si Si2 0.647535 0.295960 0.043563
Si Si3 0.048835 0.000000 0.563137
Si Si4 0.210035 0.192068 0.750888
Si Si5 0.049147 0.204185 0.763178
Si Si6 0.138488 0.695704 0.577081
Si Si7 0.146378 0.000000 0.366386
O O1 0.887655 0.500000 0.083269
O O2 0.823065 0.204393 0.157786
O O3 0.863696 0.277153 0.015145
O O4 0.000000 0.239177 0.000000
O O5 0.639585 0.500000 0.044478
O O6 0.557676 0.237822 0.146039
O O7 0.750000 0.250000 0.000000
O O8 0.081854 0.832341 0.576147
O O9 0.100489 0.000000 0.463529
O O10 0.936527 0.000000 0.626237
O O11 0.117907 0.231002 0.772848
O O12 0.289200 0.332751 0.684449
O O13 0.241898 0.000000 0.714577
O O14 0.095737 0.290037 0.673341
O O15 0.046658 0.000000 0.753252
O O16 0.130803 0.500000 0.561506
O O17 0.250000 0.750000 0.500000
#
# Coordination Sequence:
#
# PCOD9215489 Si02
#       7
#     8   8   4   8   8   8   4
#     4  11  22  39  65  95 130 174 225 275 330 397
#     4  11  24  41  62  92 136 179 222 282 340 393
#     4  11  26  48  68  98 142 172 218 278 337 400
#     4  11  23  41  70  99 129 174 226 274 329 399
#     4  10  22  41  66  96 133 174 222 280 335 399
#     4  12  24  42  72 102 134 174 220 276 336 402
#     4  11  26  46  69  98 136 178 217 278 336 400
#
# _framework density 19.579234
#
# number of rings (size 3 to 8) (size 9 to 14) (size 15 to 20)
#    0.000    1.000    4.167    2.000    1.167    6.000 
#    0.000    1.667    0.000    0.000    0.000    0.000 
#    0.000    0.000    0.000    0.000    0.000    0.000 
#
# Total GULP energy -134228.591707 kJ/mol
# GULP energy per Si atom -5592.857988 kJ/mol
# Density = 1.953467 g / cm^3
# Si number density = 19.579234 Si / 1000 Ang^3
#
#
#
# Elastic Constant Matrix: (Units=GPa)
#
#
# Indices 1 2 3 4 5 6 
#
# 1 123.3735 42.4745 53.0774 0.0000 -13.4144 -0.0002
# 2 42.4745 117.3796 37.9987 0.0003 -16.1059 -0.0006
# 3 53.0774 37.9987 112.4276 0.0000 -10.3320 -0.0001
# 4 0.0000 0.0003 0.0000 23.8539 0.0000 0.5673
# 5 -13.4144 -16.1059 -10.3320 0.0000 35.7933 0.0000
# 6 -0.0002 -0.0006 -0.0001 0.5673 0.0000 30.9535
#
#
#
# Elastic Compliance Matrix: (Units=1/GPa)
#
#
# Indices 1 2 3 4 5 6 
#
# 1 0.010914 -0.002341 -0.004193 0.000000 0.001826 0.000000
# 2 -0.002341 0.010505 -0.002149 0.000000 0.003229 0.000000
# 3 -0.004193 -0.002149 0.011677 0.000000 0.000832 0.000000
# 4 0.000000 0.000000 0.000000 0.041940 0.000000 -0.000769
# 5 0.001826 0.003229 0.000832 0.000000 0.030316 0.000000
# 6 0.000000 0.000000 0.000000 -0.000769 0.000000 0.032321
#
#
# Mechanical properties :
#
#
# Convention : Reuss Voigt Hill
#
# Bulk Modulus (GPa) = 63.57293 68.92022 66.24657
# Shear Modulus (GPa) = 31.19487 32.76218 31.97853
#
# Velocity S-wave (km/s) = 3.99590 4.09505 4.04578
# Velocity P-wave (km/s) = 7.33687 7.59186 7.46546
#
# Compressibility (1/GPa) = 0.01572997
#
# Stress axis : x y z
#
# Youngs Moduli (GPa) = 91.62393 95.19107 85.63837
#
# Poissons Ratio (x) = 0.22286 0.35912
# Poissons Ratio (y) = 0.21451 0.18399
# Poissons Ratio (z) = 0.38422 0.20452
#
# Static dielectric constant tensor:
#      x y z
#    x 1.651620 0.000000 -0.000360 
#    y 0.000000 1.703820 0.000000 
#    z -0.000360 0.000000 1.674250 
# 
# From -- ./inp_files/319592.got.cif
#   From: 2010.05.17/outbox.cif.g08.bks.cpg/sg12_160_cif.got.tgz:319592.got - 2010.06.03 13:09:07.
