data_PCOD9215248
_publ_section_title
;
Structure prediction by ZEFSAII (Michael W. Deem and Ramdas Pophale) SiO2 
 PCOD9215248
Probable space group: C 2/M
;
_chemical_formula_sum "Si O2"
_cell_formula_units_Z 58
_cell_length_a 9.108518
_cell_length_b 28.612996
_cell_length_c 26.217171
_cell_angle_alpha 90.000000
_cell_angle_beta 27.798712
_cell_angle_gamma 90.000000
_cell_volume 3186.577358
_symmetry_space_group_name_H-M "C 2/M"
_symmetry_group_IT_number 12
_symmetry_cell_setting 'monoclinic'
loop_
_space_group_symop_operation_xyz
x,y,z
-x,y,-z
-x,-y,-z
x,-y,z
1/2+x,1/2+y,z
1/2-x,1/2+y,-z
1/2-x,1/2-y,-z
1/2+x,1/2-y,z
loop_
_atom_site_type_symbol
_atom_site_label
_atom_site_fract_x
_atom_site_fract_y
_atom_site_fract_z
Si Si1 0.789518 0.678846 0.752521
Si Si2 0.055151 0.166671 0.423687
Si Si3 0.000000 0.000000 0.500000
Si Si4 0.880321 0.777219 0.381050
Si Si5 0.680782 0.200165 0.997485
Si Si6 0.940615 0.052147 0.314579
Si Si7 0.206653 0.069819 0.523860
Si Si8 0.603136 0.650870 0.226122
O O1 0.635735 0.659536 0.747855
O O2 0.081700 0.651201 0.686694
O O3 0.936165 0.730463 0.694368
O O4 0.515579 0.679488 0.878515
O O5 0.000000 0.177408 0.500000
O O6 0.000126 0.208434 0.400748
O O7 0.833516 0.124669 0.474383
O O8 0.960156 0.040532 0.468321
O O9 0.500000 0.774818 0.500000
O O10 0.977242 0.818631 0.312364
O O11 0.445322 0.170105 0.104503
O O12 0.500000 0.207435 0.000000
O O13 0.750000 0.250000 0.000000
O O14 0.574040 0.056539 0.411313
O O15 0.933962 0.058281 0.377619
O O16 0.112066 0.096367 0.237243
O O17 0.053418 0.000000 0.266509
#
# Coordination Sequence:
#
# PCOD9215248 Si02
#       8
#     8   8   2   8   8   8   8   8
#     4  11  24  39  59  85 121 158 207 258 311 360
#     4  12  24  36  55  88 127 162 199 247 309 364
#     4  12  20  34  60  92 116 158 206 250 304 346
#     4  12  23  37  57  85 126 166 199 243 306 377
#     4  10  22  41  64  87 116 155 210 266 307 362
#     4  11  21  39  59  87 121 168 205 238 304 365
#     4  11  21  35  58  87 125 159 199 252 293 366
#     4  11  23  39  61  89 121 161 209 257 299 369
#
# _framework density 18.201346000000001
#
# number of rings (size 3 to 8) (size 9 to 14) (size 15 to 20)
#    0.000    0.828    4.828    4.138    1.931    1.655 
#    0.000    0.000    0.000    3.724    0.000    0.966 
#    0.000    0.000    0.000    0.000    0.000    0.000 
#
# Total GULP energy -161736.087562 kJ/mol
# GULP energy per Si atom -5577.106468 kJ/mol
# Density = 1.815992 g / cm^3
# Si number density = 18.201346 Si / 1000 Ang^3
#
#
#
# Elastic Constant Matrix: (Units=GPa)
#
#
# Indices 1 2 3 4 5 6 
#
# 1 63.8136 26.3080 43.0100 0.0028 3.8048 0.0017
# 2 26.3080 129.5254 49.0518 -0.0017 13.1074 0.0004
# 3 43.0100 49.0518 125.4203 -0.0022 -2.4917 -0.0058
# 4 0.0028 -0.0017 -0.0022 15.4459 0.0014 4.4698
# 5 3.8048 13.1074 -2.4917 0.0014 22.8563 0.0021
# 6 0.0017 0.0004 -0.0058 4.4698 0.0021 34.7184
#
#
#
# Elastic Compliance Matrix: (Units=1/GPa)
#
#
# Indices 1 2 3 4 5 6 
#
# 1 0.020972 -0.001364 -0.006727 -0.000004 -0.003442 -0.000001
# 2 -0.001364 0.009927 -0.003531 0.000001 -0.005851 0.000000
# 3 -0.006727 -0.003531 0.011749 0.000002 0.004425 0.000002
# 4 -0.000004 0.000001 0.000002 0.067248 -0.000003 -0.008658
# 5 -0.003442 -0.005851 0.004425 -0.000003 0.048162 -0.000001
# 6 -0.000001 0.000000 0.000002 -0.008658 -0.000001 0.029918
#
#
# Mechanical properties :
#
#
# Convention : Reuss Voigt Hill
#
# Bulk Modulus (GPa) = 51.53454 61.72213 56.62833
# Shear Modulus (GPa) = 22.96883 27.96342 25.46612
#
# Velocity S-wave (km/s) = 3.55622 3.92387 3.74456
# Velocity P-wave (km/s) = 6.72587 7.38332 7.06225
#
# Compressibility (1/GPa) = 0.01940446
#
# Stress axis : x y z
#
# Youngs Moduli (GPa) = 47.68262 100.73841 85.11457
#
# Poissons Ratio (x) = 0.13739 0.57256
# Poissons Ratio (y) = 0.06503 0.30053
# Poissons Ratio (z) = 0.32076 0.35569
#
# Static dielectric constant tensor:
#      x y z
#    x 1.638850 0.000000 -0.007830 
#    y 0.000000 1.646890 0.000010 
#    z -0.007830 0.000010 1.673910 
# 
# From -- ./inp_files/334308.got.cif
#   From: 2010.05.17/outbox.cif.g08.bks.cpg/sg12_168_cif.got.tgz:334308.got - 2010.06.03 13:09:07.
