data_PCOD9215306
_publ_section_title
;
Structure prediction by ZEFSAII (Michael W. Deem and Ramdas Pophale) SiO2 
 PCOD9215306
Probable space group: C 2/M
;
_chemical_formula_sum "Si O2"
_cell_formula_units_Z 64
_cell_length_a 7.847162
_cell_length_b 14.836613
_cell_length_c 26.897350
_cell_angle_alpha 90.000000
_cell_angle_beta 126.364064
_cell_angle_gamma 90.000000
_cell_volume 2521.715881
_symmetry_space_group_name_H-M "C 2/M"
_symmetry_group_IT_number 12
_symmetry_cell_setting 'monoclinic'
loop_
_space_group_symop_operation_xyz
x,y,z
-x,y,-z
-x,-y,-z
x,-y,z
1/2+x,1/2+y,z
1/2-x,1/2+y,-z
1/2-x,1/2-y,-z
1/2+x,1/2-y,z
loop_
_atom_site_type_symbol
_atom_site_label
_atom_site_fract_x
_atom_site_fract_y
_atom_site_fract_z
Si Si1 0.832240 0.609746 0.045660
Si Si2 0.593808 0.098006 0.329792
Si Si3 0.649384 0.598151 0.730625
Si Si4 0.722906 0.399213 0.925354
Si Si5 0.462538 0.179209 0.167619
Si Si6 0.666476 0.635531 0.207331
Si Si7 0.231544 0.112400 0.399296
Si Si8 0.547439 0.286901 0.565583
O O1 0.815973 0.500000 0.056457
O O2 0.064496 0.633308 0.063884
O O3 0.830171 0.670564 0.094583
O O4 0.678114 0.637493 0.973326
O O5 0.707612 0.096201 0.294968
O O6 0.341519 0.106677 0.277744
O O7 0.720979 0.174185 0.380319
O O8 0.634194 0.000000 0.360008
O O9 0.582903 0.500000 0.735579
O O10 0.815359 0.627954 0.800518
O O11 0.431560 0.638389 0.673613
O O12 0.778878 0.500000 0.949801
O O13 0.538123 0.406823 0.853530
O O14 0.559873 0.271568 0.204833
O O15 0.313346 0.143554 0.184363
O O16 0.434404 0.177223 0.425924
O O17 0.114992 0.155785 0.427906
O O18 0.252403 0.000000 0.405778
O O19 0.500000 0.304925 0.500000
#
# Coordination Sequence:
#
# PCOD9215306 Si02
#       8
#     8   8   8   8   8   8   8   8
#     4   9  19  36  57  79 105 138 179 230 289 356
#     4   9  19  36  59  88 120 156 201 253 309 368
#     4   8  16  33  56  81 112 151 193 241 300 360
#     4   9  19  37  57  77 104 138 177 228 291 353
#     4  11  21  33  52  78 108 145 189 236 288 347
#     4  11  22  35  54  78 110 149 189 237 290 349
#     4  10  22  41  64  92 130 172 213 264 322 379
#     4  11  22  40  66  95 129 169 214 263 317 383
#
# _framework density 25.379543999999999
#
# number of rings (size 3 to 8) (size 9 to 14) (size 15 to 20)
#    0.000    2.250    0.000    4.500    0.000    3.750 
#    0.000    3.750    0.000    3.000    0.000    0.000 
#    0.000    0.000    0.000    0.000    0.000    0.000 
#
# Total GULP energy -178174.723752 kJ/mol
# GULP energy per Si atom -5567.960117 kJ/mol
# Density = 2.532178 g / cm^3
# Si number density = 25.379544 Si / 1000 Ang^3
#
#
#
# Elastic Constant Matrix: (Units=GPa)
#
#
# Indices 1 2 3 4 5 6 
#
# 1 76.1052 14.6460 29.9908 0.0000 -11.2046 0.0000
# 2 14.6460 102.1316 27.8920 0.0000 14.2745 0.0000
# 3 29.9908 27.8920 110.2870 0.0000 21.5002 0.0000
# 4 0.0000 0.0000 0.0000 29.0302 0.0000 3.1695
# 5 -11.2046 14.2745 21.5002 0.0000 26.4291 0.0000
# 6 0.0000 0.0000 0.0000 3.1695 0.0000 24.0595
#
#
#
# Elastic Compliance Matrix: (Units=1/GPa)
#
#
# Indices 1 2 3 4 5 6 
#
# 1 0.018945 -0.002863 -0.007481 0.000000 0.015664 0.000000
# 2 -0.002863 0.011354 -0.000785 0.000000 -0.006707 0.000000
# 3 -0.007481 -0.000785 0.014067 0.000000 -0.014191 0.000000
# 4 0.000000 0.000000 0.000000 0.034950 0.000000 -0.004604
# 5 0.015664 -0.006707 -0.014191 0.000000 0.059645 0.000000
# 6 0.000000 0.000000 0.000000 -0.004604 0.000000 0.042170
#
#
# Mechanical properties :
#
#
# Convention : Reuss Voigt Hill
#
# Bulk Modulus (GPa) = 45.23627 48.17571 46.70599
# Shear Modulus (GPa) = 23.72384 30.30343 27.01364
#
# Velocity S-wave (km/s) = 3.06071 3.45919 3.26603
# Velocity P-wave (km/s) = 5.50937 5.91422 5.71538
#
# Compressibility (1/GPa) = 0.02210615
#
# Stress axis : x y z
#
# Youngs Moduli (GPa) = 52.78426 88.07679 71.08909
#
# Poissons Ratio (x) = 0.25216 0.53185
# Poissons Ratio (y) = 0.15112 0.05583
# Poissons Ratio (z) = 0.39490 0.06917
#
# Static dielectric constant tensor:
#      x y z
#    x 2.021020 0.000000 -0.020660 
#    y 0.000000 2.571220 0.000000 
#    z -0.020660 0.000000 2.068750 
# 
# From -- ./inp_files/372607.got.cif
#   From: 2010.05.17/outbox.cif.g08.bks.cpg/sg12_187_cif.got.tgz:372607.got - 2010.06.03 13:09:07.
