data_PCOD9215171
_publ_section_title
;
Structure prediction by ZEFSAII (Michael W. Deem and Ramdas Pophale) SiO2 
 PCOD9215171
Probable space group: C 2/M
;
_chemical_formula_sum "Si O2"
_cell_formula_units_Z 56
_cell_length_a 9.226710
_cell_length_b 17.929892
_cell_length_c 26.416638
_cell_angle_alpha 90.000000
_cell_angle_beta 36.648971
_cell_angle_gamma 90.000000
_cell_volume 2608.624371
_symmetry_space_group_name_H-M "C 2/M"
_symmetry_group_IT_number 12
_symmetry_cell_setting 'monoclinic'
loop_
_space_group_symop_operation_xyz
x,y,z
-x,y,-z
-x,-y,-z
x,-y,z
1/2+x,1/2+y,z
1/2-x,1/2+y,-z
1/2-x,1/2-y,-z
1/2+x,1/2-y,z
loop_
_atom_site_type_symbol
_atom_site_label
_atom_site_fract_x
_atom_site_fract_y
_atom_site_fract_z
Si Si1 0.267919 0.806753 0.447493
Si Si2 0.327046 0.301542 0.854923
Si Si3 0.598087 0.085313 0.414897
Si Si4 0.413992 0.082184 0.950611
Si Si5 0.588940 0.584982 0.847840
Si Si6 0.566545 0.142761 0.164061
Si Si7 0.958097 0.198370 0.703725
O O1 0.250000 0.750000 0.500000
O O2 0.401764 0.879005 0.432025
O O3 0.431462 0.765124 0.359837
O O4 0.000000 0.819782 0.500000
O O5 0.536514 0.353387 0.819896
O O6 0.308962 0.221743 0.886397
O O7 0.385738 0.280113 0.780791
O O8 0.089787 0.352816 0.920550
O O9 0.500000 0.088545 0.500000
O O10 0.836445 0.135867 0.348071
O O11 0.650652 0.000000 0.387174
O O12 0.406128 0.090484 0.892369
O O13 0.514671 0.000000 0.935355
O O14 0.150540 0.088419 0.049254
O O15 0.612326 0.500000 0.822287
O O16 0.810543 0.606936 0.821692
O O17 0.285202 0.163429 0.251834
#
# Coordination Sequence:
#
# PCOD9215171 Si02
#       7
#     8   8   8   8   8   8   8
#     4  12  22  43  76 103 124 179 218 265 320 403
#     4  11  24  39  61  93 126 166 215 278 325 385
#     4  11  24  43  68 102 136 168 213 269 325 388
#     4  10  22  41  63  86 125 176 220 263 331 406
#     4  11  23  41  63  91 126 170 224 271 322 394
#     4  11  24  38  62  96 126 167 214 281 322 378
#     4  11  23  43  65  92 131 175 215 252 330 403
#
# _framework density 21.467252999999999
#
# number of rings (size 3 to 8) (size 9 to 14) (size 15 to 20)
#    0.000    1.000    2.857    4.286    0.000    9.429 
#    0.000    0.000    0.000    0.857    0.000    0.000 
#    0.000    0.000    0.000    0.000    0.000    0.000 
#
# Total GULP energy -156743.722871 kJ/mol
# GULP energy per Si atom -5597.990103 kJ/mol
# Density = 2.141839 g / cm^3
# Si number density = 21.467253 Si / 1000 Ang^3
#
#
#
# Elastic Constant Matrix: (Units=GPa)
#
#
# Indices 1 2 3 4 5 6 
#
# 1 133.3519 29.4497 25.2674 0.0015 -13.5172 0.0023
# 2 29.4497 117.5911 15.8589 -0.0036 -2.5604 0.0001
# 3 25.2674 15.8589 74.0160 -0.0159 -4.3093 -0.0128
# 4 0.0015 -0.0036 -0.0159 16.9262 -0.0054 -4.1055
# 5 -13.5172 -2.5604 -4.3093 -0.0054 36.0320 0.0046
# 6 0.0023 0.0001 -0.0128 -4.1055 0.0046 41.0970
#
#
#
# Elastic Compliance Matrix: (Units=1/GPa)
#
#
# Indices 1 2 3 4 5 6 
#
# 1 0.008633 -0.001777 -0.002402 -0.000003 0.002825 -0.000002
# 2 -0.001777 0.009128 -0.001360 0.000001 -0.000180 0.000000
# 3 -0.002402 -0.001360 0.014666 0.000015 0.000756 0.000006
# 4 -0.000003 0.000001 0.000015 0.060547 0.000009 0.006049
# 5 0.002825 -0.000180 0.000756 0.000009 0.028891 -0.000002
# 6 -0.000002 0.000000 0.000006 0.006049 -0.000002 0.024937
#
#
# Mechanical properties :
#
#
# Convention : Reuss Voigt Hill
#
# Bulk Modulus (GPa) = 46.83749 51.79011 49.31380
# Shear Modulus (GPa) = 30.30388 35.76990 33.03689
#
# Velocity S-wave (km/s) = 3.76125 4.08641 3.92719
# Velocity P-wave (km/s) = 6.38186 6.81487 6.60192
#
# Compressibility (1/GPa) = 0.02135042
#
# Stress axis : x y z
#
# Youngs Moduli (GPa) = 115.83776 109.54767 68.18504
#
# Poissons Ratio (x) = 0.19462 0.16377
# Poissons Ratio (y) = 0.20579 0.09273
# Poissons Ratio (z) = 0.27823 0.14898
#
# Static dielectric constant tensor:
#      x y z
#    x 1.791490 0.000000 0.007600 
#    y 0.000000 1.763840 0.000000 
#    z 0.007600 0.000000 1.775810 
# 
# From -- ./inp_files/356686.got.cif
#   From: 2010.05.17/outbox.cif.g08.bks.cpg/sg12_179_cif.got.tgz:356686.got - 2010.06.03 13:09:07.
