data_PCOD9215274
_publ_section_title
;
Structure prediction by ZEFSAII (Michael W. Deem and Ramdas Pophale) SiO2 
 PCOD9215274
Probable space group: C 2/M
;
_chemical_formula_sum "Si O2"
_cell_formula_units_Z 64
_cell_length_a 12.875850
_cell_length_b 20.185206
_cell_length_c 13.953896
_cell_angle_alpha 90.000000
_cell_angle_beta 129.076390
_cell_angle_gamma 90.000000
_cell_volume 2815.384045
_symmetry_space_group_name_H-M "C 2/M"
_symmetry_group_IT_number 12
_symmetry_cell_setting 'monoclinic'
loop_
_space_group_symop_operation_xyz
x,y,z
-x,y,-z
-x,-y,-z
x,-y,z
1/2+x,1/2+y,z
1/2-x,1/2+y,-z
1/2-x,1/2-y,-z
1/2+x,1/2-y,z
loop_
_atom_site_type_symbol
_atom_site_label
_atom_site_fract_x
_atom_site_fract_y
_atom_site_fract_z
Si Si1 0.444143 0.792995 0.158672
Si Si2 0.097104 0.076263 0.135643
Si Si3 0.517183 0.925244 0.308972
Si Si4 0.796391 0.888553 0.515378
Si Si5 0.659068 0.134001 0.635995
Si Si6 0.763333 0.271247 0.657506
Si Si7 0.734301 0.806313 0.124091
Si Si8 0.934264 0.074080 0.238527
O O1 0.467752 0.867496 0.210100
O O2 0.580036 0.752054 0.264468
O O3 0.328502 0.754985 0.148390
O O4 0.393786 0.798375 0.019732
O O5 0.227716 0.119884 0.218886
O O6 0.015040 0.073982 0.185860
O O7 0.133474 0.000000 0.132443
O O8 0.000000 0.104536 0.000000
O O9 0.678555 0.927245 0.391615
O O10 0.469665 0.897450 0.386792
O O11 0.465564 0.000000 0.267470
O O12 0.733347 0.894782 0.585393
O O13 0.784317 0.817052 0.457493
O O14 0.950921 0.908530 0.615443
O O15 0.660433 0.211427 0.612937
O O16 0.780299 0.306263 0.770094
O O17 0.817271 0.873472 0.155552
O O18 0.884225 0.000000 0.228850
#
# Coordination Sequence:
#
# PCOD9215274 Si02
#       8
#     8   8   8   8   8   8   8   8
#     4  10  23  42  65  98 133 172 216 268 327 395
#     4   9  19  33  55  88 125 162 199 253 328 397
#     4  11  23  40  65  98 135 173 217 272 335 396
#     4  10  23  42  62  90 129 173 215 269 324 391
#     4  11  21  37  61  94 126 166 217 266 326 389
#     4  11  23  42  65  91 127 173 220 270 323 388
#     4  11  23  42  66  96 127 170 222 269 327 387
#     4  10  22  41  64  90 124 165 216 274 324 380
#
# _framework density 22.732244000000001
#
# number of rings (size 3 to 8) (size 9 to 14) (size 15 to 20)
#    0.000    1.625    1.250    3.375    1.750    5.000 
#    2.250    3.750    0.000    3.750    0.000    0.000 
#    0.000    0.000    0.000    0.000    0.000    0.000 
#
# Total GULP energy -178471.573721 kJ/mol
# GULP energy per Si atom -5577.236679 kJ/mol
# Density = 2.268050 g / cm^3
# Si number density = 22.732244 Si / 1000 Ang^3
#
#
#
# Elastic Constant Matrix: (Units=GPa)
#
#
# Indices 1 2 3 4 5 6 
#
# 1 29.6577 3.8167 4.9551 0.0000 0.3626 0.0000
# 2 3.8167 93.8707 -3.2973 0.0000 15.0480 0.0000
# 3 4.9551 -3.2973 49.1630 0.0000 10.1407 0.0000
# 4 0.0000 0.0000 0.0000 11.4001 0.0000 -4.5955
# 5 0.3626 15.0480 10.1407 0.0000 23.4318 0.0000
# 6 0.0000 0.0000 0.0000 -4.5955 0.0000 10.1845
#
#
#
# Elastic Compliance Matrix: (Units=1/GPa)
#
#
# Indices 1 2 3 4 5 6 
#
# 1 0.034631 -0.001956 -0.004140 0.000000 0.002512 0.000000
# 2 -0.001956 0.012297 0.002904 0.000000 -0.009124 0.000000
# 3 -0.004140 0.002904 0.023414 0.000000 -0.011934 0.000000
# 4 0.000000 0.000000 0.000000 0.107221 0.000000 0.048381
# 5 0.002512 -0.009124 -0.011934 0.000000 0.053662 0.000000
# 6 0.000000 0.000000 0.000000 0.048381 0.000000 0.120019
#
#
# Mechanical properties :
#
#
# Convention : Reuss Voigt Hill
#
# Bulk Modulus (GPa) = 15.63534 20.40449 18.01992
# Shear Modulus (GPa) = 13.19444 20.15107 16.67275
#
# Velocity S-wave (km/s) = 2.41182 2.98057 2.71115
# Velocity P-wave (km/s) = 3.82738 4.56514 4.21244
#
# Compressibility (1/GPa) = 0.06395767
#
# Stress axis : x y z
#
# Youngs Moduli (GPa) = 28.87609 81.32023 42.70935
#
# Poissons Ratio (x) = 0.15907 0.17681
# Poissons Ratio (y) = 0.05649 -0.12402
# Poissons Ratio (z) = 0.11954 -0.23614
#
# Static dielectric constant tensor:
#      x y z
#    x 2.009970 0.000000 0.117320 
#    y 0.000000 1.846050 0.000000 
#    z 0.117320 0.000000 2.002560 
# 
# From -- ./inp_files/216814.got.cif
#   From: 2010.05.17/outbox.cif.g08.bks.cpg/sg12_109_cif.got.tgz:216814.got - 2010.06.03 13:09:07.
