data_PCOD9215254
_publ_section_title
;
Structure prediction by ZEFSAII (Michael W. Deem and Ramdas Pophale) SiO2 
 PCOD9215254
Probable space group: C 2/M
;
_chemical_formula_sum "Si O2"
_cell_formula_units_Z 56
_cell_length_a 10.022498
_cell_length_b 14.110424
_cell_length_c 21.480316
_cell_angle_alpha 90.000000
_cell_angle_beta 84.834920
_cell_angle_gamma 90.000000
_cell_volume 3025.447662
_symmetry_space_group_name_H-M "C 2/M"
_symmetry_group_IT_number 12
_symmetry_cell_setting 'monoclinic'
loop_
_space_group_symop_operation_xyz
x,y,z
-x,y,-z
-x,-y,-z
x,-y,z
1/2+x,1/2+y,z
1/2-x,1/2+y,-z
1/2-x,1/2-y,-z
1/2+x,1/2-y,z
loop_
_atom_site_type_symbol
_atom_site_label
_atom_site_fract_x
_atom_site_fract_y
_atom_site_fract_z
Si Si1 0.069868 0.609831 0.864375
Si Si2 0.106413 0.387179 0.441062
Si Si3 0.302553 0.778609 0.249134
Si Si4 0.258196 0.889486 0.840640
Si Si5 0.537449 0.256941 0.335175
Si Si6 0.413023 0.386778 0.443975
Si Si7 0.868649 0.225129 0.042480
O O1 0.090433 0.500000 0.879404
O O2 0.168772 0.644334 0.805466
O O3 0.092843 0.680000 0.920969
O O4 0.917202 0.621551 0.846727
O O5 0.101045 0.500000 0.428383
O O6 0.075389 0.328022 0.380538
O O7 0.256333 0.363447 0.457472
O O8 0.000000 0.367250 0.500000
O O9 0.284529 0.678286 0.214210
O O10 0.429492 0.775511 0.289082
O O11 0.169437 0.793772 0.294814
O O12 0.182037 0.850778 0.904864
O O13 0.230592 0.000000 0.830336
O O14 0.470746 0.336615 0.380932
O O15 0.500000 0.357563 0.500000
O O16 0.424159 0.500000 0.437581
O O17 0.750000 0.250000 0.000000
O O18 0.000000 0.192450 0.000000
#
# Coordination Sequence:
#
# PCOD9215254 Si02
#       7
#     8   8   8   8   8   8   8
#     4  10  22  41  64  89 122 164 201 241 297 354
#     4  10  23  41  61  87 119 156 197 244 302 366
#     4  11  24  40  60  91 120 155 203 253 292 347
#     4  10  22  41  64  88 123 165 198 242 301 351
#     4  12  23  39  63  88 118 158 202 246 300 357
#     4  10  23  41  60  87 122 154 192 249 308 358
#     4  11  22  39  63  96 128 155 198 251 292 347
#
# _framework density 18.509658000000002
#
# number of rings (size 3 to 8) (size 9 to 14) (size 15 to 20)
#    0.000    1.429    4.286    0.429    2.000    4.571 
#    0.000    1.429    0.000    0.000    0.000    0.000 
#    0.000    0.000    0.000    0.000    0.000    0.000 
#
# Total GULP energy -156469.750969 kJ/mol
# GULP energy per Si atom -5588.205392 kJ/mol
# Density = 1.846753 g / cm^3
# Si number density = 18.509658 Si / 1000 Ang^3
#
#
#
# Elastic Constant Matrix: (Units=GPa)
#
#
# Indices 1 2 3 4 5 6 
#
# 1 125.5632 31.6770 42.8307 0.0000 -17.2509 0.0000
# 2 31.6770 86.2305 24.3299 0.0000 -2.9020 0.0000
# 3 42.8307 24.3299 82.8833 0.0000 -12.7131 0.0000
# 4 0.0000 0.0000 0.0000 107.8615 0.0000 43.3417
# 5 -17.2509 -2.9020 -12.7131 0.0000 52.0131 0.0000
# 6 0.0000 0.0000 0.0000 43.3417 0.0000 41.6929
#
#
#
# Elastic Compliance Matrix: (Units=1/GPa)
#
#
# Indices 1 2 3 4 5 6 
#
# 1 0.010368 -0.002528 -0.004270 0.000000 0.002254 0.000000
# 2 -0.002528 0.013263 -0.002703 0.000000 -0.000759 0.000000
# 3 -0.004270 -0.002703 0.015402 0.000000 0.002198 0.000000
# 4 0.000000 0.000000 0.000000 0.015922 0.000000 -0.016552
# 5 0.002254 -0.000759 0.002198 0.000000 0.020468 0.000000
# 6 0.000000 0.000000 0.000000 -0.016552 0.000000 0.041191
#
#
# Mechanical properties :
#
#
# Convention : Reuss Voigt Hill
#
# Bulk Modulus (GPa) = 49.92389 54.70582 52.31485
# Shear Modulus (GPa) = 35.13846 53.36945 44.25396
#
# Velocity S-wave (km/s) = 4.36177 5.37549 4.89494
# Velocity P-wave (km/s) = 7.23858 8.25514 7.76352
#
# Compressibility (1/GPa) = 0.02003049
#
# Stress axis : x y z
#
# Youngs Moduli (GPa) = 96.44959 75.39944 64.92538
#
# Poissons Ratio (x) = 0.19062 0.27723
# Poissons Ratio (y) = 0.24384 0.17551
# Poissons Ratio (z) = 0.41184 0.20382
#
# Static dielectric constant tensor:
#      x y z
#    x 1.624960 0.000000 -0.002970 
#    y 0.000000 1.620770 0.000000 
#    z -0.002970 0.000000 1.617990 
# 
# From -- ./inp_files/300144.got.cif
#   From: 2010.05.17/outbox.cif.g08.bks.cpg/sg12_151_cif.got.tgz:300144.got - 2010.06.03 13:09:07.
