data_PCOD9215690
_publ_section_title
;
Structure prediction by ZEFSAII (Michael W. Deem and Ramdas Pophale) SiO2 
 PCOD9215690
Probable space group: C 2/M
;
_chemical_formula_sum "Si O2"
_cell_formula_units_Z 56
_cell_length_a 9.772707
_cell_length_b 27.095072
_cell_length_c 14.582056
_cell_angle_alpha 90.000000
_cell_angle_beta 62.321492
_cell_angle_gamma 90.000000
_cell_volume 3419.367891
_symmetry_space_group_name_H-M "C 2/M"
_symmetry_group_IT_number 12
_symmetry_cell_setting 'monoclinic'
loop_
_space_group_symop_operation_xyz
x,y,z
-x,y,-z
-x,-y,-z
x,-y,z
1/2+x,1/2+y,z
1/2-x,1/2+y,-z
1/2-x,1/2-y,-z
1/2+x,1/2-y,z
loop_
_atom_site_type_symbol
_atom_site_label
_atom_site_fract_x
_atom_site_fract_y
_atom_site_fract_z
Si Si1 0.875503 0.690930 0.327561
Si Si2 0.722182 0.210917 0.146567
Si Si3 0.650715 0.360207 0.252121
Si Si4 0.344240 0.301228 0.303124
Si Si5 0.956603 0.943172 0.406470
Si Si6 0.185319 0.319071 0.956585
Si Si7 0.162088 0.625325 0.478374
O O1 0.776854 0.662012 0.282085
O O2 0.811556 0.746748 0.351959
O O3 0.858051 0.659580 0.425475
O O4 0.051517 0.700313 0.239905
O O5 0.838456 0.200476 0.194278
O O6 0.752977 0.267321 0.105824
O O7 0.730991 0.180776 0.049080
O O8 0.505778 0.322619 0.289582
O O9 0.580499 0.410990 0.311288
O O10 0.732299 0.361290 0.128045
O O11 0.216493 0.338344 0.380590
O O12 0.793620 0.915291 0.449347
O O13 0.000000 0.941660 0.500000
O O14 0.950038 0.000000 0.378812
O O15 0.000000 0.319908 0.000000
O O16 0.000000 0.602530 0.500000
#
# Coordination Sequence:
#
# PCOD9215690 Si02
#       7
#     8   8   8   8   8   8   8
#     4  12  19  36  49  79 119 152 183 222 258 330
#     4  11  21  32  50  75 114 157 190 221 258 308
#     4  11  22  35  56  81 109 148 188 226 279 327
#     4  11  21  34  49  78 120 156 185 217 264 325
#     4  10  22  42  63  82 106 138 184 240 291 339
#     4  11  21  33  52  78 111 154 199 227 260 316
#     4  11  23  35  56  84 111 146 185 220 280 340
#
# _framework density 16.377295
#
# number of rings (size 3 to 8) (size 9 to 14) (size 15 to 20)
#    0.000    1.000    7.143    0.429    2.000    0.286 
#    0.000    0.000    0.000    0.429    0.000    8.000 
#    0.000    0.000    0.000    0.000    0.000    0.000 
#
# Total GULP energy -156237.816537 kJ/mol
# GULP energy per Si atom -5579.922019 kJ/mol
# Density = 1.634002 g / cm^3
# Si number density = 16.377295 Si / 1000 Ang^3
#
#
#
# Elastic Constant Matrix: (Units=GPa)
#
#
# Indices 1 2 3 4 5 6 
#
# 1 72.1378 32.8963 17.9034 0.0000 0.5741 0.0000
# 2 32.8963 108.3424 42.1582 0.0000 -5.1960 0.0000
# 3 17.9034 42.1582 85.2988 0.0000 3.3641 0.0000
# 4 0.0000 0.0000 0.0000 11.4211 0.0000 3.6862
# 5 0.5741 -5.1960 3.3641 0.0000 36.4969 0.0000
# 6 0.0000 0.0000 0.0000 3.6862 0.0000 10.5774
#
#
#
# Elastic Compliance Matrix: (Units=1/GPa)
#
#
# Indices 1 2 3 4 5 6 
#
# 1 0.016211 -0.004517 -0.001139 0.000000 -0.000793 0.000000
# 2 -0.004517 0.012858 -0.005502 0.000000 0.002409 0.000000
# 3 -0.001139 -0.005502 0.014766 0.000000 -0.002126 0.000000
# 4 0.000000 0.000000 0.000000 0.098653 0.000000 -0.034380
# 5 -0.000793 0.002409 -0.002126 0.000000 0.027951 0.000000
# 6 0.000000 0.000000 0.000000 -0.034380 0.000000 0.106523
#
#
# Mechanical properties :
#
#
# Convention : Reuss Voigt Hill
#
# Bulk Modulus (GPa) = 46.46989 50.18832 48.32910
# Shear Modulus (GPa) = 16.31584 23.22047 19.76816
#
# Velocity S-wave (km/s) = 3.15976 3.76951 3.47803
# Velocity P-wave (km/s) = 6.46129 7.04679 6.76038
#
# Compressibility (1/GPa) = 0.02151931
#
# Stress axis : x y z
#
# Youngs Moduli (GPa) = 61.68563 77.77279 67.72500
#
# Poissons Ratio (x) = 0.35132 0.07712
# Poissons Ratio (y) = 0.27865 0.37261
# Poissons Ratio (z) = 0.07024 0.42789
#
# Static dielectric constant tensor:
#      x y z
#    x 1.575010 0.000000 -0.006130 
#    y 0.000000 1.515560 0.000000 
#    z -0.006130 0.000000 1.572200 
# 
# From -- ./inp_files/199418.got.cif
#   From: 2010.05.17/outbox.cif.g08.bks.cpg/sg12_100_cif.got.tgz:199418.got - 2010.06.03 13:09:07.
