data_PCOD9215344
_publ_section_title
;
Structure prediction by ZEFSAII (Michael W. Deem and Ramdas Pophale) SiO2 
 PCOD9215344
Probable space group: C 2/M
;
_chemical_formula_sum "Si O2"
_cell_formula_units_Z 42
_cell_length_a 30.557868
_cell_length_b 7.768246
_cell_length_c 7.833907
_cell_angle_alpha 90.000000
_cell_angle_beta 110.096824
_cell_angle_gamma 90.000000
_cell_volume 1746.394776
_symmetry_space_group_name_H-M "C 2/M"
_symmetry_group_IT_number 12
_symmetry_cell_setting 'monoclinic'
loop_
_space_group_symop_operation_xyz
x,y,z
-x,y,-z
-x,-y,-z
x,-y,z
1/2+x,1/2+y,z
1/2-x,1/2+y,-z
1/2-x,1/2-y,-z
1/2+x,1/2-y,z
loop_
_atom_site_type_symbol
_atom_site_label
_atom_site_fract_x
_atom_site_fract_y
_atom_site_fract_z
Si Si1 0.045093 0.207695 0.946383
Si Si2 0.761107 0.704583 0.713675
Si Si3 0.936418 0.313119 0.394519
Si Si4 0.500000 0.500000 0.500000
Si Si5 0.662811 0.709156 0.655657
Si Si6 0.141052 0.203497 0.241209
O O1 0.043749 0.307535 0.769318
O O2 0.047206 0.000000 0.902133
O O3 0.092111 0.263686 0.103978
O O4 0.000000 0.231080 0.000000
O O5 0.761911 0.500000 0.727903
O O6 0.750000 0.750000 0.500000
O O7 0.716085 0.767521 0.759649
O O8 0.813422 0.767532 0.814575
O O9 0.943657 0.500000 0.484206
O O10 0.881153 0.277737 0.301017
O O11 0.962411 0.151151 0.512397
O O12 0.662256 0.500000 0.664156
O O13 0.651479 0.767588 0.445756
O O14 0.136008 0.000000 0.251981
#
# Coordination Sequence:
#
# PCOD9215344 Si02
#       6
#     8   8   8   2   8   8
#     4  10  22  41  65  86 125 170 202 253 317 372
#     4   9  17  31  55  85 121 159 200 254 308 359
#     4  12  26  42  67  95 121 165 210 255 313 368
#     4  12  26  48  66  86 136 160 204 268 302 370
#     4   9  18  36  61  89 126 162 203 259 309 361
#     4   9  19  34  60  91 121 165 206 248 316 367
#
# _framework density 24.049544999999998
#
# number of rings (size 3 to 8) (size 9 to 14) (size 15 to 20)
#    0.000    2.095    1.905    2.000    2.667    4.952 
#    0.000    0.952    0.000    0.000    0.000    0.000 
#    0.000    0.000    0.000    0.000    0.000    0.000 
#
# Total GULP energy -117067.135019 kJ/mol
# GULP energy per Si atom -5574.625477 kJ/mol
# Density = 2.399481 g / cm^3
# Si number density = 24.049545 Si / 1000 Ang^3
#
#
#
# Elastic Constant Matrix: (Units=GPa)
#
#
# Indices 1 2 3 4 5 6 
#
# 1 176.3963 30.7571 26.3254 0.0000 24.5105 0.0000
# 2 30.7571 84.0295 21.1624 0.0000 6.9490 0.0000
# 3 26.3254 21.1624 19.8560 0.0000 16.1535 0.0000
# 4 0.0000 0.0000 0.0000 19.2850 0.0000 -10.0273
# 5 24.5105 6.9490 16.1535 0.0000 38.6116 0.0000
# 6 0.0000 0.0000 0.0000 -10.0273 0.0000 52.7582
#
#
#
# Elastic Compliance Matrix: (Units=1/GPa)
#
#
# Indices 1 2 3 4 5 6 
#
# 1 0.007100 -0.000489 -0.008030 0.000000 -0.001059 0.000000
# 2 -0.000489 0.017475 -0.023756 0.000000 0.007104 0.000000
# 3 -0.008030 -0.023756 0.119310 0.000000 -0.040541 0.000000
# 4 0.000000 0.000000 0.000000 0.057540 0.000000 0.010936
# 5 -0.001059 0.007104 -0.040541 0.000000 0.042254 0.000000
# 6 0.000000 0.000000 0.000000 0.010936 0.000000 0.021033
#
#
# Mechanical properties :
#
#
# Convention : Reuss Voigt Hill
#
# Bulk Modulus (GPa) = 12.60479 48.53019 30.56749
# Shear Modulus (GPa) = 14.05657 35.60008 24.82832
#
# Velocity S-wave (km/s) = 2.42023 3.85162 3.21656
# Velocity P-wave (km/s) = 3.61422 6.32479 5.15100
#
# Compressibility (1/GPa) = 0.07933492
#
# Stress axis : x y z
#
# Youngs Moduli (GPa) = 140.84613 57.22546 8.38155
#
# Poissons Ratio (x) = 0.02797 0.06731
# Poissons Ratio (y) = 0.06884 0.19911
# Poissons Ratio (z) = 1.13106 1.35942
#
# Static dielectric constant tensor:
#      x y z
#    x 1.968670 0.000000 0.051930 
#    y 0.000000 1.922480 0.000000 
#    z 0.051930 0.000000 2.033520 
# 
# From -- ./inp_files/107884.got.cif
#   From: 2010.05.17/outbox.cif.g08.bks.cpg/sg12_54_cif.got.tgz:107884.got - 2010.06.03 13:09:07.
