data_PCOD9215257
_publ_section_title
;
Structure prediction by ZEFSAII (Michael W. Deem and Ramdas Pophale) SiO2 
 PCOD9215257
Probable space group: C 2/M
;
_chemical_formula_sum "Si O2"
_cell_formula_units_Z 56
_cell_length_a 18.346012
_cell_length_b 8.689701
_cell_length_c 23.228392
_cell_angle_alpha 90.000000
_cell_angle_beta 126.259641
_cell_angle_gamma 90.000000
_cell_volume 2985.977985
_symmetry_space_group_name_H-M "C 2/M"
_symmetry_group_IT_number 12
_symmetry_cell_setting 'monoclinic'
loop_
_space_group_symop_operation_xyz
x,y,z
-x,y,-z
-x,-y,-z
x,-y,z
1/2+x,1/2+y,z
1/2-x,1/2+y,-z
1/2-x,1/2-y,-z
1/2+x,1/2-y,z
loop_
_atom_site_type_symbol
_atom_site_label
_atom_site_fract_x
_atom_site_fract_y
_atom_site_fract_z
Si Si1 0.468309 0.813412 0.343531
Si Si2 0.899962 0.684840 0.930753
Si Si3 0.411604 0.820672 0.500211
Si Si4 0.946512 0.183282 0.206266
Si Si5 0.261355 0.182979 0.069130
Si Si6 0.889807 0.684203 0.791132
Si Si7 0.796544 0.686648 0.343820
O O1 0.552010 0.756576 0.422465
O O2 0.466472 0.743278 0.279761
O O3 0.375633 0.776882 0.334632
O O4 0.473216 0.000000 0.342431
O O5 0.888194 0.500000 0.931316
O O6 0.824136 0.767672 0.932678
O O7 0.890598 0.724093 0.859152
O O8 0.000000 0.723381 0.000000
O O9 0.500000 0.818956 0.500000
O O10 0.331775 0.756830 0.422982
O O11 0.389636 0.000000 0.500280
O O12 0.851691 0.250784 0.140216
O O13 0.025583 0.240332 0.201223
O O14 0.941940 0.000000 0.204054
O O15 0.268124 0.000000 0.069212
O O16 0.250000 0.250000 0.000000
O O17 0.896672 0.500000 0.789477
O O18 0.797194 0.741877 0.719369
O O19 0.789646 0.500000 0.342503
#
# Coordination Sequence:
#
# PCOD9215257 Si02
#       7
#     8   8   8   8   8   8   8
#     4   9  17  33  58  85 113 146 187 234 285 341
#     4  10  22  41  64  89 118 151 188 232 280 331
#     4   7  12  26  51  81 110 143 184 230 280 337
#     4  12  25  40  58  82 115 152 193 237 282 335
#     4  12  25  42  65  91 120 152 188 229 276 331
#     4  11  23  38  57  82 114 151 192 238 287 337
#     4   9  17  32  56  84 113 147 188 233 284 343
#
# _framework density 18.754324
#
# number of rings (size 3 to 8) (size 9 to 14) (size 15 to 20)
#    0.000    2.000    0.000    6.429    0.000    5.429 
#    0.000    1.429    0.000    2.571    0.000    0.000 
#    0.000    0.000    0.000    0.000    0.000    0.000 
#
# Total GULP energy -156351.229419 kJ/mol
# GULP energy per Si atom -5583.972479 kJ/mol
# Density = 1.871164 g / cm^3
# Si number density = 18.754324 Si / 1000 Ang^3
#
#
#
# Elastic Constant Matrix: (Units=GPa)
#
#
# Indices 1 2 3 4 5 6 
#
# 1 117.8322 66.5194 90.3832 0.0000 -6.3563 0.0000
# 2 66.5194 71.7226 65.7906 0.0000 -4.6154 0.0000
# 3 90.3832 65.7906 203.8338 0.0000 -5.9313 0.0000
# 4 0.0000 0.0000 0.0000 12.7011 0.0000 -12.6798
# 5 -6.3563 -4.6154 -5.9313 0.0000 31.6740 0.0000
# 6 0.0000 0.0000 0.0000 -12.6798 0.0000 5.4768
#
#
#
# Elastic Compliance Matrix: (Units=1/GPa)
#
#
# Indices 1 2 3 4 5 6 
#
# 1 0.019987 -0.014726 -0.004077 0.000000 0.001102 0.000000
# 2 -0.014726 0.030748 -0.003369 0.000000 0.000894 0.000000
# 3 -0.004077 -0.003369 0.007806 0.000000 0.000153 0.000000
# 4 0.000000 0.000000 0.000000 -0.060042 0.000000 -0.139009
# 5 0.001102 0.000894 0.000153 0.000000 0.031952 0.000000
# 6 0.000000 0.000000 0.000000 -0.139009 0.000000 -0.139243
#
#
# Mechanical properties :
#
#
# Convention : Reuss Voigt Hill
#
# Bulk Modulus (GPa) = 70.43998 93.19722 81.81860
# Shear Modulus (GPa) = -83.72669 21.35008 -31.18830
#
# Velocity S-wave (km/s) = -6.68886 3.37769 -4.08240
# Velocity P-wave (km/s) = 4.69187 8.06308 4.63679
#
# Compressibility (1/GPa) = 0.01419648
#
# Stress axis : x y z
#
# Youngs Moduli (GPa) = 50.03328 32.52288 128.11199
#
# Poissons Ratio (x) = 0.47892 0.52237
# Poissons Ratio (y) = 0.73677 0.43156
# Poissons Ratio (z) = 0.20401 0.10956
#
# Static dielectric constant tensor:
#      x y z
#    x 1.614130 0.000000 -0.002490 
#    y 0.000000 1.636700 0.000000 
#    z -0.002490 0.000000 1.666120 
# 
# From -- ./inp_files/342610.got.cif
#   From: 2010.05.17/outbox.cif.g08.bks.cpg/sg12_172_cif.got.tgz:342610.got - 2010.06.03 13:09:07.
