data_PCOD9215916
_publ_section_title
;
Structure prediction by ZEFSAII (Michael W. Deem and Ramdas Pophale) SiO2 
 PCOD9215916
Probable space group: C 2/M
;
_chemical_formula_sum "Si O2"
_cell_formula_units_Z 40
_cell_length_a 8.277608
_cell_length_b 14.187374
_cell_length_c 22.402395
_cell_angle_alpha 90.000000
_cell_angle_beta 38.349776
_cell_angle_gamma 90.000000
_cell_volume 1632.358390
_symmetry_space_group_name_H-M "C 2/M"
_symmetry_group_IT_number 12
_symmetry_cell_setting 'monoclinic'
loop_
_space_group_symop_operation_xyz
x,y,z
-x,y,-z
-x,-y,-z
x,-y,z
1/2+x,1/2+y,z
1/2-x,1/2+y,-z
1/2-x,1/2-y,-z
1/2+x,1/2-y,z
loop_
_atom_site_type_symbol
_atom_site_label
_atom_site_fract_x
_atom_site_fract_y
_atom_site_fract_z
Si Si1 0.518491 0.395950 0.148558
Si Si2 0.823264 0.112799 0.769159
Si Si3 0.480791 0.265339 0.612410
Si Si4 0.972597 0.387549 0.315825
Si Si5 0.247360 0.350715 0.032950
O O1 0.448273 0.500000 0.190387
O O2 0.619346 0.349841 0.179975
O O3 0.240624 0.363348 0.202722
O O4 0.725017 0.406567 0.036674
O O5 0.512730 0.129734 0.855193
O O6 0.974120 0.171462 0.675048
O O7 0.863960 0.000000 0.749488
O O8 0.750000 0.250000 0.500000
O O9 0.435903 0.157163 0.647268
O O10 0.272513 0.325184 0.634076
O O11 0.911645 0.500000 0.332082
O O12 0.500000 0.365669 0.000000
O O13 0.250000 0.250000 0.000000
#
# Coordination Sequence:
#
# PCOD9215916 Si02
#       5
#     8   8   8   8   8
#     4  10  22  42  68 101 143 189 239 299 370 453
#     4  11  24  44  71 105 149 200 256 318 385 461
#     4  12  26  45  72 104 140 189 252 317 383 455
#     4  11  25  47  74 105 145 191 244 312 388 464
#     4  12  24  39  64 100 146 196 248 303 368 454
#
# _framework density 24.504424
#
# number of rings (size 3 to 8) (size 9 to 14) (size 15 to 20)
#    0.000    0.800    0.000    7.200    0.000    7.200 
#    0.000    1.000    0.000    9.600    0.000    0.000 
#    0.000    0.000    0.000    0.000    0.000    0.000 
#
# Total GULP energy -111463.722025 kJ/mol
# GULP energy per Si atom -5573.186101 kJ/mol
# Density = 2.444865 g / cm^3
# Si number density = 24.504424 Si / 1000 Ang^3
#
#
#
# Elastic Constant Matrix: (Units=GPa)
#
#
# Indices 1 2 3 4 5 6 
#
# 1 147.5633 40.3650 50.2863 0.0050 -6.2305 -0.0025
# 2 40.3650 168.9685 45.4659 0.0035 -3.4200 -0.0012
# 3 50.2863 45.4659 142.1072 0.0202 15.4969 -0.0087
# 4 0.0050 0.0035 0.0202 24.0096 -0.0118 -2.9874
# 5 -6.2305 -3.4200 15.4969 -0.0118 27.6339 0.0038
# 6 -0.0025 -0.0012 -0.0087 -2.9874 0.0038 30.0590
#
#
#
# Elastic Compliance Matrix: (Units=1/GPa)
#
#
# Indices 1 2 3 4 5 6 
#
# 1 0.008216 -0.001110 -0.002918 0.000002 0.003351 0.000000
# 2 -0.001110 0.006741 -0.001947 0.000002 0.001676 0.000000
# 3 -0.002918 -0.001947 0.009363 -0.000010 -0.006149 0.000002
# 4 0.000002 0.000002 -0.000010 0.042172 0.000024 0.004191
# 5 0.003351 0.001676 -0.006149 0.000024 0.040599 -0.000004
# 6 0.000000 0.000000 0.000002 0.004191 -0.000004 0.033684
#
#
# Mechanical properties :
#
#
# Convention : Reuss Voigt Hill
#
# Bulk Modulus (GPa) = 80.83151 81.20817 81.01984
# Shear Modulus (GPa) = 31.87803 37.84195 34.85999
#
# Velocity S-wave (km/s) = 3.61072 3.93401 3.77583
# Velocity P-wave (km/s) = 7.10220 7.33808 7.22110
#
# Compressibility (1/GPa) = 0.01237141
#
# Stress axis : x y z
#
# Youngs Moduli (GPa) = 121.71139 148.34263 106.80452
#
# Poissons Ratio (x) = 0.16463 0.31163
# Poissons Ratio (y) = 0.13508 0.20793
# Poissons Ratio (z) = 0.35513 0.28879
#
# Static dielectric constant tensor:
#      x y z
#    x 2.176630 0.000090 0.020740 
#    y 0.000090 1.814020 0.000070 
#    z 0.020740 0.000070 2.051180 
# 
# From -- ./inp_files/332474.got.cif
#   From: 2010.05.17/outbox.cif.g08.bks.cpg/sg12_167_cif.got.tgz:332474.got - 2010.06.03 13:09:07.
