data_PCOD9215655
_publ_section_title
;
Structure prediction by ZEFSAII (Michael W. Deem and Ramdas Pophale) SiO2 
 PCOD9215655
Probable space group: C 2/M
;
_chemical_formula_sum "Si O2"
_cell_formula_units_Z 40
_cell_length_a 9.720200
_cell_length_b 16.602175
_cell_length_c 15.796533
_cell_angle_alpha 90.000000
_cell_angle_beta 138.805085
_cell_angle_gamma 90.000000
_cell_volume 1678.953428
_symmetry_space_group_name_H-M "C 2/M"
_symmetry_group_IT_number 12
_symmetry_cell_setting 'monoclinic'
loop_
_space_group_symop_operation_xyz
x,y,z
-x,y,-z
-x,-y,-z
x,-y,z
1/2+x,1/2+y,z
1/2-x,1/2+y,-z
1/2-x,1/2-y,-z
1/2+x,1/2-y,z
loop_
_atom_site_type_symbol
_atom_site_label
_atom_site_fract_x
_atom_site_fract_y
_atom_site_fract_z
Si Si1 0.509807 0.155605 0.272531
Si Si2 0.810338 0.664513 0.481340
Si Si3 0.854760 0.123051 0.006966
Si Si4 0.646219 0.766207 0.177920
Si Si5 0.618574 0.589649 0.787640
O O1 0.750000 0.250000 0.500000
O O2 0.651272 0.213483 0.279735
O O3 0.622418 0.113827 0.402756
O O4 0.330791 0.206694 0.236956
O O5 0.602677 0.625087 0.346376
O O6 0.000000 0.666851 0.500000
O O7 0.884792 0.087552 0.112575
O O8 0.938129 0.216189 0.058107
O O9 0.623562 0.112841 0.862854
O O10 0.000000 0.090056 0.000000
O O11 0.701303 0.848232 0.155771
O O12 0.652239 0.500000 0.769390
#
# Coordination Sequence:
#
# PCOD9215655 Si02
#       5
#     8   8   8   8   8
#     4  11  22  37  72 102 131 174 251 284 332 402
#     4  12  24  43  72 106 135 187 237 291 340 422
#     4  10  22  41  72 102 133 184 241 285 333 421
#     4  11  21  40  70 106 131 181 232 289 334 415
#     4  12  28  45  67 105 149 182 224 297 365 407
#
# _framework density 23.824363999999999
#
# number of rings (size 3 to 8) (size 9 to 14) (size 15 to 20)
#    0.000    0.800    4.000    4.200    5.600    0.800 
#    0.000    5.000    0.000    1.200    0.000    0.000 
#    0.000    0.000    0.000    0.000    0.000    0.000 
#
# Total GULP energy -111681.702266 kJ/mol
# GULP energy per Si atom -5584.085113 kJ/mol
# Density = 2.377014 g / cm^3
# Si number density = 23.824364 Si / 1000 Ang^3
#
#
#
# Elastic Constant Matrix: (Units=GPa)
#
#
# Indices 1 2 3 4 5 6 
#
# 1 128.3637 -0.1906 37.1477 0.0000 -24.4453 0.0000
# 2 -0.1906 105.7368 29.4038 0.0000 1.5078 0.0000
# 3 37.1477 29.4038 157.6835 -0.0001 -37.9946 0.0000
# 4 0.0000 0.0000 -0.0001 -10.0142 0.0000 2.8769
# 5 -24.4453 1.5078 -37.9946 0.0000 53.6336 0.0000
# 6 0.0000 0.0000 0.0000 2.8769 0.0000 2.6215
#
#
#
# Elastic Compliance Matrix: (Units=1/GPa)
#
#
# Indices 1 2 3 4 5 6 
#
# 1 0.008769 0.000367 -0.001415 0.000000 0.002984 0.000000
# 2 0.000367 0.010158 -0.002423 0.000000 -0.001835 0.000000
# 3 -0.001415 -0.002423 0.008426 0.000000 0.005392 0.000000
# 4 0.000000 0.000000 0.000000 -0.075923 0.000000 0.083318
# 5 0.002984 -0.001835 0.005392 0.000000 0.023877 0.000000
# 6 0.000000 0.000000 0.000000 0.083318 0.000000 0.290025
#
#
# Mechanical properties :
#
#
# Convention : Reuss Voigt Hill
#
# Bulk Modulus (GPa) = 48.99366 58.27843 53.63605
# Shear Modulus (GPa) = 17.91621 30.94307 24.42964
#
# Velocity S-wave (km/s) = 2.74526 3.60780 3.20567
# Velocity P-wave (km/s) = 5.53695 6.47068 6.02194
#
# Compressibility (1/GPa) = 0.02041080
#
# Stress axis : x y z
#
# Youngs Moduli (GPa) = 114.04222 98.44477 118.67608
#
# Poissons Ratio (x) = -0.03611 0.16795
# Poissons Ratio (y) = -0.04183 0.28751
# Poissons Ratio (z) = 0.16139 0.23850
#
# Static dielectric constant tensor:
#      x y z
#    x 1.916200 0.000000 -0.021930 
#    y 0.000000 1.958810 0.000000 
#    z -0.021930 0.000000 2.070700 
# 
# From -- ./inp_files/258338.got.cif
#   From: 2010.05.17/outbox.cif.g08.bks.cpg/sg12_130_cif.got.tgz:258338.got - 2010.06.03 13:09:07.
