data_PCOD9215736
_publ_section_title
;
Structure prediction by ZEFSAII (Michael W. Deem and Ramdas Pophale) SiO2 
 PCOD9215736
Probable space group: C 2/M
;
_chemical_formula_sum "Si O2"
_cell_formula_units_Z 48
_cell_length_a 9.190234
_cell_length_b 17.669206
_cell_length_c 18.230710
_cell_angle_alpha 90.000000
_cell_angle_beta 48.098225
_cell_angle_gamma 90.000000
_cell_volume 2203.382370
_symmetry_space_group_name_H-M "C 2/M"
_symmetry_group_IT_number 12
_symmetry_cell_setting 'monoclinic'
loop_
_space_group_symop_operation_xyz
x,y,z
-x,y,-z
-x,-y,-z
x,-y,z
1/2+x,1/2+y,z
1/2-x,1/2+y,-z
1/2-x,1/2-y,-z
1/2+x,1/2-y,z
loop_
_atom_site_type_symbol
_atom_site_label
_atom_site_fract_x
_atom_site_fract_y
_atom_site_fract_z
Si Si1 0.922029 0.673905 0.199745
Si Si2 0.095489 0.911879 0.266635
Si Si3 0.841177 0.217877 0.103883
Si Si4 0.097629 0.913438 0.819354
Si Si5 0.561353 0.913651 0.659595
Si Si6 0.137351 0.829123 0.525824
O O1 0.828987 0.600282 0.192689
O O2 0.808527 0.738039 0.191661
O O3 0.894627 0.650072 0.293782
O O4 0.146484 0.699314 0.124567
O O5 0.019463 0.887967 0.212599
O O6 0.990973 0.859935 0.363132
O O7 0.045656 0.000000 0.294647
O O8 0.934516 0.139918 0.101008
O O9 0.000000 0.259280 0.000000
O O10 0.329912 0.910478 0.723482
O O11 0.046536 0.000000 0.852378
O O12 0.696078 0.891547 0.546581
O O13 0.606903 0.000000 0.668539
O O14 0.250000 0.750000 0.500000
O O15 0.000000 0.823750 0.500000
#
# Coordination Sequence:
#
# PCOD9215736 Si02
#       6
#     8   8   8   8   8   8
#     4  11  23  38  68  91 128 166 219 266 324 396
#     4  11  24  43  66  94 131 179 222 267 319 378
#     4  11  24  42  67  97 130 166 211 273 343 402
#     4   9  22  41  66  92 126 169 217 268 326 391
#     4  10  22  42  64  91 128 178 221 262 318 382
#     4  12  28  39  62  95 134 174 220 269 310 370
#
# _framework density 21.784687000000002
#
# number of rings (size 3 to 8) (size 9 to 14) (size 15 to 20)
#    0.000    1.333    1.667    2.500    9.333    1.667 
#    0.000    2.500    0.000    4.000    0.000    0.000 
#    0.000    0.000    0.000    0.000    0.000    0.000 
#
# Total GULP energy -133836.438162 kJ/mol
# GULP energy per Si atom -5576.518257 kJ/mol
# Density = 2.173510 g / cm^3
# Si number density = 21.784687 Si / 1000 Ang^3
#
#
#
# Elastic Constant Matrix: (Units=GPa)
#
#
# Indices 1 2 3 4 5 6 
#
# 1 112.5798 27.7169 25.9788 -0.0001 16.5006 -0.0007
# 2 27.7169 74.4555 31.5690 0.0000 5.9664 -0.0001
# 3 25.9788 31.5690 61.6128 -0.0001 -4.3510 0.0003
# 4 -0.0001 0.0000 -0.0001 14.2962 0.0001 4.2789
# 5 16.5006 5.9664 -4.3510 0.0001 25.2022 0.0001
# 6 -0.0007 -0.0001 0.0003 4.2789 0.0001 35.3848
#
#
#
# Elastic Compliance Matrix: (Units=1/GPa)
#
#
# Indices 1 2 3 4 5 6 
#
# 1 0.011513 -0.001734 -0.004524 0.000000 -0.007908 0.000000
# 2 -0.001734 0.018252 -0.008955 0.000000 -0.004732 0.000000
# 3 -0.004524 -0.008955 0.023370 0.000000 0.009117 0.000000
# 4 0.000000 0.000000 0.000000 0.072576 0.000000 -0.008776
# 5 -0.007908 -0.004732 0.009117 0.000000 0.047551 0.000000
# 6 0.000000 0.000000 0.000000 -0.008776 0.000000 0.029322
#
#
# Mechanical properties :
#
#
# Convention : Reuss Voigt Hill
#
# Bulk Modulus (GPa) = 44.03599 46.57525 45.30562
# Shear Modulus (GPa) = 20.78306 25.86886 23.32596
#
# Velocity S-wave (km/s) = 3.09207 3.44972 3.27578
# Velocity P-wave (km/s) = 5.74508 6.10685 5.92873
#
# Compressibility (1/GPa) = 0.02270870
#
# Stress axis : x y z
#
# Youngs Moduli (GPa) = 86.86170 54.78719 42.78911
#
# Poissons Ratio (x) = 0.09498 0.19360
# Poissons Ratio (y) = 0.15058 0.38319
# Poissons Ratio (z) = 0.39300 0.49064
#
# Static dielectric constant tensor:
#      x y z
#    x 1.806230 0.000000 -0.021250 
#    y 0.000000 1.836510 0.000000 
#    z -0.021250 0.000000 1.788730 
# 
# From -- ./inp_files/256437.got.cif
#   From: 2010.05.17/outbox.cif.g08.bks.cpg/sg12_129_cif.got.tgz:256437.got - 2010.06.03 13:09:07.
