data_PCOD9215995
_publ_section_title
;
Structure prediction by ZEFSAII (Michael W. Deem and Ramdas Pophale) SiO2 
 PCOD9215995
Probable space group: C 2/M
;
_chemical_formula_sum "Si O2"
_cell_formula_units_Z 60
_cell_length_a 9.450621
_cell_length_b 18.863555
_cell_length_c 26.157656
_cell_angle_alpha 90.000000
_cell_angle_beta 141.120897
_cell_angle_gamma 90.000000
_cell_volume 2926.984569
_symmetry_space_group_name_H-M "C 2/M"
_symmetry_group_IT_number 12
_symmetry_cell_setting 'monoclinic'
loop_
_space_group_symop_operation_xyz
x,y,z
-x,y,-z
-x,-y,-z
x,-y,z
1/2+x,1/2+y,z
1/2-x,1/2+y,-z
1/2-x,1/2-y,-z
1/2+x,1/2-y,z
loop_
_atom_site_type_symbol
_atom_site_label
_atom_site_fract_x
_atom_site_fract_y
_atom_site_fract_z
Si Si1 0.607788 0.000000 0.661560
Si Si2 0.745399 0.581182 0.931204
Si Si3 0.040619 0.742206 0.809374
Si Si4 0.471122 0.290722 0.081200
Si Si5 0.016505 0.106167 0.757387
Si Si6 0.722605 0.605189 0.594558
Si Si7 0.333507 0.369278 0.308522
Si Si8 0.747509 0.764205 0.559756
O O1 0.434078 0.061477 0.634334
O O2 0.787270 0.062185 0.693226
O O3 0.752671 0.500000 0.950083
O O4 0.598551 0.628223 0.928250
O O5 0.647142 0.584456 0.846194
O O6 0.000000 0.609954 0.000000
O O7 0.305512 0.724215 0.887928
O O8 0.963482 0.763670 0.844077
O O9 0.993562 0.808952 0.759383
O O10 0.897016 0.674965 0.753537
O O11 0.250000 0.250000 0.000000
O O12 0.146300 0.093165 0.740707
O O13 0.500000 0.587031 0.500000
O O14 0.667667 0.589853 0.638357
O O15 0.760646 0.689768 0.594311
O O16 0.547173 0.315914 0.370027
O O17 0.500000 0.796678 0.500000
O O18 0.750000 0.750000 0.500000
#
# Coordination Sequence:
#
# PCOD9215995 Si02
#       8
#     4   8   8   8   8   8   8   8
#     4  12  27  44  70  88 135 177 231 272 328 424
#     4  10  22  42  69  96 136 185 229 269 334 412
#     4  11  23  39  67  98 136 167 223 283 341 390
#     4  11  22  40  67 101 136 177 223 281 332 402
#     4  11  24  42  64  99 131 177 227 275 335 405
#     4  11  25  45  65  95 133 177 218 275 345 415
#     4  12  24  40  67 101 134 167 224 292 346 396
#     4  11  22  41  69 100 131 169 220 286 349 410
#
# _framework density 20.498912000000001
#
# number of rings (size 3 to 8) (size 9 to 14) (size 15 to 20)
#    0.000    0.933    4.667    3.800    5.600    0.533 
#    0.000    0.667    1.467    1.600    0.000    0.000 
#    0.000    0.000    0.000    0.000    0.000    0.000 
#
# Total GULP energy -167057.902264 kJ/mol
# GULP energy per Si atom -5568.596742 kJ/mol
# Density = 2.045226 g / cm^3
# Si number density = 20.498912 Si / 1000 Ang^3
#
#
#
# Elastic Constant Matrix: (Units=GPa)
#
#
# Indices 1 2 3 4 5 6 
#
# 1 91.3856 26.3165 23.5817 -0.0003 15.9085 -0.0002
# 2 26.3165 81.9359 20.6460 0.0001 17.4064 0.0001
# 3 23.5817 20.6460 44.1372 0.0007 12.2069 0.0006
# 4 -0.0003 0.0001 0.0007 21.5336 0.0006 22.6827
# 5 15.9085 17.4064 12.2069 0.0006 40.5070 0.0004
# 6 -0.0002 0.0001 0.0006 22.6827 0.0004 22.1171
#
#
#
# Elastic Compliance Matrix: (Units=1/GPa)
#
#
# Indices 1 2 3 4 5 6 
#
# 1 0.013478 -0.002422 -0.005336 -0.000001 -0.002644 0.000001
# 2 -0.002422 0.015014 -0.004590 0.000000 -0.004117 0.000000
# 3 -0.005336 -0.004590 0.028942 0.000001 -0.004653 -0.000001
# 4 -0.000001 0.000000 0.000001 -0.578307 0.000002 0.593096
# 5 -0.002644 -0.004117 -0.004653 0.000002 0.028897 -0.000002
# 6 0.000001 0.000000 -0.000001 0.593096 -0.000002 -0.563049
#
#
# Mechanical properties :
#
#
# Convention : Reuss Voigt Hill
#
# Bulk Modulus (GPa) = 30.54797 39.83857 35.19327
# Shear Modulus (GPa) = -4.90477 26.62582 10.86052
#
# Velocity S-wave (km/s) = -1.54851 3.60792 2.30426
# Velocity P-wave (km/s) = 3.42599 6.06900 4.92799
#
# Compressibility (1/GPa) = 0.03273540
#
# Stress axis : x y z
#
# Youngs Moduli (GPa) = 74.19749 66.60475 34.55194
#
# Poissons Ratio (x) = 0.16134 0.18438
# Poissons Ratio (y) = 0.17974 0.15860
# Poissons Ratio (z) = 0.39595 0.30573
#
# Static dielectric constant tensor:
#      x y z
#    x 1.730000 0.000000 -0.009670 
#    y 0.000000 1.751630 0.000000 
#    z -0.009670 0.000000 1.742830 
# 
# From -- ./inp_files/356937.got.cif
#   From: 2010.05.17/outbox.cif.g08.bks.cpg/sg12_179_cif.got.tgz:356937.got - 2010.06.03 13:09:07.
