data_PCOD9215383
_publ_section_title
;
Structure prediction by ZEFSAII (Michael W. Deem and Ramdas Pophale) SiO2 
 PCOD9215383
Probable space group: C 2/M
;
_chemical_formula_sum "Si O2"
_cell_formula_units_Z 64
_cell_length_a 17.884807
_cell_length_b 29.454168
_cell_length_c 8.817981
_cell_angle_alpha 90.000000
_cell_angle_beta 42.948245
_cell_angle_gamma 90.000000
_cell_volume 3164.917832
_symmetry_space_group_name_H-M "C 2/M"
_symmetry_group_IT_number 12
_symmetry_cell_setting 'monoclinic'
loop_
_space_group_symop_operation_xyz
x,y,z
-x,y,-z
-x,-y,-z
x,-y,z
1/2+x,1/2+y,z
1/2-x,1/2+y,-z
1/2-x,1/2-y,-z
1/2+x,1/2-y,z
loop_
_atom_site_type_symbol
_atom_site_label
_atom_site_fract_x
_atom_site_fract_y
_atom_site_fract_z
Si Si1 0.941454 0.749255 0.750453
Si Si2 0.090806 0.949287 0.495831
Si Si3 0.739527 0.312116 0.098369
Si Si4 0.108612 0.880971 0.742790
Si Si5 0.003695 0.446601 0.171686
Si Si6 0.231108 0.552310 0.318861
Si Si7 0.836532 0.217146 0.452875
Si Si8 0.278918 0.916976 0.012554
O O1 0.849959 0.789292 0.880799
O O2 0.000000 0.745947 0.500000
O O3 0.041662 0.760449 0.714772
O O4 0.863535 0.705764 0.889689
O O5 0.082150 0.909185 0.629521
O O6 0.207233 0.945230 0.238839
O O7 0.000000 0.944118 0.500000
O O8 0.078651 0.000000 0.581360
O O9 0.703743 0.294717 0.317281
O O10 0.735278 0.365756 0.085708
O O11 0.190261 0.912650 0.715247
O O12 0.156568 0.831556 0.637665
O O13 0.000000 0.874832 0.000000
O O14 0.034462 0.500000 0.133339
O O15 0.888004 0.442148 0.427546
O O16 0.000000 0.433888 0.000000
O O17 0.096016 0.418520 0.119884
O O18 0.265617 0.500000 0.290606
O O19 0.229367 0.562888 0.143045
O O20 0.750000 0.250000 0.500000
#
# Coordination Sequence:
#
# PCOD9215383 Si02
#       8
#     8   8   8   8   8   8   8   8
#     4   9  22  44  68  93 131 170 221 279 345 409
#     4  11  24  42  66  97 137 183 230 281 340 406
#     4  10  23  42  70  98 129 178 225 283 343 410
#     4  12  27  43  68  99 136 179 227 283 345 410
#     4  10  22  41  65  92 132 182 224 275 339 398
#     4  11  25  43  66  99 140 182 230 283 340 409
#     4  11  26  44  68 101 134 180 225 284 351 414
#     4  12  23  40  68 100 132 174 233 281 338 410
#
# _framework density 20.221693999999999
#
# number of rings (size 3 to 8) (size 9 to 14) (size 15 to 20)
#    0.000    1.250    1.250    3.375    5.250    8.000 
#    0.000    0.000    0.000    0.000    0.000    0.000 
#    0.000    0.000    0.000    0.000    0.000    0.000 
#
# Total GULP energy -178926.907052 kJ/mol
# GULP energy per Si atom -5591.465845 kJ/mol
# Density = 2.017567 g / cm^3
# Si number density = 20.221694 Si / 1000 Ang^3
#
#
#
# Elastic Constant Matrix: (Units=GPa)
#
#
# Indices 1 2 3 4 5 6 
#
# 1 102.8367 54.0174 24.2828 0.0000 -11.3914 0.0000
# 2 54.0174 118.7073 43.1891 0.0000 -10.1171 0.0000
# 3 24.2828 43.1891 61.1819 0.0000 0.8107 0.0000
# 4 0.0000 0.0000 0.0000 32.1182 0.0000 6.6382
# 5 -11.3914 -10.1171 0.8107 0.0000 31.3055 0.0000
# 6 0.0000 0.0000 0.0000 6.6382 0.0000 11.5565
#
#
#
# Elastic Compliance Matrix: (Units=1/GPa)
#
#
# Indices 1 2 3 4 5 6 
#
# 1 0.013152 -0.005113 -0.001653 0.000000 0.003176 0.000000
# 2 -0.005113 0.013812 -0.007758 0.000000 0.002804 0.000000
# 3 -0.001653 -0.007758 0.022526 0.000000 -0.003692 0.000000
# 4 0.000000 0.000000 0.000000 0.035329 0.000000 -0.020294
# 5 0.003176 0.002804 -0.003692 0.000000 0.034101 0.000000
# 6 0.000000 0.000000 0.000000 -0.020294 0.000000 0.098188
#
#
# Mechanical properties :
#
#
# Convention : Reuss Voigt Hill
#
# Bulk Modulus (GPa) = 48.91693 58.41161 53.66427
# Shear Modulus (GPa) = 19.76515 25.74515 22.75515
#
# Velocity S-wave (km/s) = 3.12977 3.57199 3.35816
# Velocity P-wave (km/s) = 6.10765 6.77941 6.45228
#
# Compressibility (1/GPa) = 0.02044282
#
# Stress axis : x y z
#
# Youngs Moduli (GPa) = 76.03519 72.39970 44.39261
#
# Poissons Ratio (x) = 0.37015 0.07338
# Poissons Ratio (y) = 0.38874 0.34441
# Poissons Ratio (z) = 0.12568 0.56169
#
# Static dielectric constant tensor:
#      x y z
#    x 1.710430 0.000000 0.034860 
#    y 0.000000 1.697310 0.000000 
#    z 0.034860 0.000000 1.289050 
# 
# From -- ./inp_files/80712.got.cif
#   From: 2010.05.17/outbox.cif.g08.bks.cpg/sg12_41_cif.got.tgz:80712.got - 2010.06.03 13:09:07.
