data_PCOD9215815
_publ_section_title
;
Structure prediction by ZEFSAII (Michael W. Deem and Ramdas Pophale) SiO2 
 PCOD9215815
Probable space group: C 2/M
;
_chemical_formula_sum "Si O2"
_cell_formula_units_Z 48
_cell_length_a 19.285860
_cell_length_b 8.497326
_cell_length_c 24.964981
_cell_angle_alpha 90.000000
_cell_angle_beta 149.813703
_cell_angle_gamma 90.000000
_cell_volume 2057.118105
_symmetry_space_group_name_H-M "C 2/M"
_symmetry_group_IT_number 12
_symmetry_cell_setting 'monoclinic'
loop_
_space_group_symop_operation_xyz
x,y,z
-x,y,-z
-x,-y,-z
x,-y,z
1/2+x,1/2+y,z
1/2-x,1/2+y,-z
1/2-x,1/2-y,-z
1/2+x,1/2-y,z
loop_
_atom_site_type_symbol
_atom_site_label
_atom_site_fract_x
_atom_site_fract_y
_atom_site_fract_z
Si Si1 0.351922 0.315151 0.958928
Si Si2 0.593513 0.685868 0.393398
Si Si3 0.835145 0.817798 0.727895
Si Si4 0.345002 0.180477 0.843858
Si Si5 0.429174 0.812780 0.182041
Si Si6 0.934011 0.313888 0.512662
O O1 0.382648 0.500000 0.987136
O O2 0.300339 0.288963 0.863358
O O3 0.229544 0.264469 0.916325
O O4 0.491524 0.215829 0.054959
O O5 0.594653 0.500000 0.383573
O O6 0.750000 0.750000 0.500000
O O7 0.507414 0.770268 0.289479
O O8 0.530721 0.721204 0.410230
O O9 0.785895 0.721983 0.746550
O O10 0.729071 0.796003 0.608399
O O11 0.985370 0.769730 0.807718
O O12 0.832795 0.000000 0.741599
O O13 0.321441 0.000000 0.842423
O O14 0.433865 0.000000 0.177201
O O15 0.963896 0.500000 0.540570
O O16 0.000000 0.266565 0.500000
#
# Coordination Sequence:
#
# PCOD9215815 Si02
#       6
#     8   8   8   8   8   8
#     4  10  22  42  66  91 121 160 205 249 306 368
#     4  12  24  40  63  90 125 164 204 249 301 361
#     4  11  23  40  63  90 124 164 203 252 307 360
#     4  11  23  40  64  92 126 160 200 254 305 360
#     4  11  24  41  64  92 123 160 204 254 304 361
#     4  10  23  42  63  90 123 161 207 253 303 357
#
# _framework density 23.333615000000002
#
# number of rings (size 3 to 8) (size 9 to 14) (size 15 to 20)
#    0.000    1.167    1.667    5.500    2.333    4.333 
#    0.000    0.000    0.000    0.000    0.000    0.000 
#    0.000    0.000    0.000    0.000    0.000    0.000 
#
# Total GULP energy -134378.960089 kJ/mol
# GULP energy per Si atom -5599.123337 kJ/mol
# Density = 2.328051 g / cm^3
# Si number density = 23.333615 Si / 1000 Ang^3
#
#
#
# Elastic Constant Matrix: (Units=GPa)
#
#
# Indices 1 2 3 4 5 6 
#
# 1 86.4949 -14.6233 -0.2849 -0.0002 3.9978 0.0000
# 2 -14.6233 42.2998 -3.5562 0.0000 3.9754 0.0000
# 3 -0.2849 -3.5562 39.3338 0.0003 0.4121 0.0000
# 4 -0.0002 0.0000 0.0003 23.6635 0.0000 -4.2683
# 5 3.9978 3.9754 0.4121 0.0000 42.4464 0.0000
# 6 0.0000 0.0000 0.0000 -4.2683 0.0000 34.7378
#
#
#
# Elastic Compliance Matrix: (Units=1/GPa)
#
#
# Indices 1 2 3 4 5 6 
#
# 1 0.012394 0.004477 0.000511 0.000000 -0.001592 0.000000
# 2 0.004477 0.025656 0.002382 0.000000 -0.002848 0.000000
# 3 0.000511 0.002382 0.025648 0.000000 -0.000520 0.000000
# 4 0.000000 0.000000 0.000000 0.043217 0.000000 0.005310
# 5 -0.001592 -0.002848 -0.000520 0.000000 0.023981 0.000000
# 6 0.000000 0.000000 0.000000 0.005310 0.000000 0.029440
#
#
# Mechanical properties :
#
#
# Convention : Reuss Voigt Hill
#
# Bulk Modulus (GPa) = 12.74887 14.57773 13.66330
# Shear Modulus (GPa) = 29.11361 32.60906 30.86134
#
# Velocity S-wave (km/s) = 3.53613 3.74239 3.64072
# Velocity P-wave (km/s) = 4.70615 4.99350 4.85195
#
# Compressibility (1/GPa) = 0.07843834
#
# Stress axis : x y z
#
# Youngs Moduli (GPa) = 80.68717 38.97657 38.98949
#
# Poissons Ratio (x) = -0.17450 -0.01993
# Poissons Ratio (y) = -0.36124 -0.09287
# Poissons Ratio (z) = -0.04125 -0.09284
#
# Static dielectric constant tensor:
#      x y z
#    x 1.889740 0.000000 0.018120 
#    y 0.000000 1.777070 0.000000 
#    z 0.018120 0.000000 1.952240 
# 
# From -- ./inp_files/365572.got.cif
#   From: 2010.05.17/outbox.cif.g08.bks.cpg/sg12_183_cif.got.tgz:365572.got - 2010.06.03 13:09:07.
