data_PCOD9215647
_publ_section_title
;
Structure prediction by ZEFSAII (Michael W. Deem and Ramdas Pophale) SiO2 
 PCOD9215647
Probable space group: C 2/M
;
_chemical_formula_sum "Si O2"
_cell_formula_units_Z 42
_cell_length_a 18.209538
_cell_length_b 12.712563
_cell_length_c 9.570610
_cell_angle_alpha 90.000000
_cell_angle_beta 55.767301
_cell_angle_gamma 90.000000
_cell_volume 1831.685639
_symmetry_space_group_name_H-M "C 2/M"
_symmetry_group_IT_number 12
_symmetry_cell_setting 'monoclinic'
loop_
_space_group_symop_operation_xyz
x,y,z
-x,y,-z
-x,-y,-z
x,-y,z
1/2+x,1/2+y,z
1/2-x,1/2+y,-z
1/2-x,1/2-y,-z
1/2+x,1/2-y,z
loop_
_atom_site_type_symbol
_atom_site_label
_atom_site_fract_x
_atom_site_fract_y
_atom_site_fract_z
Si Si1 0.810514 0.377951 0.192537
Si Si2 0.099798 0.170725 0.923717
Si Si3 0.603183 0.120887 0.349278
Si Si4 0.862469 0.157978 0.804689
Si Si5 0.759943 0.376523 0.556165
Si Si6 0.500000 0.500000 0.500000
O O1 0.836501 0.500000 0.169034
O O2 0.889777 0.297228 0.082082
O O3 0.732859 0.364162 0.162228
O O4 0.769230 0.340047 0.386624
O O5 0.165165 0.135577 0.730915
O O6 0.133236 0.129269 0.036942
O O7 0.000000 0.138717 0.000000
O O8 0.500000 0.119054 0.500000
O O9 0.619182 0.216838 0.227189
O O10 0.662038 0.153699 0.420597
O O11 0.627593 0.000000 0.280620
O O12 0.935590 0.091838 0.640819
O O13 0.773776 0.500000 0.525103
#
# Coordination Sequence:
#
# PCOD9215647 Si02
#       6
#     8   8   8   8   8   2
#     4  11  25  47  74 100 142 192 237 296 366 429
#     4  12  29  44  69 105 147 187 239 299 352 426
#     4  10  22  41  71 103 138 187 241 289 351 433
#     4  12  26  45  72 104 142 190 235 296 361 420
#     4  10  24  44  71 103 140 186 238 295 361 426
#     4  12  28  44  76 108 142 180 246 294 366 438
#
# _framework density 22.929697000000001
#
# number of rings (size 3 to 8) (size 9 to 14) (size 15 to 20)
#    0.000    0.952    3.810    1.143    6.667    1.524 
#    0.000    0.000    0.000    0.000    0.000    0.000 
#    0.000    0.000    0.000    0.000    0.000    0.000 
#
# Total GULP energy -117181.024774 kJ/mol
# GULP energy per Si atom -5580.048799 kJ/mol
# Density = 2.287751 g / cm^3
# Si number density = 22.929697 Si / 1000 Ang^3
#
#
#
# Elastic Constant Matrix: (Units=GPa)
#
#
# Indices 1 2 3 4 5 6 
#
# 1 107.0776 -14.4571 50.1401 0.0000 5.8593 0.0000
# 2 -14.4571 89.3993 5.4997 0.0000 11.3121 0.0000
# 3 50.1401 5.4997 81.6304 0.0000 13.5918 0.0000
# 4 0.0000 0.0000 0.0000 11.6881 0.0000 -7.8531
# 5 5.8593 11.3121 13.5918 0.0000 29.5562 0.0000
# 6 0.0000 0.0000 0.0000 -7.8531 0.0000 29.2238
#
#
#
# Elastic Compliance Matrix: (Units=1/GPa)
#
#
# Indices 1 2 3 4 5 6 
#
# 1 0.013755 0.002731 -0.008668 0.000000 0.000214 0.000000
# 2 0.002731 0.012297 -0.001767 0.000000 -0.004435 0.000000
# 3 -0.008668 -0.001767 0.018729 0.000000 -0.006218 0.000000
# 4 0.000000 0.000000 0.000000 0.104408 0.000000 0.028057
# 5 0.000214 -0.004435 -0.006218 0.000000 0.038348 0.000000
# 6 0.000000 0.000000 0.000000 0.028057 0.000000 0.041758
#
#
# Mechanical properties :
#
#
# Convention : Reuss Voigt Hill
#
# Bulk Modulus (GPa) = 34.04696 40.05252 37.04974
# Shear Modulus (GPa) = 19.64666 29.88861 24.76764
#
# Velocity S-wave (km/s) = 2.93033 3.61430 3.29014
# Velocity P-wave (km/s) = 5.13125 5.90957 5.53411
#
# Compressibility (1/GPa) = 0.02937120
#
# Stress axis : x y z
#
# Youngs Moduli (GPa) = 72.70067 81.31894 53.39268
#
# Poissons Ratio (x) = -0.22204 0.46283
# Poissons Ratio (y) = -0.19851 0.09436
# Poissons Ratio (z) = 0.63020 0.14371
#
# Static dielectric constant tensor:
#      x y z
#    x 1.801520 0.000000 0.058600 
#    y 0.000000 1.950820 0.000000 
#    z 0.058600 0.000000 1.874510 
# 
# From -- ./inp_files/73560.got.cif
#   From: 2010.05.17/outbox.cif.g08.bks.cpg/sg12_37_cif.got.tgz:73560.got - 2010.06.03 13:09:07.
