data_PCOD9215119
_publ_section_title
;
Structure prediction by ZEFSAII (Michael W. Deem and Ramdas Pophale) SiO2 
 PCOD9215119
Probable space group: C 2/M
;
_chemical_formula_sum "Si O2"
_cell_formula_units_Z 64
_cell_length_a 32.108925
_cell_length_b 9.134801
_cell_length_c 14.937578
_cell_angle_alpha 90.000000
_cell_angle_beta 49.037162
_cell_angle_gamma 90.000000
_cell_volume 3308.488341
_symmetry_space_group_name_H-M "C 2/M"
_symmetry_group_IT_number 12
_symmetry_cell_setting 'monoclinic'
loop_
_space_group_symop_operation_xyz
x,y,z
-x,y,-z
-x,-y,-z
x,-y,z
1/2+x,1/2+y,z
1/2-x,1/2+y,-z
1/2-x,1/2-y,-z
1/2+x,1/2-y,z
loop_
_atom_site_type_symbol
_atom_site_label
_atom_site_fract_x
_atom_site_fract_y
_atom_site_fract_z
Si Si1 0.562298 0.829389 0.258095
Si Si2 0.742227 0.677565 0.913288
Si Si3 0.632081 0.175571 0.991141
Si Si4 0.138642 0.671213 0.318767
Si Si5 0.354100 0.325958 0.206241
Si Si6 0.550160 0.672531 0.567935
Si Si7 0.373656 0.325876 0.384731
Si Si8 0.266301 0.173507 0.570076
O O1 0.613005 0.814559 0.255317
O O2 0.509385 0.740691 0.364121
O O3 0.546626 0.000000 0.279205
O O4 0.584300 0.787120 0.129457
O O5 0.738908 0.500000 0.924885
O O6 0.687451 0.744091 0.946903
O O7 0.797208 0.712678 0.778007
O O8 0.750000 0.750000 0.000000
O O9 0.619316 0.233352 0.910023
O O10 0.639879 0.000000 0.981696
O O11 0.135853 0.500000 0.348691
O O12 0.097604 0.761091 0.438756
O O13 0.364145 0.500000 0.181289
O O14 0.372028 0.284061 0.282185
O O15 0.287632 0.302978 0.293801
O O16 0.547949 0.500000 0.557122
O O17 0.569987 0.701493 0.642144
O O18 0.361920 0.500000 0.403832
O O19 0.325002 0.244330 0.507366
O O20 0.250000 0.250000 0.500000
O O21 0.272494 0.000000 0.550213
#
# Coordination Sequence:
#
# PCOD9215119 Si02
#       8
#     8   8   8   8   8   8   8   8
#     4  10  22  43  62  81 115 158 196 237 295 357
#     4  11  22  39  62  90 124 159 195 238 293 353
#     4  11  23  39  60  88 120 157 200 244 291 349
#     4  10  22  41  62  85 119 159 193 233 294 360
#     4   9  19  36  56  81 114 155 195 236 291 354
#     4  11  24  39  60  91 117 148 199 253 294 340
#     4   9  20  38  55  79 118 153 191 243 295 345
#     4   9  17  30  51  77 109 147 187 229 283 343
#
# _framework density 19.344182
#
# number of rings (size 3 to 8) (size 9 to 14) (size 15 to 20)
#    0.000    2.000    1.250    2.625    1.750    7.500 
#    0.000    0.625    0.000    3.750    0.000    0.000 
#    0.000    0.000    0.000    0.000    0.000    0.000 
#
# Total GULP energy -178629.349368 kJ/mol
# GULP energy per Si atom -5582.167168 kJ/mol
# Density = 1.930015 g / cm^3
# Si number density = 19.344182 Si / 1000 Ang^3
#
#
#
# Elastic Constant Matrix: (Units=GPa)
#
#
# Indices 1 2 3 4 5 6 
#
# 1 21.7256 13.6106 12.2795 0.0000 -4.2185 0.0000
# 2 13.6106 37.5276 41.5793 0.0000 -0.7831 -0.0001
# 3 12.2795 41.5793 99.0254 0.0000 3.0824 0.0000
# 4 0.0000 0.0000 0.0000 32.1789 0.0000 2.7689
# 5 -4.2185 -0.7831 3.0824 0.0000 31.0617 0.0000
# 6 0.0000 -0.0001 0.0000 2.7689 0.0000 23.4575
#
#
#
# Elastic Compliance Matrix: (Units=1/GPa)
#
#
# Indices 1 2 3 4 5 6 
#
# 1 0.061767 -0.025247 0.002708 0.000000 0.007483 0.000000
# 2 -0.025247 0.060496 -0.022280 0.000000 0.000307 0.000000
# 3 0.002708 -0.022280 0.019183 0.000000 -0.002098 0.000000
# 4 0.000000 0.000000 0.000000 0.031395 0.000000 -0.003706
# 5 0.007483 0.000307 -0.002098 0.000000 0.033426 0.000000
# 6 0.000000 0.000000 0.000000 -0.003706 0.000000 0.043068
#
#
# Mechanical properties :
#
#
# Convention : Reuss Voigt Hill
#
# Bulk Modulus (GPa) = 19.30160 32.57970 25.94065
# Shear Modulus (GPa) = 14.03542 23.39358 18.71450
#
# Velocity S-wave (km/s) = 2.69655 3.48132 3.11376
# Velocity P-wave (km/s) = 4.43788 5.74788 5.13483
#
# Compressibility (1/GPa) = 0.05180919
#
# Stress axis : x y z
#
# Youngs Moduli (GPa) = 16.18978 16.53011 52.12966
#
# Poissons Ratio (x) = 0.41733 -0.14119
# Poissons Ratio (y) = 0.40874 1.16145
# Poissons Ratio (z) = -0.04385 0.36829
#
# Static dielectric constant tensor:
#      x y z
#    x 1.695350 0.000000 0.024340 
#    y 0.000000 1.645170 0.000000 
#    z 0.024340 0.000000 1.670630 
# 
# From -- ./inp_files/249673.got.cif
#   From: 2010.05.17/outbox.cif.g08.bks.cpg/sg12_125_cif.got.tgz:249673.got - 2010.06.03 13:09:07.
