data_PCOD9215934
_publ_section_title
;
Structure prediction by ZEFSAII (Michael W. Deem and Ramdas Pophale) SiO2 
 PCOD9215934
Probable space group: C 2/M
;
_chemical_formula_sum "Si O2"
_cell_formula_units_Z 46
_cell_length_a 20.941611
_cell_length_b 17.741931
_cell_length_c 16.640434
_cell_angle_alpha 90.000000
_cell_angle_beta 19.780160
_cell_angle_gamma 90.000000
_cell_volume 2092.288189
_symmetry_space_group_name_H-M "C 2/M"
_symmetry_group_IT_number 12
_symmetry_cell_setting 'monoclinic'
loop_
_space_group_symop_operation_xyz
x,y,z
-x,y,-z
-x,-y,-z
x,-y,z
1/2+x,1/2+y,z
1/2-x,1/2+y,-z
1/2-x,1/2-y,-z
1/2+x,1/2-y,z
loop_
_atom_site_type_symbol
_atom_site_label
_atom_site_fract_x
_atom_site_fract_y
_atom_site_fract_z
Si Si1 0.532665 0.411860 0.261449
Si Si2 0.022323 0.085399 0.087212
Si Si3 0.500000 0.770802 0.500000
Si Si4 0.762997 0.638173 0.136570
Si Si5 0.249887 0.332508 0.318908
Si Si6 0.500000 0.500000 0.500000
Si Si7 0.682739 0.195231 0.654051
O O1 0.509577 0.500000 0.315078
O O2 0.686851 0.375012 0.136144
O O3 0.340053 0.365269 0.492678
O O4 0.577346 0.408686 0.114281
O O5 0.145144 0.137389 0.884561
O O6 0.051756 0.000000 0.027803
O O7 0.806071 0.108860 0.322727
O O8 0.671621 0.714574 0.278944
O O9 0.542385 0.818818 0.529904
O O10 0.666397 0.567523 0.297107
O O11 0.986472 0.652338 0.872415
O O12 0.325051 0.254124 0.263989
O O13 0.750000 0.250000 0.500000
#
# Coordination Sequence:
#
# PCOD9215934 Si02
#       7
#     8   8   4   8   8   2   8
#     4  11  24  45  70 107 145 190 240 296 370 437
#     4  10  22  42  68  94 137 184 231 293 354 436
#     4  11  24  39  67 102 135 182 234 304 357 430
#     4  11  24  45  70 100 149 184 246 299 361 445
#     4  11  21  42  65  99 136 180 241 288 363 435
#     4  10  24  48  70 108 142 206 240 300 368 436
#     4  12  26  45  72 108 143 193 241 306 376 436
#
# _framework density 21.985499999999998
#
# number of rings (size 3 to 8) (size 9 to 14) (size 15 to 20)
#    0.000    1.043    4.348    3.130    1.217    2.087 
#    0.000    2.609    0.000    0.000    0.000    0.000 
#    0.000    0.000    0.000    0.000    0.000    0.000 
#
# Total GULP energy -128128.865332 kJ/mol
# GULP energy per Si atom -5570.820232 kJ/mol
# Density = 2.193546 g / cm^3
# Si number density = 21.985500 Si / 1000 Ang^3
#
#
#
# Elastic Constant Matrix: (Units=GPa)
#
#
# Indices 1 2 3 4 5 6 
#
# 1 122.9505 56.7419 37.8210 -0.0095 -24.5627 0.0042
# 2 56.7419 127.8538 61.7389 -0.0096 -8.6058 0.0027
# 3 37.8210 61.7389 100.3124 -0.0101 -21.9084 0.0121
# 4 -0.0095 -0.0096 -0.0101 22.2892 0.0122 3.2683
# 5 -24.5627 -8.6058 -21.9084 0.0122 35.1744 -0.0070
# 6 0.0042 0.0027 0.0121 3.2683 -0.0070 44.3901
#
#
#
# Elastic Compliance Matrix: (Units=1/GPa)
#
#
# Indices 1 2 3 4 5 6 
#
# 1 0.011719 -0.004747 0.000043 -0.000001 0.007049 0.000000
# 2 -0.004747 0.013150 -0.007321 0.000003 -0.004657 0.000001
# 3 0.000043 -0.007321 0.016290 0.000000 0.008385 -0.000003
# 4 -0.000001 0.000003 0.000000 0.045354 -0.000016 -0.003339
# 5 0.007049 -0.004657 0.008385 -0.000016 0.037435 0.000004
# 6 0.000000 0.000001 -0.000003 -0.003339 0.000004 0.022773
#
#
# Mechanical properties :
#
#
# Convention : Reuss Voigt Hill
#
# Bulk Modulus (GPa) = 58.45081 73.74670 66.09876
# Shear Modulus (GPa) = 28.33270 33.35840 30.84555
#
# Velocity S-wave (km/s) = 3.59374 3.89947 3.74972
# Velocity P-wave (km/s) = 6.62297 7.34102 6.99122
#
# Compressibility (1/GPa) = 0.01710840
#
# Stress axis : x y z
#
# Youngs Moduli (GPa) = 85.32964 76.04684 61.38890
#
# Poissons Ratio (x) = 0.36101 -0.00262
# Poissons Ratio (y) = 0.40508 0.44940
# Poissons Ratio (z) = -0.00364 0.55671
#
# Static dielectric constant tensor:
#      x y z
#    x 2.160300 0.000070 0.195420 
#    y 0.000070 1.785240 0.000070 
#    z 0.195420 0.000070 2.028530 
# 
# From -- ./inp_files/285381.got.cif
#   From: 2010.05.17/outbox.cif.g08.bks.cpg/sg12_143_cif.got.tgz:285381.got - 2010.06.03 13:09:07.
