data_PCOD9215839
_publ_section_title
;
Structure prediction by ZEFSAII (Michael W. Deem and Ramdas Pophale) SiO2 
 PCOD9215839
Probable space group: C 2/M
;
_chemical_formula_sum "Si O2"
_cell_formula_units_Z 64
_cell_length_a 9.581262
_cell_length_b 15.557663
_cell_length_c 33.029378
_cell_angle_alpha 90.000000
_cell_angle_beta 137.165936
_cell_angle_gamma 90.000000
_cell_volume 3347.326542
_symmetry_space_group_name_H-M "C 2/M"
_symmetry_group_IT_number 12
_symmetry_cell_setting 'monoclinic'
loop_
_space_group_symop_operation_xyz
x,y,z
-x,y,-z
-x,-y,-z
x,-y,z
1/2+x,1/2+y,z
1/2-x,1/2+y,-z
1/2-x,1/2-y,-z
1/2+x,1/2-y,z
loop_
_atom_site_type_symbol
_atom_site_label
_atom_site_fract_x
_atom_site_fract_y
_atom_site_fract_z
Si Si1 0.510817 0.098735 0.621541
Si Si2 0.683377 0.660494 0.762607
Si Si3 0.859509 0.902125 0.628680
Si Si4 0.238675 0.744682 0.545305
Si Si5 0.060812 0.095889 0.135667
Si Si6 0.862220 0.598395 0.125175
Si Si7 0.665263 0.660442 0.243832
Si Si8 0.231988 0.260388 0.043760
O O1 0.653687 0.110710 0.611990
O O2 0.328641 0.167052 0.582331
O O3 0.661311 0.119460 0.690841
O O4 0.443177 0.000000 0.608474
O O5 0.546705 0.612523 0.699716
O O6 0.536461 0.672293 0.770676
O O7 0.753483 0.750075 0.757382
O O8 0.893613 0.612492 0.818676
O O9 0.858825 0.832758 0.592829
O O10 0.861844 0.000000 0.614279
O O11 0.250000 0.750000 0.500000
O O12 0.000000 0.731269 0.500000
O O13 0.249888 0.110143 0.144796
O O14 0.123158 0.102761 0.195710
O O15 0.894686 0.169653 0.093130
O O16 0.980450 0.000000 0.110040
O O17 0.821453 0.500000 0.103253
O O18 0.773953 0.671181 0.076445
O O19 0.250000 0.250000 0.000000
O O20 0.000000 0.290034 0.000000
#
# Coordination Sequence:
#
# PCOD9215839 Si02
#       8
#     8   8   8   8   8   8   8   8
#     4  10  22  42  66  94 129 167 210 264 321 378
#     4  11  22  39  69  99 129 167 211 264 326 388
#     4  10  22  42  67  94 126 169 214 259 317 388
#     4  12  24  41  65  92 126 168 218 265 313 374
#     4  11  25  45  68  99 133 168 212 268 326 380
#     4  11  25  45  69  98 132 170 213 266 325 384
#     4  11  22  39  69  98 130 168 210 262 330 385
#     4  12  26  45  67  94 128 172 224 264 310 375
#
# _framework density 19.119734999999999
#
# number of rings (size 3 to 8) (size 9 to 14) (size 15 to 20)
#    0.000    1.000    5.000    1.500    1.750    3.500 
#    2.250    0.000    0.000    0.000    0.000    0.000 
#    0.000    0.000    0.000    0.000    0.000    0.000 
#
# Total GULP energy -178732.702665 kJ/mol
# GULP energy per Si atom -5585.396958 kJ/mol
# Density = 1.907622 g / cm^3
# Si number density = 19.119735 Si / 1000 Ang^3
#
#
#
# Elastic Constant Matrix: (Units=GPa)
#
#
# Indices 1 2 3 4 5 6 
#
# 1 83.9384 16.8557 32.6468 0.0000 -19.6972 0.0000
# 2 16.8557 126.9814 36.1196 0.0000 -15.3014 0.0000
# 3 32.6468 36.1196 92.8734 0.0000 -15.1784 0.0000
# 4 0.0000 0.0000 0.0000 -9.5640 0.0000 -2.4521
# 5 -19.6972 -15.3014 -15.1784 0.0000 37.5382 0.0000
# 6 0.0000 0.0000 0.0000 -2.4521 0.0000 26.0383
#
#
#
# Elastic Compliance Matrix: (Units=1/GPa)
#
#
# Indices 1 2 3 4 5 6 
#
# 1 0.015020 -0.000042 -0.004260 0.000000 0.006142 0.000000
# 2 -0.000042 0.009057 -0.003114 0.000000 0.002411 0.000000
# 3 -0.004260 -0.003114 0.013816 0.000000 0.002082 0.000000
# 4 0.000000 0.000000 0.000000 -0.102093 0.000000 -0.009614
# 5 0.006142 0.002411 0.002082 0.000000 0.031687 0.000000
# 6 0.000000 0.000000 0.000000 -0.009614 0.000000 0.037500
#
#
# Mechanical properties :
#
#
# Convention : Reuss Voigt Hill
#
# Bulk Modulus (GPa) = 43.36109 52.78195 48.07152
# Shear Modulus (GPa) = 181.79309 25.34723 103.57016
#
# Velocity S-wave (km/s) = 9.76155 3.64498 7.36796
# Velocity P-wave (km/s) = 12.23840 6.73650 9.87823
#
# Compressibility (1/GPa) = 0.02306215
#
# Stress axis : x y z
#
# Youngs Moduli (GPa) = 66.57816 110.41305 72.38045
#
# Poissons Ratio (x) = 0.00464 0.30832
# Poissons Ratio (y) = 0.00280 0.22536
# Poissons Ratio (z) = 0.28360 0.34378
#
# Static dielectric constant tensor:
#      x y z
#    x 1.632010 0.000000 -0.006130 
#    y 0.000000 1.670490 0.000000 
#    z -0.006130 0.000000 1.670430 
# 
# From -- ./inp_files/372533.got.cif
#   From: 2010.05.17/outbox.cif.g08.bks.cpg/sg12_187_cif.got.tgz:372533.got - 2010.06.03 13:09:07.
