data_PCOD9215183
_publ_section_title
;
Structure prediction by ZEFSAII (Michael W. Deem and Ramdas Pophale) SiO2 
 PCOD9215183
Probable space group: C 2/M
;
_chemical_formula_sum "Si O2"
_cell_formula_units_Z 48
_cell_length_a 16.611437
_cell_length_b 13.872130
_cell_length_c 10.717895
_cell_angle_alpha 90.000000
_cell_angle_beta 71.493267
_cell_angle_gamma 90.000000
_cell_volume 2342.067221
_symmetry_space_group_name_H-M "C 2/M"
_symmetry_group_IT_number 12
_symmetry_cell_setting 'monoclinic'
loop_
_space_group_symop_operation_xyz
x,y,z
-x,y,-z
-x,-y,-z
x,-y,z
1/2+x,1/2+y,z
1/2-x,1/2+y,-z
1/2-x,1/2-y,-z
1/2+x,1/2-y,z
loop_
_atom_site_type_symbol
_atom_site_label
_atom_site_fract_x
_atom_site_fract_y
_atom_site_fract_z
Si Si1 0.062574 0.884311 0.079559
Si Si2 0.751438 0.224458 0.642833
Si Si3 0.424782 0.616651 0.637627
Si Si4 0.735208 0.615671 0.852493
Si Si5 0.592333 0.116584 0.099586
Si Si6 0.591816 0.884702 0.810804
O O1 0.051142 0.856863 0.230430
O O2 0.051627 0.000000 0.085834
O O3 0.158161 0.864935 0.985479
O O4 0.000000 0.847912 0.000000
O O5 0.750000 0.250000 0.500000
O O6 0.839616 0.174627 0.641938
O O7 0.729069 0.320015 0.733026
O O8 0.673659 0.152684 0.702927
O O9 0.500000 0.635395 0.500000
O O10 0.408471 0.500000 0.643551
O O11 0.734971 0.500000 0.828014
O O12 0.824395 0.645997 0.869186
O O13 0.500180 0.147813 0.193505
O O14 0.592771 0.000000 0.101637
O O15 0.598223 0.144888 0.952443
O O16 0.591485 0.000000 0.808851
#
# Coordination Sequence:
#
# PCOD9215183 Si02
#       6
#     8   8   8   8   8   8
#     4   9  19  38  67  98 124 162 214 260 315 384
#     4  12  27  40  57  90 125 170 218 255 308 380
#     4  10  23  43  68  95 131 171 206 259 323 381
#     4  10  22  41  63  88 124 160 207 268 315 360
#     4   8  16  35  65  94 116 148 192 248 319 380
#     4   9  18  37  64  91 120 150 192 252 314 378
#
# _framework density 20.494713999999998
#
# number of rings (size 3 to 8) (size 9 to 14) (size 15 to 20)
#    0.000    2.333    0.000    2.500    2.333    8.000 
#    3.000    0.000    0.000    3.500    0.000    0.000 
#    0.000    0.000    0.000    0.000    0.000    0.000 
#
# Total GULP energy -134024.567553 kJ/mol
# GULP energy per Si atom -5584.356981 kJ/mol
# Density = 2.044807 g / cm^3
# Si number density = 20.494714 Si / 1000 Ang^3
#
#
#
# Elastic Constant Matrix: (Units=GPa)
#
#
# Indices 1 2 3 4 5 6 
#
# 1 129.5479 25.1980 80.6161 0.0000 0.5213 0.0000
# 2 25.1980 92.5328 41.1917 0.0000 3.3602 0.0000
# 3 80.6161 41.1917 165.2633 0.0000 2.3923 0.0000
# 4 0.0000 0.0000 0.0000 -264.1801 0.0000 710.5060
# 5 0.5213 3.3602 2.3923 0.0000 33.5476 0.0000
# 6 0.0000 0.0000 0.0000 710.5060 0.0000-1685.6443
#
#
#
# Elastic Compliance Matrix: (Units=1/GPa)
#
#
# Indices 1 2 3 4 5 6 
#
# 1 0.011125 -0.000699 -0.005257 0.000000 0.000272 0.000000
# 2 -0.000699 0.012233 -0.002693 0.000000 -0.001022 0.000000
# 3 -0.005257 -0.002693 0.009291 0.000000 -0.000311 0.000000
# 4 0.000000 0.000000 0.000000 0.028328 0.000000 0.011940
# 5 0.000272 -0.001022 -0.000311 0.000000 0.029929 0.000000
# 6 0.000000 0.000000 0.000000 0.011940 0.000000 0.004440
#
#
# Mechanical properties :
#
#
# Convention : Reuss Voigt Hill
#
# Bulk Modulus (GPa) = 65.14135 75.70620 70.42378
# Shear Modulus (GPa) = 42.45890 -367.23281 -162.38695
#
# Velocity S-wave (km/s) = 4.55653 -13.40049 -8.91098
# Velocity P-wave (km/s) = 7.71596 14.22713 8.45208
#
# Compressibility (1/GPa) = 0.01535123
#
# Stress axis : x y z
#
# Youngs Moduli (GPa) = 89.88632 81.74296 107.63247
#
# Poissons Ratio (x) = 0.05717 0.56577
# Poissons Ratio (y) = 0.06287 0.28987
# Poissons Ratio (z) = 0.47249 0.22015
#
# Static dielectric constant tensor:
#      x y z
#    x 1.727230 0.000000 -0.007270 
#    y 0.000000 1.762130 0.000000 
#    z -0.007270 0.000000 1.659850 
# 
# From -- ./inp_files/143533.got.cif
#   From: 2010.05.17/outbox.cif.g08.bks.cpg/sg12_72_cif.got.tgz:143533.got - 2010.06.03 13:09:07.
