data_PCOD9215526
_publ_section_title
;
Structure prediction by ZEFSAII (Michael W. Deem and Ramdas Pophale) SiO2 
 PCOD9215526
Probable space group: C 2/M
;
_chemical_formula_sum "Si O2"
_cell_formula_units_Z 40
_cell_length_a 19.285258
_cell_length_b 13.305413
_cell_length_c 16.168198
_cell_angle_alpha 90.000000
_cell_angle_beta 153.691829
_cell_angle_gamma 90.000000
_cell_volume 1838.714234
_symmetry_space_group_name_H-M "C 2/M"
_symmetry_group_IT_number 12
_symmetry_cell_setting 'monoclinic'
loop_
_space_group_symop_operation_xyz
x,y,z
-x,y,-z
-x,-y,-z
x,-y,z
1/2+x,1/2+y,z
1/2-x,1/2+y,-z
1/2-x,1/2-y,-z
1/2+x,1/2-y,z
loop_
_atom_site_type_symbol
_atom_site_label
_atom_site_fract_x
_atom_site_fract_y
_atom_site_fract_z
Si Si1 0.284001 0.764493 0.659253
Si Si2 0.567333 0.614596 0.930169
Si Si3 0.329298 0.766175 0.288669
Si Si4 0.919675 0.615608 0.661531
Si Si5 0.787940 0.884754 0.094965
O O1 0.248201 0.788704 0.715311
O O2 0.144692 0.696688 0.472243
O O3 0.323080 0.857616 0.641596
O O4 0.434688 0.692320 0.813942
O O5 0.517960 0.500000 0.889945
O O6 0.721204 0.640953 0.147054
O O7 0.613223 0.628836 0.883098
O O8 0.500000 0.797894 0.500000
O O9 0.332616 0.691615 0.214459
O O10 0.892652 0.500000 0.607564
O O11 0.104326 0.627883 0.875946
O O12 0.809379 0.000000 0.145376
#
# Coordination Sequence:
#
# PCOD9215526 Si02
#       5
#     8   8   8   8   8
#     4  11  24  40  65 100 127 168 207 265 320 370
#     4  11  24  43  68  94 127 169 214 259 313 379
#     4  12  26  41  63  95 133 167 209 264 318 375
#     4  10  22  41  67  94 126 167 213 258 316 381
#     4  10  23  44  68  93 126 170 212 258 317 379
#
# _framework density 21.754332999999999
#
# number of rings (size 3 to 8) (size 9 to 14) (size 15 to 20)
#    0.000    1.200    2.000    3.000    5.600    4.000 
#    0.000    2.000    0.000    0.000    0.000    0.000 
#    0.000    0.000    0.000    0.000    0.000    0.000 
#
# Total GULP energy -111987.003947 kJ/mol
# GULP energy per Si atom -5599.350197 kJ/mol
# Density = 2.170482 g / cm^3
# Si number density = 21.754333 Si / 1000 Ang^3
#
#
#
# Elastic Constant Matrix: (Units=GPa)
#
#
# Indices 1 2 3 4 5 6 
#
# 1 71.8324 -17.9956 14.0716 0.0001 4.3001 0.0001
# 2 -17.9956 52.2760 14.3557 0.0002 9.1241 0.0001
# 3 14.0716 14.3557 105.0332 0.0002 2.2282 0.0001
# 4 0.0001 0.0002 0.0002 15.1080 0.0001 5.4008
# 5 4.3001 9.1241 2.2282 0.0001 21.0707 0.0001
# 6 0.0001 0.0001 0.0001 5.4008 0.0001 19.2403
#
#
#
# Elastic Compliance Matrix: (Units=1/GPa)
#
#
# Indices 1 2 3 4 5 6 
#
# 1 0.016898 0.007829 -0.003196 0.000000 -0.006501 0.000000
# 2 0.007829 0.025080 -0.004222 0.000000 -0.012012 0.000000
# 3 -0.003196 -0.004222 0.010497 0.000000 0.001370 0.000000
# 4 0.000000 0.000000 0.000000 0.073573 0.000000 -0.020652
# 5 -0.006501 -0.012012 0.001370 0.000000 0.053842 0.000000
# 6 0.000000 0.000000 0.000000 -0.020652 0.000000 0.057771
#
#
# Mechanical properties :
#
#
# Convention : Reuss Voigt Hill
#
# Bulk Modulus (GPa) = 18.76249 27.77834 23.27041
# Shear Modulus (GPa) = 19.63824 25.66445 22.65135
#
# Velocity S-wave (km/s) = 3.00780 3.43846 3.23032
# Velocity P-wave (km/s) = 4.55038 5.34423 4.96320
#
# Compressibility (1/GPa) = 0.05329784
#
# Stress axis : x y z
#
# Youngs Moduli (GPa) = 59.17869 39.87179 95.26561
#
# Poissons Ratio (x) = -0.31217 0.30447
# Poissons Ratio (y) = -0.46333 0.40221
# Poissons Ratio (z) = 0.18914 0.16834
#
# Static dielectric constant tensor:
#      x y z
#    x 1.805920 0.000000 0.016440 
#    y 0.000000 1.754540 0.000000 
#    z 0.016440 0.000000 1.804020 
# 
# From -- ./inp_files/72831.got.cif
#   From: 2010.05.17/outbox.cif.g08.bks.cpg/sg12_37_cif.got.tgz:72831.got - 2010.06.03 13:09:07.
