data_PCOD9215782
_publ_section_title
;
Structure prediction by ZEFSAII (Michael W. Deem and Ramdas Pophale) SiO2 
 PCOD9215782
Probable space group: C 2/M
;
_chemical_formula_sum "Si O2"
_cell_formula_units_Z 56
_cell_length_a 20.450804
_cell_length_b 8.499581
_cell_length_c 19.831936
_cell_angle_alpha 90.000000
_cell_angle_beta 123.037629
_cell_angle_gamma 90.000000
_cell_volume 2889.875006
_symmetry_space_group_name_H-M "C 2/M"
_symmetry_group_IT_number 12
_symmetry_cell_setting 'monoclinic'
loop_
_space_group_symop_operation_xyz
x,y,z
-x,y,-z
-x,-y,-z
x,-y,z
1/2+x,1/2+y,z
1/2-x,1/2+y,-z
1/2-x,1/2-y,-z
1/2+x,1/2-y,z
loop_
_atom_site_type_symbol
_atom_site_label
_atom_site_fract_x
_atom_site_fract_y
_atom_site_fract_z
Si Si1 0.285576 0.314723 0.304374
Si Si2 0.616330 0.309451 0.248889
Si Si3 0.484549 0.691655 0.067315
Si Si4 0.086547 0.686827 0.522593
Si Si5 0.116502 0.314410 0.759902
Si Si6 0.835027 0.189274 0.066883
Si Si7 0.946064 0.812876 0.638928
O O1 0.285841 0.500000 0.291729
O O2 0.200106 0.258438 0.277468
O O3 0.347463 0.273375 0.397627
O O4 0.315724 0.226579 0.254668
O O5 0.619878 0.500000 0.249289
O O6 0.551208 0.259139 0.157772
O O7 0.589955 0.263885 0.309452
O O8 0.486050 0.500000 0.067036
O O9 0.400326 0.737664 0.048969
O O10 0.500000 0.746871 0.000000
O O11 0.095019 0.500000 0.538120
O O12 0.090503 0.727657 0.446027
O O13 0.000000 0.732517 0.500000
O O14 0.101655 0.500000 0.751039
O O15 0.139453 0.257090 0.846830
O O16 0.037688 0.227438 0.692885
O O17 0.834783 0.000000 0.070499
O O18 0.750000 0.250000 0.000000
O O19 0.936130 0.000000 0.625795
#
# Coordination Sequence:
#
# PCOD9215782 Si02
#       7
#     8   8   8   8   8   8   8
#     4  12  26  42  64  95 129 166 211 267 320 377
#     4  10  22  42  65  92 129 170 212 258 316 383
#     4   9  19  38  64  92 125 168 210 252 309 374
#     4  11  23  40  64  95 127 166 213 261 315 381
#     4  12  24  41  65  92 126 172 216 264 317 376
#     4  11  23  41  64  97 131 167 213 265 318 377
#     4  11  22  40  67  95 126 168 211 263 319 377
#
# _framework density 19.378001000000001
#
# number of rings (size 3 to 8) (size 9 to 14) (size 15 to 20)
#    0.000    1.143    2.857    3.857    2.000    2.286 
#    0.000    0.000    0.000    2.143    0.000    0.000 
#    0.000    0.000    0.000    0.000    0.000    0.000 
#
# Total GULP energy -156607.094684 kJ/mol
# GULP energy per Si atom -5593.110524 kJ/mol
# Density = 1.933390 g / cm^3
# Si number density = 19.378001 Si / 1000 Ang^3
#
#
#
# Elastic Constant Matrix: (Units=GPa)
#
#
# Indices 1 2 3 4 5 6 
#
# 1 137.0295 5.4430 48.2470 0.0000 -5.2094 0.0000
# 2 5.4430 13.2245 -2.4479 0.0000 -2.9223 0.0000
# 3 48.2470 -2.4479 99.6831 0.0000 -16.5462 0.0000
# 4 0.0000 0.0000 0.0000 23.0275 0.0000 5.9978
# 5 -5.2094 -2.9223 -16.5462 0.0000 37.4658 0.0000
# 6 0.0000 0.0000 0.0000 5.9978 0.0000 27.0758
#
#
#
# Elastic Compliance Matrix: (Units=1/GPa)
#
#
# Indices 1 2 3 4 5 6 
#
# 1 0.009112 -0.004892 -0.004730 0.000000 -0.001204 0.000000
# 2 -0.004892 0.080476 0.005690 0.000000 0.008110 0.000000
# 3 -0.004730 0.005690 0.013408 0.000000 0.005708 0.000000
# 4 0.000000 0.000000 0.000000 0.046085 0.000000 -0.010209
# 5 -0.001204 0.008110 0.005708 0.000000 0.029677 0.000000
# 6 0.000000 0.000000 0.000000 -0.010209 0.000000 0.039195
#
#
# Mechanical properties :
#
#
# Convention : Reuss Voigt Hill
#
# Bulk Modulus (GPa) = 10.51169 39.15794 24.83481
# Shear Modulus (GPa) = 19.41546 30.76015 25.08781
#
# Velocity S-wave (km/s) = 3.16877 3.98851 3.60203
# Velocity P-wave (km/s) = 4.33871 6.43912 5.49029
#
# Compressibility (1/GPa) = 0.09513218
#
# Stress axis : x y z
#
# Youngs Moduli (GPa) = 109.74985 12.42612 74.58095
#
# Poissons Ratio (x) = 0.06078 0.35277
# Poissons Ratio (y) = 0.53686 -0.42436
# Poissons Ratio (z) = 0.51911 -0.07070
#
# Static dielectric constant tensor:
#      x y z
#    x 1.651890 0.000000 -0.012920 
#    y 0.000000 1.653260 0.000000 
#    z -0.012920 0.000000 1.649110 
# 
# From -- ./inp_files/281618.got.cif
#   From: 2010.05.17/outbox.cif.g08.bks.cpg/sg12_141_cif.got.tgz:281618.got - 2010.06.03 13:09:07.
