data_PCOD9215552
_publ_section_title
;
Structure prediction by ZEFSAII (Michael W. Deem and Ramdas Pophale) SiO2 
 PCOD9215552
Probable space group: C 2/M
;
_chemical_formula_sum "Si O2"
_cell_formula_units_Z 56
_cell_length_a 22.772956
_cell_length_b 22.818895
_cell_length_c 13.691049
_cell_angle_alpha 90.000000
_cell_angle_beta 23.572069
_cell_angle_gamma 90.000000
_cell_volume 2845.146347
_symmetry_space_group_name_H-M "C 2/M"
_symmetry_group_IT_number 12
_symmetry_cell_setting 'monoclinic'
loop_
_space_group_symop_operation_xyz
x,y,z
-x,y,-z
-x,-y,-z
x,-y,z
1/2+x,1/2+y,z
1/2-x,1/2+y,-z
1/2-x,1/2-y,-z
1/2+x,1/2-y,z
loop_
_atom_site_type_symbol
_atom_site_label
_atom_site_fract_x
_atom_site_fract_y
_atom_site_fract_z
Si Si1 0.999028 0.140656 0.775344
Si Si2 0.851965 0.258320 0.937375
Si Si3 0.224101 0.431943 0.176783
Si Si4 0.396597 0.847782 0.475714
Si Si5 0.357598 0.651171 0.650061
Si Si6 0.358796 0.067626 0.924670
Si Si7 0.648188 0.295328 0.719223
O O1 0.099743 0.142849 0.526309
O O2 0.088526 0.155102 0.735892
O O3 0.893926 0.197032 0.920017
O O4 0.895519 0.083898 0.929885
O O5 0.996967 0.291774 0.678291
O O6 0.750000 0.250000 0.000000
O O7 0.761468 0.297991 0.150784
O O8 0.192220 0.500000 0.251680
O O9 0.143008 0.384219 0.367302
O O10 0.177369 0.423741 0.135495
O O11 0.500008 0.894250 0.261417
O O12 0.253788 0.825890 0.636949
O O13 0.500000 0.663951 0.500000
O O14 0.281803 0.592732 0.805941
O O15 0.383648 0.000000 0.904458
O O16 0.750000 0.250000 0.500000
O O17 0.500000 0.270964 0.000000
#
# Coordination Sequence:
#
# PCOD9215552 Si02
#       7
#     8   8   8   8   8   8   8
#     4  12  24  41  63  94 134 171 223 269 337 398
#     4  11  23  38  62  96 134 172 211 280 344 411
#     4  11  23  41  68 100 135 174 220 278 336 399
#     4  11  23  43  63  95 131 173 225 273 339 403
#     4  11  22  38  59  97 130 169 215 269 339 408
#     4  10  22  41  67  98 132 174 222 277 340 404
#     4  12  27  46  68  96 135 186 230 280 338 409
#
# _framework density 19.682642999999999
#
# number of rings (size 3 to 8) (size 9 to 14) (size 15 to 20)
#    0.000    0.857    5.714    1.714    4.000    2.000 
#    2.571    2.143    0.000    0.857    0.000    0.000 
#    0.000    0.000    0.000    0.000    0.000    0.000 
#
# Total GULP energy -156466.284357 kJ/mol
# GULP energy per Si atom -5588.081584 kJ/mol
# Density = 1.963784 g / cm^3
# Si number density = 19.682643 Si / 1000 Ang^3
#
#
#
# Elastic Constant Matrix: (Units=GPa)
#
#
# Indices 1 2 3 4 5 6 
#
# 1 75.3935 23.5303 42.5938 0.0002 -9.9755 0.0002
# 2 23.5303 81.2264 34.8360 -0.0007 -7.9673 0.0013
# 3 42.5938 34.8360 124.0992 0.0000 1.7588 0.0030
# 4 0.0002 -0.0007 0.0000 -24.5356 0.0018 -0.9624
# 5 -9.9755 -7.9673 1.7588 0.0018 39.8479 -0.0005
# 6 0.0002 0.0013 0.0030 -0.9624 -0.0005 23.0493
#
#
#
# Elastic Compliance Matrix: (Units=1/GPa)
#
#
# Indices 1 2 3 4 5 6 
#
# 1 0.017632 -0.002361 -0.005448 0.000000 0.004182 0.000001
# 2 -0.002361 0.014674 -0.003344 0.000000 0.002490 0.000000
# 3 -0.005448 -0.003344 0.010902 0.000000 -0.002514 -0.000001
# 4 0.000000 0.000000 0.000000 -0.040690 0.000002 -0.001699
# 5 0.004182 0.002490 -0.002514 0.000002 0.026751 0.000001
# 6 0.000001 0.000000 -0.000001 -0.001699 0.000001 0.043314
#
#
# Mechanical properties :
#
#
# Convention : Reuss Voigt Hill
#
# Bulk Modulus (GPa) = 47.84317 53.62657 50.73487
# Shear Modulus (GPa) = 49.08856 19.65626 34.37241
#
# Velocity S-wave (km/s) = 4.99942 3.16359 4.18345
# Velocity P-wave (km/s) = 7.59510 6.37567 7.01194
#
# Compressibility (1/GPa) = 0.02090163
#
# Stress axis : x y z
#
# Youngs Moduli (GPa) = 56.71515 68.14936 91.72312
#
# Poissons Ratio (x) = 0.16089 0.49973
# Poissons Ratio (y) = 0.13390 0.30672
# Poissons Ratio (z) = 0.30900 0.22789
#
# Static dielectric constant tensor:
#      x y z
#    x 1.681760 0.000000 0.014400 
#    y 0.000000 1.683960 0.000000 
#    z 0.014400 0.000000 1.758160 
# 
# From -- ./inp_files/242113.got.cif
#   From: 2010.05.17/outbox.cif.g08.bks.cpg/sg12_122_cif.got.tgz:242113.got - 2010.06.03 13:09:07.
