data_PCOD9215983
_publ_section_title
;
Structure prediction by ZEFSAII (Michael W. Deem and Ramdas Pophale) SiO2 
 PCOD9215983
Probable space group: C 2/M
;
_chemical_formula_sum "Si O2"
_cell_formula_units_Z 48
_cell_length_a 9.687622
_cell_length_b 27.418000
_cell_length_c 15.247604
_cell_angle_alpha 90.000000
_cell_angle_beta 142.271155
_cell_angle_gamma 90.000000
_cell_volume 2478.294814
_symmetry_space_group_name_H-M "C 2/M"
_symmetry_group_IT_number 12
_symmetry_cell_setting 'monoclinic'
loop_
_space_group_symop_operation_xyz
x,y,z
-x,y,-z
-x,-y,-z
x,-y,z
1/2+x,1/2+y,z
1/2-x,1/2+y,-z
1/2-x,1/2-y,-z
1/2+x,1/2-y,z
loop_
_atom_site_type_symbol
_atom_site_label
_atom_site_fract_x
_atom_site_fract_y
_atom_site_fract_z
Si Si1 0.342175 0.403477 0.209999
Si Si2 0.753592 0.116949 0.843229
Si Si3 0.616939 0.201864 0.328591
Si Si4 0.254346 0.944901 0.334772
Si Si5 0.555889 0.299178 0.670475
Si Si6 0.570514 0.942349 0.906646
O O1 0.575392 0.431936 0.319879
O O2 0.386330 0.346498 0.243716
O O3 0.182756 0.422708 0.207513
O O4 0.213641 0.416457 0.055310
O O5 0.566655 0.159006 0.759282
O O6 0.767513 0.094819 0.752978
O O7 0.674144 0.073386 0.867035
O O8 0.000000 0.133525 0.000000
O O9 0.494996 0.251445 0.297965
O O10 0.741017 0.207826 0.297231
O O11 0.824351 0.191574 0.499732
O O12 0.500000 0.943115 0.500000
O O13 0.209702 0.000000 0.279378
O O14 0.576970 0.000000 0.923725
#
# Coordination Sequence:
#
# PCOD9215983 Si02
#       6
#     8   8   8   8   8   8
#     4  11  21  40  63  92 122 169 211 263 310 379
#     4  12  24  42  64  95 132 168 213 267 320 383
#     4  10  23  43  64  96 119 169 211 260 331 382
#     4  11  24  40  62  93 128 168 215 263 316 378
#     4  10  22  42  69  88 127 160 214 268 317 389
#     4  11  23  40  65  92 126 171 215 260 320 383
#
# _framework density 19.368155000000002
#
# number of rings (size 3 to 8) (size 9 to 14) (size 15 to 20)
#    0.000    1.167    3.333    3.500    2.333    0.667 
#    3.000    1.667    0.000    4.000    0.000    0.000 
#    0.000    0.000    0.000    0.000    0.000    0.000 
#
# Total GULP energy -134106.641557 kJ/mol
# GULP energy per Si atom -5587.776732 kJ/mol
# Density = 1.932407 g / cm^3
# Si number density = 19.368155 Si / 1000 Ang^3
#
#
#
# Elastic Constant Matrix: (Units=GPa)
#
#
# Indices 1 2 3 4 5 6 
#
# 1 91.8100 46.3564 33.2152 0.0000 31.0778 0.0000
# 2 46.3564 157.6587 57.5779 0.0000 12.8051 0.0000
# 3 33.2152 57.5779 50.2112 0.0000 22.2795 0.0000
# 4 0.0000 0.0000 0.0000 33.6126 0.0000 7.5294
# 5 31.0778 12.8051 22.2795 0.0000 32.2010 0.0000
# 6 0.0000 0.0000 0.0000 7.5294 0.0000 35.5363
#
#
#
# Elastic Compliance Matrix: (Units=1/GPa)
#
#
# Indices 1 2 3 4 5 6 
#
# 1 0.018450 -0.003849 -0.000821 0.000000 -0.015707 0.000000
# 2 -0.003849 0.012657 -0.016426 0.000000 0.010046 0.000000
# 3 -0.000821 -0.016426 0.052013 0.000000 -0.028663 0.000000
# 4 0.000000 0.000000 0.000000 0.031233 0.000000 -0.006618
# 5 -0.015707 0.010046 -0.028663 0.000000 0.062050 0.000000
# 6 0.000000 0.000000 0.000000 -0.006618 0.000000 0.029542
#
#
# Mechanical properties :
#
#
# Convention : Reuss Voigt Hill
#
# Bulk Modulus (GPa) = 24.43350 63.77542 44.10446
# Shear Modulus (GPa) = 19.09990 31.10534 25.10262
#
# Velocity S-wave (km/s) = 3.14371 4.01185 3.60401
# Velocity P-wave (km/s) = 5.08133 7.37966 6.33558
#
# Compressibility (1/GPa) = 0.04092741
#
# Stress axis : x y z
#
# Youngs Moduli (GPa) = 54.20195 79.00482 19.22586
#
# Poissons Ratio (x) = 0.30409 0.01579
# Poissons Ratio (y) = 0.20862 0.31580
# Poissons Ratio (z) = 0.04452 1.29774
#
# Static dielectric constant tensor:
#      x y z
#    x 1.682440 0.000000 0.022420 
#    y 0.000000 1.642060 0.000000 
#    z 0.022420 0.000000 1.725210 
# 
# From -- ./inp_files/200225.got.cif
#   From: 2010.05.17/outbox.cif.g08.bks.cpg/sg12_101_cif.got.tgz:200225.got - 2010.06.03 13:09:07.
