data_PCOD9215628
_publ_section_title
;
Structure prediction by ZEFSAII (Michael W. Deem and Ramdas Pophale) SiO2 
 PCOD9215628
Probable space group: C 2/M
;
_chemical_formula_sum "Si O2"
_cell_formula_units_Z 30
_cell_length_a 16.401810
_cell_length_b 14.090848
_cell_length_c 5.224216
_cell_angle_alpha 90.000000
_cell_angle_beta 88.450239
_cell_angle_gamma 90.000000
_cell_volume 1206.955182
_symmetry_space_group_name_H-M "C 2/M"
_symmetry_group_IT_number 12
_symmetry_cell_setting 'monoclinic'
loop_
_space_group_symop_operation_xyz
x,y,z
-x,y,-z
-x,-y,-z
x,-y,z
1/2+x,1/2+y,z
1/2-x,1/2+y,-z
1/2-x,1/2-y,-z
1/2+x,1/2-y,z
loop_
_atom_site_type_symbol
_atom_site_label
_atom_site_fract_x
_atom_site_fract_y
_atom_site_fract_z
Si Si1 0.807092 0.313837 0.747478
Si Si2 0.084226 0.331851 0.748531
Si Si3 0.000000 0.500000 0.000000
Si Si4 0.500000 0.664132 0.000000
Si Si5 0.821581 0.105898 0.903569
O O1 0.859119 0.343106 0.500810
O O2 0.798437 0.199049 0.739001
O O3 0.859831 0.332691 0.999903
O O4 0.723510 0.368244 0.823122
O O5 0.033439 0.234491 0.775291
O O6 0.024010 0.417666 0.791590
O O7 0.419432 0.608665 0.922586
O O8 0.795714 0.000000 0.824541
#
# Coordination Sequence:
#
# PCOD9215628 Si02
#       5
#     8   8   2   4   8
#     4  10  24  44  65  97 137 173 226 281 337 390
#     4  10  23  43  66  96 136 173 220 284 333 408
#     4  10  24  38  74 102 130 180 222 270 358 398
#     4   9  21  41  63  96 136 172 224 280 336 386
#     4  10  22  41  69  98 133 185 225 280 332 410
#
# _framework density 24.855937999999998
#
# number of rings (size 3 to 8) (size 9 to 14) (size 15 to 20)
#    0.000    2.133    0.000    0.400    3.733   20.267 
#    0.000   13.333    0.000    0.000    0.000    0.000 
#    0.000    0.000    0.000    0.000    0.000    0.000 
#
# Total GULP energy -83634.350478 kJ/mol
# GULP energy per Si atom -5575.623365 kJ/mol
# Density = 2.479936 g / cm^3
# Si number density = 24.855938 Si / 1000 Ang^3
#
#
#
# Elastic Constant Matrix: (Units=GPa)
#
#
# Indices 1 2 3 4 5 6 
#
# 1 129.6382 14.5954 49.9337 0.0000 -27.7709 0.0000
# 2 14.5954 137.2908 1.0420 0.0000 -13.8002 0.0000
# 3 49.9337 1.0420 181.7081 0.0000 -39.6864 0.0000
# 4 0.0000 0.0000 0.0000 -9.4126 0.0000 7.6094
# 5 -27.7709 -13.8002 -39.6864 0.0000 51.0490 0.0000
# 6 0.0000 0.0000 0.0000 7.6094 0.0000 -6.4398
#
#
#
# Elastic Compliance Matrix: (Units=1/GPa)
#
#
# Indices 1 2 3 4 5 6 
#
# 1 0.009207 -0.000617 -0.001770 0.000000 0.003466 0.000000
# 2 -0.000617 0.007564 0.000602 0.000000 0.002177 0.000000
# 3 -0.001770 0.000602 0.007000 0.000000 0.004642 0.000000
# 4 0.000000 0.000000 0.000000 -2.374521 0.000000 -2.805788
# 5 0.003466 0.002177 0.004642 0.000000 0.025672 0.000000
# 6 0.000000 0.000000 0.000000 -2.805788 0.000000 -3.470668
#
#
# Mechanical properties :
#
#
# Convention : Reuss Voigt Hill
#
# Bulk Modulus (GPa) = 49.50226 64.41991 56.96109
# Shear Modulus (GPa) = -0.86424 32.57706 15.85641
#
# Velocity S-wave (km/s) = -0.59030 3.62420 2.52847
# Velocity P-wave (km/s) = 4.41523 6.59444 5.61164
#
# Compressibility (1/GPa) = 0.02020110
#
# Stress axis : x y z
#
# Youngs Moduli (GPa) = 108.60829 132.21152 142.85726
#
# Poissons Ratio (x) = 0.08157 0.25280
# Poissons Ratio (y) = 0.06701 -0.08594
# Poissons Ratio (z) = 0.19219 -0.07954
#
# Static dielectric constant tensor:
#      x y z
#    x 2.116050 0.000000 0.075440 
#    y 0.000000 1.859030 0.000000 
#    z 0.075440 0.000000 1.994280 
# 
# From -- ./inp_files/14523.got.cif
#   From: 2010.05.17/outbox.cif.g08.bks.cpg/sg12_8_cif.got.tgz:14523.got - 2010.06.03 13:09:07.
