data_PCOD9215536
_publ_section_title
;
Structure prediction by ZEFSAII (Michael W. Deem and Ramdas Pophale) SiO2 
 PCOD9215536
Probable space group: C 2/M
;
_chemical_formula_sum "Si O2"
_cell_formula_units_Z 52
_cell_length_a 30.204857
_cell_length_b 15.915488
_cell_length_c 14.309244
_cell_angle_alpha 90.000000
_cell_angle_beta 160.427711
_cell_angle_gamma 90.000000
_cell_volume 2304.373820
_symmetry_space_group_name_H-M "C 2/M"
_symmetry_group_IT_number 12
_symmetry_cell_setting 'monoclinic'
loop_
_space_group_symop_operation_xyz
x,y,z
-x,y,-z
-x,-y,-z
x,-y,z
1/2+x,1/2+y,z
1/2-x,1/2+y,-z
1/2-x,1/2-y,-z
1/2+x,1/2-y,z
loop_
_atom_site_type_symbol
_atom_site_label
_atom_site_fract_x
_atom_site_fract_y
_atom_site_fract_z
Si Si1 0.204178 0.762100 0.704339
Si Si2 0.370218 0.907895 0.977342
Si Si3 0.658021 0.169310 0.789686
Si Si4 0.000000 0.782103 0.000000
Si Si5 0.612070 0.595042 0.646389
Si Si6 0.093082 0.662165 0.320499
Si Si7 0.735601 0.406285 0.506258
O O1 0.334367 0.822145 0.961420
O O2 0.181566 0.681488 0.726058
O O3 0.107109 0.834816 0.554376
O O4 0.183137 0.723947 0.560509
O O5 0.287534 0.906074 0.715854
O O6 0.345543 0.000000 0.972386
O O7 0.520219 0.901421 0.243324
O O8 0.500000 0.169717 0.500000
O O9 0.750000 0.250000 0.000000
O O10 0.745711 0.099760 0.017151
O O11 0.016943 0.723050 0.944173
O O12 0.875793 0.838270 0.731228
O O13 0.500000 0.615576 0.500000
O O14 0.587357 0.500000 0.564046
O O15 0.158457 0.615483 0.363380
O O16 0.684927 0.500000 0.387405
#
# Coordination Sequence:
#
# PCOD9215536 Si02
#       7
#     8   8   8   4   8   8   8
#     4  11  23  38  64  96 124 159 212 267 310 380
#     4  11  23  39  62  90 123 166 213 265 317 368
#     4  10  22  41  67  96 128 168 213 263 330 397
#     4  12  21  40  59  88 120 170 216 256 307 374
#     4  10  23  45  69  95 132 175 211 261 338 405
#     4  12  23  38  64  91 124 164 217 265 307 369
#     4  11  23  42  58  84 126 171 211 257 320 370
#
# _framework density 22.565784000000001
#
# number of rings (size 3 to 8) (size 9 to 14) (size 15 to 20)
#    0.000    1.077    3.077    4.385    6.462    1.538 
#    0.000    1.538    0.000    0.000    0.000    0.000 
#    0.000    0.000    0.000    0.000    0.000    0.000 
#
# Total GULP energy -144818.145573 kJ/mol
# GULP energy per Si atom -5569.928676 kJ/mol
# Density = 2.251442 g / cm^3
# Si number density = 22.565784 Si / 1000 Ang^3
#
#
#
# Elastic Constant Matrix: (Units=GPa)
#
#
# Indices 1 2 3 4 5 6 
#
# 1 69.9649 2.8560 7.6086 0.0000 12.2056 0.0000
# 2 2.8560 83.1101 -0.5977 0.0000 -2.8219 0.0000
# 3 7.6086 -0.5977 70.8780 0.0000 10.7454 0.0000
# 4 0.0000 0.0000 0.0000 0.0895 0.0000 2.9996
# 5 12.2056 -2.8219 10.7454 0.0000 41.5615 0.0000
# 6 0.0000 0.0000 0.0000 2.9996 0.0000 15.2336
#
#
#
# Elastic Compliance Matrix: (Units=1/GPa)
#
#
# Indices 1 2 3 4 5 6 
#
# 1 0.015168 -0.000672 -0.000991 0.000000 -0.004244 0.000000
# 2 -0.000672 0.012090 0.000021 0.000000 0.001013 0.000000
# 3 -0.000991 0.000021 0.014749 0.000000 -0.003521 0.000000
# 4 0.000000 0.000000 0.000000 -1.995274 0.000000 0.392885
# 5 -0.004244 0.001013 -0.003521 0.000000 0.026286 0.000000
# 6 0.000000 0.000000 0.000000 0.392885 0.000000 -0.011718
#
#
# Mechanical properties :
#
#
# Convention : Reuss Voigt Hill
#
# Bulk Modulus (GPa) = 25.82478 27.07630 26.45054
# Shear Modulus (GPa) = -2.60077 25.64934 11.52428
#
# Velocity S-wave (km/s) = -1.07472 3.37508 2.26231
# Velocity P-wave (km/s) = 3.15104 5.21662 4.30941
#
# Compressibility (1/GPa) = 0.03872250
#
# Stress axis : x y z
#
# Youngs Moduli (GPa) = 65.92622 82.71381 67.80101
#
# Poissons Ratio (x) = 0.05562 0.06716
# Poissons Ratio (y) = 0.04433 -0.00139
# Poissons Ratio (z) = 0.06530 -0.00170
#
# Static dielectric constant tensor:
#      x y z
#    x 1.894050 0.000000 -0.007900 
#    y 0.000000 1.876400 0.000000 
#    z -0.007900 0.000000 1.888100 
# 
# From -- ./inp_files/251730.got.cif
#   From: 2010.05.17/outbox.cif.g08.bks.cpg/sg12_126_cif.got.tgz:251730.got - 2010.06.03 13:09:07.
