data_PCOD9215852
_publ_section_title
;
Structure prediction by ZEFSAII (Michael W. Deem and Ramdas Pophale) SiO2 
 PCOD9215852
Probable space group: C 2/M
;
_chemical_formula_sum "Si O2"
_cell_formula_units_Z 40
_cell_length_a 8.687657
_cell_length_b 29.640557
_cell_length_c 13.652470
_cell_angle_alpha 90.000000
_cell_angle_beta 149.850005
_cell_angle_gamma 90.000000
_cell_volume 1765.767703
_symmetry_space_group_name_H-M "C 2/M"
_symmetry_group_IT_number 12
_symmetry_cell_setting 'monoclinic'
loop_
_space_group_symop_operation_xyz
x,y,z
-x,y,-z
-x,-y,-z
x,-y,z
1/2+x,1/2+y,z
1/2-x,1/2+y,-z
1/2-x,1/2-y,-z
1/2+x,1/2-y,z
loop_
_atom_site_type_symbol
_atom_site_label
_atom_site_fract_x
_atom_site_fract_y
_atom_site_fract_z
Si Si1 0.171160 0.948525 0.834253
Si Si2 0.643195 0.397985 0.478021
Si Si3 0.909380 0.806318 0.641231
Si Si4 0.233800 0.775587 0.218040
Si Si5 0.252845 0.948217 0.222792
O O1 0.022035 0.943732 0.646498
O O2 0.920460 0.932782 0.774433
O O3 0.226639 0.000000 0.896568
O O4 0.500000 0.925925 0.000000
O O5 0.500000 0.382339 0.500000
O O6 0.558376 0.359403 0.353740
O O7 0.994987 0.411979 0.669609
O O8 0.579837 0.796402 0.406773
O O9 0.891870 0.790093 0.744636
O O10 0.180474 0.777552 0.740757
O O11 0.000000 0.786582 0.000000
O O12 0.370835 0.000000 0.302727
O O13 0.000000 0.950411 0.000000
#
# Coordination Sequence:
#
# PCOD9215852 Si02
#       5
#     8   8   8   8   8
#     4  10  22  42  66  96 133 173 220 270 331 405
#     4  12  26  41  62  98 137 177 221 284 336 391
#     4  10  25  42  68 100 132 170 229 279 333 413
#     4  10  22  45  70  94 127 178 217 282 342 408
#     4  10  22  42  69  97 132 179 225 271 334 406
#
# _framework density 22.653037000000001
#
# number of rings (size 3 to 8) (size 9 to 14) (size 15 to 20)
#    0.000    1.600    0.000    3.000   11.200    6.400 
#    3.600    0.000    0.000    0.000    0.000    0.000 
#    0.000    0.000    0.000    0.000    0.000    0.000 
#
# Total GULP energy -111558.426475 kJ/mol
# GULP energy per Si atom -5577.921324 kJ/mol
# Density = 2.260148 g / cm^3
# Si number density = 22.653037 Si / 1000 Ang^3
#
#
#
# Elastic Constant Matrix: (Units=GPa)
#
#
# Indices 1 2 3 4 5 6 
#
# 1 128.1582 68.2586 44.4393 0.0000 1.6143 0.0000
# 2 68.2586 94.0837 22.6241 0.0000 0.8789 0.0000
# 3 44.4393 22.6241 113.7520 0.0000 -9.4528 0.0000
# 4 0.0000 0.0000 0.0000 27.5465 0.0000 17.0081
# 5 1.6143 0.8789 -9.4528 0.0000 35.7807 0.0000
# 6 0.0000 0.0000 0.0000 17.0081 0.0000 58.0006
#
#
#
# Elastic Compliance Matrix: (Units=1/GPa)
#
#
# Indices 1 2 3 4 5 6 
#
# 1 0.014077 -0.009294 -0.003767 0.000000 -0.001402 0.000000
# 2 -0.009294 0.017326 0.000188 0.000000 0.000044 0.000000
# 3 -0.003767 0.000188 0.010469 0.000000 0.002931 0.000000
# 4 0.000000 0.000000 0.000000 0.044328 0.000000 -0.012999
# 5 -0.001402 0.000044 0.002931 0.000000 0.028785 0.000000
# 6 0.000000 0.000000 0.000000 -0.012999 0.000000 0.021053
#
#
# Mechanical properties :
#
#
# Convention : Reuss Voigt Hill
#
# Bulk Modulus (GPa) = 62.01134 67.40421 64.70777
# Shear Modulus (GPa) = 29.91171 37.64368 33.77769
#
# Velocity S-wave (km/s) = 3.63771 4.08088 3.86565
# Velocity P-wave (km/s) = 6.71400 7.21279 6.96786
#
# Compressibility (1/GPa) = 0.01612608
#
# Stress axis : x y z
#
# Youngs Moduli (GPa) = 71.03819 57.71704 95.52043
#
# Poissons Ratio (x) = 0.53642 0.35987
# Poissons Ratio (y) = 0.66022 -0.01801
# Poissons Ratio (z) = 0.26763 -0.01088
#
# Static dielectric constant tensor:
#      x y z
#    x 1.775490 0.000000 -0.005730 
#    y 0.000000 1.954670 0.000000 
#    z -0.005730 0.000000 1.889250 
# 
# From -- ./inp_files/201418.got.cif
#   From: 2010.05.17/outbox.cif.g08.bks.cpg/sg12_101_cif.got.tgz:201418.got - 2010.06.03 13:09:07.
