data_PCOD9215094
_publ_section_title
;
Structure prediction by ZEFSAII (Michael W. Deem and Ramdas Pophale) SiO2 
 PCOD9215094
Probable space group: C 2/M
;
_chemical_formula_sum "Si O2"
_cell_formula_units_Z 64
_cell_length_a 18.766116
_cell_length_b 28.128181
_cell_length_c 6.720265
_cell_angle_alpha 90.000000
_cell_angle_beta 107.756493
_cell_angle_gamma 90.000000
_cell_volume 3378.346240
_symmetry_space_group_name_H-M "C 2/M"
_symmetry_group_IT_number 12
_symmetry_cell_setting 'monoclinic'
loop_
_space_group_symop_operation_xyz
x,y,z
-x,y,-z
-x,-y,-z
x,-y,z
1/2+x,1/2+y,z
1/2-x,1/2+y,-z
1/2-x,1/2-y,-z
1/2+x,1/2-y,z
loop_
_atom_site_type_symbol
_atom_site_label
_atom_site_fract_x
_atom_site_fract_y
_atom_site_fract_z
Si Si1 0.590830 0.704448 0.583515
Si Si2 0.282583 0.361967 0.382114
Si Si3 0.709557 0.054738 0.559678
Si Si4 0.426965 0.151155 0.368939
Si Si5 0.573014 0.946308 0.175777
Si Si6 0.929839 0.736591 0.076388
Si Si7 0.344592 0.791469 0.624704
Si Si8 0.310773 0.088643 0.034545
O O1 0.500000 0.703427 0.500000
O O2 0.632706 0.655492 0.571487
O O3 0.605997 0.722025 0.822007
O O4 0.629055 0.743803 0.470047
O O5 0.264199 0.406072 0.510677
O O6 0.237054 0.315353 0.423824
O O7 0.247828 0.381088 0.144733
O O8 0.624119 0.067305 0.412607
O O9 0.718491 0.059155 0.803872
O O10 0.722818 0.000000 0.509171
O O11 0.500000 0.123172 0.500000
O O12 0.453110 0.196538 0.257302
O O13 0.388006 0.169660 0.533697
O O14 0.368352 0.124900 0.184186
O O15 0.548283 0.000000 0.200413
O O16 0.500000 0.922988 0.000000
O O17 0.638753 0.942904 0.068327
O O18 0.872353 0.714611 0.872239
O O19 0.000000 0.751580 0.000000
#
# Coordination Sequence:
#
# PCOD9215094 Si02
#       8
#     8   8   8   8   8   8   8   8
#     4  11  24  40  62  90 117 156 200 240 295 361
#     4  11  24  40  61  90 119 152 199 249 296 353
#     4  10  22  41  61  83 116 156 198 250 306 355
#     4  11  21  30  51  80 113 157 203 230 269 334
#     4   9  20  35  51  77 112 149 192 242 293 342
#     4  11  19  36  56  79 118 160 191 232 283 334
#     4  11  20  38  57  84 121 160 194 231 282 346
#     4  11  22  34  54  83 112 151 201 244 292 344
#
# _framework density 18.944179999999999
#
# number of rings (size 3 to 8) (size 9 to 14) (size 15 to 20)
#    0.000    1.375    5.000    1.500    1.750    2.500 
#    0.000    1.875    0.000    0.375    0.000    0.875 
#    0.000    0.000    0.000    0.000    0.000    0.000 
#
# Total GULP energy -178192.151599 kJ/mol
# GULP energy per Si atom -5568.504737 kJ/mol
# Density = 1.890106 g / cm^3
# Si number density = 18.944180 Si / 1000 Ang^3
#
#
#
# Elastic Constant Matrix: (Units=GPa)
#
#
# Indices 1 2 3 4 5 6 
#
# 1 77.3569 51.0795 28.9086 0.0000 -5.7924 0.0000
# 2 51.0795 81.3537 18.8211 0.0000 0.3644 0.0000
# 3 28.9086 18.8211 73.4824 0.0000 -16.0297 0.0000
# 4 0.0000 0.0000 0.0000 8.5556 0.0000 -0.4747
# 5 -5.7924 0.3644 -16.0297 0.0000 9.5643 0.0000
# 6 0.0000 0.0000 0.0000 -0.4747 0.0000 16.5231
#
#
#
# Elastic Compliance Matrix: (Units=1/GPa)
#
#
# Indices 1 2 3 4 5 6 
#
# 1 0.024786 -0.014653 -0.004101 0.000000 0.008696 0.000000
# 2 -0.014653 0.022316 -0.003267 0.000000 -0.015200 0.000000
# 3 -0.004101 -0.003267 0.024503 0.000000 0.038707 0.000000
# 4 0.000000 0.000000 0.000000 0.117070 0.000000 0.003363
# 5 0.008696 -0.015200 0.038707 0.000000 0.175273 0.000000
# 6 0.000000 0.000000 0.000000 0.003363 0.000000 0.060618
#
#
# Mechanical properties :
#
#
# Convention : Reuss Voigt Hill
#
# Bulk Modulus (GPa) = 36.28052 47.75681 42.01866
# Shear Modulus (GPa) = 10.46477 15.82086 13.14282
#
# Velocity S-wave (km/s) = 2.35287 2.89300 2.63680
# Velocity P-wave (km/s) = 5.15501 6.03516 5.61237
#
# Compressibility (1/GPa) = 0.02756300
#
# Stress axis : x y z
#
# Youngs Moduli (GPa) = 40.34527 44.81136 40.81204
#
# Poissons Ratio (x) = 0.65660 0.16738
# Poissons Ratio (y) = 0.59116 0.13333
# Poissons Ratio (z) = 0.16546 0.14640
#
# Static dielectric constant tensor:
#      x y z
#    x 1.665970 0.000000 0.002330 
#    y 0.000000 1.697140 0.000000 
#    z 0.002330 0.000000 1.720160 
# 
# From -- ./inp_files/18301.got.cif
#   From: 2010.05.17/outbox.cif.g08.bks.cpg/sg12_10_cif.got.tgz:18301.got - 2010.06.03 13:09:07.
