data_PCOD9215908
_publ_section_title
;
Structure prediction by ZEFSAII (Michael W. Deem and Ramdas Pophale) SiO2 
 PCOD9215908
Probable space group: C 2/M
;
_chemical_formula_sum "Si O2"
_cell_formula_units_Z 38
_cell_length_a 7.854319
_cell_length_b 17.602967
_cell_length_c 11.626019
_cell_angle_alpha 90.000000
_cell_angle_beta 80.699157
_cell_angle_gamma 90.000000
_cell_volume 1586.273445
_symmetry_space_group_name_H-M "C 2/M"
_symmetry_group_IT_number 12
_symmetry_cell_setting 'monoclinic'
loop_
_space_group_symop_operation_xyz
x,y,z
-x,y,-z
-x,-y,-z
x,-y,z
1/2+x,1/2+y,z
1/2-x,1/2+y,-z
1/2-x,1/2-y,-z
1/2+x,1/2-y,z
loop_
_atom_site_type_symbol
_atom_site_label
_atom_site_fract_x
_atom_site_fract_y
_atom_site_fract_z
Si Si1 0.807312 0.500000 0.651254
Si Si2 0.715428 0.000000 0.619031
Si Si3 0.241161 0.836467 0.344048
Si Si4 0.000000 0.278620 0.500000
Si Si5 0.500000 0.500000 0.000000
Si Si6 0.836796 0.126752 0.175207
Si Si7 0.010814 0.274050 0.136771
O O1 0.782212 0.500000 0.518489
O O2 0.721080 0.576464 0.710670
O O3 0.009108 0.500000 0.668821
O O4 0.806381 0.075401 0.656923
O O5 0.097639 0.775972 0.398770
O O6 0.371274 0.829359 0.440086
O O7 0.355677 0.814370 0.222118
O O8 0.617491 0.566267 0.926286
O O9 0.681227 0.181133 0.153975
O O10 0.994442 0.185382 0.174398
O O11 0.000000 0.276959 0.000000
#
# Coordination Sequence:
#
# PCOD9215908 Si02
#       7
#     4   4   8   4   2   8   8
#     4  10  22  42  67  98 133 179 223 282 345 420
#     4  11  22  41  67  96 133 180 226 284 344 412
#     4  11  24  43  68 100 133 183 227 286 342 410
#     4  10  24  42  70  98 136 170 234 288 344 404
#     4  10  24  46  70  94 140 184 234 274 338 422
#     4  11  24  45  71 101 134 184 232 281 343 411
#     4  12  25  43  72 102 140 183 232 282 338 417
#
# _framework density 23.955514999999998
#
# number of rings (size 3 to 8) (size 9 to 14) (size 15 to 20)
#    0.000    1.053    3.158    3.158    5.895    0.421 
#    0.000    4.737    0.000    0.000    0.000    0.000 
#    0.000    0.000    0.000    0.000    0.000    0.000 
#
# Total GULP energy -106219.538142 kJ/mol
# GULP energy per Si atom -5590.502007 kJ/mol
# Density = 2.390099 g / cm^3
# Si number density = 23.955515 Si / 1000 Ang^3
#
#
#
# Elastic Constant Matrix: (Units=GPa)
#
#
# Indices 1 2 3 4 5 6 
#
# 1 81.9717 43.9267 25.8938 0.0000 -18.4743 0.0000
# 2 43.9267 213.2077 52.0546 0.0000 -16.0034 0.0000
# 3 25.8938 52.0546 132.6043 0.0000 -29.9210 0.0000
# 4 0.0000 0.0000 0.0000 20.9937 0.0000 -20.7786
# 5 -18.4743 -16.0034 -29.9210 0.0000 31.4998 0.0000
# 6 0.0000 0.0000 0.0000 -20.7786 0.0000 11.6745
#
#
#
# Elastic Compliance Matrix: (Units=1/GPa)
#
#
# Indices 1 2 3 4 5 6 
#
# 1 0.015320 -0.002520 -0.000336 0.000000 0.007386 0.000000
# 2 -0.002520 0.005622 -0.001787 0.000000 -0.000319 0.000000
# 3 -0.000336 -0.001787 0.010257 0.000000 0.008639 0.000000
# 4 0.000000 0.000000 0.000000 -0.062544 0.000000 -0.111317
# 5 0.007386 -0.000319 0.008639 0.000000 0.044122 0.000000
# 6 0.000000 0.000000 0.000000 -0.111317 0.000000 -0.112469
#
#
# Mechanical properties :
#
#
# Convention : Reuss Voigt Hill
#
# Bulk Modulus (GPa) = 45.63200 74.61490 60.12345
# Shear Modulus (GPa) = -60.16718 33.22750 -13.46984
#
# Velocity S-wave (km/s) = -5.01704 3.72835 -2.37383
# Velocity P-wave (km/s) = 3.80408 7.05330 4.19988
#
# Compressibility (1/GPa) = 0.02191444
#
# Stress axis : x y z
#
# Youngs Moduli (GPa) = 65.27218 177.88051 97.49027
#
# Poissons Ratio (x) = 0.44827 0.03274
# Poissons Ratio (y) = 0.16449 0.17419
# Poissons Ratio (z) = 0.02192 0.31783
#
# Static dielectric constant tensor:
#      x y z
#    x 1.977230 0.000000 0.040400 
#    y 0.000000 1.851510 0.000000 
#    z 0.040400 0.000000 1.904020 
# 
# From -- ./inp_files/119008.got.cif
#   From: 2010.05.17/outbox.cif.g08.bks.cpg/sg12_60_cif.got.tgz:119008.got - 2010.06.03 13:09:07.
