data_PCOD9215537
_publ_section_title
;
Structure prediction by ZEFSAII (Michael W. Deem and Ramdas Pophale) SiO2 
 PCOD9215537
Probable space group: C 2/M
;
_chemical_formula_sum "Si O2"
_cell_formula_units_Z 64
_cell_length_a 9.463727
_cell_length_b 16.464161
_cell_length_c 30.680802
_cell_angle_alpha 90.000000
_cell_angle_beta 39.636284
_cell_angle_gamma 90.000000
_cell_volume 3049.503652
_symmetry_space_group_name_H-M "C 2/M"
_symmetry_group_IT_number 12
_symmetry_cell_setting 'monoclinic'
loop_
_space_group_symop_operation_xyz
x,y,z
-x,y,-z
-x,-y,-z
x,-y,z
1/2+x,1/2+y,z
1/2-x,1/2+y,-z
1/2-x,1/2-y,-z
1/2+x,1/2-y,z
loop_
_atom_site_type_symbol
_atom_site_label
_atom_site_fract_x
_atom_site_fract_y
_atom_site_fract_z
Si Si1 0.462844 0.314978 0.213739
Si Si2 0.746797 0.835411 0.433590
Si Si3 0.962413 0.410503 0.710768
Si Si4 0.607548 0.901955 0.926941
Si Si5 0.002151 0.909746 0.706825
Si Si6 0.590835 0.661356 0.432857
Si Si7 0.238112 0.906757 0.946944
Si Si8 0.493046 0.878309 0.200356
O O1 0.220843 0.343995 0.256868
O O2 0.659336 0.359254 0.139909
O O3 0.468383 0.344046 0.262403
O O4 0.489379 0.219252 0.203067
O O5 0.500000 0.870434 0.500000
O O6 0.693352 0.747659 0.424480
O O7 0.875563 0.886050 0.366649
O O8 0.897975 0.829199 0.441649
O O9 0.898579 0.500000 0.709618
O O10 0.205079 0.387899 0.635612
O O11 0.967546 0.411026 0.761361
O O12 0.426263 0.873141 0.934274
O O13 0.639609 0.000000 0.915049
O O14 0.500000 0.886681 0.000000
O O15 0.742920 0.909072 0.759297
O O16 0.070342 0.000000 0.704959
O O17 0.500000 0.624729 0.500000
O O18 0.330542 0.906419 0.876548
O O19 0.204344 0.000000 0.970607
O O20 0.000000 0.864883 0.000000
#
# Coordination Sequence:
#
# PCOD9215537 Si02
#       8
#     8   8   8   8   8   8   8   8
#     4  12  26  44  67 101 130 177 220 273 328 394
#     4  11  24  42  69 100 134 177 221 271 333 394
#     4  12  27  43  66 100 136 172 217 274 332 389
#     4  10  22  42  66  94 132 173 217 269 327 393
#     4  12  25  45  70  96 133 176 223 274 325 392
#     4  11  24  43  68  98 137 177 220 271 332 396
#     4  10  22  41  67  96 129 173 218 267 330 394
#     4  12  24  44  69  97 133 171 222 273 333 386
#
# _framework density 20.987022
#
# number of rings (size 3 to 8) (size 9 to 14) (size 15 to 20)
#    0.000    0.750    2.500    6.000    5.250    1.000 
#    0.000    1.250    0.000    0.000    0.000    0.000 
#    0.000    0.000    0.000    0.000    0.000    0.000 
#
# Total GULP energy -178848.005796 kJ/mol
# GULP energy per Si atom -5589.000181 kJ/mol
# Density = 2.093925 g / cm^3
# Si number density = 20.987022 Si / 1000 Ang^3
#
#
#
# Elastic Constant Matrix: (Units=GPa)
#
#
# Indices 1 2 3 4 5 6 
#
# 1 131.2331 16.4176 49.5215 0.0011 1.6605 -0.0009
# 2 16.4176 91.2360 20.4765 0.0003 -1.7161 -0.0001
# 3 49.5215 20.4765 165.3486 0.0027 0.3939 -0.0020
# 4 0.0011 0.0003 0.0027 4.7742 0.0007 18.9325
# 5 1.6605 -1.7161 0.3939 0.0007 34.0489 0.0003
# 6 -0.0009 -0.0001 -0.0020 18.9325 0.0003 16.1704
#
#
#
# Elastic Compliance Matrix: (Units=1/GPa)
#
#
# Indices 1 2 3 4 5 6 
#
# 1 0.008687 -0.001016 -0.002475 0.000000 -0.000446 0.000000
# 2 -0.001016 0.011404 -0.001110 0.000000 0.000637 0.000000
# 3 -0.002475 -0.001110 0.006926 0.000002 -0.000015 -0.000001
# 4 0.000000 0.000000 0.000002 -0.057497 0.000001 0.067318
# 5 -0.000446 0.000637 -0.000015 0.000001 0.029424 -0.000001
# 6 0.000000 0.000000 -0.000001 0.067318 -0.000001 -0.016976
#
#
# Mechanical properties :
#
#
# Convention : Reuss Voigt Hill
#
# Bulk Modulus (GPa) = 56.12670 62.29430 59.21050
# Shear Modulus (GPa) = -1728.89542 31.09216 -848.90163
#
# Velocity S-wave (km/s) = -28.73293 3.85319 -20.13373
# Velocity P-wave (km/s) = 32.77153 7.03867 22.63217
#
# Compressibility (1/GPa) = 0.01781683
#
# Stress axis : x y z
#
# Youngs Moduli (GPa) = 115.11920 87.68521 144.37428
#
# Poissons Ratio (x) = 0.08910 0.35729
# Poissons Ratio (y) = 0.11697 0.16018
# Poissons Ratio (z) = 0.28489 0.09729
#
# Static dielectric constant tensor:
#      x y z
#    x 1.740280 0.000000 -0.015820 
#    y 0.000000 1.755460 0.000000 
#    z -0.015820 0.000000 1.733040 
# 
# From -- ./inp_files/372955.got.cif
#   From: 2010.05.17/outbox.cif.g08.bks.cpg/sg12_187_cif.got.tgz:372955.got - 2010.06.03 13:09:07.
