data_PCOD9215431
_publ_section_title
;
Structure prediction by ZEFSAII (Michael W. Deem and Ramdas Pophale) SiO2 
 PCOD9215431
Probable space group: C 2/M
;
_chemical_formula_sum "Si O2"
_cell_formula_units_Z 64
_cell_length_a 9.518054
_cell_length_b 23.666779
_cell_length_c 14.598877
_cell_angle_alpha 90.000000
_cell_angle_beta 94.268052
_cell_angle_gamma 90.000000
_cell_volume 3279.447667
_symmetry_space_group_name_H-M "C 2/M"
_symmetry_group_IT_number 12
_symmetry_cell_setting 'monoclinic'
loop_
_space_group_symop_operation_xyz
x,y,z
-x,y,-z
-x,-y,-z
x,-y,z
1/2+x,1/2+y,z
1/2-x,1/2+y,-z
1/2-x,1/2-y,-z
1/2+x,1/2-y,z
loop_
_atom_site_type_symbol
_atom_site_label
_atom_site_fract_x
_atom_site_fract_y
_atom_site_fract_z
Si Si1 0.497280 0.324300 0.390505
Si Si2 0.522188 0.285722 0.111278
Si Si3 0.508187 0.564945 0.284580
Si Si4 0.729497 0.244427 0.389497
Si Si5 0.743991 0.128151 0.801410
Si Si6 0.452135 0.821855 0.753387
Si Si7 0.294529 0.622900 0.150992
Si Si8 0.161451 0.564425 0.976345
O O1 0.500000 0.323891 0.500000
O O2 0.465990 0.387101 0.355950
O O3 0.647340 0.302084 0.359817
O O4 0.376661 0.278929 0.357558
O O5 0.657395 0.324512 0.144186
O O6 0.537162 0.228211 0.169826
O O7 0.388974 0.320886 0.143925
O O8 0.500000 0.277685 0.000000
O O9 0.512312 0.500000 0.314121
O O10 0.656737 0.587446 0.253305
O O11 0.393567 0.575145 0.199656
O O12 0.750000 0.250000 0.500000
O O13 0.618813 0.198938 0.344556
O O14 0.608461 0.155102 0.746311
O O15 0.678198 0.089632 0.877511
O O16 0.341317 0.865329 0.793223
O O17 0.247793 0.603038 0.049650
O O18 0.211938 0.500000 0.982422
O O19 0.000000 0.565708 0.000000
#
# Coordination Sequence:
#
# PCOD9215431 Si02
#       8
#     8   8   8   8   8   8   8   8
#     4  10  22  41  68  99 126 162 204 254 325 390
#     4  11  24  36  57  88 128 165 206 255 318 379
#     4  11  24  43  64  90 126 166 215 267 320 382
#     4  10  22  41  65  98 130 162 203 257 321 386
#     4  11  24  40  59  90 125 168 217 259 318 368
#     4  12  24  37  62  89 128 165 205 261 316 389
#     4  11  22  40  58  86 120 166 220 256 314 369
#     4  11  22  38  58  83 117 167 226 276 311 363
#
# _framework density 19.515481999999999
#
# number of rings (size 3 to 8) (size 9 to 14) (size 15 to 20)
#    0.000    1.125    3.750    3.000    5.250    1.250 
#    0.000    1.875    0.000    0.000    0.000    1.750 
#    0.000    0.000    0.000    0.000    0.000    0.000 
#
# Total GULP energy -178643.729021 kJ/mol
# GULP energy per Si atom -5582.616532 kJ/mol
# Density = 1.947106 g / cm^3
# Si number density = 19.515482 Si / 1000 Ang^3
#
#
#
# Elastic Constant Matrix: (Units=GPa)
#
#
# Indices 1 2 3 4 5 6 
#
# 1 122.0839 37.6877 28.3132 0.0000 0.2986 0.0000
# 2 37.6877 96.0822 15.6307 0.0000 -3.0803 0.0000
# 3 28.3132 15.6307 68.9444 0.0000 12.1075 0.0000
# 4 0.0000 0.0000 0.0000 13.4751 0.0000 -0.1071
# 5 0.2986 -3.0803 12.1075 0.0000 29.7104 0.0000
# 6 0.0000 0.0000 0.0000 -0.1071 0.0000 15.5796
#
#
#
# Elastic Compliance Matrix: (Units=1/GPa)
#
#
# Indices 1 2 3 4 5 6 
#
# 1 0.010038 -0.003329 -0.003543 0.000000 0.000998 0.000000
# 2 -0.003329 0.012056 -0.001714 0.000000 0.001982 0.000000
# 3 -0.003543 -0.001714 0.017635 0.000000 -0.007329 0.000000
# 4 0.000000 0.000000 0.000000 0.074215 0.000000 0.000510
# 5 0.000998 0.001982 -0.007329 0.000000 0.036840 0.000000
# 6 0.000000 0.000000 0.000000 0.000510 0.000000 0.064190
#
#
# Mechanical properties :
#
#
# Convention : Reuss Voigt Hill
#
# Bulk Modulus (GPa) = 44.33217 50.04152 47.18685
# Shear Modulus (GPa) = 20.86246 25.45161 23.15703
#
# Velocity S-wave (km/s) = 3.27314 3.61525 3.44844
# Velocity P-wave (km/s) = 6.08689 6.56692 6.33146
#
# Compressibility (1/GPa) = 0.02255698
#
# Stress axis : x y z
#
# Youngs Moduli (GPa) = 99.62207 82.94666 56.70559
#
# Poissons Ratio (x) = 0.27613 0.20089
# Poissons Ratio (y) = 0.33164 0.09720
# Poissons Ratio (z) = 0.35293 0.14219
#
# Static dielectric constant tensor:
#      x y z
#    x 1.711370 0.000000 -0.014790 
#    y 0.000000 1.675370 0.000000 
#    z -0.014790 0.000000 1.656350 
# 
# From -- ./inp_files/198876.got.cif
#   From: 2010.05.17/outbox.cif.g08.bks.cpg/sg12_100_cif.got.tgz:198876.got - 2010.06.03 13:09:07.
