data_PCOD9215037
_publ_section_title
;
Structure prediction by ZEFSAII (Michael W. Deem and Ramdas Pophale) SiO2 
 PCOD9215037
Probable space group: C 2/M
;
_chemical_formula_sum "Si O2"
_cell_formula_units_Z 32
_cell_length_a 8.972169
_cell_length_b 26.928412
_cell_length_c 6.716365
_cell_angle_alpha 90.000000
_cell_angle_beta 130.675521
_cell_angle_gamma 90.000000
_cell_volume 1230.688584
_symmetry_space_group_name_H-M "C 2/M"
_symmetry_group_IT_number 12
_symmetry_cell_setting 'monoclinic'
loop_
_space_group_symop_operation_xyz
x,y,z
-x,y,-z
-x,-y,-z
x,-y,z
1/2+x,1/2+y,z
1/2-x,1/2+y,-z
1/2-x,1/2-y,-z
1/2+x,1/2-y,z
loop_
_atom_site_type_symbol
_atom_site_label
_atom_site_fract_x
_atom_site_fract_y
_atom_site_fract_z
Si Si1 0.951570 0.390031 0.731349
Si Si2 0.413220 0.444995 0.702622
Si Si3 0.127349 0.848411 0.915592
Si Si4 0.708272 0.212439 0.284137
O O1 0.816988 0.430936 0.510759
O O2 0.819969 0.340928 0.638175
O O3 0.000000 0.406849 0.000000
O O4 0.156147 0.367677 0.828930
O O5 0.441275 0.500000 0.643952
O O6 0.536545 0.397678 0.734486
O O7 0.500000 0.447527 0.000000
O O8 0.153517 0.802390 0.785461
O O9 0.000000 0.836699 0.000000
O O10 0.750000 0.250000 0.500000
O O11 0.500000 0.224624 0.000000
#
# Coordination Sequence:
#
# PCOD9215037 Si02
#       4
#     8   8   8   8
#     4   9  21  41  66 100 146 195 245 305 376 451
#     4  10  22  40  69 109 150 197 251 309 376 444
#     4   9  20  41  71 105 150 198 249 316 376 446
#     4   9  20  42  73 105 140 193 254 312 384 458
#
# _framework density 26.001705999999999
#
# number of rings (size 3 to 8) (size 9 to 14) (size 15 to 20)
#    0.000    3.250    0.000    0.000    0.000   10.500 
#    0.000   20.000    0.000   80.250    0.000    0.000 
#    0.000    0.000    0.000    0.000    0.000    4.000 
#
# Total GULP energy -89393.026186 kJ/mol
# GULP energy per Si atom -5587.064137 kJ/mol
# Density = 2.594253 g / cm^3
# Si number density = 26.001706 Si / 1000 Ang^3
#
#
#
# Elastic Constant Matrix: (Units=GPa)
#
#
# Indices 1 2 3 4 5 6 
#
# 1 220.8262 65.2172 78.4310 0.0000 -8.9178 0.0000
# 2 65.2172 164.2800 88.8757 0.0000 -10.9025 0.0000
# 3 78.4310 88.8757 188.3985 0.0000 -16.2966 0.0000
# 4 0.0000 0.0000 0.0000 -15.5233 0.0000 30.1920
# 5 -8.9178 -10.9025 -16.2966 0.0000 47.1319 0.0000
# 6 0.0000 0.0000 0.0000 30.1920 0.0000 -20.1099
#
#
#
# Elastic Compliance Matrix: (Units=1/GPa)
#
#
# Indices 1 2 3 4 5 6 
#
# 1 0.005506 -0.001265 -0.001681 0.000000 0.000168 0.000000
# 2 -0.001265 0.008479 -0.003427 0.000000 0.000537 0.000000
# 3 -0.001681 -0.003427 0.007760 0.000000 0.001573 0.000000
# 4 0.000000 0.000000 0.000000 0.033551 0.000000 0.050372
# 5 0.000168 0.000537 0.001573 0.000000 0.021917 0.000000
# 6 0.000000 0.000000 0.000000 0.050372 0.000000 0.025899
#
#
# Mechanical properties :
#
#
# Convention : Reuss Voigt Hill
#
# Bulk Modulus (GPa) = 111.11668 115.39471 113.25570
# Shear Modulus (GPa) = 42.06744 25.03180 33.54962
#
# Velocity S-wave (km/s) = 4.02664 3.10610 3.59595
# Velocity P-wave (km/s) = 8.02780 7.57231 7.80338
#
# Compressibility (1/GPa) = 0.00899955
#
# Stress axis : x y z
#
# Youngs Moduli (GPa) = 181.62484 117.93873 128.86464
#
# Poissons Ratio (x) = 0.14924 0.21658
# Poissons Ratio (y) = 0.22982 0.44157
# Poissons Ratio (z) = 0.30525 0.40414
#
# Static dielectric constant tensor:
#      x y z
#    x 2.156430 0.000000 0.004560 
#    y 0.000000 2.021260 0.000000 
#    z 0.004560 0.000000 2.102720 
# 
# From -- ./inp_files/54510.got.cif
#   From: 2010.05.17/outbox.cif.g08.bks.cpg/sg12_28_cif.got.tgz:54510.got - 2010.06.03 13:09:07.
