data_PCOD9215741
_publ_section_title
;
Structure prediction by ZEFSAII (Michael W. Deem and Ramdas Pophale) SiO2 
 PCOD9215741
Probable space group: C 2/M
;
_chemical_formula_sum "Si O2"
_cell_formula_units_Z 32
_cell_length_a 20.077165
_cell_length_b 11.634646
_cell_length_c 6.851639
_cell_angle_alpha 90.000000
_cell_angle_beta 120.707305
_cell_angle_gamma 90.000000
_cell_volume 1376.071487
_symmetry_space_group_name_H-M "C 2/M"
_symmetry_group_IT_number 12
_symmetry_cell_setting 'monoclinic'
loop_
_space_group_symop_operation_xyz
x,y,z
-x,y,-z
-x,-y,-z
x,-y,z
1/2+x,1/2+y,z
1/2-x,1/2+y,-z
1/2-x,1/2-y,-z
1/2+x,1/2-y,z
loop_
_atom_site_type_symbol
_atom_site_label
_atom_site_fract_x
_atom_site_fract_y
_atom_site_fract_z
Si Si1 0.143577 0.242264 0.234780
Si Si2 0.401438 0.500000 0.700389
Si Si3 0.204213 0.368513 0.674410
Si Si4 0.078685 0.746630 0.741135
Si Si5 0.932984 0.000000 0.212828
O O1 0.134280 0.128467 0.358932
O O2 0.159336 0.346432 0.403445
O O3 0.220954 0.212766 0.228040
O O4 0.076916 0.264718 0.974703
O O5 0.473562 0.500000 0.660522
O O6 0.418873 0.500000 0.958639
O O7 0.229424 0.500000 0.730568
O O8 0.145008 0.333076 0.753473
O O9 0.000000 0.727004 0.500000
O O10 0.098958 0.881838 0.752480
#
# Coordination Sequence:
#
# PCOD9215741 Si02
#       5
#     8   4   8   8   4
#     4  10  22  42  64  92 123 166 211 261 310 363
#     4   9  16  36  66  88 125 153 204 265 303 359
#     4  11  24  42  63  90 126 171 212 253 305 375
#     4  11  23  40  63  96 129 161 205 257 320 376
#     4   9  19  34  60  99 123 156 194 256 323 365
#
# _framework density 23.254604
#
# number of rings (size 3 to 8) (size 9 to 14) (size 15 to 20)
#    0.000    1.750    1.250    2.625    0.000    5.500 
#    2.250    1.250    0.000    0.000    0.000    0.000 
#    0.000    0.000    0.000    0.000    0.000    0.000 
#
# Total GULP energy -89308.827668 kJ/mol
# GULP energy per Si atom -5581.801729 kJ/mol
# Density = 2.320168 g / cm^3
# Si number density = 23.254604 Si / 1000 Ang^3
#
#
#
# Elastic Constant Matrix: (Units=GPa)
#
#
# Indices 1 2 3 4 5 6 
#
# 1 67.7806 16.4115 14.4000 0.0000 -20.3759 0.0000
# 2 16.4115 44.2826 10.3570 0.0000 -8.1544 0.0000
# 3 14.4000 10.3570 126.9868 0.0000 4.8299 0.0000
# 4 0.0000 0.0000 0.0000 21.9682 0.0000 1.6574
# 5 -20.3759 -8.1544 4.8299 0.0000 27.0562 0.0000
# 6 0.0000 0.0000 0.0000 1.6574 0.0000 30.6390
#
#
#
# Elastic Compliance Matrix: (Units=1/GPa)
#
#
# Indices 1 2 3 4 5 6 
#
# 1 0.020813 -0.004386 -0.002566 0.000000 0.014810 0.000000
# 2 -0.004386 0.025483 -0.001759 0.000000 0.004691 0.000000
# 3 -0.002566 -0.001759 0.008460 0.000000 -0.003973 0.000000
# 4 0.000000 0.000000 0.000000 0.045707 0.000000 -0.002473
# 5 0.014810 0.004691 -0.003973 0.000000 0.050236 0.000000
# 6 0.000000 0.000000 0.000000 -0.002473 0.000000 0.032772
#
#
# Mechanical properties :
#
#
# Convention : Reuss Voigt Hill
#
# Bulk Modulus (GPa) = 26.78543 35.70967 31.24755
# Shear Modulus (GPa) = 23.43693 29.12477 26.28085
#
# Velocity S-wave (km/s) = 3.17809 3.54281 3.36540
# Velocity P-wave (km/s) = 5.00104 5.66786 5.34486
#
# Compressibility (1/GPa) = 0.03733373
#
# Stress axis : x y z
#
# Youngs Moduli (GPa) = 48.04772 39.24160 118.19807
#
# Poissons Ratio (x) = 0.17212 0.30326
# Poissons Ratio (y) = 0.21074 0.20796
# Poissons Ratio (z) = 0.12327 0.06904
#
# Static dielectric constant tensor:
#      x y z
#    x 1.884040 0.000000 0.050120 
#    y 0.000000 1.869380 0.000000 
#    z 0.050120 0.000000 2.033690 
# 
# From -- ./inp_files/19231.got.cif
#   From: 2010.05.17/outbox.cif.g08.bks.cpg/sg12_10_cif.got.tgz:19231.got - 2010.06.03 13:09:07.
