data_PCOD9215970
_publ_section_title
;
Structure prediction by ZEFSAII (Michael W. Deem and Ramdas Pophale) SiO2 
 PCOD9215970
Probable space group: C 2/M
;
_chemical_formula_sum "Si O2"
_cell_formula_units_Z 64
_cell_length_a 9.911651
_cell_length_b 17.746854
_cell_length_c 32.815753
_cell_angle_alpha 90.000000
_cell_angle_beta 33.923892
_cell_angle_gamma 90.000000
_cell_volume 3221.476029
_symmetry_space_group_name_H-M "C 2/M"
_symmetry_group_IT_number 12
_symmetry_cell_setting 'monoclinic'
loop_
_space_group_symop_operation_xyz
x,y,z
-x,y,-z
-x,-y,-z
x,-y,z
1/2+x,1/2+y,z
1/2-x,1/2+y,-z
1/2-x,1/2-y,-z
1/2+x,1/2-y,z
loop_
_atom_site_type_symbol
_atom_site_label
_atom_site_fract_x
_atom_site_fract_y
_atom_site_fract_z
Si Si1 0.226549 0.411140 0.054214
Si Si2 0.396191 0.181586 0.410277
Si Si3 0.346861 0.669790 0.194510
Si Si4 0.219417 0.320702 0.977101
Si Si5 0.802766 0.343731 0.214760
Si Si6 0.130377 0.910265 0.728467
Si Si7 0.449119 0.673335 0.579260
Si Si8 0.125932 0.413463 0.716313
O O1 0.188959 0.500000 0.069811
O O2 0.035323 0.366379 0.129542
O O3 0.500000 0.392679 0.000000
O O4 0.189826 0.389276 0.016224
O O5 0.604125 0.121247 0.349179
O O6 0.510805 0.257884 0.399576
O O7 0.244268 0.195572 0.407139
O O8 0.199522 0.156594 0.493346
O O9 0.540940 0.670717 0.109855
O O10 0.315836 0.754474 0.219007
O O11 0.422077 0.614754 0.212105
O O12 0.093874 0.640044 0.241227
O O13 0.250000 0.250000 0.000000
O O14 0.000000 0.312233 0.000000
O O15 0.565208 0.367330 0.249802
O O16 0.803910 0.390354 0.255925
O O17 0.114792 0.000000 0.727519
O O18 0.342486 0.604014 0.631062
O O19 0.050816 0.500000 0.732891
#
# Coordination Sequence:
#
# PCOD9215970 Si02
#       8
#     8   8   8   8   8   8   8   8
#     4  11  24  44  70  98 132 173 220 279 353 414
#     4  10  22  42  69 100 135 180 222 274 328 396
#     4  12  25  42  73  94 130 173 226 282 330 400
#     4  12  26  43  67  97 129 169 225 280 336 408
#     4  12  25  44  68  94 133 179 224 276 332 404
#     4  12  26  43  64 101 140 176 221 276 343 397
#     4  10  22  42  69 100 136 176 227 271 327 396
#     4  12  26  43  66 103 138 175 224 277 337 397
#
# _framework density 19.866669999999999
#
# number of rings (size 3 to 8) (size 9 to 14) (size 15 to 20)
#    0.000    0.625    2.500    5.625    3.500    2.750 
#    0.000    1.250    0.000    1.500    0.000    0.000 
#    0.000    0.000    0.000    0.000    0.000    0.000 
#
# Total GULP energy -179071.914253 kJ/mol
# GULP energy per Si atom -5595.997320 kJ/mol
# Density = 1.982145 g / cm^3
# Si number density = 19.866670 Si / 1000 Ang^3
#
#
#
# Elastic Constant Matrix: (Units=GPa)
#
#
# Indices 1 2 3 4 5 6 
#
# 1 97.5304 -10.8186 17.5235 -0.0052 3.1083 0.0080
# 2 -10.8186 76.6723 24.5080 0.0062 -6.3579 0.0004
# 3 17.5235 24.5080 95.6086 0.0369 6.4619 0.0632
# 4 -0.0052 0.0062 0.0369 37.2463 0.0026 -8.5301
# 5 3.1083 -6.3579 6.4619 0.0026 33.6791 -0.0023
# 6 0.0080 0.0004 0.0632 -8.5301 -0.0023 30.1287
#
#
#
# Elastic Compliance Matrix: (Units=1/GPa)
#
#
# Indices 1 2 3 4 5 6 
#
# 1 0.010991 0.002384 -0.002621 0.000005 -0.000061 0.000004
# 2 0.002384 0.015124 -0.004551 0.000004 0.003508 0.000010
# 3 -0.002621 -0.004551 0.012308 -0.000019 -0.002979 -0.000031
# 4 0.000005 0.000004 -0.000019 0.028710 0.000002 0.008128
# 5 -0.000061 0.003508 -0.002979 0.000002 0.030932 0.000009
# 6 0.000004 0.000010 -0.000031 0.008128 0.000009 0.035492
#
#
# Mechanical properties :
#
#
# Convention : Reuss Voigt Hill
#
# Bulk Modulus (GPa) = 34.66758 36.91523 35.79141
# Shear Modulus (GPa) = 32.73349 36.11737 34.42543
#
# Velocity S-wave (km/s) = 4.06354 4.26841 4.16724
# Velocity P-wave (km/s) = 6.28526 6.55090 6.41945
#
# Compressibility (1/GPa) = 0.02884540
#
# Stress axis : x y z
#
# Youngs Moduli (GPa) = 90.98743 66.11805 81.25025
#
# Poissons Ratio (x) = -0.15760 0.21298
# Poissons Ratio (y) = -0.21687 0.36977
# Poissons Ratio (z) = 0.23850 0.30090
#
# Static dielectric constant tensor:
#      x y z
#    x 1.640300 0.000000 -0.013730 
#    y 0.000000 1.671310 0.000000 
#    z -0.013730 0.000000 1.693000 
# 
# From -- ./inp_files/372902.got.cif
#   From: 2010.05.17/outbox.cif.g08.bks.cpg/sg12_187_cif.got.tgz:372902.got - 2010.06.03 13:09:07.
