data_PCOD9215955
_publ_section_title
;
Structure prediction by ZEFSAII (Michael W. Deem and Ramdas Pophale) SiO2 
 PCOD9215955
Probable space group: C 2/M
;
_chemical_formula_sum "Si O2"
_cell_formula_units_Z 64
_cell_length_a 18.796359
_cell_length_b 8.775742
_cell_length_c 28.820883
_cell_angle_alpha 90.000000
_cell_angle_beta 135.776353
_cell_angle_gamma 90.000000
_cell_volume 3315.772628
_symmetry_space_group_name_H-M "C 2/M"
_symmetry_group_IT_number 12
_symmetry_cell_setting 'monoclinic'
loop_
_space_group_symop_operation_xyz
x,y,z
-x,y,-z
-x,-y,-z
x,-y,z
1/2+x,1/2+y,z
1/2-x,1/2+y,-z
1/2-x,1/2-y,-z
1/2+x,1/2-y,z
loop_
_atom_site_type_symbol
_atom_site_label
_atom_site_fract_x
_atom_site_fract_y
_atom_site_fract_z
Si Si1 0.248393 0.681002 0.549947
Si Si2 0.462468 0.671723 0.534742
Si Si3 0.036843 0.818311 0.308402
Si Si4 0.883495 0.815980 0.931435
Si Si5 0.606043 0.817809 0.680555
Si Si6 0.000126 0.818652 0.182840
Si Si7 0.222703 0.317020 0.937270
Si Si8 0.671776 0.817299 0.195214
O O1 0.249152 0.500000 0.548869
O O2 0.250000 0.750000 0.500000
O O3 0.142213 0.738047 0.519611
O O4 0.350297 0.731033 0.623595
O O5 0.500000 0.660945 0.500000
O O6 0.443448 0.500000 0.544155
O O7 0.540797 0.751623 0.606804
O O8 0.954578 0.731043 0.301178
O O9 0.028296 0.795241 0.249713
O O10 0.024524 0.000000 0.311728
O O11 0.805068 0.773575 0.936071
O O12 0.851297 0.740184 0.867879
O O13 0.879215 0.000000 0.923739
O O14 0.000000 0.776535 0.000000
O O15 0.719563 0.749013 0.736941
O O16 0.611351 0.000000 0.679581
O O17 0.888916 0.746477 0.125619
O O18 0.082091 0.743302 0.186828
O O19 0.996551 0.000000 0.171645
O O20 0.221460 0.500000 0.938743
O O21 0.250000 0.250000 0.000000
O O22 0.675213 0.000000 0.197612
#
# Coordination Sequence:
#
# PCOD9215955 Si02
#       8
#     8   8   8   8   8   8   8   8
#     4  11  22  39  64  94 125 163 210 261 315 378
#     4  11  25  43  63  91 127 165 209 263 319 378
#     4  10  23  42  65  92 126 164 209 261 316 375
#     4  10  22  42  68  98 133 172 213 258 309 370
#     4  12  25  42  66  92 124 167 211 259 317 381
#     4  11  24  43  65  93 128 169 213 263 316 373
#     4  11  23  40  66  99 133 171 213 261 312 370
#     4  12  26  43  65  94 130 168 211 263 317 377
#
# _framework density 19.301686
#
# number of rings (size 3 to 8) (size 9 to 14) (size 15 to 20)
#    0.000    1.000    1.250    5.250    1.750    6.750 
#    0.000    0.000    0.000    0.000    0.000    0.000 
#    0.000    0.000    0.000    0.000    0.000    0.000 
#
# Total GULP energy -178927.326782 kJ/mol
# GULP energy per Si atom -5591.478962 kJ/mol
# Density = 1.925775 g / cm^3
# Si number density = 19.301686 Si / 1000 Ang^3
#
#
#
# Elastic Constant Matrix: (Units=GPa)
#
#
# Indices 1 2 3 4 5 6 
#
# 1 162.2125 67.4770 78.2800 0.0000 15.9195 0.0000
# 2 67.4770 105.9536 65.3935 0.0000 3.8183 0.0000
# 3 78.2800 65.3935 135.7905 0.0000 23.8889 0.0000
# 4 0.0000 0.0000 0.0000 27.2943 0.0000 11.2336
# 5 15.9195 3.8183 23.8889 0.0000 37.7395 0.0000
# 6 0.0000 0.0000 0.0000 11.2336 0.0000 14.3075
#
#
#
# Elastic Compliance Matrix: (Units=1/GPa)
#
#
# Indices 1 2 3 4 5 6 
#
# 1 0.009584 -0.003991 -0.003334 0.000000 -0.001528 0.000000
# 2 -0.003991 0.015417 -0.005790 0.000000 0.003789 0.000000
# 3 -0.003334 -0.005790 0.013194 0.000000 -0.006359 0.000000
# 4 0.000000 0.000000 0.000000 0.054129 0.000000 -0.042500
# 5 -0.001528 0.003789 -0.006359 0.000000 0.030784 0.000000
# 6 0.000000 0.000000 0.000000 -0.042500 0.000000 0.103262
#
#
# Mechanical properties :
#
#
# Convention : Reuss Voigt Hill
#
# Bulk Modulus (GPa) = 83.58530 91.80641 87.69586
# Shear Modulus (GPa) = 19.48648 28.72201 24.10425
#
# Velocity S-wave (km/s) = 3.18083 3.86172 3.53769
# Velocity P-wave (km/s) = 7.54247 8.21894 7.88796
#
# Compressibility (1/GPa) = 0.01196383
#
# Stress axis : x y z
#
# Youngs Moduli (GPa) = 104.34359 64.86456 75.79430
#
# Poissons Ratio (x) = 0.25885 0.25271
# Poissons Ratio (y) = 0.41639 0.43888
# Poissons Ratio (z) = 0.34790 0.37559
#
# Static dielectric constant tensor:
#      x y z
#    x 1.482350 0.000000 0.003890 
#    y 0.000000 1.670110 0.000000 
#    z 0.003890 0.000000 1.610880 
# 
# From -- ./inp_files/378505.got.cif
#   From: 2010.05.17/outbox.cif.g08.bks.cpg/sg12_190_cif.got.tgz:378505.got - 2010.06.03 13:09:07.
