data_PCOD9215075
_publ_section_title
;
Structure prediction by ZEFSAII (Michael W. Deem and Ramdas Pophale) SiO2 
 PCOD9215075
Probable space group: C 2/M
;
_chemical_formula_sum "Si O2"
_cell_formula_units_Z 64
_cell_length_a 20.845808
_cell_length_b 8.535608
_cell_length_c 32.234662
_cell_angle_alpha 90.000000
_cell_angle_beta 141.650635
_cell_angle_gamma 90.000000
_cell_volume 3558.660601
_symmetry_space_group_name_H-M "C 2/M"
_symmetry_group_IT_number 12
_symmetry_cell_setting 'monoclinic'
loop_
_space_group_symop_operation_xyz
x,y,z
-x,y,-z
-x,-y,-z
x,-y,z
1/2+x,1/2+y,z
1/2-x,1/2+y,-z
1/2-x,1/2-y,-z
1/2+x,1/2-y,z
loop_
_atom_site_type_symbol
_atom_site_label
_atom_site_fract_x
_atom_site_fract_y
_atom_site_fract_z
Si Si1 0.814066 0.812467 0.992872
Si Si2 0.863736 0.188465 0.147002
Si Si3 0.713876 0.815292 0.360263
Si Si4 0.552077 0.686937 0.641341
Si Si5 0.924040 0.686472 0.499636
Si Si6 0.997358 0.809526 0.861747
Si Si7 0.728640 0.687195 0.275086
Si Si8 0.504627 0.310406 0.293925
O O1 0.750203 0.750913 0.921324
O O2 0.810850 0.000000 0.991077
O O3 0.750000 0.750000 0.000000
O O4 0.931517 0.762855 0.063046
O O5 0.942008 0.239380 0.149572
O O6 0.913959 0.236296 0.215906
O O7 0.859573 0.000000 0.143304
O O8 0.815551 0.771887 0.437932
O O9 0.721239 0.726061 0.320123
O O10 0.611154 0.761764 0.331844
O O11 0.711083 0.000000 0.350750
O O12 0.540572 0.500000 0.631715
O O13 0.480379 0.767429 0.570569
O O14 0.670138 0.732879 0.692007
O O15 0.520794 0.734108 0.671964
O O16 0.907247 0.500000 0.489453
O O17 0.000000 0.729230 0.500000
O O18 0.879096 0.757508 0.800081
O O19 0.995328 0.000000 0.859787
O O20 0.738007 0.500000 0.274974
O O21 0.513358 0.500000 0.296315
#
# Coordination Sequence:
#
# PCOD9215075 Si02
#       8
#     8   8   8   8   8   8   8   8
#     4   9  16  27  44  74 109 142 181 228 277 327
#     4   9  16  31  52  75 106 147 185 223 274 334
#     4  12  24  37  60  90 115 142 187 240 278 324
#     4  11  24  40  60  87 114 145 187 239 283 328
#     4  11  23  40  63  85 111 152 188 222 280 346
#     4   8  15  28  50  76 106 142 183 224 269 328
#     4  11  20  36  59  82 113 153 189 226 282 344
#     4  10  22  41  60  80 116 156 188 225 285 346
#
# _framework density 17.984294999999999
#
# number of rings (size 3 to 8) (size 9 to 14) (size 15 to 20)
#    0.000    1.875    2.500    3.375    0.000    2.500 
#    0.000    1.875    0.000    0.750    0.000    5.250 
#    0.000    0.000    0.000    0.000    0.000    0.000 
#
# Total GULP energy -178581.442578 kJ/mol
# GULP energy per Si atom -5580.670081 kJ/mol
# Density = 1.794336 g / cm^3
# Si number density = 17.984295 Si / 1000 Ang^3
#
#
#
# Elastic Constant Matrix: (Units=GPa)
#
#
# Indices 1 2 3 4 5 6 
#
# 1 69.7604 9.8046 32.3876 0.0000 -6.2688 0.0000
# 2 9.8046 16.7551 10.4208 0.0000 -5.8712 0.0001
# 3 32.3876 10.4208 143.6007 0.0000 0.3843 -0.0001
# 4 0.0000 0.0000 0.0000 28.2830 0.0000 2.6053
# 5 -6.2688 -5.8712 0.3843 0.0000 22.8723 0.0000
# 6 0.0000 0.0001 -0.0001 2.6053 0.0000 19.1679
#
#
#
# Elastic Compliance Matrix: (Units=1/GPa)
#
#
# Indices 1 2 3 4 5 6 
#
# 1 0.017137 -0.006883 -0.003374 0.000000 0.002987 0.000000
# 2 -0.006883 0.071838 -0.003705 0.000000 0.016616 0.000000
# 3 -0.003374 -0.003705 0.007999 0.000000 -0.002010 0.000000
# 4 0.000000 0.000000 0.000000 0.035805 0.000000 -0.004867
# 5 0.002987 0.016616 -0.002010 0.000000 0.048839 0.000000
# 6 0.000000 0.000000 0.000000 -0.004867 0.000000 0.052832
#
#
# Mechanical properties :
#
#
# Convention : Reuss Voigt Hill
#
# Bulk Modulus (GPa) = 14.48223 37.26022 25.87122
# Shear Modulus (GPa) = 17.51987 25.89820 21.70903
#
# Velocity S-wave (km/s) = 3.12457 3.79891 3.47812
# Velocity P-wave (km/s) = 4.59210 6.32499 5.52688
#
# Compressibility (1/GPa) = 0.06905015
#
# Stress axis : x y z
#
# Youngs Moduli (GPa) = 58.35394 13.92015 125.01766
#
# Poissons Ratio (x) = 0.09582 0.42175
# Poissons Ratio (y) = 0.40166 0.46321
# Poissons Ratio (z) = 0.19686 0.05158
#
# Static dielectric constant tensor:
#      x y z
#    x -10.483250 0.000010 3.307080 
#    y 0.000010 1.612910 0.000000 
#    z 3.307080 0.000000 0.735490 
# 
# From -- ./inp_files/378463.got.cif
#   From: 2010.05.17/outbox.cif.g08.bks.cpg/sg12_190_cif.got.tgz:378463.got - 2010.06.03 13:09:07.
