data_PCOD9215030
_publ_section_title
;
Structure prediction by ZEFSAII (Michael W. Deem and Ramdas Pophale) SiO2 
 PCOD9215030
Probable space group: C 2/M
;
_chemical_formula_sum "Si O2"
_cell_formula_units_Z 48
_cell_length_a 8.815211
_cell_length_b 31.544888
_cell_length_c 7.589788
_cell_angle_alpha 90.000000
_cell_angle_beta 85.333125
_cell_angle_gamma 90.000000
_cell_volume 2103.531847
_symmetry_space_group_name_H-M "C 2/M"
_symmetry_group_IT_number 12
_symmetry_cell_setting 'monoclinic'
loop_
_space_group_symop_operation_xyz
x,y,z
-x,y,-z
-x,-y,-z
x,-y,z
1/2+x,1/2+y,z
1/2-x,1/2+y,-z
1/2-x,1/2-y,-z
1/2+x,1/2-y,z
loop_
_atom_site_type_symbol
_atom_site_label
_atom_site_fract_x
_atom_site_fract_y
_atom_site_fract_z
Si Si1 0.524260 0.954405 0.288442
Si Si2 0.358907 0.339026 0.280154
Si Si3 0.635702 0.223314 0.128129
Si Si4 0.637520 0.873770 0.857418
Si Si5 0.342611 0.576178 0.101559
Si Si6 0.162364 0.804415 0.320243
O O1 0.500000 0.956736 0.500000
O O2 0.431062 0.912226 0.250391
O O3 0.697574 0.949831 0.194571
O O4 0.465191 0.000000 0.222620
O O5 0.219058 0.319241 0.185265
O O6 0.371409 0.389249 0.253454
O O7 0.523075 0.320942 0.212544
O O8 0.345225 0.321727 0.480299
O O9 0.634962 0.254030 0.302298
O O10 0.500000 0.221223 0.000000
O O11 0.750000 0.250000 0.000000
O O12 0.690606 0.830315 0.761649
O O13 0.500000 0.865237 0.000000
O O14 0.774651 0.895614 0.949432
O O15 0.500000 0.557717 0.000000
#
# Coordination Sequence:
#
# PCOD9215030 Si02
#       6
#     8   8   8   8   8   8
#     4  10  23  45  69  99 139 178 220 273 338 412
#     4  11  24  42  66  94 135 178 226 281 343 400
#     4  12  25  42  64  94 131 176 229 285 339 401
#     4  10  22  40  68  98 126 169 218 273 331 400
#     4  11  22  40  68 101 135 174 225 277 337 404
#     4  11  23  43  65  94 133 177 229 282 337 405
#
# _framework density 22.818767000000001
#
# number of rings (size 3 to 8) (size 9 to 14) (size 15 to 20)
#    0.000    1.167    3.333    2.500    0.000    8.667 
#    0.000    3.333    0.000    2.000    0.000    0.000 
#    0.000    0.000    0.000    0.000    0.000    0.000 
#
# Total GULP energy -133631.964659 kJ/mol
# GULP energy per Si atom -5567.998527 kJ/mol
# Density = 2.276683 g / cm^3
# Si number density = 22.818767 Si / 1000 Ang^3
#
#
#
# Elastic Constant Matrix: (Units=GPa)
#
#
# Indices 1 2 3 4 5 6 
#
# 1 111.0574 23.7250 37.8775 0.0000 0.5339 0.0000
# 2 23.7250 119.1964 24.3234 0.0000 1.6070 0.0000
# 3 37.8775 24.3234 109.2750 0.0000 -3.4295 0.0000
# 4 0.0000 0.0000 0.0000 48.8387 0.0000 -7.2380
# 5 0.5339 1.6070 -3.4295 0.0000 36.0845 0.0000
# 6 0.0000 0.0000 0.0000 -7.2380 0.0000 1.8550
#
#
#
# Elastic Compliance Matrix: (Units=1/GPa)
#
#
# Indices 1 2 3 4 5 6 
#
# 1 0.010437 -0.001394 -0.003320 0.000000 -0.000408 0.000000
# 2 -0.001394 0.008987 -0.001534 0.000000 -0.000525 0.000000
# 3 -0.003320 -0.001534 0.010679 0.000000 0.001132 0.000000
# 4 0.000000 0.000000 0.000000 0.048549 0.000000 0.189429
# 5 -0.000408 -0.000525 0.001132 0.000000 0.027850 0.000000
# 6 0.000000 0.000000 0.000000 0.189429 0.000000 1.278181
#
#
# Mechanical properties :
#
#
# Convention : Reuss Voigt Hill
#
# Bulk Modulus (GPa) = 56.79667 56.82006 56.80837
# Shear Modulus (GPa) = 3.56367 34.26251 18.91309
#
# Velocity S-wave (km/s) = 1.25105 3.87913 2.88208
# Velocity P-wave (km/s) = 5.19915 6.70956 6.00206
#
# Compressibility (1/GPa) = 0.01760666
#
# Stress axis : x y z
#
# Youngs Moduli (GPa) = 95.81750 111.27090 93.64239
#
# Poissons Ratio (x) = 0.15515 0.31089
# Poissons Ratio (y) = 0.13360 0.14361
# Poissons Ratio (z) = 0.31811 0.17065
#
# Static dielectric constant tensor:
#      x y z
#    x 1.991400 0.000000 -0.092310 
#    y 0.000000 2.026980 0.000000 
#    z -0.092310 0.000000 1.841770 
# 
# From -- ./inp_files/42205.got.cif
#   From: 2010.05.17/outbox.cif.g08.bks.cpg/sg12_22_cif.got.tgz:42205.got - 2010.06.03 13:09:07.
