data_PCOD9215186
_publ_section_title
;
Structure prediction by ZEFSAII (Michael W. Deem and Ramdas Pophale) SiO2 
 PCOD9215186
Probable space group: C 2/M
;
_chemical_formula_sum "Si O2"
_cell_formula_units_Z 56
_cell_length_a 8.177380
_cell_length_b 14.452911
_cell_length_c 25.893311
_cell_angle_alpha 90.000000
_cell_angle_beta 58.248139
_cell_angle_gamma 90.000000
_cell_volume 2602.239223
_symmetry_space_group_name_H-M "C 2/M"
_symmetry_group_IT_number 12
_symmetry_cell_setting 'monoclinic'
loop_
_space_group_symop_operation_xyz
x,y,z
-x,y,-z
-x,-y,-z
x,-y,z
1/2+x,1/2+y,z
1/2-x,1/2+y,-z
1/2-x,1/2-y,-z
1/2+x,1/2-y,z
loop_
_atom_site_type_symbol
_atom_site_label
_atom_site_fract_x
_atom_site_fract_y
_atom_site_fract_z
Si Si1 0.181272 0.266814 0.751650
Si Si2 0.870249 0.891235 0.443361
Si Si3 0.883205 0.389226 0.859836
Si Si4 0.964263 0.110711 0.150962
Si Si5 0.073096 0.234437 0.662178
Si Si6 0.703768 0.107937 0.576736
Si Si7 0.586923 0.112793 0.931450
O O1 0.134766 0.171870 0.788468
O O2 0.214838 0.258952 0.685140
O O3 0.397233 0.299038 0.728145
O O4 0.023583 0.339971 0.795702
O O5 0.857027 0.837254 0.392133
O O6 0.727352 0.861432 0.513246
O O7 0.085226 0.882089 0.431719
O O8 0.838191 0.000000 0.439977
O O9 0.907995 0.500000 0.853119
O O10 0.663366 0.370376 0.879378
O O11 0.958943 0.358209 0.903473
O O12 0.188331 0.138132 0.110637
O O13 0.954800 0.000000 0.162056
O O14 0.060037 0.330788 0.633377
O O15 0.654961 0.000000 0.585516
O O16 0.582188 0.000000 0.932992
O O17 0.500000 0.145807 0.000000
#
# Coordination Sequence:
#
# PCOD9215186 Si02
#       7
#     8   8   8   8   8   8   8
#     4  12  24  38  59  85 124 157 201 252 293 361
#     4   9  19  37  59  83 113 151 195 246 305 363
#     4  10  22  41  64  88 124 169 203 248 310 362
#     4  10  22  41  63  88 125 167 203 250 308 362
#     4  12  22  36  58  87 113 153 199 250 298 355
#     4   9  19  37  59  82 114 152 193 245 303 369
#     4   9  19  38  66  97 123 156 207 257 303 360
#
# _framework density 21.519926000000002
#
# number of rings (size 3 to 8) (size 9 to 14) (size 15 to 20)
#    0.000    1.857    2.857    2.143    0.000    2.857 
#    0.000    3.571    0.000    1.714    0.000    0.000 
#    0.000    0.000    0.000    0.000    0.000    0.000 
#
# Total GULP energy -156171.785887 kJ/mol
# GULP energy per Si atom -5577.563782 kJ/mol
# Density = 2.147095 g / cm^3
# Si number density = 21.519926 Si / 1000 Ang^3
#
#
#
# Elastic Constant Matrix: (Units=GPa)
#
#
# Indices 1 2 3 4 5 6 
#
# 1 57.2061 28.3768 54.5126 0.0000 21.4425 0.0000
# 2 28.3768 45.8563 34.6214 0.0000 21.7359 0.0000
# 3 54.5126 34.6214 126.7723 0.0000 30.6683 0.0000
# 4 0.0000 0.0000 0.0000 26.0721 0.0000 -0.9978
# 5 21.4425 21.7359 30.6683 0.0000 28.3134 0.0000
# 6 0.0000 0.0000 0.0000 -0.9978 0.0000 27.0245
#
#
#
# Elastic Compliance Matrix: (Units=1/GPa)
#
#
# Indices 1 2 3 4 5 6 
#
# 1 0.035608 -0.010495 -0.010665 0.000000 -0.007357 0.000000
# 2 -0.010495 0.038989 -0.001107 0.000000 -0.020785 0.000000
# 3 -0.010665 -0.001107 0.014387 0.000000 -0.006657 0.000000
# 4 0.000000 0.000000 0.000000 0.038410 0.000000 0.001418
# 5 -0.007357 -0.020785 -0.006657 0.000000 0.064057 0.000000
# 6 0.000000 0.000000 0.000000 0.001418 0.000000 0.037056
#
#
# Mechanical properties :
#
#
# Convention : Reuss Voigt Hill
#
# Bulk Modulus (GPa) = 22.49759 51.65071 37.07415
# Shear Modulus (GPa) = 17.36971 23.77026 20.56998
#
# Velocity S-wave (km/s) = 2.84411 3.32711 3.09505
# Velocity P-wave (km/s) = 4.61111 6.23001 5.48066
#
# Compressibility (1/GPa) = 0.04444920
#
# Stress axis : x y z
#
# Youngs Moduli (GPa) = 28.08392 25.64798 69.50740
#
# Poissons Ratio (x) = 0.26918 0.74132
# Poissons Ratio (y) = 0.29474 0.07694
# Poissons Ratio (z) = 0.29953 0.02839
#
# Static dielectric constant tensor:
#      x y z
#    x 1.893550 0.000000 0.025380 
#    y 0.000000 1.752240 0.000000 
#    z 0.025380 0.000000 1.720750 
# 
# From -- ./inp_files/332830.got.cif
#   From: 2010.05.17/outbox.cif.g08.bks.cpg/sg12_167_cif.got.tgz:332830.got - 2010.06.03 13:09:07.
