data_PCOD9215773
_publ_section_title
;
Structure prediction by ZEFSAII (Michael W. Deem and Ramdas Pophale) SiO2 
 PCOD9215773
Probable space group: C 2/M
;
_chemical_formula_sum "Si O2"
_cell_formula_units_Z 64
_cell_length_a 30.700060
_cell_length_b 14.125365
_cell_length_c 8.092760
_cell_angle_alpha 90.000000
_cell_angle_beta 54.374787
_cell_angle_gamma 90.000000
_cell_volume 2852.614240
_symmetry_space_group_name_H-M "C 2/M"
_symmetry_group_IT_number 12
_symmetry_cell_setting 'monoclinic'
loop_
_space_group_symop_operation_xyz
x,y,z
-x,y,-z
-x,-y,-z
x,-y,z
1/2+x,1/2+y,z
1/2-x,1/2+y,-z
1/2-x,1/2-y,-z
1/2+x,1/2-y,z
loop_
_atom_site_type_symbol
_atom_site_label
_atom_site_fract_x
_atom_site_fract_y
_atom_site_fract_z
Si Si1 0.079652 0.612862 0.694276
Si Si2 0.376444 0.387927 0.066528
Si Si3 0.143005 0.611708 0.059183
Si Si4 0.171099 0.720301 0.315273
Si Si5 0.220794 0.752841 0.737473
Si Si6 0.948152 0.114662 0.207368
Si Si7 0.466270 0.111962 0.832455
Si Si8 0.400303 0.612702 0.653442
O O1 0.089746 0.500000 0.641096
O O2 0.130866 0.676670 0.541436
O O3 0.027595 0.645917 0.702339
O O4 0.059377 0.620220 0.927637
O O5 0.370313 0.500000 0.092016
O O6 0.319930 0.339677 0.161273
O O7 0.400615 0.355357 0.188317
O O8 0.411922 0.370768 0.822091
O O9 0.142601 0.500000 0.036288
O O10 0.182606 0.662356 0.844630
O O11 0.165956 0.642861 0.183295
O O12 0.081463 0.647709 0.178728
O O13 0.231205 0.737248 0.239384
O O14 0.147817 0.818285 0.293745
O O15 0.250000 0.750000 0.500000
O O16 0.942690 0.134213 0.413625
O O17 0.950089 0.000000 0.193434
O O18 0.000000 0.153401 0.000000
O O19 0.472120 0.000000 0.784452
O O20 0.387715 0.500000 0.666712
#
# Coordination Sequence:
#
# PCOD9215773 Si02
#       8
#     8   8   8   8   8   8   8   8
#     4   9  18  37  65  94 128 167 211 262 317 381
#     4  10  22  42  66  93 127 171 217 265 328 392
#     4  11  24  42  64  94 131 168 211 267 334 396
#     4  12  24  41  61  96 126 164 214 263 324 393
#     4  12  26  44  66  91 129 166 219 278 324 395
#     4   9  19  39  66  96 129 167 215 267 324 390
#     4   8  17  37  63  92 128 169 210 259 318 381
#     4  10  22  42  65  90 130 172 211 269 326 387
#
# _framework density 22.435562000000001
#
# number of rings (size 3 to 8) (size 9 to 14) (size 15 to 20)
#    0.000    1.875    1.250    3.000    0.000    3.000 
#    4.500    5.625    0.000    0.000    0.000    0.000 
#    0.000    0.000    0.000    0.000    0.000    0.000 
#
# Total GULP energy -178722.211278 kJ/mol
# GULP energy per Si atom -5585.069102 kJ/mol
# Density = 2.238450 g / cm^3
# Si number density = 22.435562 Si / 1000 Ang^3
#
#
#
# Elastic Constant Matrix: (Units=GPa)
#
#
# Indices 1 2 3 4 5 6 
#
# 1 52.8217 8.1077 3.1162 0.0000 -10.2317 0.0000
# 2 8.1077 100.2623 12.5791 0.0000 -4.7335 0.0000
# 3 3.1162 12.5791 101.8745 0.0000 11.7475 0.0000
# 4 0.0000 0.0000 0.0000 47.5960 0.0000 15.0700
# 5 -10.2317 -4.7335 11.7475 0.0000 33.7567 0.0000
# 6 0.0000 0.0000 0.0000 15.0700 0.0000 34.7128
#
#
#
# Elastic Compliance Matrix: (Units=1/GPa)
#
#
# Indices 1 2 3 4 5 6 
#
# 1 0.020437 -0.001195 -0.001222 0.000000 0.006452 0.000000
# 2 -0.001195 0.010323 -0.001420 0.000000 0.001580 0.000000
# 3 -0.001222 -0.001420 0.010516 0.000000 -0.004229 0.000000
# 4 0.000000 0.000000 0.000000 0.024358 0.000000 -0.010575
# 5 0.006452 0.001580 -0.004229 0.000000 0.033273 0.000000
# 6 0.000000 0.000000 0.000000 -0.010575 0.000000 0.033399
#
#
# Mechanical properties :
#
#
# Convention : Reuss Voigt Hill
#
# Bulk Modulus (GPa) = 29.75910 33.61828 31.68869
# Shear Modulus (GPa) = 33.07302 38.62346 35.84824
#
# Velocity S-wave (km/s) = 3.84361 4.15363 4.00162
# Velocity P-wave (km/s) = 5.74377 6.16607 5.95866
#
# Compressibility (1/GPa) = 0.03360317
#
# Stress axis : x y z
#
# Youngs Moduli (GPa) = 48.93123 96.86895 95.08937
#
# Poissons Ratio (x) = 0.11574 0.11616
# Poissons Ratio (y) = 0.05846 0.13505
# Poissons Ratio (z) = 0.05978 0.13758
#
# Static dielectric constant tensor:
#      x y z
#    x 1.841710 0.000000 0.032070 
#    y 0.000000 1.825830 0.000000 
#    z 0.032070 0.000000 1.859940 
# 
# From -- ./inp_files/111976.got.cif
#   From: 2010.05.17/outbox.cif.g08.bks.cpg/sg12_56_cif.got.tgz:111976.got - 2010.06.03 13:09:07.
