data_PCOD9215251
_publ_section_title
;
Structure prediction by ZEFSAII (Michael W. Deem and Ramdas Pophale) SiO2 
 PCOD9215251
Probable space group: C 2/M
;
_chemical_formula_sum "Si O2"
_cell_formula_units_Z 40
_cell_length_a 24.109666
_cell_length_b 9.001625
_cell_length_c 10.021271
_cell_angle_alpha 90.000000
_cell_angle_beta 68.984867
_cell_angle_gamma 90.000000
_cell_volume 2030.217683
_symmetry_space_group_name_H-M "C 2/M"
_symmetry_group_IT_number 12
_symmetry_cell_setting 'monoclinic'
loop_
_space_group_symop_operation_xyz
x,y,z
-x,y,-z
-x,-y,-z
x,-y,z
1/2+x,1/2+y,z
1/2-x,1/2+y,-z
1/2-x,1/2-y,-z
1/2+x,1/2-y,z
loop_
_atom_site_type_symbol
_atom_site_label
_atom_site_fract_x
_atom_site_fract_y
_atom_site_fract_z
Si Si1 0.936479 0.824117 0.840055
Si Si2 0.347428 0.323182 0.150750
Si Si3 0.441472 0.175568 0.267750
Si Si4 0.737903 0.324264 0.367179
Si Si5 0.901163 0.174746 0.566274
O O1 0.921441 0.794229 0.698977
O O2 0.993766 0.730936 0.832733
O O3 0.950382 0.000000 0.841659
O O4 0.880287 0.793335 0.982778
O O5 0.341777 0.500000 0.173399
O O6 0.390818 0.258302 0.226896
O O7 0.283846 0.247414 0.224032
O O8 0.433058 0.226514 0.428022
O O9 0.435221 0.000000 0.258986
O O10 0.748877 0.500000 0.367797
O O11 0.750000 0.250000 0.500000
O O12 0.669509 0.302231 0.386262
O O13 0.913670 0.000000 0.527139
#
# Coordination Sequence:
#
# PCOD9215251 Si02
#       5
#     8   8   8   8   8
#     4  10  23  42  62  87 121 161 201 243 300 362
#     4  11  23  40  63  89 120 160 202 247 298 354
#     4  12  24  38  61  91 122 158 202 250 298 353
#     4  11  22  38  63  91 120 156 201 247 295 354
#     4  10  22  41  64  88 119 160 201 243 298 360
#
# _framework density 19.702321000000001
#
# number of rings (size 3 to 8) (size 9 to 14) (size 15 to 20)
#    0.000    1.200    2.000    4.200    0.000    8.800 
#    0.000    0.000    0.000    0.000    0.000    0.000 
#    0.000    0.000    0.000    0.000    0.000    0.000 
#
# Total GULP energy -111908.600198 kJ/mol
# GULP energy per Si atom -5595.430010 kJ/mol
# Density = 1.965748 g / cm^3
# Si number density = 19.702321 Si / 1000 Ang^3
#
#
#
# Elastic Constant Matrix: (Units=GPa)
#
#
# Indices 1 2 3 4 5 6 
#
# 1 57.5507 33.9482 -2.9817 0.0000 -12.6904 0.0000
# 2 33.9482 67.9061 28.2378 0.0000 -13.0530 0.0000
# 3 -2.9817 28.2378 62.0934 0.0000 -8.3533 0.0000
# 4 0.0000 0.0000 0.0000 24.5654 0.0000 -15.8987
# 5 -12.6904 -13.0530 -8.3533 0.0000 31.2338 0.0000
# 6 0.0000 0.0000 0.0000 -15.8987 0.0000 24.0020
#
#
#
# Elastic Compliance Matrix: (Units=1/GPa)
#
#
# Indices 1 2 3 4 5 6 
#
# 1 0.030323 -0.018164 0.010739 0.000000 0.007602 0.000000
# 2 -0.018164 0.030030 -0.014350 0.000000 0.001332 0.000000
# 3 0.010739 -0.014350 0.023782 0.000000 0.004727 0.000000
# 4 0.000000 0.000000 0.000000 0.071254 0.000000 0.047198
# 5 0.007602 0.001332 0.004727 0.000000 0.036926 0.000000
# 6 0.000000 0.000000 0.000000 0.047198 0.000000 0.072927
#
#
# Mechanical properties :
#
#
# Convention : Reuss Voigt Hill
#
# Bulk Modulus (GPa) = 24.63886 33.99541 29.31714
# Shear Modulus (GPa) = 15.51254 24.51664 20.01459
#
# Velocity S-wave (km/s) = 2.80901 3.53137 3.19070
# Velocity P-wave (km/s) = 4.80140 5.82403 5.33727
#
# Compressibility (1/GPa) = 0.04058629
#
# Stress axis : x y z
#
# Youngs Moduli (GPa) = 32.97809 33.30008 42.04864
#
# Poissons Ratio (x) = 0.60486 -0.45156
# Poissons Ratio (y) = 0.59901 0.60338
# Poissons Ratio (z) = -0.35415 0.47784
#
# Static dielectric constant tensor:
#      x y z
#    x 1.671260 0.000000 -0.015360 
#    y 0.000000 1.658280 0.000000 
#    z -0.015360 0.000000 1.693880 
# 
# From -- ./inp_files/92759.got.cif
#   From: 2010.05.17/outbox.cif.g08.bks.cpg/sg12_47_cif.got.tgz:92759.got - 2010.06.03 13:09:07.
