data_PCOD9215546
_publ_section_title
;
Structure prediction by ZEFSAII (Michael W. Deem and Ramdas Pophale) SiO2 
 PCOD9215546
Probable space group: C 2/M
;
_chemical_formula_sum "Si O2"
_cell_formula_units_Z 32
_cell_length_a 15.111055
_cell_length_b 19.293858
_cell_length_c 7.596748
_cell_angle_alpha 90.000000
_cell_angle_beta 143.338692
_cell_angle_gamma 90.000000
_cell_volume 1322.442216
_symmetry_space_group_name_H-M "C 2/M"
_symmetry_group_IT_number 12
_symmetry_cell_setting 'monoclinic'
loop_
_space_group_symop_operation_xyz
x,y,z
-x,y,-z
-x,-y,-z
x,-y,z
1/2+x,1/2+y,z
1/2-x,1/2+y,-z
1/2-x,1/2-y,-z
1/2+x,1/2-y,z
loop_
_atom_site_type_symbol
_atom_site_label
_atom_site_fract_x
_atom_site_fract_y
_atom_site_fract_z
Si Si1 0.333155 0.079308 0.780401
Si Si2 0.361947 0.295012 0.641424
Si Si3 0.335193 0.285482 0.975041
Si Si4 0.327693 0.079149 0.191460
O O1 0.216470 0.131575 0.515537
O O2 0.321154 0.000000 0.698892
O O3 0.500000 0.103777 0.000000
O O4 0.311245 0.080445 0.954651
O O5 0.279434 0.254315 0.691405
O O6 0.500000 0.315825 0.000000
O O7 0.492314 0.269495 0.714928
O O8 0.280986 0.364743 0.898833
O O9 0.250000 0.250000 0.000000
O O10 0.500000 0.096342 0.500000
O O11 0.302877 0.000000 0.213402
#
# Coordination Sequence:
#
# PCOD9215546 Si02
#       4
#     8   8   8   8
#     4  10  22  41  67  97 133 174 218 272 329 391
#     4  11  26  43  65  96 134 175 219 272 332 395
#     4  11  26  43  65  97 133 175 219 274 331 392
#     4  10  22  41  67  98 131 172 221 271 328 392
#
# _framework density 24.197654
#
# number of rings (size 3 to 8) (size 9 to 14) (size 15 to 20)
#    0.000    1.500    0.000    3.000   10.500    7.000 
#    0.000    5.000    0.000    0.000    0.000    0.000 
#    0.000    0.000    0.000    0.000    0.000    0.000 
#
# Total GULP energy -89433.273963 kJ/mol
# GULP energy per Si atom -5589.579623 kJ/mol
# Density = 2.414258 g / cm^3
# Si number density = 24.197654 Si / 1000 Ang^3
#
#
#
# Elastic Constant Matrix: (Units=GPa)
#
#
# Indices 1 2 3 4 5 6 
#
# 1 157.8583 54.3756 83.7948 0.0000 20.9942 0.0000
# 2 54.3756 132.7763 101.4903 0.0000 27.2228 0.0000
# 3 83.7948 101.4903 220.2244 0.0000 40.9283 0.0000
# 4 0.0000 0.0000 0.0000 40.1438 0.0000 7.6338
# 5 20.9942 27.2228 40.9283 0.0000 67.6301 0.0000
# 6 0.0000 0.0000 0.0000 7.6338 0.0000 47.1729
#
#
#
# Elastic Compliance Matrix: (Units=1/GPa)
#
#
# Indices 1 2 3 4 5 6 
#
# 1 0.008141 -0.001440 -0.002335 0.000000 -0.000535 0.000000
# 2 -0.001440 0.012042 -0.004714 0.000000 -0.001547 0.000000
# 3 -0.002335 -0.004714 0.008016 0.000000 -0.002229 0.000000
# 4 0.000000 0.000000 0.000000 0.025701 0.000000 -0.004159
# 5 -0.000535 -0.001547 -0.002229 0.000000 0.016924 0.000000
# 6 0.000000 0.000000 0.000000 -0.004159 0.000000 0.021872
#
#
# Mechanical properties :
#
#
# Convention : Reuss Voigt Hill
#
# Bulk Modulus (GPa) = 89.11428 110.02006 99.56717
# Shear Modulus (GPa) = 44.08662 49.06926 46.57794
#
# Velocity S-wave (km/s) = 4.27305 4.50805 4.39212
# Velocity P-wave (km/s) = 7.82642 8.52424 8.18277
#
# Compressibility (1/GPa) = 0.01122155
#
# Stress axis : x y z
#
# Youngs Moduli (GPa) = 122.83168 83.04593 124.75289
#
# Poissons Ratio (x) = 0.11957 0.29128
# Poissons Ratio (y) = 0.17685 0.58808
# Poissons Ratio (z) = 0.28679 0.39147
#
# Static dielectric constant tensor:
#      x y z
#    x 4.891470 0.000000 0.570230 
#    y 0.000000 1.883650 0.000000 
#    z 0.570230 0.000000 2.039750 
# 
# From -- ./inp_files/39955.got.cif
#   From: 2010.05.17/outbox.cif.g08.bks.cpg/sg12_20_cif.got.tgz:39955.got - 2010.06.03 13:09:07.
