data_PCOD9215427
_publ_section_title
;
Structure prediction by ZEFSAII (Michael W. Deem and Ramdas Pophale) SiO2 
 PCOD9215427
Probable space group: C 2/M
;
_chemical_formula_sum "Si O2"
_cell_formula_units_Z 32
_cell_length_a 9.154775
_cell_length_b 15.919996
_cell_length_c 10.219446
_cell_angle_alpha 90.000000
_cell_angle_beta 85.881694
_cell_angle_gamma 90.000000
_cell_volume 1485.576892
_symmetry_space_group_name_H-M "C 2/M"
_symmetry_group_IT_number 12
_symmetry_cell_setting 'monoclinic'
loop_
_space_group_symop_operation_xyz
x,y,z
-x,y,-z
-x,-y,-z
x,-y,z
1/2+x,1/2+y,z
1/2-x,1/2+y,-z
1/2-x,1/2-y,-z
1/2+x,1/2-y,z
loop_
_atom_site_type_symbol
_atom_site_label
_atom_site_fract_x
_atom_site_fract_y
_atom_site_fract_z
Si Si1 0.356434 0.500000 0.100936
Si Si2 0.736141 0.335615 0.422657
Si Si3 0.725621 0.680436 0.892713
Si Si4 0.493620 0.754111 0.726241
Si Si5 0.850900 0.000000 0.423632
O O1 0.274018 0.584707 0.066022
O O2 0.370934 0.500000 0.262410
O O3 0.500000 0.500000 0.000000
O O4 0.750000 0.250000 0.500000
O O5 0.581405 0.318909 0.358350
O O6 0.884342 0.322313 0.327920
O O7 0.731118 0.416511 0.515816
O O8 0.572182 0.702137 0.834997
O O9 0.854049 0.694278 0.781115
O O10 0.750000 0.750000 0.000000
O O11 0.000000 0.000000 0.500000
#
# Coordination Sequence:
#
# PCOD9215427 Si02
#       5
#     4   8   8   8   4
#     4  12  26  43  66  98 133 176 227 277 332 402
#     4  11  22  39  64  95 133 169 210 270 333 390
#     4  11  23  43  67  92 131 180 225 271 329 395
#     4  10  22  41  65  97 135 172 216 274 332 392
#     4  12  24  41  69 102 133 174 222 275 339 404
#
# _framework density 21.540454
#
# number of rings (size 3 to 8) (size 9 to 14) (size 15 to 20)
#    0.000    1.000    0.000    9.000    0.000    3.000 
#    0.000    6.250    0.000    0.000    0.000    0.000 
#    0.000    0.000    0.000    0.000    0.000    0.000 
#
# Total GULP energy -89210.786835 kJ/mol
# GULP energy per Si atom -5575.674177 kJ/mol
# Density = 2.149143 g / cm^3
# Si number density = 21.540454 Si / 1000 Ang^3
#
#
#
# Elastic Constant Matrix: (Units=GPa)
#
#
# Indices 1 2 3 4 5 6 
#
# 1 76.7728 29.3475 34.3130 0.0000 9.5223 0.0000
# 2 29.3475 197.3732 58.6447 0.0000 -7.1558 0.0000
# 3 34.3130 58.6447 102.2420 0.0000 8.6340 0.0000
# 4 0.0000 0.0000 0.0000 37.3901 0.0000 -1.0017
# 5 9.5223 -7.1558 8.6340 0.0000 45.7803 0.0000
# 6 0.0000 0.0000 0.0000 -1.0017 0.0000 22.7466
#
#
#
# Elastic Compliance Matrix: (Units=1/GPa)
#
#
# Indices 1 2 3 4 5 6 
#
# 1 0.015756 -0.001124 -0.004422 0.000000 -0.002619 0.000000
# 2 -0.001124 0.006311 -0.003400 0.000000 0.001862 0.000000
# 3 -0.004422 -0.003400 0.013396 0.000000 -0.002138 0.000000
# 4 0.000000 0.000000 0.000000 0.026777 0.000000 0.001179
# 5 -0.002619 0.001862 -0.002138 0.000000 0.023082 0.000000
# 6 0.000000 0.000000 0.000000 0.001179 0.000000 0.044015
#
#
# Mechanical properties :
#
#
# Convention : Reuss Voigt Hill
#
# Bulk Modulus (GPa) = 56.91161 68.99982 62.95571
# Shear Modulus (GPa) = 32.66131 38.12226 35.39179
#
# Velocity S-wave (km/s) = 3.89817 4.21146 4.05784
# Velocity P-wave (km/s) = 6.83660 7.46664 7.15856
#
# Compressibility (1/GPa) = 0.01757111
#
# Stress axis : x y z
#
# Youngs Moduli (GPa) = 63.46656 158.44291 74.65106
#
# Poissons Ratio (x) = 0.17806 0.33012
# Poissons Ratio (y) = 0.07133 0.25383
# Poissons Ratio (z) = 0.28066 0.53874
#
# Static dielectric constant tensor:
#      x y z
#    x 1.673410 0.000000 -0.009260 
#    y 0.000000 1.796130 0.000000 
#    z -0.009260 0.000000 1.950750 
# 
# From -- ./inp_files/117773.got.cif
#   From: 2010.05.17/outbox.cif.g08.bks.cpg/sg12_59_cif.got.tgz:117773.got - 2010.06.03 13:09:07.
