data_PCOD9215015
_publ_section_title
;
Structure prediction by ZEFSAII (Michael W. Deem and Ramdas Pophale) SiO2 
 PCOD9215015
Probable space group: C 2/M
;
_chemical_formula_sum "Si O2"
_cell_formula_units_Z 40
_cell_length_a 11.670639
_cell_length_b 14.655478
_cell_length_c 17.823374
_cell_angle_alpha 90.000000
_cell_angle_beta 141.171951
_cell_angle_gamma 90.000000
_cell_volume 1911.357276
_symmetry_space_group_name_H-M "C 2/M"
_symmetry_group_IT_number 12
_symmetry_cell_setting 'monoclinic'
loop_
_space_group_symop_operation_xyz
x,y,z
-x,y,-z
-x,-y,-z
x,-y,z
1/2+x,1/2+y,z
1/2-x,1/2+y,-z
1/2-x,1/2-y,-z
1/2+x,1/2-y,z
loop_
_atom_site_type_symbol
_atom_site_label
_atom_site_fract_x
_atom_site_fract_y
_atom_site_fract_z
Si Si1 0.349698 0.191521 0.115443
Si Si2 0.395653 0.198340 0.519488
Si Si3 0.207084 0.000000 0.826861
Si Si4 0.271062 0.105513 0.220793
Si Si5 0.962963 0.500000 0.103316
Si Si6 0.577196 0.641714 0.267512
O O1 0.230048 0.166579 0.127244
O O2 0.518597 0.253451 0.229278
O O3 0.416649 0.094116 0.120317
O O4 0.250000 0.250000 0.000000
O O5 0.500000 0.245677 0.500000
O O6 0.250000 0.250000 0.500000
O O7 0.551877 0.150922 0.648894
O O8 0.262903 0.128708 0.408103
O O9 0.081468 0.088205 0.771816
O O10 0.326729 0.000000 0.813901
O O11 0.340957 0.000000 0.966161
O O12 0.110907 0.107260 0.200551
O O13 0.305966 0.000000 0.218779
#
# Coordination Sequence:
#
# PCOD9215015 Si02
#       6
#     8   8   4   8   4   8
#     4  12  25  43  66  97 132 177 224 276 334 398
#     4  10  22  40  68 100 135 178 228 276 342 408
#     4  11  24  43  63  94 134 171 227 279 336 401
#     4  11  24  43  69  98 136 174 227 283 331 405
#     4  11  26  43  64  94 135 179 223 276 338 399
#     4  11  24  42  69  98 132 179 224 275 341 399
#
# _framework density 20.927537000000001
#
# number of rings (size 3 to 8) (size 9 to 14) (size 15 to 20)
#    0.000    1.000    6.000    0.000    4.200    2.000 
#    0.000    2.000    0.000    1.800    0.000    0.000 
#    0.000    0.000    0.000    0.000    0.000    0.000 
#
# Total GULP energy -111590.385583 kJ/mol
# GULP energy per Si atom -5579.519279 kJ/mol
# Density = 2.087990 g / cm^3
# Si number density = 20.927537 Si / 1000 Ang^3
#
#
#
# Elastic Constant Matrix: (Units=GPa)
#
#
# Indices 1 2 3 4 5 6 
#
# 1 138.7957 43.2257 24.8784 0.0000 -5.2178 0.0000
# 2 43.2257 121.9833 21.9032 -0.0001 -7.7337 -0.0001
# 3 24.8784 21.9032 70.2365 -0.0003 -6.7040 -0.0002
# 4 0.0000 -0.0001 -0.0003 -147.8698 -0.0001 -100.2627
# 5 -5.2178 -7.7337 -6.7040 -0.0001 34.6903 -0.0001
# 6 0.0000 -0.0001 -0.0002 -100.2627 -0.0001 -34.1179
#
#
#
# Elastic Compliance Matrix: (Units=1/GPa)
#
#
# Indices 1 2 3 4 5 6 
#
# 1 0.008402 -0.002574 -0.002147 0.000000 0.000275 0.000000
# 2 -0.002574 0.009544 -0.001934 0.000000 0.001367 0.000000
# 3 -0.002147 -0.001934 0.015821 0.000000 0.002303 0.000000
# 4 0.000000 0.000000 0.000000 0.006813 0.000000 -0.020022
# 5 0.000275 0.001367 0.002303 0.000000 0.029618 0.000000
# 6 0.000000 0.000000 0.000000 -0.020022 0.000000 0.029529
#
#
# Mechanical properties :
#
#
# Convention : Reuss Voigt Hill
#
# Bulk Modulus (GPa) = 48.88465 56.78110 52.83287
# Shear Modulus (GPa) = 41.71675 -13.39228 14.16224
#
# Velocity S-wave (km/s) = 4.46958 -2.53244 2.60422
# Velocity P-wave (km/s) = 7.07432 4.31742 5.86029
#
# Compressibility (1/GPa) = 0.02045632
#
# Stress axis : x y z
#
# Youngs Moduli (GPa) = 119.02330 104.77818 63.20698
#
# Poissons Ratio (x) = 0.26973 0.13570
# Poissons Ratio (y) = 0.30640 0.12224
# Poissons Ratio (z) = 0.25554 0.20264
#
# Static dielectric constant tensor:
#      x y z
#    x 1.804480 0.000000 -0.016150 
#    y 0.000000 1.730030 0.000000 
#    z -0.016150 0.000000 1.773370 
# 
# From -- ./inp_files/263120.got.cif
#   From: 2010.05.17/outbox.cif.g08.bks.cpg/sg12_132_cif.got.tgz:263120.got - 2010.06.03 13:09:07.
