data_PCOD9215538
_publ_section_title
;
Structure prediction by ZEFSAII (Michael W. Deem and Ramdas Pophale) SiO2 
 PCOD9215538
Probable space group: C 2/M
;
_chemical_formula_sum "Si O2"
_cell_formula_units_Z 48
_cell_length_a 18.912608
_cell_length_b 18.887365
_cell_length_c 10.105224
_cell_angle_alpha 90.000000
_cell_angle_beta 140.380341
_cell_angle_gamma 90.000000
_cell_volume 2301.850988
_symmetry_space_group_name_H-M "C 2/M"
_symmetry_group_IT_number 12
_symmetry_cell_setting 'monoclinic'
loop_
_space_group_symop_operation_xyz
x,y,z
-x,y,-z
-x,-y,-z
x,-y,z
1/2+x,1/2+y,z
1/2-x,1/2+y,-z
1/2-x,1/2-y,-z
1/2+x,1/2-y,z
loop_
_atom_site_type_symbol
_atom_site_label
_atom_site_fract_x
_atom_site_fract_y
_atom_site_fract_z
Si Si1 0.839217 0.416329 0.129171
Si Si2 0.117357 0.416149 0.100666
Si Si3 0.297472 0.301285 0.454821
Si Si4 0.588738 0.422024 0.717811
Si Si5 0.237633 0.707885 0.843581
Si Si6 0.472996 0.362913 0.111471
O O1 0.846663 0.500000 0.177047
O O2 0.845335 0.359319 0.254460
O O3 0.903682 0.403618 0.086615
O O4 0.713666 0.397929 0.901678
O O5 0.146799 0.500000 0.156435
O O6 0.212921 0.366245 0.299882
O O7 0.000000 0.402953 0.000000
O O8 0.250000 0.250000 0.500000
O O9 0.308832 0.258451 0.335697
O O10 0.417266 0.324756 0.678350
O O11 0.500000 0.382148 0.500000
O O12 0.600941 0.500000 0.676152
O O13 0.547910 0.423075 0.809247
O O14 0.250000 0.750000 0.000000
O O15 0.359523 0.682844 0.964885
O O16 0.500000 0.383787 0.000000
#
# Coordination Sequence:
#
# PCOD9215538 Si02
#       6
#     8   8   8   8   8   8
#     4   9  18  36  62  91 125 162 208 263 319 387
#     4  10  22  41  67  96 130 178 225 268 324 396
#     4  12  25  40  64  96 130 170 215 280 329 388
#     4   9  18  33  58  89 119 153 197 250 311 385
#     4  11  23  41  63  96 128 167 213 265 330 395
#     4  11  24  40  58  88 126 164 210 261 330 386
#
# _framework density 20.852782000000001
#
# number of rings (size 3 to 8) (size 9 to 14) (size 15 to 20)
#    0.000    1.667    3.333    1.000    4.667    2.333 
#    0.000    0.833    0.000    0.000    0.000    4.667 
#    0.000    0.000    0.000    0.000    0.000    0.000 
#
# Total GULP energy -133726.803396 kJ/mol
# GULP energy per Si atom -5571.950141 kJ/mol
# Density = 2.080532 g / cm^3
# Si number density = 20.852782 Si / 1000 Ang^3
#
#
#
# Elastic Constant Matrix: (Units=GPa)
#
#
# Indices 1 2 3 4 5 6 
#
# 1 137.1048 33.7826 19.6735 0.0000 -19.9997 0.0000
# 2 33.7826 98.0437 18.2451 0.0000 -5.5758 0.0000
# 3 19.6735 18.2451 57.9418 0.0000 -19.8957 0.0000
# 4 0.0000 0.0000 0.0000 7.3892 0.0000 -13.1701
# 5 -19.9997 -5.5758 -19.8957 0.0000 34.9507 0.0000
# 6 0.0000 0.0000 0.0000 -13.1701 0.0000 25.4356
#
#
#
# Elastic Compliance Matrix: (Units=1/GPa)
#
#
# Indices 1 2 3 4 5 6 
#
# 1 0.008640 -0.002613 -0.000691 0.000000 0.004133 0.000000
# 2 -0.002613 0.011627 -0.003294 0.000000 -0.001516 0.000000
# 3 -0.000691 -0.003294 0.022640 0.000000 0.011967 0.000000
# 4 0.000000 0.000000 0.000000 1.754355 0.000000 0.908371
# 5 0.004133 -0.001516 0.011967 0.000000 0.037547 0.000000
# 6 0.000000 0.000000 0.000000 0.908371 0.000000 0.509652
#
#
# Mechanical properties :
#
#
# Convention : Reuss Voigt Hill
#
# Bulk Modulus (GPa) = 33.66038 48.49920 41.07979
# Shear Modulus (GPa) = 2.11188 28.31439 15.21313
#
# Velocity S-wave (km/s) = 1.00745 3.68886 2.70395
# Velocity P-wave (km/s) = 4.18691 6.43832 5.43057
#
# Compressibility (1/GPa) = 0.02970852
#
# Stress axis : x y z
#
# Youngs Moduli (GPa) = 115.74417 86.00812 44.17007
#
# Poissons Ratio (x) = 0.22476 0.03054
# Poissons Ratio (y) = 0.30247 0.14551
# Poissons Ratio (z) = 0.08002 0.28334
#
# Static dielectric constant tensor:
#      x y z
#    x 1.784630 0.000000 -0.026570 
#    y 0.000000 1.826330 0.000000 
#    z -0.026570 0.000000 1.895610 
# 
# From -- ./inp_files/77671.got.cif
#   From: 2010.05.17/outbox.cif.g08.bks.cpg/sg12_39_cif.got.tgz:77671.got - 2010.06.03 13:09:07.
