data_PCOD9215493
_publ_section_title
;
Structure prediction by ZEFSAII (Michael W. Deem and Ramdas Pophale) SiO2 
 PCOD9215493
Probable space group: C 2/M
;
_chemical_formula_sum "Si O2"
_cell_formula_units_Z 64
_cell_length_a 19.557300
_cell_length_b 18.119892
_cell_length_c 16.241864
_cell_angle_alpha 90.000000
_cell_angle_beta 31.729440
_cell_angle_gamma 90.000000
_cell_volume 3026.988482
_symmetry_space_group_name_H-M "C 2/M"
_symmetry_group_IT_number 12
_symmetry_cell_setting 'monoclinic'
loop_
_space_group_symop_operation_xyz
x,y,z
-x,y,-z
-x,-y,-z
x,-y,z
1/2+x,1/2+y,z
1/2-x,1/2+y,-z
1/2-x,1/2-y,-z
1/2+x,1/2-y,z
loop_
_atom_site_type_symbol
_atom_site_label
_atom_site_fract_x
_atom_site_fract_y
_atom_site_fract_z
Si Si1 0.081301 0.660824 0.832686
Si Si2 0.911611 0.912622 0.327123
Si Si3 0.565084 0.648399 0.317104
Si Si4 0.517211 0.684748 0.888980
Si Si5 0.264948 0.783888 0.892147
Si Si6 0.110493 0.412126 0.643675
Si Si7 0.673410 0.417055 0.352646
Si Si8 0.048524 0.588674 0.356320
O O1 0.030617 0.629027 0.797617
O O2 0.190796 0.603851 0.748859
O O3 0.116279 0.746150 0.779764
O O4 0.000000 0.666339 0.000000
O O5 0.762325 0.891016 0.499682
O O6 0.021780 0.875055 0.270716
O O7 0.938324 0.883906 0.209212
O O8 0.920952 0.000000 0.326319
O O9 0.634433 0.726217 0.251132
O O10 0.428529 0.639533 0.503825
O O11 0.661068 0.593048 0.267469
O O12 0.500000 0.663119 0.000000
O O13 0.378691 0.715653 0.998995
O O14 0.330351 0.863031 0.802884
O O15 0.250000 0.750000 0.000000
O O16 0.099886 0.500000 0.666655
O O17 0.061242 0.396705 0.601610
O O18 0.635410 0.500000 0.414595
O O19 0.075772 0.500000 0.327971
O O20 0.000000 0.606820 0.500000
#
# Coordination Sequence:
#
# PCOD9215493 Si02
#       8
#     8   8   8   8   8   8   8   8
#     4  11  23  42  64  94 138 178 222 276 343 408
#     4  11  23  42  68  96 132 176 223 279 340 407
#     4  11  22  40  65  95 135 176 217 276 332 403
#     4  11  26  44  64  96 134 173 225 279 340 413
#     4  12  25  46  67 100 138 180 232 287 346 416
#     4  10  22  41  66  97 133 173 228 282 337 412
#     4  11  23  40  65 100 135 171 222 274 334 414
#     4  10  25  47  72 101 137 184 241 299 354 414
#
# _framework density 21.143127
#
# number of rings (size 3 to 8) (size 9 to 14) (size 15 to 20)
#    0.000    1.125    2.500    4.125    3.500    3.250 
#    0.000    1.250    0.000    0.000    0.000    0.000 
#    0.000    0.000    0.000    0.000    0.000    0.000 
#
# Total GULP energy -178408.394918 kJ/mol
# GULP energy per Si atom -5575.262341 kJ/mol
# Density = 2.109500 g / cm^3
# Si number density = 21.143127 Si / 1000 Ang^3
#
#
#
# Elastic Constant Matrix: (Units=GPa)
#
#
# Indices 1 2 3 4 5 6 
#
# 1 107.4076 15.6788 22.4364 -0.0001 28.7148 0.0001
# 2 15.6788 55.2224 26.6839 -0.0002 -0.5984 0.0001
# 3 22.4364 26.6839 42.8442 -0.0002 15.3566 0.0001
# 4 -0.0001 -0.0002 -0.0002 27.7727 0.0002 0.7500
# 5 28.7148 -0.5984 15.3566 0.0002 35.8685 -0.0001
# 6 0.0001 0.0001 0.0001 0.7500 -0.0001 25.5900
#
#
#
# Elastic Compliance Matrix: (Units=1/GPa)
#
#
# Indices 1 2 3 4 5 6 
#
# 1 0.012583 -0.003083 -0.001229 0.000000 -0.009599 0.000000
# 2 -0.003083 0.029163 -0.020799 0.000000 0.011859 0.000000
# 3 -0.001229 -0.020799 0.043364 0.000000 -0.017929 0.000000
# 4 0.000000 0.000000 0.000000 0.036035 0.000000 -0.001056
# 5 -0.009599 0.011859 -0.017929 0.000000 0.043438 0.000000
# 6 0.000000 0.000000 0.000000 -0.001056 0.000000 0.039109
#
#
# Mechanical properties :
#
#
# Convention : Reuss Voigt Hill
#
# Bulk Modulus (GPa) = 28.66306 37.23027 32.94666
# Shear Modulus (GPa) = 18.82928 27.22457 23.02693
#
# Velocity S-wave (km/s) = 2.98747 3.59225 3.30373
# Velocity P-wave (km/s) = 5.04837 5.90361 5.49266
#
# Compressibility (1/GPa) = 0.03488812
#
# Stress axis : x y z
#
# Youngs Moduli (GPa) = 79.47063 34.29029 23.06043
#
# Poissons Ratio (x) = 0.10571 0.02834
# Poissons Ratio (y) = 0.24499 0.47964
# Poissons Ratio (z) = 0.09767 0.71322
#
# Static dielectric constant tensor:
#      x y z
#    x 1.839470 0.000000 0.037020 
#    y 0.000000 1.754530 0.000000 
#    z 0.037020 0.000000 1.820390 
# 
# From -- ./inp_files/226812.got.cif
#   From: 2010.05.17/outbox.cif.g08.bks.cpg/sg12_114_cif.got.tgz:226812.got - 2010.06.03 13:09:07.
