data_PCOD9215215
_publ_section_title
;
Structure prediction by ZEFSAII (Michael W. Deem and Ramdas Pophale) SiO2 
 PCOD9215215
Probable space group: C 2/M
;
_chemical_formula_sum "Si O2"
_cell_formula_units_Z 56
_cell_length_a 9.547260
_cell_length_b 14.659070
_cell_length_c 25.255089
_cell_angle_alpha 90.000000
_cell_angle_beta 122.257354
_cell_angle_gamma 90.000000
_cell_volume 2989.024768
_symmetry_space_group_name_H-M "C 2/M"
_symmetry_group_IT_number 12
_symmetry_cell_setting 'monoclinic'
loop_
_space_group_symop_operation_xyz
x,y,z
-x,y,-z
-x,-y,-z
x,-y,z
1/2+x,1/2+y,z
1/2-x,1/2+y,-z
1/2-x,1/2-y,-z
1/2+x,1/2-y,z
loop_
_atom_site_type_symbol
_atom_site_label
_atom_site_fract_x
_atom_site_fract_y
_atom_site_fract_z
Si Si1 0.308141 0.234917 0.952269
Si Si2 0.610214 0.107098 0.860381
Si Si3 0.202449 0.267764 0.660781
Si Si4 0.834908 0.599644 0.440723
Si Si5 0.429820 0.779156 0.251558
Si Si6 0.246270 0.889770 0.841481
Si Si7 0.593215 0.679746 0.463644
O O1 0.252108 0.328862 0.913285
O O2 0.243939 0.153546 0.900518
O O3 0.500000 0.219487 0.000000
O O4 0.250000 0.250000 0.000000
O O5 0.597812 0.144805 0.798393
O O6 0.432991 0.122024 0.854809
O O7 0.646559 0.000000 0.870307
O O8 0.221247 0.347839 0.622223
O O9 0.376471 0.217161 0.695944
O O10 0.167406 0.295643 0.713803
O O11 0.045628 0.213391 0.605715
O O12 0.886803 0.500000 0.434139
O O13 0.690738 0.598561 0.454782
O O14 0.000000 0.642826 0.500000
O O15 0.372036 0.679560 0.216266
O O16 0.209646 0.000000 0.832667
O O17 0.500000 0.660283 0.500000
O O18 0.750000 0.750000 0.500000
#
# Coordination Sequence:
#
# PCOD9215215 Si02
#       7
#     8   8   8   8   8   8   8
#     4  11  22  39  64  97 127 159 204 253 300 361
#     4  10  22  41  63  90 126 164 202 255 307 356
#     4  12  21  38  63  88 116 160 205 247 306 372
#     4  11  24  40  59  90 125 153 197 261 319 373
#     4  11  23  39  62  92 120 161 210 259 301 364
#     4  10  22  41  64  89 126 170 205 249 308 364
#     4  12  20  38  65  88 115 160 202 249 314 385
#
# _framework density 18.735208
#
# number of rings (size 3 to 8) (size 9 to 14) (size 15 to 20)
#    0.000    1.000    7.143    0.000    0.000    2.571 
#    0.000    2.143    0.000    0.000    0.000    0.000 
#    0.000    0.000    0.000    0.000    0.000    0.000 
#
# Total GULP energy -155924.539016 kJ/mol
# GULP energy per Si atom -5568.733536 kJ/mol
# Density = 1.869257 g / cm^3
# Si number density = 18.735208 Si / 1000 Ang^3
#
#
#
# Elastic Constant Matrix: (Units=GPa)
#
#
# Indices 1 2 3 4 5 6 
#
# 1 81.0642 1.4306 15.2768 0.0000 -27.7331 0.0000
# 2 1.4306 84.7595 29.6461 0.0000 -7.1302 0.0000
# 3 15.2768 29.6461 101.1464 0.0000 -15.9969 0.0000
# 4 0.0000 0.0000 0.0000 -6.6399 0.0000 15.7659
# 5 -27.7331 -7.1302 -15.9969 0.0000 48.2010 0.0000
# 6 0.0000 0.0000 0.0000 15.7659 0.0000 4.9334
#
#
#
# Elastic Compliance Matrix: (Units=1/GPa)
#
#
# Indices 1 2 3 4 5 6 
#
# 1 0.015512 0.000899 -0.001239 0.000000 0.008647 0.000000
# 2 0.000899 0.013220 -0.003820 0.000000 0.001205 0.000000
# 3 -0.001239 -0.003820 0.011600 0.000000 0.002572 0.000000
# 4 0.000000 0.000000 0.000000 -0.017537 0.000000 0.056042
# 5 0.008647 0.001205 0.002572 0.000000 0.026753 0.000000
# 6 0.000000 0.000000 0.000000 0.056042 0.000000 0.023603
#
#
# Mechanical properties :
#
#
# Convention : Reuss Voigt Hill
#
# Bulk Modulus (GPa) = 31.23803 39.96412 35.60108
# Shear Modulus (GPa) = 54.26378 24.00668 39.13523
#
# Velocity S-wave (km/s) = 5.38762 3.58350 4.57536
# Velocity P-wave (km/s) = 7.44389 6.20478 6.85240
#
# Compressibility (1/GPa) = 0.03201226
#
# Stress axis : x y z
#
# Youngs Moduli (GPa) = 64.46781 75.64047 86.20527
#
# Poissons Ratio (x) = -0.06799 0.10679
# Poissons Ratio (y) = -0.05795 0.32931
# Poissons Ratio (z) = 0.07986 0.28895
#
# Static dielectric constant tensor:
#      x y z
#    x 1.651070 0.000000 0.017640 
#    y 0.000000 1.652130 0.000000 
#    z 0.017640 0.000000 1.518850 
# 
# From -- ./inp_files/333016.got.cif
#   From: 2010.05.17/outbox.cif.g08.bks.cpg/sg12_167_cif.got.tgz:333016.got - 2010.06.03 13:09:07.
