data_PCOD9215495
_publ_section_title
;
Structure prediction by ZEFSAII (Michael W. Deem and Ramdas Pophale) SiO2 
 PCOD9215495
Probable space group: C 2/M
;
_chemical_formula_sum "Si O2"
_cell_formula_units_Z 40
_cell_length_a 11.862627
_cell_length_b 22.012782
_cell_length_c 6.874149
_cell_angle_alpha 90.000000
_cell_angle_beta 97.815518
_cell_angle_gamma 90.000000
_cell_volume 1778.368490
_symmetry_space_group_name_H-M "C 2/M"
_symmetry_group_IT_number 12
_symmetry_cell_setting 'monoclinic'
loop_
_space_group_symop_operation_xyz
x,y,z
-x,y,-z
-x,-y,-z
x,-y,z
1/2+x,1/2+y,z
1/2-x,1/2+y,-z
1/2-x,1/2-y,-z
1/2+x,1/2-y,z
loop_
_atom_site_type_symbol
_atom_site_label
_atom_site_fract_x
_atom_site_fract_y
_atom_site_fract_z
Si Si1 0.866834 0.732930 0.409011
Si Si2 0.609892 0.326371 0.911173
Si Si3 0.332502 0.427633 0.347757
Si Si4 0.119274 0.568012 0.046601
Si Si5 0.763124 0.386256 0.277403
O O1 0.750000 0.750000 0.500000
O O2 0.848412 0.771165 0.208629
O O3 0.854471 0.660877 0.382576
O O4 0.000000 0.747178 0.500000
O O5 0.585808 0.382938 0.755371
O O6 0.500000 0.305827 0.000000
O O7 0.690905 0.349294 0.101543
O O8 0.354265 0.500000 0.323976
O O9 0.314740 0.412915 0.569696
O O10 0.212282 0.408991 0.219204
O O11 0.096337 0.500000 0.115184
O O12 0.173874 0.566063 0.845794
O O13 0.000000 0.602086 0.000000
#
# Coordination Sequence:
#
# PCOD9215495 Si02
#       5
#     8   8   8   8   8
#     4  12  26  45  72 101 139 185 232 287 351 414
#     4  11  25  45  69  96 138 179 231 288 345 409
#     4  10  22  41  66  97 136 177 227 280 343 412
#     4   9  20  36  58  92 134 174 218 271 334 404
#     4  11  23  40  68  95 134 174 229 277 348 407
#
# _framework density 22.492525000000001
#
# number of rings (size 3 to 8) (size 9 to 14) (size 15 to 20)
#    0.000    1.400    2.000    2.400    2.800    2.000 
#    0.000    4.000    0.000    0.000    0.000    0.000 
#    0.000    0.000    0.000    0.000    0.000    0.000 
#
# Total GULP energy -111429.432563 kJ/mol
# GULP energy per Si atom -5571.471628 kJ/mol
# Density = 2.244133 g / cm^3
# Si number density = 22.492525 Si / 1000 Ang^3
#
#
#
# Elastic Constant Matrix: (Units=GPa)
#
#
# Indices 1 2 3 4 5 6 
#
# 1 101.4261 -0.7219 37.4237 0.0000 -14.3511 0.0000
# 2 -0.7219 70.1042 12.7288 0.0000 -12.7557 0.0000
# 3 37.4237 12.7288 109.6893 0.0000 -29.1169 0.0000
# 4 0.0000 0.0000 0.0000 33.9692 0.0000 -14.6580
# 5 -14.3511 -12.7557 -29.1169 0.0000 39.9060 0.0000
# 6 0.0000 0.0000 0.0000 -14.6580 0.0000 17.2811
#
#
#
# Elastic Compliance Matrix: (Units=1/GPa)
#
#
# Indices 1 2 3 4 5 6 
#
# 1 0.011437 0.001102 -0.003528 0.000000 0.001891 0.000000
# 2 0.001102 0.015282 -0.000927 0.000000 0.004605 0.000000
# 3 -0.003528 -0.000927 0.012417 0.000000 0.007495 0.000000
# 4 0.000000 0.000000 0.000000 0.046434 0.000000 0.039385
# 5 0.001891 0.004605 0.007495 0.000000 0.032680 0.000000
# 6 0.000000 0.000000 0.000000 0.039385 0.000000 0.091274
#
#
# Mechanical properties :
#
#
# Convention : Reuss Voigt Hill
#
# Bulk Modulus (GPa) = 30.83484 42.23120 36.53302
# Shear Modulus (GPa) = 22.02270 33.68388 27.85329
#
# Velocity S-wave (km/s) = 3.13247 3.87403 3.52282
# Velocity P-wave (km/s) = 5.17898 6.23115 5.72927
#
# Compressibility (1/GPa) = 0.03243085
#
# Stress axis : x y z
#
# Youngs Moduli (GPa) = 87.43926 65.43634 80.53181
#
# Poissons Ratio (x) = -0.07214 0.28410
# Poissons Ratio (y) = -0.09639 0.07467
# Poissons Ratio (z) = 0.30847 0.06067
#
# Static dielectric constant tensor:
#      x y z
#    x 2.063380 0.000000 0.069100 
#    y 0.000000 1.862630 0.000000 
#    z 0.069100 0.000000 1.832680 
# 
# From -- ./inp_files/7681.got.cif
#   From: 2010.05.17/outbox.cif.g08.bks.cpg/sg12_4_cif.got.tgz:7681.got - 2010.06.03 13:09:07.
