data_PCOD9215574
_publ_section_title
;
Structure prediction by ZEFSAII (Michael W. Deem and Ramdas Pophale) SiO2 
 PCOD9215574
Probable space group: C 2/M
;
_chemical_formula_sum "Si O2"
_cell_formula_units_Z 40
_cell_length_a 8.923141
_cell_length_b 16.180302
_cell_length_c 12.418589
_cell_angle_alpha 90.000000
_cell_angle_beta 95.577842
_cell_angle_gamma 90.000000
_cell_volume 1784.495235
_symmetry_space_group_name_H-M "C 2/M"
_symmetry_group_IT_number 12
_symmetry_cell_setting 'monoclinic'
loop_
_space_group_symop_operation_xyz
x,y,z
-x,y,-z
-x,-y,-z
x,-y,z
1/2+x,1/2+y,z
1/2-x,1/2+y,-z
1/2-x,1/2-y,-z
1/2+x,1/2-y,z
loop_
_atom_site_type_symbol
_atom_site_label
_atom_site_fract_x
_atom_site_fract_y
_atom_site_fract_z
Si Si1 0.327094 0.833383 0.962894
Si Si2 0.115439 0.092260 0.093501
Si Si3 0.181590 0.841004 0.511936
Si Si4 0.358604 0.900589 0.732270
Si Si5 0.201383 0.402337 0.703604
O O1 0.304684 0.855428 0.836845
O O2 0.500000 0.825976 0.000000
O O3 0.250000 0.750000 0.000000
O O4 0.265295 0.907218 0.032738
O O5 0.169999 0.134117 0.207550
O O6 0.056314 0.000000 0.112896
O O7 0.000000 0.131183 0.000000
O O8 0.250000 0.750000 0.500000
O O9 0.249533 0.877960 0.626182
O O10 0.246705 0.890300 0.414275
O O11 0.000000 0.840609 0.500000
O O12 0.530883 0.873175 0.714981
O O13 0.358661 0.000000 0.747880
O O14 0.199395 0.500000 0.727772
#
# Coordination Sequence:
#
# PCOD9215574 Si02
#       5
#     8   8   8   8   8
#     4  12  26  43  68 102 142 183 234 284 350 416
#     4  10  22  41  68 101 139 178 225 284 343 413
#     4  12  28  46  72 103 141 184 233 289 350 412
#     4  11  25  46  74 103 140 186 235 288 349 421
#     4  10  22  44  72 102 139 182 230 284 346 415
#
# _framework density 22.415300999999999
#
# number of rings (size 3 to 8) (size 9 to 14) (size 15 to 20)
#    0.000    1.000    2.000    3.600    5.600    5.600 
#    0.000    0.000    0.000    0.000    0.000    0.000 
#    0.000    0.000    0.000    0.000    0.000    0.000 
#
# Total GULP energy -111738.824016 kJ/mol
# GULP energy per Si atom -5586.941201 kJ/mol
# Density = 2.236428 g / cm^3
# Si number density = 22.415301 Si / 1000 Ang^3
#
#
#
# Elastic Constant Matrix: (Units=GPa)
#
#
# Indices 1 2 3 4 5 6 
#
# 1 86.9610 22.5426 43.8020 0.0000 18.3316 0.0000
# 2 22.5426 75.4231 29.0049 0.0000 2.1191 0.0000
# 3 43.8020 29.0049 219.7964 0.0000 14.7737 0.0000
# 4 0.0000 0.0000 0.0000 19.1168 0.0000 -26.4007
# 5 18.3316 2.1191 14.7737 0.0000 46.7680 0.0000
# 6 0.0000 0.0000 0.0000 -26.4007 0.0000 10.1745
#
#
#
# Elastic Compliance Matrix: (Units=1/GPa)
#
#
# Indices 1 2 3 4 5 6 
#
# 1 0.014459 -0.003374 -0.002110 0.000000 -0.004848 0.000000
# 2 -0.003374 0.014755 -0.001347 0.000000 0.001079 0.000000
# 3 -0.002110 -0.001347 0.005199 0.000000 -0.000754 0.000000
# 4 0.000000 0.000000 0.000000 -0.020248 0.000000 -0.052540
# 5 -0.004848 0.001079 -0.000754 0.000000 0.023472 0.000000
# 6 0.000000 0.000000 0.000000 -0.052540 0.000000 -0.038044
#
#
# Mechanical properties :
#
#
# Convention : Reuss Voigt Hill
#
# Bulk Modulus (GPa) = 48.19394 63.65329 55.92362
# Shear Modulus (GPa) = 247.87973 34.33393 141.10683
#
# Velocity S-wave (km/s) = 10.52735 3.91796 7.94278
# Velocity P-wave (km/s) = 13.01207 6.99472 10.44605
#
# Compressibility (1/GPa) = 0.02074950
#
# Stress axis : x y z
#
# Youngs Moduli (GPa) = 69.16147 67.77509 192.35573
#
# Poissons Ratio (x) = 0.22866 0.40594
# Poissons Ratio (y) = 0.23333 0.25916
# Poissons Ratio (z) = 0.14596 0.09131
#
# Static dielectric constant tensor:
#      x y z
#    x 1.794760 0.000000 0.028390 
#    y 0.000000 1.889700 0.000000 
#    z 0.028390 0.000000 1.867800 
# 
# From -- ./inp_files/118930.got.cif
#   From: 2010.05.17/outbox.cif.g08.bks.cpg/sg12_60_cif.got.tgz:118930.got - 2010.06.03 13:09:07.
