data_PCOD9215265
_publ_section_title
;
Structure prediction by ZEFSAII (Michael W. Deem and Ramdas Pophale) SiO2 
 PCOD9215265
Probable space group: C 2/M
;
_chemical_formula_sum "Si O2"
_cell_formula_units_Z 48
_cell_length_a 8.446457
_cell_length_b 17.616700
_cell_length_c 14.861163
_cell_angle_alpha 90.000000
_cell_angle_beta 83.916543
_cell_angle_gamma 90.000000
_cell_volume 2198.868849
_symmetry_space_group_name_H-M "C 2/M"
_symmetry_group_IT_number 12
_symmetry_cell_setting 'monoclinic'
loop_
_space_group_symop_operation_xyz
x,y,z
-x,y,-z
-x,-y,-z
x,-y,z
1/2+x,1/2+y,z
1/2-x,1/2+y,-z
1/2-x,1/2-y,-z
1/2+x,1/2-y,z
loop_
_atom_site_type_symbol
_atom_site_label
_atom_site_fract_x
_atom_site_fract_y
_atom_site_fract_z
Si Si1 0.654180 0.169589 0.138948
Si Si2 0.776154 0.665753 0.188761
Si Si3 0.320258 0.414188 0.975557
Si Si4 0.844113 0.586969 0.362699
Si Si5 0.822837 0.168113 0.473427
Si Si6 0.722296 0.912603 0.310365
O O1 0.706241 0.252509 0.168602
O O2 0.464106 0.164083 0.154974
O O3 0.730805 0.111160 0.205956
O O4 0.717248 0.146338 0.037629
O O5 0.691175 0.605969 0.128463
O O6 0.765485 0.642124 0.293516
O O7 0.261549 0.500000 0.994907
O O8 0.500000 0.408729 0.000000
O O9 0.806888 0.500000 0.341911
O O10 0.781020 0.607707 0.464421
O O11 0.034777 0.595530 0.346310
O O12 0.750000 0.250000 0.500000
O O13 0.815176 0.144514 0.369843
O O14 0.000000 0.165770 0.500000
O O15 0.770167 0.000000 0.320926
#
# Coordination Sequence:
#
# PCOD9215265 Si02
#       6
#     8   8   8   8   8   8
#     4  11  23  40  63  90 121 158 200 245 295 352
#     4  11  23  40  63  90 121 158 200 245 295 352
#     4  11  24  41  62  89 121 157 198 247 300 353
#     4  10  22  41  64  90 121 157 197 244 298 354
#     4  12  25  40  61  89 121 159 201 246 297 352
#     4  10  22  41  64  90 121 157 197 244 298 354
#
# _framework density 21.829407
#
# number of rings (size 3 to 8) (size 9 to 14) (size 15 to 20)
#    0.000    1.167    0.000    6.000    0.000   10.667 
#    0.000    0.000    0.000    0.000    0.000    0.000 
#    0.000    0.000    0.000    0.000    0.000    0.000 
#
# Total GULP energy -134362.133009 kJ/mol
# GULP energy per Si atom -5598.422209 kJ/mol
# Density = 2.177972 g / cm^3
# Si number density = 21.829407 Si / 1000 Ang^3
#
#
#
# Elastic Constant Matrix: (Units=GPa)
#
#
# Indices 1 2 3 4 5 6 
#
# 1 33.5740 12.8196 2.2332 0.0000 17.0153 0.0000
# 2 12.8196 89.2125 -8.2007 0.0000 22.9295 0.0000
# 3 2.2332 -8.2007 59.2534 0.0000 23.1261 0.0000
# 4 0.0000 0.0000 0.0000 37.1800 0.0000 -4.3334
# 5 17.0153 22.9295 23.1261 0.0000 34.7037 0.0000
# 6 0.0000 0.0000 0.0000 -4.3334 0.0000 9.9959
#
#
#
# Elastic Compliance Matrix: (Units=1/GPa)
#
#
# Indices 1 2 3 4 5 6 
#
# 1 0.043172 0.002317 0.010207 0.000000 -0.029500 0.000000
# 2 0.002317 0.016388 0.009258 0.000000 -0.018133 0.000000
# 3 0.010207 0.009258 0.029887 0.000000 -0.031038 0.000000
# 4 0.000000 0.000000 0.000000 0.028327 0.000000 0.012280
# 5 -0.029500 -0.018133 -0.031038 0.000000 0.075943 0.000000
# 6 0.000000 0.000000 0.000000 0.012280 0.000000 0.105364
#
#
# Mechanical properties :
#
#
# Convention : Reuss Voigt Hill
#
# Bulk Modulus (GPa) = 7.51822 21.74934 14.63378
# Shear Modulus (GPa) = 16.67470 28.05512 22.36491
#
# Velocity S-wave (km/s) = 2.76681 3.58886 3.20430
# Velocity P-wave (km/s) = 3.69574 5.21135 4.51756
#
# Compressibility (1/GPa) = 0.13301015
#
# Stress axis : x y z
#
# Youngs Moduli (GPa) = 23.16318 61.02073 33.45931
#
# Poissons Ratio (x) = -0.14136 -0.34152
# Poissons Ratio (y) = -0.05366 -0.30976
# Poissons Ratio (z) = -0.23643 -0.56493
#
# Static dielectric constant tensor:
#      x y z
#    x 1.760610 0.000000 0.002940 
#    y 0.000000 1.810940 0.000000 
#    z 0.002940 0.000000 1.747940 
# 
# From -- ./inp_files/195970.got.cif
#   From: 2010.05.17/outbox.cif.g08.bks.cpg/sg12_98_cif.got.tgz:195970.got - 2010.06.03 13:09:07.
