data_PCOD9215087
_publ_section_title
;
Structure prediction by ZEFSAII (Michael W. Deem and Ramdas Pophale) SiO2 
 PCOD9215087
Probable space group: C 2/M
;
_chemical_formula_sum "Si O2"
_cell_formula_units_Z 48
_cell_length_a 7.272540
_cell_length_b 25.195808
_cell_length_c 11.473240
_cell_angle_alpha 90.000000
_cell_angle_beta 113.114645
_cell_angle_gamma 90.000000
_cell_volume 1933.555655
_symmetry_space_group_name_H-M "C 2/M"
_symmetry_group_IT_number 12
_symmetry_cell_setting 'monoclinic'
loop_
_space_group_symop_operation_xyz
x,y,z
-x,y,-z
-x,-y,-z
x,-y,z
1/2+x,1/2+y,z
1/2-x,1/2+y,-z
1/2-x,1/2-y,-z
1/2+x,1/2-y,z
loop_
_atom_site_type_symbol
_atom_site_label
_atom_site_fract_x
_atom_site_fract_y
_atom_site_fract_z
Si Si1 0.532807 0.314211 0.319418
Si Si2 0.500000 0.837570 0.000000
Si Si3 0.443018 0.913692 0.620383
Si Si4 0.926700 0.695844 0.734025
Si Si5 0.000000 0.104634 0.500000
Si Si6 0.069945 0.110302 0.887619
Si Si7 0.081605 0.500000 0.829548
Si Si8 0.826134 0.000000 0.125043
O O1 0.298985 0.315999 0.288069
O O2 0.582104 0.252749 0.329789
O O3 0.605882 0.355248 0.433448
O O4 0.553841 0.342191 0.200995
O O5 0.530174 0.804228 0.887728
O O6 0.304577 0.874245 0.941008
O O7 0.500000 0.924304 0.500000
O O8 0.490345 0.852646 0.668317
O O9 0.569877 0.949401 0.741680
O O10 0.204069 0.925553 0.586177
O O11 0.053430 0.053714 0.820974
O O12 0.000000 0.104711 0.000000
O O13 0.876922 0.500000 0.852649
O O14 0.255378 0.500000 0.970478
#
# Coordination Sequence:
#
# PCOD9215087 Si02
#       8
#     8   4   8   8   4   8   4   4
#     4  10  24  39  62  93 128 171 221 263 318 379
#     4  10  22  41  60  92 132 165 208 274 320 376
#     4  11  25  43  68  97 130 170 221 263 319 381
#     4  10  23  39  63  93 128 172 216 264 324 378
#     4  10  24  43  60  92 130 167 214 274 310 372
#     4  11  24  40  65  97 129 167 216 260 323 392
#     4  11  23  45  72  99 126 172 212 261 330 390
#     4  11  21  42  72  93 133 168 203 271 324 387
#
# _framework density 24.824732000000001
#
# number of rings (size 3 to 8) (size 9 to 14) (size 15 to 20)
#    0.000    1.500    0.000    5.500    7.000    4.333 
#    0.000    2.500    0.000    0.000    0.000    0.000 
#    0.000    0.000    0.000    0.000    0.000    0.000 
#
# Total GULP energy -134191.222481 kJ/mol
# GULP energy per Si atom -5591.300937 kJ/mol
# Density = 2.476823 g / cm^3
# Si number density = 24.824732 Si / 1000 Ang^3
#
#
#
# Elastic Constant Matrix: (Units=GPa)
#
#
# Indices 1 2 3 4 5 6 
#
# 1 96.5260 8.4397 20.0296 0.0000 -1.2370 0.0000
# 2 8.4397 91.8054 12.3315 0.0000 -0.9971 0.0000
# 3 20.0296 12.3315 91.3416 0.0000 -18.2530 0.0000
# 4 0.0000 0.0000 0.0000 30.1580 0.0000 -2.3582
# 5 -1.2370 -0.9971 -18.2530 0.0000 44.6795 0.0000
# 6 0.0000 0.0000 0.0000 -2.3582 0.0000 -2.5436
#
#
#
# Elastic Compliance Matrix: (Units=1/GPa)
#
#
# Indices 1 2 3 4 5 6 
#
# 1 0.010918 -0.000683 -0.002444 0.000000 -0.000711 0.000000
# 2 -0.000683 0.011143 -0.001425 0.000000 -0.000352 0.000000
# 3 -0.002444 -0.001425 0.012693 0.000000 0.005086 0.000000
# 4 0.000000 0.000000 0.000000 0.030917 0.000000 -0.028664
# 5 -0.000711 -0.000352 0.005086 0.000000 0.024432 0.000000
# 6 0.000000 0.000000 0.000000 -0.028664 0.000000 -0.366571
#
#
# Mechanical properties :
#
#
# Convention : Reuss Voigt Hill
#
# Bulk Modulus (GPa) = 38.98784 40.14162 39.56473
# Shear Modulus (GPa) = -19.31881 30.38359 5.53239
#
# Velocity S-wave (km/s) = -2.79267 3.50226 1.49446
# Velocity P-wave (km/s) = 2.31100 5.70610 4.35317
#
# Compressibility (1/GPa) = 0.02564902
#
# Stress axis : x y z
#
# Youngs Moduli (GPa) = 91.59479 89.74255 78.78652
#
# Poissons Ratio (x) = 0.06130 0.19255
# Poissons Ratio (y) = 0.06257 0.11227
# Poissons Ratio (z) = 0.22386 0.12788
#
# Static dielectric constant tensor:
#      x y z
#    x 1.955970 0.000000 0.020590 
#    y 0.000000 2.367570 0.000000 
#    z 0.020590 0.000000 2.097470 
# 
# From -- ./inp_files/122643.got.cif
#   From: 2010.05.17/outbox.cif.g08.bks.cpg/sg12_62_cif.got.tgz:122643.got - 2010.06.03 13:09:07.
