data_PCOD9215619
_publ_section_title
;
Structure prediction by ZEFSAII (Michael W. Deem and Ramdas Pophale) SiO2 
 PCOD9215619
Probable space group: C 2/M
;
_chemical_formula_sum "Si O2"
_cell_formula_units_Z 36
_cell_length_a 25.635439
_cell_length_b 11.961476
_cell_length_c 5.235558
_cell_angle_alpha 90.000000
_cell_angle_beta 108.036380
_cell_angle_gamma 90.000000
_cell_volume 1526.529276
_symmetry_space_group_name_H-M "C 2/M"
_symmetry_group_IT_number 12
_symmetry_cell_setting 'monoclinic'
loop_
_space_group_symop_operation_xyz
x,y,z
-x,y,-z
-x,-y,-z
x,-y,z
1/2+x,1/2+y,z
1/2-x,1/2+y,-z
1/2-x,1/2-y,-z
1/2+x,1/2-y,z
loop_
_atom_site_type_symbol
_atom_site_label
_atom_site_fract_x
_atom_site_fract_y
_atom_site_fract_z
Si Si1 0.776666 0.500000 0.846916
Si Si2 0.295266 0.500000 0.761592
Si Si3 0.857008 0.624863 0.278781
Si Si4 0.538872 0.500000 0.314022
Si Si5 0.441207 0.870702 0.030201
Si Si6 0.871488 0.814703 0.649429
O O1 0.729476 0.500000 0.993224
O O2 0.816337 0.604088 0.976848
O O3 0.750632 0.500000 0.530493
O O4 0.332351 0.392063 0.758327
O O5 0.852417 0.500000 0.396762
O O6 0.840757 0.737839 0.395043
O O7 0.921355 0.635448 0.295590
O O8 0.500000 0.500000 0.500000
O O9 0.580557 0.395119 0.384323
O O10 0.500000 0.500000 0.000000
O O11 0.402367 0.778937 0.854044
O O12 0.430289 0.000000 0.948845
O O13 0.500000 0.846450 0.000000
#
# Coordination Sequence:
#
# PCOD9215619 Si02
#       6
#     4   4   8   4   8   8
#     4  10  26  49  69 104 141 182 238 301 351 403
#     4  11  28  46  70 103 140 191 239 285 356 413
#     4   9  23  42  69 103 140 178 235 296 345 419
#     4  11  28  47  68 104 144 188 235 280 342 417
#     4  10  22  41  69 103 143 183 230 291 360 416
#     4  11  25  41  72  97 144 183 240 284 347 425
#
# _framework density 23.582910999999999
#
# number of rings (size 3 to 8) (size 9 to 14) (size 15 to 20)
#    0.667    1.111    0.000    1.333   12.444    3.556 
#    0.000    3.333    0.000    0.000    0.000    0.000 
#    0.000    0.000    0.000    0.000    0.000    0.000 
#
# Total GULP energy -100401.547699 kJ/mol
# GULP energy per Si atom -5577.863761 kJ/mol
# Density = 2.352923 g / cm^3
# Si number density = 23.582911 Si / 1000 Ang^3
#
#
#
# Elastic Constant Matrix: (Units=GPa)
#
#
# Indices 1 2 3 4 5 6 
#
# 1 166.0799 44.4674 12.5797 0.0000 -31.0462 0.0000
# 2 44.4674 132.0726 17.4594 0.0000 6.1809 0.0000
# 3 12.5797 17.4594 53.4170 0.0000 -3.2925 0.0000
# 4 0.0000 0.0000 0.0000 32.8946 0.0000 14.1728
# 5 -31.0462 6.1809 -3.2925 0.0000 29.1276 0.0000
# 6 0.0000 0.0000 0.0000 14.1728 0.0000 23.5400
#
#
#
# Elastic Compliance Matrix: (Units=1/GPa)
#
#
# Indices 1 2 3 4 5 6 
#
# 1 0.008851 -0.003408 -0.000347 0.000000 0.010118 0.000000
# 2 -0.003408 0.009341 -0.002615 0.000000 -0.005910 0.000000
# 3 -0.000347 -0.002615 0.019806 0.000000 0.002424 0.000000
# 4 0.000000 0.000000 0.000000 0.041048 0.000000 -0.024714
# 5 0.010118 -0.005910 0.002424 0.000000 0.046645 0.000000
# 6 0.000000 0.000000 0.000000 -0.024714 0.000000 0.057361
#
#
# Mechanical properties :
#
#
# Convention : Reuss Voigt Hill
#
# Bulk Modulus (GPa) = 39.58890 55.62027 47.60458
# Shear Modulus (GPa) = 24.48432 35.58330 30.03381
#
# Velocity S-wave (km/s) = 3.22564 3.88862 3.57254
# Velocity P-wave (km/s) = 5.54045 6.61801 6.10306
#
# Compressibility (1/GPa) = 0.02525961
#
# Stress axis : x y z
#
# Youngs Moduli (GPa) = 112.97646 107.05214 50.48859
#
# Poissons Ratio (x) = 0.36482 0.01752
# Poissons Ratio (y) = 0.38500 0.13202
# Poissons Ratio (z) = 0.03920 0.27993
#
# Static dielectric constant tensor:
#      x y z
#    x 1.959430 0.000000 -0.076270 
#    y 0.000000 1.840020 0.000000 
#    z -0.076270 0.000000 2.097560 
# 
# From -- ./inp_files/23706.got.cif
#   From: 2010.05.17/outbox.cif.g08.bks.cpg/sg12_12_cif.got.tgz:23706.got - 2010.06.03 13:09:07.
