data_PCOD9215701
_publ_section_title
;
Structure prediction by ZEFSAII (Michael W. Deem and Ramdas Pophale) SiO2 
 PCOD9215701
Probable space group: C 2/M
;
_chemical_formula_sum "Si O2"
_cell_formula_units_Z 44
_cell_length_a 14.660230
_cell_length_b 24.657308
_cell_length_c 6.597793
_cell_angle_alpha 90.000000
_cell_angle_beta 58.859142
_cell_angle_gamma 90.000000
_cell_volume 2041.302686
_symmetry_space_group_name_H-M "C 2/M"
_symmetry_group_IT_number 12
_symmetry_cell_setting 'monoclinic'
loop_
_space_group_symop_operation_xyz
x,y,z
-x,y,-z
-x,-y,-z
x,-y,z
1/2+x,1/2+y,z
1/2-x,1/2+y,-z
1/2-x,1/2-y,-z
1/2+x,1/2-y,z
loop_
_atom_site_type_symbol
_atom_site_label
_atom_site_fract_x
_atom_site_fract_y
_atom_site_fract_z
Si Si1 0.500000 0.646010 0.500000
Si Si2 0.213584 0.000000 0.232962
Si Si3 0.339624 0.590431 0.388608
Si Si4 0.931513 0.500000 0.786025
Si Si5 0.815468 0.766783 0.730983
Si Si6 0.000000 0.597426 0.000000
Si Si7 0.334196 0.823282 0.411707
Si Si8 0.385851 0.500000 0.032785
O O1 0.449101 0.611218 0.371378
O O2 0.598637 0.685619 0.328528
O O3 0.302974 0.000000 0.953411
O O4 0.109666 0.000000 0.212994
O O5 0.215090 0.947649 0.375228
O O6 0.266142 0.640144 0.410560
O O7 0.340980 0.553856 0.187671
O O8 0.959208 0.554799 0.877482
O O9 0.000000 0.500000 0.500000
O O10 0.719895 0.786818 0.697118
O O11 0.870003 0.716034 0.551796
O O12 0.750000 0.750000 0.000000
O O13 0.080827 0.637027 0.789323
O O14 0.500000 0.500000 0.000000
#
# Coordination Sequence:
#
# PCOD9215701 Si02
#       8
#     4   4   8   4   8   4   8   4
#     4  10  22  43  66  88 128 169 216 278 336 392
#     4  11  22  41  63  95 134 168 220 277 316 420
#     4  10  22  42  63  89 131 170 209 270 336 389
#     4  11  26  40  66 103 131 178 222 270 336 418
#     4  10  24  43  64  95 126 166 222 274 323 392
#     4  11  24  44  68  94 140 172 220 275 338 404
#     4  10  23  42  63  92 125 173 211 266 334 379
#     4  11  24  36  63  97 121 167 218 260 328 401
#
# _framework density 21.554862
#
# number of rings (size 3 to 8) (size 9 to 14) (size 15 to 20)
#    0.000    1.636    1.818    1.091    5.091    7.273 
#    0.000    1.818    0.000    0.000    0.000    0.000 
#    0.000    0.000    0.000    0.000    0.000    0.000 
#
# Total GULP energy -122655.830039 kJ/mol
# GULP energy per Si atom -5575.265002 kJ/mol
# Density = 2.150580 g / cm^3
# Si number density = 21.554862 Si / 1000 Ang^3
#
#
#
# Elastic Constant Matrix: (Units=GPa)
#
#
# Indices 1 2 3 4 5 6 
#
# 1 53.6386 29.3741 10.0183 0.0000 -4.6378 0.0000
# 2 29.3741 120.9148 42.2575 0.0000 7.5172 0.0000
# 3 10.0183 42.2575 81.2353 0.0000 -5.9425 0.0000
# 4 0.0000 0.0000 0.0000 6.8333 0.0000 -21.8806
# 5 -4.6378 7.5172 -5.9425 0.0000 11.4797 0.0000
# 6 0.0000 0.0000 0.0000 -21.8806 0.0000 23.2438
#
#
#
# Elastic Compliance Matrix: (Units=1/GPa)
#
#
# Indices 1 2 3 4 5 6 
#
# 1 0.023673 -0.007446 0.002089 0.000000 0.015521 0.000000
# 2 -0.007446 0.013610 -0.007311 0.000000 -0.015705 0.000000
# 3 0.002089 -0.007311 0.016907 0.000000 0.014383 0.000000
# 4 0.000000 0.000000 0.000000 -0.072653 0.000000 -0.068392
# 5 0.015521 -0.015705 0.014383 0.000000 0.111111 0.000000
# 6 0.000000 0.000000 0.000000 -0.068392 0.000000 -0.021359
#
#
# Mechanical properties :
#
#
# Convention : Reuss Voigt Hill
#
# Bulk Modulus (GPa) = 34.65495 46.56539 40.61017
# Shear Modulus (GPa) = 47.06209 19.92060 33.49134
#
# Velocity S-wave (km/s) = 4.67772 3.04333 3.94607
# Velocity P-wave (km/s) = 6.72957 5.83089 6.29629
#
# Compressibility (1/GPa) = 0.02885590
#
# Stress axis : x y z
#
# Youngs Moduli (GPa) = 42.24271 73.47309 59.14623
#
# Poissons Ratio (x) = 0.54708 -0.12357
# Poissons Ratio (y) = 0.31454 0.43239
# Poissons Ratio (z) = -0.08826 0.53713
#
# Static dielectric constant tensor:
#      x y z
#    x 1.900320 0.000000 -0.035010 
#    y 0.000000 1.721300 0.000000 
#    z -0.035010 0.000000 1.726690 
# 
# From -- ./inp_files/16869.got.cif
#   From: 2010.05.17/outbox.cif.g08.bks.cpg/sg12_9_cif.got.tgz:16869.got - 2010.06.03 13:09:07.
