data_PCOD9215181
_publ_section_title
;
Structure prediction by ZEFSAII (Michael W. Deem and Ramdas Pophale) SiO2 
 PCOD9215181
Probable space group: C 2/M
;
_chemical_formula_sum "Si O2"
_cell_formula_units_Z 56
_cell_length_a 20.498734
_cell_length_b 8.616668
_cell_length_c 26.877924
_cell_angle_alpha 90.000000
_cell_angle_beta 38.371620
_cell_angle_gamma 90.000000
_cell_volume 2947.036475
_symmetry_space_group_name_H-M "C 2/M"
_symmetry_group_IT_number 12
_symmetry_cell_setting 'monoclinic'
loop_
_space_group_symop_operation_xyz
x,y,z
-x,y,-z
-x,-y,-z
x,-y,z
1/2+x,1/2+y,z
1/2-x,1/2+y,-z
1/2-x,1/2-y,-z
1/2+x,1/2-y,z
loop_
_atom_site_type_symbol
_atom_site_label
_atom_site_fract_x
_atom_site_fract_y
_atom_site_fract_z
Si Si1 0.767926 0.185415 0.934345
Si Si2 0.813194 0.687873 0.303629
Si Si3 0.022269 0.814548 0.351211
Si Si4 0.091711 0.188892 0.483135
Si Si5 0.622327 0.812950 0.930862
Si Si6 0.980138 0.685706 0.758199
Si Si7 0.748797 0.183651 0.238628
O O1 0.673730 0.229176 0.952996
O O2 0.875877 0.244930 0.845460
O O3 0.771446 0.000000 0.934707
O O4 0.750000 0.250000 0.000000
O O5 0.811607 0.500000 0.299873
O O6 0.706228 0.736670 0.395790
O O7 0.916481 0.731713 0.272629
O O8 0.809895 0.761080 0.251069
O O9 0.938511 0.762830 0.442970
O O10 0.009976 0.739706 0.304616
O O11 0.136770 0.769569 0.303667
O O12 0.016683 0.000000 0.349376
O O13 0.000000 0.240439 0.500000
O O14 0.090114 0.000000 0.483608
O O15 0.687647 0.732065 0.848335
O O16 0.632281 0.000000 0.918890
O O17 0.500000 0.772811 0.000000
O O18 0.971713 0.500000 0.764332
O O19 0.731659 0.000000 0.249783
#
# Coordination Sequence:
#
# PCOD9215181 Si02
#       7
#     8   8   8   8   8   8   8
#     4  11  24  42  65  90 123 163 201 248 303 361
#     4  10  22  41  63  88 122 165 207 249 303 363
#     4  11  21  38  65  89 119 164 208 250 303 362
#     4   9  17  34  62  90 116 156 210 254 297 360
#     4  10  23  43  66  91 119 158 204 246 299 363
#     4  11  24  41  62  90 126 163 203 250 304 365
#     4  12  24  38  61  93 126 159 202 253 304 356
#
# _framework density 19.002140000000001
#
# number of rings (size 3 to 8) (size 9 to 14) (size 15 to 20)
#    0.000    1.429    2.857    2.571    2.000    2.571 
#    0.000    2.143    0.000    0.000    0.000    0.000 
#    0.000    0.000    0.000    0.000    0.000    0.000 
#
# Total GULP energy -156508.186388 kJ/mol
# GULP energy per Si atom -5589.578085 kJ/mol
# Density = 1.895889 g / cm^3
# Si number density = 19.002140 Si / 1000 Ang^3
#
#
#
# Elastic Constant Matrix: (Units=GPa)
#
#
# Indices 1 2 3 4 5 6 
#
# 1 172.8893 38.3978 74.3297 0.0000 10.1956 -0.0001
# 2 38.3978 29.2922 30.6327 0.0001 3.1553 -0.0002
# 3 74.3297 30.6327 106.9213 0.0000 14.1226 -0.0003
# 4 0.0000 0.0001 0.0000 14.2502 0.0000 7.3584
# 5 10.1956 3.1553 14.1226 0.0000 41.1179 0.0001
# 6 -0.0001 -0.0002 -0.0003 7.3584 0.0001 29.0225
#
#
#
# Elastic Compliance Matrix: (Units=1/GPa)
#
#
# Indices 1 2 3 4 5 6 
#
# 1 0.009352 -0.007808 -0.004229 0.000000 -0.000267 0.000000
# 2 -0.007808 0.055309 -0.010594 0.000000 0.001330 0.000000
# 3 -0.004229 -0.010594 0.015799 0.000000 -0.003565 0.000000
# 4 0.000000 0.000000 0.000000 0.080746 0.000000 -0.020472
# 5 -0.000267 0.001330 -0.003565 0.000000 0.025509 0.000000
# 6 0.000000 0.000000 0.000000 -0.020472 0.000000 0.039647
#
#
# Mechanical properties :
#
#
# Convention : Reuss Voigt Hill
#
# Bulk Modulus (GPa) = 28.41061 66.20257 47.30659
# Shear Modulus (GPa) = 17.64570 27.92763 22.78667
#
# Velocity S-wave (km/s) = 3.05063 3.83784 3.46665
# Velocity P-wave (km/s) = 5.23375 7.38606 6.40102
#
# Compressibility (1/GPa) = 0.03519812
#
# Stress axis : x y z
#
# Youngs Moduli (GPa) = 106.92784 18.08033 63.29634
#
# Poissons Ratio (x) = 0.14116 0.26769
# Poissons Ratio (y) = 0.83486 0.67055
# Poissons Ratio (z) = 0.45222 0.19154
#
# Static dielectric constant tensor:
#      x y z
#    x 1.643410 0.000000 -0.001210 
#    y 0.000000 1.643550 0.000000 
#    z -0.001210 0.000000 1.637600 
# 
# From -- ./inp_files/362992.got.cif
#   From: 2010.05.17/outbox.cif.g08.bks.cpg/sg12_182_cif.got.tgz:362992.got - 2010.06.03 13:09:07.
