data_PCOD9215878
_publ_section_title
;
Structure prediction by ZEFSAII (Michael W. Deem and Ramdas Pophale) SiO2 
 PCOD9215878
Probable space group: C 2/M
;
_chemical_formula_sum "Si O2"
_cell_formula_units_Z 48
_cell_length_a 12.107564
_cell_length_b 15.001613
_cell_length_c 24.593276
_cell_angle_alpha 90.000000
_cell_angle_beta 28.042271
_cell_angle_gamma 90.000000
_cell_volume 2100.015358
_symmetry_space_group_name_H-M "C 2/M"
_symmetry_group_IT_number 12
_symmetry_cell_setting 'monoclinic'
loop_
_space_group_symop_operation_xyz
x,y,z
-x,y,-z
-x,-y,-z
x,-y,z
1/2+x,1/2+y,z
1/2-x,1/2+y,-z
1/2-x,1/2-y,-z
1/2+x,1/2-y,z
loop_
_atom_site_type_symbol
_atom_site_label
_atom_site_fract_x
_atom_site_fract_y
_atom_site_fract_z
Si Si1 0.279264 0.896876 0.634959
Si Si2 0.443467 0.599204 0.466043
Si Si3 0.396297 0.665955 0.720396
Si Si4 0.413753 0.860159 0.693357
Si Si5 0.421361 0.398841 0.948578
Si Si6 0.095640 0.307127 0.016531
O O1 0.500000 0.876664 0.500000
O O2 0.312273 0.844103 0.676713
O O3 0.044702 0.886701 0.701008
O O4 0.299274 0.000000 0.643613
O O5 0.500000 0.642834 0.500000
O O6 0.549080 0.500000 0.422763
O O7 0.538192 0.640232 0.369258
O O8 0.162902 0.593148 0.581450
O O9 0.473971 0.767127 0.694979
O O10 0.116842 0.669018 0.850208
O O11 0.201797 0.901195 0.819926
O O12 0.347054 0.500000 0.998585
O O13 0.359545 0.301338 0.003296
O O14 0.307047 0.372364 0.940424
O O15 0.000000 0.330273 0.000000
#
# Coordination Sequence:
#
# PCOD9215878 Si02
#       6
#     8   8   8   8   8   8
#     4  11  22  36  60  90 125 166 211 263 315 380
#     4  11  24  41  62  93 136 173 210 262 323 396
#     4  11  24  39  66  94 130 170 214 266 328 386
#     4  11  23  39  64  93 129 167 218 267 320 393
#     4  10  22  42  67  93 128 173 218 270 328 391
#     4  10  23  44  66  98 132 166 223 279 328 390
#
# _framework density 22.856977000000001
#
# number of rings (size 3 to 8) (size 9 to 14) (size 15 to 20)
#    0.000    1.333    1.667    3.500    2.333    2.000 
#    6.000    0.000    0.000    0.000    0.000    0.000 
#    0.000    0.000    0.000    0.000    0.000    0.000 
#
# Total GULP energy -133810.056809 kJ/mol
# GULP energy per Si atom -5575.419034 kJ/mol
# Density = 2.280495 g / cm^3
# Si number density = 22.856977 Si / 1000 Ang^3
#
#
#
# Elastic Constant Matrix: (Units=GPa)
#
#
# Indices 1 2 3 4 5 6 
#
# 1 99.1918 -10.8083 14.8388 -0.0044 -19.5929 0.0019
# 2 -10.8083 77.3024 25.6339 -0.0054 -10.0547 0.0036
# 3 14.8388 25.6339 82.8846 0.0067 -14.1600 -0.0078
# 4 -0.0044 -0.0054 0.0067 3.3609 -0.0041 -1.0179
# 5 -19.5929 -10.0547 -14.1600 -0.0041 15.9650 -0.0002
# 6 0.0019 0.0036 -0.0078 -1.0179 -0.0002 14.9407
#
#
#
# Elastic Compliance Matrix: (Units=1/GPa)
#
#
# Indices 1 2 3 4 5 6 
#
# 1 0.014822 0.004987 -0.000650 0.000054 0.020754 0.000000
# 2 0.004987 0.016604 -0.003767 0.000056 0.013237 -0.000003
# 3 -0.000650 -0.003767 0.015091 -0.000022 0.010215 0.000007
# 4 0.000054 0.000056 -0.000022 0.303810 0.000159 0.020698
# 5 0.020754 0.013237 0.010215 0.000159 0.105504 0.000011
# 6 0.000000 -0.000003 0.000007 0.020698 0.000011 0.068341
#
#
# Mechanical properties :
#
#
# Convention : Reuss Voigt Hill
#
# Bulk Modulus (GPa) = 20.98271 35.41193 28.19732
# Shear Modulus (GPa) = 9.27785 22.16762 15.72273
#
# Velocity S-wave (km/s) = 2.01690 3.11760 2.62558
# Velocity P-wave (km/s) = 3.82411 5.33720 4.64271
#
# Compressibility (1/GPa) = 0.04765830
#
# Stress axis : x y z
#
# Youngs Moduli (GPa) = 67.46874 60.22505 66.26273
#
# Poissons Ratio (x) = -0.30037 0.04310
# Poissons Ratio (y) = -0.33650 0.24959
# Poissons Ratio (z) = 0.04388 0.22685
#
# Static dielectric constant tensor:
#      x y z
#    x 1.860910 0.000000 0.001840 
#    y 0.000000 1.851380 0.000000 
#    z 0.001840 0.000000 1.887940 
# 
# From -- ./inp_files/358327.got.cif
#   From: 2010.05.17/outbox.cif.g08.bks.cpg/sg12_180_cif.got.tgz:358327.got - 2010.06.03 13:09:07.
