data_PCOD9215434
_publ_section_title
;
Structure prediction by ZEFSAII (Michael W. Deem and Ramdas Pophale) SiO2 
 PCOD9215434
Probable space group: C 2/M
;
_chemical_formula_sum "Si O2"
_cell_formula_units_Z 58
_cell_length_a 18.038799
_cell_length_b 21.730149
_cell_length_c 7.938645
_cell_angle_alpha 90.000000
_cell_angle_beta 125.172290
_cell_angle_gamma 90.000000
_cell_volume 2543.688160
_symmetry_space_group_name_H-M "C 2/M"
_symmetry_group_IT_number 12
_symmetry_cell_setting 'monoclinic'
loop_
_space_group_symop_operation_xyz
x,y,z
-x,y,-z
-x,-y,-z
x,-y,z
1/2+x,1/2+y,z
1/2-x,1/2+y,-z
1/2-x,1/2-y,-z
1/2+x,1/2-y,z
loop_
_atom_site_type_symbol
_atom_site_label
_atom_site_fract_x
_atom_site_fract_y
_atom_site_fract_z
Si Si1 0.500000 0.000000 0.000000
Si Si2 0.590380 0.431372 0.733675
Si Si3 0.587279 0.313406 0.234794
Si Si4 0.957407 0.307005 0.628596
Si Si5 0.190054 0.173758 0.053289
Si Si6 0.848156 0.396417 0.690290
Si Si7 0.654130 0.433906 0.465665
Si Si8 0.653555 0.183788 0.987149
O O1 0.422059 0.054534 0.855279
O O2 0.500000 0.424341 0.500000
O O3 0.589791 0.500000 0.809463
O O4 0.618073 0.376936 0.894427
O O5 0.664781 0.431264 0.681492
O O6 0.583469 0.257374 0.360104
O O7 0.589794 0.378913 0.326462
O O8 0.500000 0.305425 0.000000
O O9 0.676840 0.317337 0.235249
O O10 0.887435 0.360428 0.580573
O O11 0.000000 0.300984 0.500000
O O12 0.046545 0.326303 0.848087
O O13 0.162927 0.243061 0.965439
O O14 0.284335 0.157786 0.083522
O O15 0.753895 0.428441 0.521628
O O16 0.821220 0.345056 0.798801
O O17 0.614121 0.500000 0.368764
#
# Coordination Sequence:
#
# PCOD9215434 Si02
#       8
#     2   8   8   8   8   8   8   8
#     4  12  24  44  90 100 140 192 230 280 360 420
#     4  10  22  41  65  99 140 184 233 284 347 422
#     4  12  25  44  69 100 144 187 233 288 355 411
#     4  12  27  44  72 104 140 180 235 294 352 421
#     4  11  23  39  68 100 133 183 227 289 343 420
#     4  12  23  49  75 107 138 188 230 289 351 424
#     4  11  26  43  68 104 143 185 238 287 339 423
#     4  11  23  43  68 101 140 174 233 286 353 422
#
# _framework density 22.801538999999998
#
# number of rings (size 3 to 8) (size 9 to 14) (size 15 to 20)
#    0.000    0.690    6.207    0.828    3.862    1.379 
#    0.000    0.345    3.034    0.000    0.000    0.000 
#    0.000    0.000    0.000    0.000    0.000    0.000 
#
# Total GULP energy -161542.538996 kJ/mol
# GULP energy per Si atom -5570.432379 kJ/mol
# Density = 2.274964 g / cm^3
# Si number density = 22.801539 Si / 1000 Ang^3
#
#
#
# Elastic Constant Matrix: (Units=GPa)
#
#
# Indices 1 2 3 4 5 6 
#
# 1 150.2066 52.6147 19.0722 0.0000 -15.6763 0.0000
# 2 52.6147 165.8986 39.7132 0.0000 -9.2259 0.0000
# 3 19.0722 39.7132 21.5404 0.0000 -5.9395 0.0000
# 4 0.0000 0.0000 0.0000 26.6900 0.0000 2.9906
# 5 -15.6763 -9.2259 -5.9395 0.0000 41.5048 0.0000
# 6 0.0000 0.0000 0.0000 2.9906 0.0000 10.3326
#
#
#
# Elastic Compliance Matrix: (Units=1/GPa)
#
#
# Indices 1 2 3 4 5 6 
#
# 1 0.007866 -0.001521 -0.003576 0.000000 0.002121 0.000000
# 2 -0.001521 0.011092 -0.019346 0.000000 -0.000877 0.000000
# 3 -0.003576 -0.019346 0.087138 0.000000 0.006819 0.000000
# 4 0.000000 0.000000 0.000000 0.038723 0.000000 -0.011208
# 5 0.002121 -0.000877 0.006819 0.000000 0.025676 0.000000
# 6 0.000000 0.000000 0.000000 -0.011208 0.000000 0.100025
#
#
# Mechanical properties :
#
#
# Convention : Reuss Voigt Hill
#
# Bulk Modulus (GPa) = 17.47914 62.27176 39.87545
# Shear Modulus (GPa) = 14.77211 30.78850 22.78031
#
# Velocity S-wave (km/s) = 2.54806 3.67860 3.16423
# Velocity P-wave (km/s) = 4.04218 6.73888 5.55660
#
# Compressibility (1/GPa) = 0.05721105
#
# Stress axis : x y z
#
# Youngs Moduli (GPa) = 127.13674 90.15211 11.47599
#
# Poissons Ratio (x) = 0.13708 0.04104
# Poissons Ratio (y) = 0.19332 0.22202
# Poissons Ratio (z) = 0.45464 1.74409
#
# Static dielectric constant tensor:
#      x y z
#    x 1.973230 0.000000 -0.024530 
#    y 0.000000 1.868980 0.000000 
#    z -0.024530 0.000000 1.964050 
# 
# From -- ./inp_files/78063.got.cif
#   From: 2010.05.17/outbox.cif.g08.bks.cpg/sg12_40_cif.got.tgz:78063.got - 2010.06.03 13:09:07.
