data_PCOD9215290
_publ_section_title
;
Structure prediction by ZEFSAII (Michael W. Deem and Ramdas Pophale) SiO2 
 PCOD9215290
Probable space group: C 2/M
;
_chemical_formula_sum "Si O2"
_cell_formula_units_Z 58
_cell_length_a 13.888372
_cell_length_b 21.513158
_cell_length_c 9.827340
_cell_angle_alpha 90.000000
_cell_angle_beta 79.896828
_cell_angle_gamma 90.000000
_cell_volume 2890.708696
_symmetry_space_group_name_H-M "C 2/M"
_symmetry_group_IT_number 12
_symmetry_cell_setting 'monoclinic'
loop_
_space_group_symop_operation_xyz
x,y,z
-x,y,-z
-x,-y,-z
x,-y,z
1/2+x,1/2+y,z
1/2-x,1/2+y,-z
1/2-x,1/2-y,-z
1/2+x,1/2-y,z
loop_
_atom_site_type_symbol
_atom_site_label
_atom_site_fract_x
_atom_site_fract_y
_atom_site_fract_z
Si Si1 0.415521 0.254056 0.418033
Si Si2 0.500000 0.000000 0.000000
Si Si3 0.614009 0.568758 0.946521
Si Si4 0.781819 0.839817 0.876035
Si Si5 0.541617 0.748094 0.137986
Si Si6 0.755228 0.154691 0.574619
Si Si7 0.608392 0.120912 0.104836
Si Si8 0.756442 0.573272 0.685409
O O1 0.500000 0.232357 0.500000
O O2 0.469966 0.278567 0.270481
O O3 0.338164 0.200358 0.402830
O O4 0.350428 0.306656 0.505217
O O5 0.563878 0.943442 0.060695
O O6 0.655283 0.500000 0.965667
O O7 0.656726 0.615594 0.043247
O O8 0.500000 0.567564 0.000000
O O9 0.651027 0.582789 0.785189
O O10 0.847316 0.776690 0.862538
O O11 0.771830 0.864475 0.725758
O O12 0.676354 0.844901 0.973965
O O13 0.535199 0.822876 0.157015
O O14 0.500000 0.731236 0.000000
O O15 0.738997 0.103102 0.463987
O O16 0.670255 0.105317 0.224938
O O17 0.776397 0.500000 0.672182
#
# Coordination Sequence:
#
# PCOD9215290 Si02
#       8
#     8   2   8   8   8   8   8   8
#     4  11  24  44  62  91 134 174 213 269 336 400
#     4  12  24  48  72 102 134 178 228 278 344 396
#     4   9  20  39  64  93 126 170 219 277 335 395
#     4  11  24  40  65 100 133 170 221 279 339 400
#     4  12  24  40  69 102 131 172 224 282 337 406
#     4  11  25  41  64  93 133 181 214 270 335 401
#     4  11  24  44  69  96 132 172 224 281 335 392
#     4  10  22  41  64  91 129 170 218 269 329 391
#
# _framework density 20.064284000000001
#
# number of rings (size 3 to 8) (size 9 to 14) (size 15 to 20)
#    0.000    1.241    2.759    2.483    8.690    0.552 
#    0.000    0.000    0.000    4.966    0.000    0.000 
#    0.000    0.000    0.000    0.000    0.000    0.000 
#
# Total GULP energy -161604.543932 kJ/mol
# GULP energy per Si atom -5572.570480 kJ/mol
# Density = 2.001862 g / cm^3
# Si number density = 20.064284 Si / 1000 Ang^3
#
#
#
# Elastic Constant Matrix: (Units=GPa)
#
#
# Indices 1 2 3 4 5 6 
#
# 1 50.2519 6.8591 6.7138 0.0000 2.9541 0.0000
# 2 6.8591 76.1380 24.6071 0.0000 0.6628 0.0000
# 3 6.7138 24.6071 125.3672 0.0000 8.7918 0.0000
# 4 0.0000 0.0000 0.0000 15.8619 0.0000 32.3692
# 5 2.9541 0.6628 8.7918 0.0000 17.9676 0.0000
# 6 0.0000 0.0000 0.0000 32.3692 0.0000 -68.1900
#
#
#
# Elastic Compliance Matrix: (Units=1/GPa)
#
#
# Indices 1 2 3 4 5 6 
#
# 1 0.020374 -0.001628 -0.000560 0.000000 -0.003016 0.000000
# 2 -0.001628 0.014167 -0.002771 0.000000 0.001101 0.000000
# 3 -0.000560 -0.002771 0.008840 0.000000 -0.004131 0.000000
# 4 0.000000 0.000000 0.000000 0.032023 0.000000 0.015201
# 5 -0.003016 0.001101 -0.004131 0.000000 0.058132 0.000000
# 6 0.000000 0.000000 0.000000 0.015201 0.000000 -0.007449
#
#
# Mechanical properties :
#
#
# Convention : Reuss Voigt Hill
#
# Bulk Modulus (GPa) = 29.88373 36.45748 33.17060
# Shear Modulus (GPa) = 33.97672 7.36638 20.67155
#
# Velocity S-wave (km/s) = 4.11955 1.91817 3.21326
# Velocity P-wave (km/s) = 6.12812 4.80787 5.50770
#
# Compressibility (1/GPa) = 0.03346303
#
# Stress axis : x y z
#
# Youngs Moduli (GPa) = 49.08199 70.58864 113.12082
#
# Poissons Ratio (x) = 0.11493 0.06335
# Poissons Ratio (y) = 0.07992 0.31342
# Poissons Ratio (z) = 0.02749 0.19558
#
# Static dielectric constant tensor:
#      x y z
#    x 1.765390 0.000000 -0.031920 
#    y 0.000000 1.726700 0.000000 
#    z -0.031920 0.000000 1.721710 
# 
# From -- ./inp_files/65346.got.cif
#   From: 2010.05.17/outbox.cif.g08.bks.cpg/sg12_33_cif.got.tgz:65346.got - 2010.06.03 13:09:07.
