data_PCOD9215841
_publ_section_title
;
Structure prediction by ZEFSAII (Michael W. Deem and Ramdas Pophale) SiO2 
 PCOD9215841
Probable space group: C 2/M
;
_chemical_formula_sum "Si O2"
_cell_formula_units_Z 48
_cell_length_a 27.501514
_cell_length_b 8.767554
_cell_length_c 17.111796
_cell_angle_alpha 90.000000
_cell_angle_beta 36.412258
_cell_angle_gamma 90.000000
_cell_volume 2449.164796
_symmetry_space_group_name_H-M "C 2/M"
_symmetry_group_IT_number 12
_symmetry_cell_setting 'monoclinic'
loop_
_space_group_symop_operation_xyz
x,y,z
-x,y,-z
-x,-y,-z
x,-y,z
1/2+x,1/2+y,z
1/2-x,1/2+y,-z
1/2-x,1/2-y,-z
1/2+x,1/2-y,z
loop_
_atom_site_type_symbol
_atom_site_label
_atom_site_fract_x
_atom_site_fract_y
_atom_site_fract_z
Si Si1 0.595867 0.682074 0.888040
Si Si2 0.614128 0.180993 0.496350
Si Si3 0.837803 0.682578 0.035822
Si Si4 0.443651 0.317453 0.758198
Si Si5 0.765628 0.682019 0.394530
Si Si6 0.644360 0.318159 0.291844
O O1 0.608640 0.500000 0.871600
O O2 0.649764 0.756278 0.750221
O O3 0.500000 0.712552 0.000000
O O4 0.626861 0.750460 0.929624
O O5 0.532662 0.241034 0.644019
O O6 0.693395 0.260870 0.431057
O O7 0.610560 0.229046 0.410174
O O8 0.621506 0.000000 0.494536
O O9 0.847437 0.500000 0.022548
O O10 0.886103 0.754807 0.901006
O O11 0.740769 0.716007 0.157251
O O12 0.451613 0.500000 0.754905
O O13 0.402584 0.283027 0.727411
O O14 0.766187 0.500000 0.396392
O O15 0.750000 0.750000 0.500000
O O16 0.635764 0.500000 0.318183
#
# Coordination Sequence:
#
# PCOD9215841 Si02
#       6
#     8   8   8   8   8   8
#     4  11  25  45  69  98 132 170 214 262 320 385
#     4  12  25  42  66  96 131 171 218 268 323 385
#     4  11  23  41  66  96 132 171 218 268 322 384
#     4  11  24  41  64  94 133 175 219 268 322 382
#     4  12  26  46  71  98 131 168 214 266 323 384
#     4  10  22  42  66  94 129 173 217 268 327 382
#
# _framework density 19.598517000000001
#
# number of rings (size 3 to 8) (size 9 to 14) (size 15 to 20)
#    0.000    0.833    1.667    5.500    2.333    5.333 
#    0.000    0.000    0.000    0.000    0.000    0.000 
#    0.000    0.000    0.000    0.000    0.000    0.000 
#
# Total GULP energy -134379.793771 kJ/mol
# GULP energy per Si atom -5599.158074 kJ/mol
# Density = 1.955391 g / cm^3
# Si number density = 19.598517 Si / 1000 Ang^3
#
#
#
# Elastic Constant Matrix: (Units=GPa)
#
#
# Indices 1 2 3 4 5 6 
#
# 1 62.4144 41.2629 33.8300 -0.0049 -2.0702 0.0028
# 2 41.2629 85.8884 50.5313 -0.0015 -8.0419 0.0016
# 3 33.8300 50.5313 97.7802 -0.0029 1.9012 0.0023
# 4 -0.0049 -0.0015 -0.0029 40.5004 0.0017 5.5160
# 5 -2.0702 -8.0419 1.9012 0.0017 36.8687 -0.0012
# 6 0.0028 0.0016 0.0023 5.5160 -0.0012 29.9064
#
#
#
# Elastic Compliance Matrix: (Units=1/GPa)
#
#
# Indices 1 2 3 4 5 6 
#
# 1 0.024255 -0.009738 -0.003348 0.000003 -0.000590 -0.000002
# 2 -0.009738 0.021282 -0.007716 -0.000001 0.004493 0.000001
# 3 -0.003348 -0.007716 0.015425 0.000001 -0.002667 -0.000001
# 4 0.000003 -0.000001 0.000001 0.025327 -0.000001 -0.004671
# 5 -0.000590 0.004493 -0.002667 -0.000001 0.028208 0.000001
# 6 -0.000002 0.000001 -0.000001 -0.004671 0.000001 0.034299
#
#
# Mechanical properties :
#
#
# Convention : Reuss Voigt Hill
#
# Bulk Modulus (GPa) = 51.66044 55.25905 53.45974
# Shear Modulus (GPa) = 25.39961 29.48569 27.44265
#
# Velocity S-wave (km/s) = 3.60390 3.88298 3.74604
# Velocity P-wave (km/s) = 6.61317 6.95414 6.78580
#
# Compressibility (1/GPa) = 0.01935717
#
# Stress axis : x y z
#
# Youngs Moduli (GPa) = 41.22852 46.98786 64.83071
#
# Poissons Ratio (x) = 0.45759 0.21703
# Poissons Ratio (y) = 0.40150 0.50026
# Poissons Ratio (z) = 0.13802 0.36257
#
# Static dielectric constant tensor:
#      x y z
#    x 1.663460 0.000000 -0.004480 
#    y 0.000000 1.656100 0.000000 
#    z -0.004480 0.000000 1.657580 
# 
# From -- ./inp_files/244621.got.cif
#   From: 2010.05.17/outbox.cif.g08.bks.cpg/sg12_123_cif.got.tgz:244621.got - 2010.06.03 13:09:07.
