data_PCOD9215610
_publ_section_title
;
Structure prediction by ZEFSAII (Michael W. Deem and Ramdas Pophale) SiO2 
 PCOD9215610
Probable space group: C 2/M
;
_chemical_formula_sum "Si O2"
_cell_formula_units_Z 40
_cell_length_a 11.180850
_cell_length_b 15.119758
_cell_length_c 16.152217
_cell_angle_alpha 90.000000
_cell_angle_beta 133.275120
_cell_angle_gamma 90.000000
_cell_volume 1988.040534
_symmetry_space_group_name_H-M "C 2/M"
_symmetry_group_IT_number 12
_symmetry_cell_setting 'monoclinic'
loop_
_space_group_symop_operation_xyz
x,y,z
-x,y,-z
-x,-y,-z
x,-y,z
1/2+x,1/2+y,z
1/2-x,1/2+y,-z
1/2-x,1/2-y,-z
1/2+x,1/2-y,z
loop_
_atom_site_type_symbol
_atom_site_label
_atom_site_fract_x
_atom_site_fract_y
_atom_site_fract_z
Si Si1 0.345094 0.674088 0.490008
Si Si2 0.028932 0.000000 0.872793
Si Si3 0.002506 0.665192 0.249718
Si Si4 0.421921 0.902235 0.873666
Si Si5 0.048924 0.867106 0.732640
Si Si6 0.269225 0.000000 0.140715
O O1 0.500000 0.697308 0.500000
O O2 0.250000 0.750000 0.500000
O O3 0.422723 0.612612 0.598186
O O4 0.188991 0.639169 0.364383
O O5 0.019572 0.916730 0.805365
O O6 0.878698 0.000000 0.864248
O O7 0.188035 0.000000 0.009288
O O8 0.955706 0.760839 0.261428
O O9 0.875381 0.587876 0.209170
O O10 0.006880 0.670724 0.152689
O O11 0.228872 0.894210 0.790486
O O12 0.458898 0.000000 0.856358
O O13 0.500000 0.896221 0.000000
#
# Coordination Sequence:
#
# PCOD9215610 Si02
#       6
#     8   4   8   8   8   4
#     4  10  22  41  68  99 136 178 222 281 333 397
#     4  11  26  46  65  94 138 178 217 274 338 405
#     4  11  24  42  66  96 129 170 222 269 331 391
#     4  11  22  39  63  92 130 166 213 272 323 382
#     4  11  24  42  66  96 129 170 222 269 331 391
#     4  11  26  46  65  94 138 178 217 274 338 405
#
# _framework density 20.120314
#
# number of rings (size 3 to 8) (size 9 to 14) (size 15 to 20)
#    0.000    1.200    4.000    1.200    2.800    5.600 
#    0.000    3.000    0.000    0.000    0.000    0.000 
#    0.000    0.000    0.000    0.000    0.000    0.000 
#
# Total GULP energy -111447.320899 kJ/mol
# GULP energy per Si atom -5572.366045 kJ/mol
# Density = 2.007452 g / cm^3
# Si number density = 20.120314 Si / 1000 Ang^3
#
#
#
# Elastic Constant Matrix: (Units=GPa)
#
#
# Indices 1 2 3 4 5 6 
#
# 1 118.7237 35.3722 42.9974 0.0000 11.8367 0.0000
# 2 35.3722 94.7332 55.9379 0.0000 5.5482 0.0000
# 3 42.9974 55.9379 110.1391 0.0000 15.9909 0.0000
# 4 0.0000 0.0000 0.0000 43.0872 0.0000 -16.3301
# 5 11.8367 5.5482 15.9909 0.0000 40.4477 0.0000
# 6 0.0000 0.0000 0.0000 -16.3301 0.0000 23.2694
#
#
#
# Elastic Compliance Matrix: (Units=1/GPa)
#
#
# Indices 1 2 3 4 5 6 
#
# 1 0.010184 -0.002142 -0.002650 0.000000 -0.001639 0.000000
# 2 -0.002142 0.015568 -0.007269 0.000000 0.001365 0.000000
# 3 -0.002650 -0.007269 0.014373 0.000000 -0.003910 0.000000
# 4 0.000000 0.000000 0.000000 0.031619 0.000000 0.022189
# 5 -0.001639 0.001365 -0.003910 0.000000 0.026561 0.000000
# 6 0.000000 0.000000 0.000000 0.022189 0.000000 0.058547
#
#
# Mechanical properties :
#
#
# Convention : Reuss Voigt Hill
#
# Bulk Modulus (GPa) = 62.48399 65.80122 64.14260
# Shear Modulus (GPa) = 26.83724 33.98009 30.40867
#
# Velocity S-wave (km/s) = 3.65614 4.11401 3.89182
# Velocity P-wave (km/s) = 6.99612 7.43920 7.22106
#
# Compressibility (1/GPa) = 0.01600410
#
# Stress axis : x y z
#
# Youngs Moduli (GPa) = 98.19125 64.23544 69.57354
#
# Poissons Ratio (x) = 0.13758 0.18437
# Poissons Ratio (y) = 0.21031 0.50570
# Poissons Ratio (z) = 0.26021 0.46690
#
# Static dielectric constant tensor:
#      x y z
#    x 1.712760 0.000000 -0.013110 
#    y 0.000000 1.900660 0.000000 
#    z -0.013110 0.000000 1.765720 
# 
# From -- ./inp_files/264047.got.cif
#   From: 2010.05.17/outbox.cif.g08.bks.cpg/sg12_133_cif.got.tgz:264047.got - 2010.06.03 13:09:07.
