data_PCOD9215196
_publ_section_title
;
Structure prediction by ZEFSAII (Michael W. Deem and Ramdas Pophale) SiO2 
 PCOD9215196
Probable space group: C 2/M
;
_chemical_formula_sum "Si O2"
_cell_formula_units_Z 48
_cell_length_a 18.124752
_cell_length_b 8.841845
_cell_length_c 15.685743
_cell_angle_alpha 90.000000
_cell_angle_beta 89.608538
_cell_angle_gamma 90.000000
_cell_volume 2513.679647
_symmetry_space_group_name_H-M "C 2/M"
_symmetry_group_IT_number 12
_symmetry_cell_setting 'monoclinic'
loop_
_space_group_symop_operation_xyz
x,y,z
-x,y,-z
-x,-y,-z
x,-y,z
1/2+x,1/2+y,z
1/2-x,1/2+y,-z
1/2-x,1/2-y,-z
1/2+x,1/2-y,z
loop_
_atom_site_type_symbol
_atom_site_label
_atom_site_fract_x
_atom_site_fract_y
_atom_site_fract_z
Si Si1 0.456902 0.319398 0.088438
Si Si2 0.709905 0.319771 0.582532
Si Si3 0.548217 0.180695 0.582896
Si Si4 0.045247 0.319160 0.245972
Si Si5 0.294079 0.180906 0.078993
Si Si6 0.292044 0.319237 0.744524
O O1 0.452984 0.500000 0.100596
O O2 0.501104 0.245359 0.165843
O O3 0.375229 0.251467 0.083593
O O4 0.500000 0.289917 0.000000
O O5 0.715796 0.500000 0.580194
O O6 0.750000 0.250000 0.500000
O O7 0.624946 0.268388 0.582997
O O8 0.749157 0.256416 0.666693
O O9 0.500000 0.217608 0.500000
O O10 0.501015 0.212576 0.667880
O O11 0.563794 0.000000 0.580757
O O12 0.053075 0.500000 0.238283
O O13 0.125342 0.244092 0.251090
O O14 0.250203 0.212752 0.166735
O O15 0.299358 0.000000 0.069296
O O16 0.250000 0.250000 0.000000
O O17 0.293542 0.500000 0.732458
#
# Coordination Sequence:
#
# PCOD9215196 Si02
#       6
#     8   8   8   8   8   8
#     4  11  24  41  61  87 121 161 204 252 305 360
#     4  12  25  41  64  92 123 161 204 250 302 360
#     4  10  22  41  63  89 123 159 198 246 299 358
#     4  11  23  39  63  93 123 159 202 249 303 360
#     4  11  24  41  63  91 123 161 204 253 307 362
#     4  11  24  42  63  90 125 161 202 252 303 359
#
# _framework density 19.095511999999999
#
# number of rings (size 3 to 8) (size 9 to 14) (size 15 to 20)
#    0.000    1.000    0.000    6.500    0.000   15.000 
#    0.000    0.000    0.000    0.000    0.000    0.000 
#    0.000    0.000    0.000    0.000    0.000    0.000 
#
# Total GULP energy -134361.576916 kJ/mol
# GULP energy per Si atom -5598.399038 kJ/mol
# Density = 1.905205 g / cm^3
# Si number density = 19.095512 Si / 1000 Ang^3
#
#
#
# Elastic Constant Matrix: (Units=GPa)
#
#
# Indices 1 2 3 4 5 6 
#
# 1 212.0024 116.8626 122.1747 0.0000 6.5262 0.0000
# 2 116.8626 126.5604 122.5249 0.0000 -9.0314 0.0000
# 3 122.1747 122.5249 202.1469 0.0000 11.7710 0.0000
# 4 0.0000 0.0000 0.0000 31.4308 0.0000 1.1068
# 5 6.5262 -9.0314 11.7710 0.0000 39.4441 0.0000
# 6 0.0000 0.0000 0.0000 1.1068 0.0000 44.5005
#
#
#
# Elastic Compliance Matrix: (Units=1/GPa)
#
#
# Indices 1 2 3 4 5 6 
#
# 1 0.010165 -0.009498 -0.000165 0.000000 -0.003807 0.000000
# 2 -0.009498 0.030827 -0.013685 0.000000 0.012714 0.000000
# 3 -0.000165 -0.013685 0.013761 0.000000 -0.007213 0.000000
# 4 0.000000 0.000000 0.000000 0.031844 0.000000 -0.000792
# 5 -0.003807 0.012714 -0.007213 0.000000 0.031046 0.000000
# 6 0.000000 0.000000 0.000000 -0.000792 0.000000 0.022491
#
#
# Mechanical properties :
#
#
# Convention : Reuss Voigt Hill
#
# Bulk Modulus (GPa) = 124.10234 140.42602 132.26418
# Shear Modulus (GPa) = 26.38309 35.01823 30.70066
#
# Velocity S-wave (km/s) = 3.72107 4.28699 4.01402
# Velocity P-wave (km/s) = 9.14293 9.90973 9.53404
#
# Compressibility (1/GPa) = 0.00805787
#
# Stress axis : x y z
#
# Youngs Moduli (GPa) = 98.37992 32.43880 72.66816
#
# Poissons Ratio (x) = 0.30810 0.01198
# Poissons Ratio (y) = 0.93440 0.99446
# Poissons Ratio (z) = 0.01622 0.44392
#
# Static dielectric constant tensor:
#      x y z
#    x 1.615900 0.000000 -0.007960 
#    y 0.000000 1.640190 0.000000 
#    z -0.007960 0.000000 1.631620 
# 
# From -- ./inp_files/221670.got.cif
#   From: 2010.05.17/outbox.cif.g08.bks.cpg/sg12_111_cif.got.tgz:221670.got - 2010.06.03 13:09:07.
