data_PCOD9215971
_publ_section_title
;
Structure prediction by ZEFSAII (Michael W. Deem and Ramdas Pophale) SiO2 
 PCOD9215971
Probable space group: C 2/M
;
_chemical_formula_sum "Si O2"
_cell_formula_units_Z 56
_cell_length_a 20.428903
_cell_length_b 13.981319
_cell_length_c 8.620949
_cell_angle_alpha 90.000000
_cell_angle_beta 97.703291
_cell_angle_gamma 90.000000
_cell_volume 2440.120005
_symmetry_space_group_name_H-M "C 2/M"
_symmetry_group_IT_number 12
_symmetry_cell_setting 'monoclinic'
loop_
_space_group_symop_operation_xyz
x,y,z
-x,y,-z
-x,-y,-z
x,-y,z
1/2+x,1/2+y,z
1/2-x,1/2+y,-z
1/2-x,1/2-y,-z
1/2+x,1/2-y,z
loop_
_atom_site_type_symbol
_atom_site_label
_atom_site_fract_x
_atom_site_fract_y
_atom_site_fract_z
Si Si1 0.332732 0.761667 0.011120
Si Si2 0.932475 0.886870 0.562382
Si Si3 0.794572 0.345692 0.528849
Si Si4 0.454226 0.266027 0.862539
Si Si5 0.249952 0.893123 0.175110
Si Si6 0.183744 0.107977 0.718507
Si Si7 0.550406 0.888148 0.371790
O O1 0.302054 0.860709 0.060050
O O2 0.327893 0.688078 0.154700
O O3 0.402340 0.780489 0.961538
O O4 0.298326 0.697631 0.864947
O O5 0.926992 0.838270 0.726361
O O6 0.869534 0.870385 0.433478
O O7 0.000000 0.853441 0.500000
O O8 0.938011 0.000000 0.585744
O O9 0.750000 0.250000 0.500000
O O10 0.780697 0.392463 0.356254
O O11 0.756122 0.391998 0.662689
O O12 0.874134 0.348121 0.576024
O O13 0.481253 0.178368 0.770251
O O14 0.500000 0.319988 0.000000
O O15 0.223146 0.000000 0.139334
O O16 0.169846 0.000000 0.770991
O O17 0.500000 0.881732 0.500000
O O18 0.557317 0.000000 0.334444
#
# Coordination Sequence:
#
# PCOD9215971 Si02
#       7
#     8   8   8   8   8   8   8
#     4  11  25  42  62 103 140 182 223 284 348 422
#     4  10  22  42  69 100 136 184 240 294 352 422
#     4  12  23  44  73 103 136 178 238 299 349 413
#     4  12  27  43  68  99 137 186 230 286 357 414
#     4  11  24  42  67  96 136 180 221 278 351 414
#     4  11  22  39  68 100 137 184 231 288 353 418
#     4  11  27  49  74 104 141 191 245 292 347 423
#
# _framework density 22.949691000000001
#
# number of rings (size 3 to 8) (size 9 to 14) (size 15 to 20)
#    0.000    0.857    1.429    5.571    4.000    3.429 
#    0.000    0.000    0.000    0.000    0.000    0.000 
#    0.000    0.000    0.000    0.000    0.000    0.000 
#
# Total GULP energy -156257.944722 kJ/mol
# GULP energy per Si atom -5580.640883 kJ/mol
# Density = 2.289746 g / cm^3
# Si number density = 22.949691 Si / 1000 Ang^3
#
#
#
# Elastic Constant Matrix: (Units=GPa)
#
#
# Indices 1 2 3 4 5 6 
#
# 1 81.3998 -10.2784 33.7454 0.0000 -10.1719 0.0000
# 2 -10.2784 102.0359 24.1657 0.0000 9.7280 0.0000
# 3 33.7454 24.1657 130.6833 0.0000 9.2989 0.0000
# 4 0.0000 0.0000 0.0000 4.8927 0.0000 -1.5676
# 5 -10.1719 9.7280 9.2989 0.0000 42.9148 0.0000
# 6 0.0000 0.0000 0.0000 -1.5676 0.0000 20.8855
#
#
#
# Elastic Compliance Matrix: (Units=1/GPa)
#
#
# Indices 1 2 3 4 5 6 
#
# 1 0.014956 0.002201 -0.004556 0.000000 0.004033 0.000000
# 2 0.002201 0.010735 -0.002455 0.000000 -0.001380 0.000000
# 3 -0.004556 -0.002455 0.009466 0.000000 -0.002574 0.000000
# 4 0.000000 0.000000 0.000000 0.209424 0.000000 0.015718
# 5 0.004033 -0.001380 -0.002574 0.000000 0.025129 0.000000
# 6 0.000000 0.000000 0.000000 0.015718 0.000000 0.049060
#
#
# Mechanical properties :
#
#
# Convention : Reuss Voigt Hill
#
# Bulk Modulus (GPa) = 39.15998 45.48714 42.32356
# Shear Modulus (GPa) = 14.84112 31.50435 23.17273
#
# Velocity S-wave (km/s) = 2.54575 3.70909 3.18105
# Velocity P-wave (km/s) = 5.07362 6.18115 5.65456
#
# Compressibility (1/GPa) = 0.02553627
#
# Stress axis : x y z
#
# Youngs Moduli (GPa) = 66.86430 93.15115 105.64421
#
# Poissons Ratio (x) = -0.20503 0.48130
# Poissons Ratio (y) = -0.14717 0.25939
# Poissons Ratio (z) = 0.30463 0.22872
#
# Static dielectric constant tensor:
#      x y z
#    x -5.772390 0.000000 -2.403070 
#    y 0.000000 1.874140 0.000000 
#    z -2.403070 0.000000 1.081290 
# 
# From -- ./inp_files/86353.got.cif
#   From: 2010.05.17/outbox.cif.g08.bks.cpg/sg12_44_cif.got.tgz:86353.got - 2010.06.03 13:09:07.
