data_PCOD9215663
_publ_section_title
;
Structure prediction by ZEFSAII (Michael W. Deem and Ramdas Pophale) SiO2 
 PCOD9215663
Probable space group: C 2/M
;
_chemical_formula_sum "Si O2"
_cell_formula_units_Z 32
_cell_length_a 16.612824
_cell_length_b 13.864981
_cell_length_c 10.579883
_cell_angle_alpha 90.000000
_cell_angle_beta 148.230306
_cell_angle_gamma 90.000000
_cell_volume 1283.060340
_symmetry_space_group_name_H-M "C 2/M"
_symmetry_group_IT_number 12
_symmetry_cell_setting 'monoclinic'
loop_
_space_group_symop_operation_xyz
x,y,z
-x,y,-z
-x,-y,-z
x,-y,z
1/2+x,1/2+y,z
1/2-x,1/2+y,-z
1/2-x,1/2-y,-z
1/2+x,1/2-y,z
loop_
_atom_site_type_symbol
_atom_site_label
_atom_site_fract_x
_atom_site_fract_y
_atom_site_fract_z
Si Si1 0.967322 0.000000 0.807081
Si Si2 0.895514 0.500000 0.732384
Si Si3 0.177701 0.817016 0.728484
Si Si4 0.757575 0.107907 0.914290
Si Si5 0.136668 0.307570 0.262530
O O1 0.062734 0.090423 0.878283
O O2 0.789430 0.000000 0.538179
O O3 0.000000 0.000000 0.000000
O O4 0.931044 0.391443 0.738143
O O5 0.000000 0.500000 0.000000
O O6 0.251786 0.862725 0.952123
O O7 0.258960 0.852230 0.710190
O O8 0.000000 0.841271 0.500000
O O9 0.196216 0.700159 0.757128
O O10 0.691377 0.000000 0.801536
O O11 0.250000 0.250000 0.500000
O O12 0.000000 0.259611 0.000000
#
# Coordination Sequence:
#
# PCOD9215663 Si02
#       5
#     4   4   8   8   8
#     4  10  22  41  76 106 142 184 248 294 361 419
#     4  10  24  45  63 100 141 186 230 294 359 422
#     4  11  24  44  70 101 143 186 238 293 358 432
#     4   9  24  42  66 103 134 190 232 292 355 428
#     4  11  28  45  72 106 144 189 241 300 364 426
#
# _framework density 24.940370999999999
#
# number of rings (size 3 to 8) (size 9 to 14) (size 15 to 20)
#    0.750    1.000    0.000    1.500   15.750    1.000 
#    0.000    0.000    0.000    0.000    0.000    0.000 
#    0.000    0.000    0.000    0.000    0.000    0.000 
#
# Total GULP energy -89186.680940 kJ/mol
# GULP energy per Si atom -5574.167559 kJ/mol
# Density = 2.488361 g / cm^3
# Si number density = 24.940371 Si / 1000 Ang^3
#
#
#
# Elastic Constant Matrix: (Units=GPa)
#
#
# Indices 1 2 3 4 5 6 
#
# 1 125.1072 -4.3702 44.6601 0.0000 9.3635 0.0000
# 2 -4.3702 114.1552 30.4264 0.0000 -14.5798 0.0000
# 3 44.6601 30.4264 167.4273 0.0000 13.1502 0.0000
# 4 0.0000 0.0000 0.0000 42.8143 0.0000 2.0668
# 5 9.3635 -14.5798 13.1502 0.0000 40.0247 0.0000
# 6 0.0000 0.0000 0.0000 2.0668 0.0000 13.2942
#
#
#
# Elastic Compliance Matrix: (Units=1/GPa)
#
#
# Indices 1 2 3 4 5 6 
#
# 1 0.008982 0.000882 -0.002480 0.000000 -0.000965 0.000000
# 2 0.000882 0.009964 -0.002376 0.000000 0.004204 0.000000
# 3 -0.002480 -0.002376 0.007276 0.000000 -0.002676 0.000000
# 4 0.000000 0.000000 0.000000 0.023533 0.000000 -0.003659
# 5 -0.000965 0.004204 -0.002676 0.000000 0.027621 0.000000
# 6 0.000000 0.000000 0.000000 -0.003659 0.000000 0.075789
#
#
# Mechanical properties :
#
#
# Convention : Reuss Voigt Hill
#
# Bulk Modulus (GPa) = 54.72698 60.90246 57.81472
# Shear Modulus (GPa) = 29.90330 41.62487 35.76408
#
# Velocity S-wave (km/s) = 3.46640 4.08974 3.79091
# Velocity P-wave (km/s) = 6.16539 6.83912 6.51097
#
# Compressibility (1/GPa) = 0.01827252
#
# Stress axis : x y z
#
# Youngs Moduli (GPa) = 111.33952 100.36123 137.43252
#
# Poissons Ratio (x) = -0.08848 0.34086
# Poissons Ratio (y) = -0.09816 0.32655
# Poissons Ratio (z) = 0.27614 0.23847
#
# Static dielectric constant tensor:
#      x y z
#    x 2.108100 0.000000 0.035840 
#    y 0.000000 2.101930 0.000000 
#    z 0.035840 0.000000 1.937410 
# 
# From -- ./inp_files/166963.got.cif
#   From: 2010.05.17/outbox.cif.g08.bks.cpg/sg12_84_cif.got.tgz:166963.got - 2010.06.03 13:09:07.
