data_PCOD9215142
_publ_section_title
;
Structure prediction by ZEFSAII (Michael W. Deem and Ramdas Pophale) SiO2 
 PCOD9215142
Probable space group: C 2/M
;
_chemical_formula_sum "Si O2"
_cell_formula_units_Z 40
_cell_length_a 14.757626
_cell_length_b 19.063295
_cell_length_c 10.896250
_cell_angle_alpha 90.000000
_cell_angle_beta 142.656091
_cell_angle_gamma 90.000000
_cell_volume 1859.483744
_symmetry_space_group_name_H-M "C 2/M"
_symmetry_group_IT_number 12
_symmetry_cell_setting 'monoclinic'
loop_
_space_group_symop_operation_xyz
x,y,z
-x,y,-z
-x,-y,-z
x,-y,z
1/2+x,1/2+y,z
1/2-x,1/2+y,-z
1/2-x,1/2-y,-z
1/2+x,1/2-y,z
loop_
_atom_site_type_symbol
_atom_site_label
_atom_site_fract_x
_atom_site_fract_y
_atom_site_fract_z
Si Si1 0.822506 0.159281 0.821950
Si Si2 0.822797 0.674018 0.586753
Si Si3 0.605867 0.418784 0.501560
Si Si4 0.306753 0.419784 0.051532
Si Si5 0.166373 0.705164 0.015558
O O1 0.723194 0.142823 0.596005
O O2 0.767247 0.114610 0.879025
O O3 0.816041 0.242457 0.850715
O O4 0.000000 0.144665 0.000000
O O5 0.750000 0.750000 0.500000
O O6 0.744148 0.627152 0.606278
O O7 0.995288 0.689590 0.798104
O O8 0.500000 0.394496 0.500000
O O9 0.646796 0.500000 0.570535
O O10 0.485771 0.417356 0.260751
O O11 0.258614 0.500000 0.009566
O O12 0.239233 0.371316 0.085855
O O13 0.250000 0.750000 0.000000
#
# Coordination Sequence:
#
# PCOD9215142 Si02
#       5
#     8   8   8   8   8
#     4  11  21  40  64  96 125 159 214 269 317 378
#     4  12  23  40  67  96 126 169 214 266 326 379
#     4  10  23  42  64  93 128 170 218 265 324 390
#     4  10  22  41  62  89 129 170 206 260 322 381
#     4  10  23  41  60  96 133 167 210 260 321 389
#
# _framework density 21.511348000000002
#
# number of rings (size 3 to 8) (size 9 to 14) (size 15 to 20)
#    0.000    1.400    4.000    1.200    2.800    5.200 
#    0.000    1.000    0.000    4.200    0.000    0.000 
#    0.000    0.000    0.000    0.000    0.000    0.000 
#
# Total GULP energy -111632.090604 kJ/mol
# GULP energy per Si atom -5581.604530 kJ/mol
# Density = 2.146239 g / cm^3
# Si number density = 21.511348 Si / 1000 Ang^3
#
#
#
# Elastic Constant Matrix: (Units=GPa)
#
#
# Indices 1 2 3 4 5 6 
#
# 1 124.0575 55.8434 57.9854 0.0000 -1.7554 0.0000
# 2 55.8434 125.1526 44.2264 0.0000 13.5538 0.0000
# 3 57.9854 44.2264 84.6446 0.0000 7.9411 0.0000
# 4 0.0000 0.0000 0.0000 27.5767 0.0000 5.4550
# 5 -1.7554 13.5538 7.9411 0.0000 48.5949 0.0000
# 6 0.0000 0.0000 0.0000 5.4550 0.0000 37.8148
#
#
#
# Elastic Compliance Matrix: (Units=1/GPa)
#
#
# Indices 1 2 3 4 5 6 
#
# 1 0.013158 -0.003541 -0.007415 0.000000 0.002675 0.000000
# 2 -0.003541 0.010933 -0.003035 0.000000 -0.002681 0.000000
# 3 -0.007415 -0.003035 0.018712 0.000000 -0.002479 0.000000
# 4 0.000000 0.000000 0.000000 0.037328 0.000000 -0.005385
# 5 0.002675 -0.002681 -0.002479 0.000000 0.021828 0.000000
# 6 0.000000 0.000000 0.000000 -0.005385 0.000000 0.027221
#
#
# Mechanical properties :
#
#
# Convention : Reuss Voigt Hill
#
# Bulk Modulus (GPa) = 67.46928 72.21837 69.84383
# Shear Modulus (GPa) = 30.84455 34.51723 32.68089
#
# Velocity S-wave (km/s) = 3.79076 4.01010 3.90197
# Velocity P-wave (km/s) = 7.11283 7.42201 7.26907
#
# Compressibility (1/GPa) = 0.01482156
#
# Stress axis : x y z
#
# Youngs Moduli (GPa) = 75.99833 91.46520 53.44079
#
# Poissons Ratio (x) = 0.32384 0.39626
# Poissons Ratio (y) = 0.26908 0.16222
# Poissons Ratio (z) = 0.56352 0.27764
#
# Static dielectric constant tensor:
#      x y z
#    x 1.820320 0.000000 -0.076620 
#    y 0.000000 1.796230 0.000000 
#    z -0.076620 0.000000 2.002870 
# 
# From -- ./inp_files/147307.got.cif
#   From: 2010.05.17/outbox.cif.g08.bks.cpg/sg12_74_cif.got.tgz:147307.got - 2010.06.03 13:09:07.
