data_PCOD9215887
_publ_section_title
;
Structure prediction by ZEFSAII (Michael W. Deem and Ramdas Pophale) SiO2 
 PCOD9215887
Probable space group: C 2/M
;
_chemical_formula_sum "Si O2"
_cell_formula_units_Z 52
_cell_length_a 28.913904
_cell_length_b 9.394790
_cell_length_c 15.308921
_cell_angle_alpha 90.000000
_cell_angle_beta 141.563276
_cell_angle_gamma 90.000000
_cell_volume 2585.141424
_symmetry_space_group_name_H-M "C 2/M"
_symmetry_group_IT_number 12
_symmetry_cell_setting 'monoclinic'
loop_
_space_group_symop_operation_xyz
x,y,z
-x,y,-z
-x,-y,-z
x,-y,z
1/2+x,1/2+y,z
1/2-x,1/2+y,-z
1/2-x,1/2-y,-z
1/2+x,1/2-y,z
loop_
_atom_site_type_symbol
_atom_site_label
_atom_site_fract_x
_atom_site_fract_y
_atom_site_fract_z
Si Si1 0.790640 0.229929 0.183965
Si Si2 0.725500 0.500000 0.985971
Si Si3 0.940897 0.670664 0.487560
Si Si4 0.554111 0.667748 0.997229
Si Si5 0.691909 0.334015 0.474002
Si Si6 0.460749 0.828867 0.718353
Si Si7 0.696233 0.843316 0.204750
O O1 0.805503 0.123370 0.127143
O O2 0.863958 0.253928 0.350255
O O3 0.725086 0.171315 0.149033
O O4 0.762743 0.376887 0.103037
O O5 0.928932 0.500000 0.466489
O O6 0.968930 0.701823 0.627053
O O7 0.000000 0.707320 0.500000
O O8 0.554298 0.500000 0.976974
O O9 0.636452 0.723785 0.139536
O O10 0.500000 0.690455 0.000000
O O11 0.524570 0.758991 0.871741
O O12 0.680610 0.500000 0.430941
O O13 0.750000 0.250000 0.500000
O O14 0.615358 0.247670 0.364279
O O15 0.732125 0.334167 0.627333
O O16 0.457502 0.000000 0.725482
O O17 0.661998 0.000000 0.167823
#
# Coordination Sequence:
#
# PCOD9215887 Si02
#       7
#     8   4   8   8   8   8   8
#     4  11  21  44  63  99 129 171 217 271 319 391
#     4  10  24  36  68  92 134 168 216 270 326 378
#     4  10  22  42  67  94 133 176 220 266 322 390
#     4  11  26  46  67  97 135 174 221 278 338 399
#     4  11  23  40  66  98 131 170 218 272 333 396
#     4  11  23  41  68  98 135 178 221 269 333 397
#     4  11  24  42  69  94 132 174 218 275 327 389
#
# _framework density 20.114954000000001
#
# number of rings (size 3 to 8) (size 9 to 14) (size 15 to 20)
#    0.000    1.231    3.077    2.308    1.077    7.385 
#    4.154    0.385    0.000    0.000    0.000    0.000 
#    0.000    0.000    0.000    0.000    0.000    0.000 
#
# Total GULP energy -144759.318628 kJ/mol
# GULP energy per Si atom -5567.666101 kJ/mol
# Density = 2.006917 g / cm^3
# Si number density = 20.114954 Si / 1000 Ang^3
#
#
#
# Elastic Constant Matrix: (Units=GPa)
#
#
# Indices 1 2 3 4 5 6 
#
# 1 52.6015 17.0149 -5.6172 0.0000 1.1598 0.0000
# 2 17.0149 116.0160 22.0939 0.0000 -13.7076 0.0000
# 3 -5.6172 22.0939 51.3255 0.0000 -14.6155 0.0000
# 4 0.0000 0.0000 0.0000 37.6525 0.0000 -7.3679
# 5 1.1598 -13.7076 -14.6155 0.0000 29.2271 0.0000
# 6 0.0000 0.0000 0.0000 -7.3679 0.0000 20.5030
#
#
#
# Elastic Compliance Matrix: (Units=1/GPa)
#
#
# Indices 1 2 3 4 5 6 
#
# 1 0.020658 -0.003823 0.003688 0.000000 -0.000769 0.000000
# 2 -0.003823 0.010294 -0.004001 0.000000 0.002979 0.000000
# 3 0.003688 -0.004001 0.024526 0.000000 0.010242 0.000000
# 4 0.000000 0.000000 0.000000 0.028568 0.000000 0.010266
# 5 -0.000769 0.002979 0.010242 0.000000 0.040764 0.000000
# 6 0.000000 0.000000 0.000000 0.010266 0.000000 0.052462
#
#
# Mechanical properties :
#
#
# Convention : Reuss Voigt Hill
#
# Bulk Modulus (GPa) = 21.18418 31.88068 26.53243
# Shear Modulus (GPa) = 24.84097 29.90662 27.37380
#
# Velocity S-wave (km/s) = 3.51800 3.86007 3.69300
# Velocity P-wave (km/s) = 5.20155 5.97917 5.60387
#
# Compressibility (1/GPa) = 0.04720504
#
# Stress axis : x y z
#
# Youngs Moduli (GPa) = 48.40705 97.14281 40.77304
#
# Poissons Ratio (x) = 0.37136 -0.15036
# Poissons Ratio (y) = 0.18505 0.16315
# Poissons Ratio (z) = -0.17851 0.38871
#
# Static dielectric constant tensor:
#      x y z
#    x 1.697240 0.000000 0.004240 
#    y 0.000000 1.680960 0.000000 
#    z 0.004240 0.000000 1.678260 
# 
# From -- ./inp_files/250160.got.cif
#   From: 2010.05.17/outbox.cif.g08.bks.cpg/sg12_126_cif.got.tgz:250160.got - 2010.06.03 13:09:07.
