data_PCOD9215463
_publ_section_title
;
Structure prediction by ZEFSAII (Michael W. Deem and Ramdas Pophale) SiO2 
 PCOD9215463
Probable space group: C 2/M
;
_chemical_formula_sum "Si O2"
_cell_formula_units_Z 60
_cell_length_a 28.257104
_cell_length_b 20.425142
_cell_length_c 15.388440
_cell_angle_alpha 90.000000
_cell_angle_beta 160.802812
_cell_angle_gamma 90.000000
_cell_volume 2920.424265
_symmetry_space_group_name_H-M "C 2/M"
_symmetry_group_IT_number 12
_symmetry_cell_setting 'monoclinic'
loop_
_space_group_symop_operation_xyz
x,y,z
-x,y,-z
-x,-y,-z
x,-y,z
1/2+x,1/2+y,z
1/2-x,1/2+y,-z
1/2-x,1/2-y,-z
1/2+x,1/2-y,z
loop_
_atom_site_type_symbol
_atom_site_label
_atom_site_fract_x
_atom_site_fract_y
_atom_site_fract_z
Si Si1 0.241664 0.311458 0.744390
Si Si2 0.404462 0.923423 0.965705
Si Si3 0.500000 0.351366 0.500000
Si Si4 0.280834 0.924199 0.558096
Si Si5 0.840139 0.201652 0.717327
Si Si6 0.556637 0.074000 0.504623
Si Si7 0.443489 0.738969 0.240774
Si Si8 0.699034 0.124238 0.039464
O O1 0.282629 0.308492 0.714893
O O2 0.172209 0.378979 0.659562
O O3 0.110171 0.260042 0.525546
O O4 0.377268 0.295155 0.040797
O O5 0.331264 0.916120 0.745003
O O6 0.388129 0.000000 0.961807
O O7 0.574656 0.910938 0.248140
O O8 0.332950 0.877908 0.913497
O O9 0.563823 0.306692 0.687942
O O10 0.636400 0.389581 0.697981
O O11 0.164236 0.870253 0.333231
O O12 0.239407 0.000000 0.472896
O O13 0.750000 0.250000 0.500000
O O14 0.000000 0.228936 0.000000
O O15 0.500000 0.099162 0.500000
O O16 0.414966 0.074738 0.199491
O O17 0.610819 0.000000 0.609952
O O18 0.351188 0.805720 0.085861
#
# Coordination Sequence:
#
# PCOD9215463 Si02
#       8
#     8   8   4   8   8   8   8   8
#     4  11  24  42  67  96 127 176 216 268 328 395
#     4   9  19  38  66  96 121 164 221 264 311 385
#     4  12  24  38  57  94 129 172 214 264 324 388
#     4   9  20  41  70  95 123 168 222 270 319 387
#     4  12  28  43  65  97 141 176 214 278 343 399
#     4  10  22  41  66  94 127 168 221 274 324 389
#     4  11  23  39  63  92 127 166 221 266 321 384
#     4  11  22  34  61  86 128 166 209 269 313 386
#
# _framework density 20.544961000000001
#
# number of rings (size 3 to 8) (size 9 to 14) (size 15 to 20)
#    0.000    1.467    1.333    4.800    7.467    2.933 
#    0.000    1.333    0.000    4.800    0.000    0.000 
#    0.000    0.000    0.000    0.000    0.000    0.000 
#
# Total GULP energy -167603.661725 kJ/mol
# GULP energy per Si atom -5586.788724 kJ/mol
# Density = 2.049820 g / cm^3
# Si number density = 20.544961 Si / 1000 Ang^3
#
#
#
# Elastic Constant Matrix: (Units=GPa)
#
#
# Indices 1 2 3 4 5 6 
#
# 1 114.3188 26.9724 25.9126 0.0000 -8.6008 0.0000
# 2 26.9724 56.4749 23.9740 0.0000 -11.1984 0.0000
# 3 25.9126 23.9740 80.8131 0.0000 -15.9306 0.0000
# 4 0.0000 0.0000 0.0000 16.9195 0.0000 -5.7544
# 5 -8.6008 -11.1984 -15.9306 0.0000 28.4850 0.0000
# 6 0.0000 0.0000 0.0000 -5.7544 0.0000 23.2127
#
#
#
# Elastic Compliance Matrix: (Units=1/GPa)
#
#
# Indices 1 2 3 4 5 6 
#
# 1 0.010159 -0.003916 -0.002017 0.000000 0.000400 0.000000
# 2 -0.003916 0.022470 -0.004385 0.000000 0.005199 0.000000
# 3 -0.002017 -0.004385 0.015580 0.000000 0.006380 0.000000
# 4 0.000000 0.000000 0.000000 0.064545 0.000000 0.016001
# 5 0.000400 0.005199 0.006380 0.000000 0.040839 0.000000
# 6 0.000000 0.000000 0.000000 0.016001 0.000000 0.047046
#
#
# Mechanical properties :
#
#
# Convention : Reuss Voigt Hill
#
# Bulk Modulus (GPa) = 36.26971 45.03611 40.65291
# Shear Modulus (GPa) = 21.69516 25.37328 23.53422
#
# Velocity S-wave (km/s) = 3.25312 3.51809 3.38819
# Velocity P-wave (km/s) = 5.63937 6.20249 5.92762
#
# Compressibility (1/GPa) = 0.02757122
#
# Stress axis : x y z
#
# Youngs Moduli (GPa) = 98.43762 44.50402 64.18671
#
# Poissons Ratio (x) = 0.17430 0.12945
# Poissons Ratio (y) = 0.38552 0.28148
# Poissons Ratio (z) = 0.19852 0.19516
#
# Static dielectric constant tensor:
#      x y z
#    x 1.438340 0.000000 -0.036900 
#    y 0.000000 1.747580 0.000000 
#    z -0.036900 0.000000 1.724480 
# 
# From -- ./inp_files/247456.got.cif
#   From: 2010.05.17/outbox.cif.g08.bks.cpg/sg12_124_cif.got.tgz:247456.got - 2010.06.03 13:09:07.
