data_PCOD9215711
_publ_section_title
;
Structure prediction by ZEFSAII (Michael W. Deem and Ramdas Pophale) SiO2 
 PCOD9215711
Probable space group: C 2/M
;
_chemical_formula_sum "Si O2"
_cell_formula_units_Z 64
_cell_length_a 28.339014
_cell_length_b 12.011446
_cell_length_c 16.812938
_cell_angle_alpha 90.000000
_cell_angle_beta 31.756379
_cell_angle_gamma 90.000000
_cell_volume 3012.063351
_symmetry_space_group_name_H-M "C 2/M"
_symmetry_group_IT_number 12
_symmetry_cell_setting 'monoclinic'
loop_
_space_group_symop_operation_xyz
x,y,z
-x,y,-z
-x,-y,-z
x,-y,z
1/2+x,1/2+y,z
1/2-x,1/2+y,-z
1/2-x,1/2-y,-z
1/2+x,1/2-y,z
loop_
_atom_site_type_symbol
_atom_site_label
_atom_site_fract_x
_atom_site_fract_y
_atom_site_fract_z
Si Si1 0.348114 0.184735 0.944372
Si Si2 0.724565 0.280497 0.795496
Si Si3 0.456772 0.121260 0.369833
Si Si4 0.589579 0.793998 0.407295
Si Si5 0.109946 0.730593 0.686665
Si Si6 0.960582 0.878182 0.967670
Si Si7 0.254020 0.132006 0.389182
Si Si8 0.650578 0.626845 0.182088
O O1 0.438959 0.119920 0.800574
O O2 0.364786 0.302174 0.875511
O O3 0.323423 0.203471 0.070617
O O4 0.258753 0.130711 0.036058
O O5 0.808683 0.336619 0.721513
O O6 0.754585 0.202650 0.679535
O O7 0.646001 0.360587 0.878385
O O8 0.440904 0.217573 0.457527
O O9 0.401581 0.146311 0.369828
O O10 0.430986 0.000000 0.440128
O O11 0.500000 0.853469 0.500000
O O12 0.607967 0.692965 0.319058
O O13 0.176317 0.827624 0.560896
O O14 0.154391 0.670427 0.698300
O O15 0.014426 0.784540 0.842964
O O16 0.980110 0.000000 0.905329
O O17 0.000000 0.874427 0.000000
O O18 0.251832 0.000000 0.379007
O O19 0.619356 0.500000 0.223750
#
# Coordination Sequence:
#
# PCOD9215711 Si02
#       8
#     8   8   8   8   8   8   8   8
#     4  10  22  42  63  96 131 161 226 274 327 411
#     4  11  23  43  66  98 142 172 226 284 323 414
#     4  12  24  42  66  93 132 177 220 279 343 394
#     4  11  24  45  64  99 137 177 231 282 328 407
#     4  11  23  46  66 100 139 172 228 280 321 418
#     4  11  23  42  69  99 136 179 218 277 344 392
#     4  11  24  43  71 100 136 182 220 273 341 399
#     4  10  22  43  69  92 128 175 218 282 344 389
#
# _framework density 21.247893000000001
#
# number of rings (size 3 to 8) (size 9 to 14) (size 15 to 20)
#    0.000    1.125    5.000    1.125    0.000    4.000 
#    0.000    2.500    0.000    0.000    0.000    0.000 
#    0.000    0.000    0.000    0.000    0.000    0.000 
#
# Total GULP energy -178383.863717 kJ/mol
# GULP energy per Si atom -5574.495741 kJ/mol
# Density = 2.119953 g / cm^3
# Si number density = 21.247893 Si / 1000 Ang^3
#
#
#
# Elastic Constant Matrix: (Units=GPa)
#
#
# Indices 1 2 3 4 5 6 
#
# 1 107.5403 29.6611 20.0905 0.0000 -13.0538 0.0000
# 2 29.6611 84.2992 19.2598 0.0000 -1.7166 0.0000
# 3 20.0905 19.2598 92.8604 0.0000 -13.5281 0.0000
# 4 0.0000 0.0000 0.0000 15.6973 0.0000 7.2065
# 5 -13.0538 -1.7166 -13.5281 0.0000 50.1108 0.0000
# 6 0.0000 0.0000 0.0000 7.2065 0.0000 -0.1885
#
#
#
# Elastic Compliance Matrix: (Units=1/GPa)
#
#
# Indices 1 2 3 4 5 6 
#
# 1 0.010773 -0.003452 -0.001273 0.000000 0.002344 0.000000
# 2 -0.003452 0.013562 -0.002217 0.000000 -0.001033 0.000000
# 3 -0.001273 -0.002217 0.011913 0.000000 0.002809 0.000000
# 4 0.000000 0.000000 0.000000 0.003434 0.000000 0.131283
# 5 0.002344 -0.001033 0.002809 0.000000 0.021289 0.000000
# 6 0.000000 0.000000 0.000000 0.131283 0.000000 -0.285961
#
#
# Mechanical properties :
#
#
# Convention : Reuss Voigt Hill
#
# Bulk Modulus (GPa) = 44.71221 46.96919 45.84070
# Shear Modulus (GPa) = -24.55201 27.50316 1.47558
#
# Velocity S-wave (km/s) = -3.40296 3.60167 0.83425
# Velocity P-wave (km/s) = 2.37669 6.28088 4.74858
#
# Compressibility (1/GPa) = 0.02236526
#
# Stress axis : x y z
#
# Youngs Moduli (GPa) = 92.82110 73.73273 83.94032
#
# Poissons Ratio (x) = 0.25453 0.10688
# Poissons Ratio (y) = 0.32042 0.18606
# Poissons Ratio (z) = 0.11819 0.16344
#
# Static dielectric constant tensor:
#      x y z
#    x 1.793460 0.000000 -0.037810 
#    y 0.000000 1.744630 0.000000 
#    z -0.037810 0.000000 1.781310 
# 
# From -- ./inp_files/296485.got.cif
#   From: 2010.05.17/outbox.cif.g08.bks.cpg/sg12_149_cif.got.tgz:296485.got - 2010.06.03 13:09:07.
