data_PCOD9215844
_publ_section_title
;
Structure prediction by ZEFSAII (Michael W. Deem and Ramdas Pophale) SiO2 
 PCOD9215844
Probable space group: C 2/M
;
_chemical_formula_sum "Si O2"
_cell_formula_units_Z 40
_cell_length_a 27.358840
_cell_length_b 10.055637
_cell_length_c 18.478594
_cell_angle_alpha 90.000000
_cell_angle_beta 21.101889
_cell_angle_gamma 90.000000
_cell_volume 1830.256448
_symmetry_space_group_name_H-M "C 2/M"
_symmetry_group_IT_number 12
_symmetry_cell_setting 'monoclinic'
loop_
_space_group_symop_operation_xyz
x,y,z
-x,y,-z
-x,-y,-z
x,-y,z
1/2+x,1/2+y,z
1/2-x,1/2+y,-z
1/2-x,1/2-y,-z
1/2+x,1/2-y,z
loop_
_atom_site_type_symbol
_atom_site_label
_atom_site_fract_x
_atom_site_fract_y
_atom_site_fract_z
Si Si1 0.018443 0.786671 0.808168
Si Si2 0.299841 0.650198 0.220691
Si Si3 0.139198 0.155077 0.115797
Si Si4 0.299819 0.140393 0.348397
Si Si5 0.090844 0.149989 0.444973
O O1 0.914632 0.783759 0.884936
O O2 0.154886 0.854593 0.588844
O O3 0.939727 0.854431 0.983032
O O4 0.081266 0.654647 0.756928
O O5 0.253281 0.500000 0.299313
O O6 0.308911 0.737394 0.280720
O O7 0.198388 0.735114 0.310474
O O8 0.010170 0.150021 0.347268
O O9 0.183670 0.000000 0.043572
O O10 0.250000 0.250000 0.000000
O O11 0.311210 0.000000 0.292915
O O12 0.000000 0.175189 0.500000
O O13 0.149303 0.000000 0.356751
#
# Coordination Sequence:
#
# PCOD9215844 Si02
#       5
#     8   8   8   8   8
#     4  11  25  44  69  99 137 179 223 278 342 392
#     4  12  25  41  67 101 138 177 222 278 339 400
#     4  11  23  42  67  96 133 176 220 275 333 396
#     4  11  25  47  72  98 136 181 229 277 332 406
#     4  10  22  42  66  94 133 178 225 278 334 396
#
# _framework density 21.854862000000001
#
# number of rings (size 3 to 8) (size 9 to 14) (size 15 to 20)
#    0.000    1.000    2.000    4.200    0.000   10.000 
#    0.000    0.000    0.000    0.000    0.000    0.000 
#    0.000    0.000    0.000    0.000    0.000    0.000 
#
# Total GULP energy -111729.143228 kJ/mol
# GULP energy per Si atom -5586.457161 kJ/mol
# Density = 2.180512 g / cm^3
# Si number density = 21.854862 Si / 1000 Ang^3
#
#
#
# Elastic Constant Matrix: (Units=GPa)
#
#
# Indices 1 2 3 4 5 6 
#
# 1 116.9071 93.7243 41.0284 0.0000 -10.0100 0.0000
# 2 93.7243 189.9305 58.0205 0.0000 -24.6135 0.0000
# 3 41.0284 58.0205 86.7320 0.0000 2.9672 0.0000
# 4 0.0000 0.0000 0.0000 -2.5666 0.0000 8.7187
# 5 -10.0100 -24.6135 2.9672 0.0000 46.3479 0.0000
# 6 0.0000 0.0000 0.0000 8.7187 0.0000 19.7835
#
#
#
# Elastic Compliance Matrix: (Units=1/GPa)
#
#
# Indices 1 2 3 4 5 6 
#
# 1 0.014614 -0.006425 -0.002612 0.000000 -0.000089 0.000000
# 2 -0.006425 0.010188 -0.003922 0.000000 0.004274 0.000000
# 3 -0.002612 -0.003922 0.015513 0.000000 -0.003640 0.000000
# 4 0.000000 0.000000 0.000000 -0.156029 0.000000 0.068763
# 5 -0.000089 0.004274 -0.003640 0.000000 0.024059 0.000000
# 6 0.000000 0.000000 0.000000 0.068763 0.000000 0.020243
#
#
# Mechanical properties :
#
#
# Convention : Reuss Voigt Hill
#
# Bulk Modulus (GPa) = 69.45848 86.56845 78.01346
# Shear Modulus (GPa) = -122.86231 26.09938 -48.38146
#
# Velocity S-wave (km/s) = -7.50596 3.45949 -4.71017
# Velocity P-wave (km/s) = 6.57788 7.46016 2.48852
#
# Compressibility (1/GPa) = 0.01439709
#
# Stress axis : x y z
#
# Youngs Moduli (GPa) = 68.42865 98.15948 64.46004
#
# Poissons Ratio (x) = 0.63067 0.16836
# Poissons Ratio (y) = 0.43965 0.25281
# Poissons Ratio (z) = 0.17873 0.38498
#
# Static dielectric constant tensor:
#      x y z
#    x 1.821710 0.000000 -0.008850 
#    y 0.000000 1.824140 0.000000 
#    z -0.008850 0.000000 1.796010 
# 
# From -- ./inp_files/288588.got.cif
#   From: 2010.05.17/outbox.cif.g08.bks.cpg/sg12_145_cif.got.tgz:288588.got - 2010.06.03 13:09:07.
