data_PCOD9215572
_publ_section_title
;
Structure prediction by ZEFSAII (Michael W. Deem and Ramdas Pophale) SiO2 
 PCOD9215572
Probable space group: C 2/M
;
_chemical_formula_sum "Si O2"
_cell_formula_units_Z 44
_cell_length_a 8.984685
_cell_length_b 19.359854
_cell_length_c 12.136202
_cell_angle_alpha 90.000000
_cell_angle_beta 94.899252
_cell_angle_gamma 90.000000
_cell_volume 2103.284835
_symmetry_space_group_name_H-M "C 2/M"
_symmetry_group_IT_number 12
_symmetry_cell_setting 'monoclinic'
loop_
_space_group_symop_operation_xyz
x,y,z
-x,y,-z
-x,-y,-z
x,-y,z
1/2+x,1/2+y,z
1/2-x,1/2+y,-z
1/2-x,1/2-y,-z
1/2+x,1/2-y,z
loop_
_atom_site_type_symbol
_atom_site_label
_atom_site_fract_x
_atom_site_fract_y
_atom_site_fract_z
Si Si1 0.298063 0.886257 0.700898
Si Si2 0.646850 0.126395 0.760396
Si Si3 0.280874 0.725163 0.147649
Si Si4 0.500000 0.271212 0.000000
Si Si5 0.819665 0.325392 0.479284
Si Si6 0.804465 0.000000 0.891242
Si Si7 0.847329 0.000000 0.151250
O O1 0.474657 0.895483 0.732672
O O2 0.254624 0.810480 0.741193
O O3 0.271304 0.881390 0.568886
O O4 0.207757 0.936884 0.774907
O O5 0.660461 0.197901 0.827999
O O6 0.712858 0.144966 0.644133
O O7 0.730485 0.067356 0.832163
O O8 0.410087 0.687049 0.086475
O O9 0.129650 0.728375 0.067837
O O10 0.750000 0.250000 0.500000
O O11 0.000000 0.317837 0.500000
O O12 0.977178 0.000000 0.864720
O O13 0.780449 0.000000 0.022428
#
# Coordination Sequence:
#
# PCOD9215572 Si02
#       7
#     8   8   8   4   8   4   4
#     4  11  24  43  66  96 132 174 216 268 329 389
#     4  11  24  43  66  96 132 174 216 268 329 389
#     4  11  22  37  64  94 128 171 217 270 330 378
#     4  10  24  34  56  98 132 166 218 270 322 394
#     4  10  22  41  68 101 131 169 219 271 324 383
#     4  11  29  46  67  94 132 175 222 271 328 393
#     4  11  29  46  67  94 132 175 222 271 328 393
#
# _framework density 20.91966
#
# number of rings (size 3 to 8) (size 9 to 14) (size 15 to 20)
#    0.000    1.273    3.636    0.545    7.636    3.636 
#    0.000    3.636    0.000    0.000    0.000    0.000 
#    0.000    0.000    0.000    0.000    0.000    0.000 
#
# Total GULP energy -122803.124263 kJ/mol
# GULP energy per Si atom -5581.960194 kJ/mol
# Density = 2.087205 g / cm^3
# Si number density = 20.919660 Si / 1000 Ang^3
#
#
#
# Elastic Constant Matrix: (Units=GPa)
#
#
# Indices 1 2 3 4 5 6 
#
# 1 70.9434 18.5301 43.4263 0.0000 -17.7643 0.0000
# 2 18.5301 87.5912 44.8534 0.0000 -2.2957 0.0000
# 3 43.4263 44.8534 170.9843 0.0000 -16.6627 0.0000
# 4 0.0000 0.0000 0.0000 29.2892 0.0000 -10.9716
# 5 -17.7643 -2.2957 -16.6627 0.0000 29.2212 0.0000
# 6 0.0000 0.0000 0.0000 -10.9716 0.0000 2.5663
#
#
#
# Elastic Compliance Matrix: (Units=1/GPa)
#
#
# Indices 1 2 3 4 5 6 
#
# 1 0.019084 -0.002057 -0.003380 0.000000 0.009513 0.000000
# 2 -0.002057 0.013437 -0.003199 0.000000 -0.002019 0.000000
# 3 -0.003380 -0.003199 0.007752 0.000000 0.002114 0.000000
# 4 0.000000 0.000000 0.000000 -0.056762 0.000000 -0.242673
# 5 0.009513 -0.002019 0.002114 0.000000 0.041052 0.000000
# 6 0.000000 0.000000 0.000000 -0.242673 0.000000 -0.647830
#
#
# Mechanical properties :
#
#
# Convention : Reuss Voigt Hill
#
# Bulk Modulus (GPa) = 43.47726 60.34871 51.91298
# Shear Modulus (GPa) = -8.35665 27.06260 9.35297
#
# Velocity S-wave (km/s) = -2.00083 3.60063 2.11674
# Velocity P-wave (km/s) = 3.93578 6.79680 5.55369
#
# Compressibility (1/GPa) = 0.02300053
#
# Stress axis : x y z
#
# Youngs Moduli (GPa) = 52.39940 74.42041 128.99394
#
# Poissons Ratio (x) = 0.15308 0.43604
# Poissons Ratio (y) = 0.10778 0.41268
# Poissons Ratio (z) = 0.17713 0.23809
#
# Static dielectric constant tensor:
#      x y z
#    x 1.738670 0.000000 -0.021140 
#    y 0.000000 1.761140 0.000000 
#    z -0.021140 0.000000 1.774850 
# 
# From -- ./inp_files/120763.got.cif
#   From: 2010.05.17/outbox.cif.g08.bks.cpg/sg12_61_cif.got.tgz:120763.got - 2010.06.03 13:09:07.
