data_PCOD9215035
_publ_section_title
;
Structure prediction by ZEFSAII (Michael W. Deem and Ramdas Pophale) SiO2 
 PCOD9215035
Probable space group: C 2/M
;
_chemical_formula_sum "Si O2"
_cell_formula_units_Z 38
_cell_length_a 10.332003
_cell_length_b 23.051352
_cell_length_c 11.434952
_cell_angle_alpha 90.000000
_cell_angle_beta 41.761490
_cell_angle_gamma 90.000000
_cell_volume 1813.885583
_symmetry_space_group_name_H-M "C 2/M"
_symmetry_group_IT_number 12
_symmetry_cell_setting 'monoclinic'
loop_
_space_group_symop_operation_xyz
x,y,z
-x,y,-z
-x,-y,-z
x,-y,z
1/2+x,1/2+y,z
1/2-x,1/2+y,-z
1/2-x,1/2-y,-z
1/2+x,1/2-y,z
loop_
_atom_site_type_symbol
_atom_site_label
_atom_site_fract_x
_atom_site_fract_y
_atom_site_fract_z
Si Si1 0.000000 0.118502 0.000000
Si Si2 0.200774 0.221171 0.305906
Si Si3 0.724521 0.613917 0.444766
Si Si4 0.090106 0.564948 0.310170
Si Si5 0.500000 0.500000 0.500000
Si Si6 0.510440 0.305985 0.210403
O O1 0.186675 0.083075 0.833104
O O2 0.922782 0.156161 0.943646
O O3 0.220881 0.154664 0.333172
O O4 0.370752 0.258014 0.248097
O O5 0.171595 0.221744 0.186642
O O6 0.000000 0.243483 0.500000
O O7 0.622381 0.552337 0.487812
O O8 0.614993 0.651662 0.618769
O O9 0.947090 0.604622 0.331610
O O10 0.080937 0.500000 0.267606
O O11 0.000000 0.565281 0.500000
#
# Coordination Sequence:
#
# PCOD9215035 Si02
#       6
#     4   8   8   8   2   8
#     4  12  27  42  68 104 144 171 240 292 344 418
#     4  10  22  40  69 100 136 183 235 286 351 421
#     4  11  21  41  72 102 138 182 232 283 355 422
#     4  11  24  43  69 100 136 188 225 283 348 422
#     4  12  20  40  74 110 136 180 242 278 360 432
#     4  11  24  42  66 100 139 184 228 298 347 412
#
# _framework density 20.949501999999999
#
# number of rings (size 3 to 8) (size 9 to 14) (size 15 to 20)
#    0.000    1.053    6.316    2.842    5.895    0.842 
#    1.895    0.000    0.000    2.526    0.000    0.000 
#    0.000    0.000    0.000    0.000    0.000    0.000 
#
# Total GULP energy -105906.858440 kJ/mol
# GULP energy per Si atom -5574.045181 kJ/mol
# Density = 2.090182 g / cm^3
# Si number density = 20.949502 Si / 1000 Ang^3
#
#
#
# Elastic Constant Matrix: (Units=GPa)
#
#
# Indices 1 2 3 4 5 6 
#
# 1 146.0393 49.6843 28.7309 0.0000 7.5415 0.0000
# 2 49.6843 112.8274 27.6383 0.0000 -10.9488 0.0000
# 3 28.7309 27.6383 63.9453 0.0000 -1.3808 0.0000
# 4 0.0000 0.0000 0.0000 -75.2990 0.0000 29.9881
# 5 7.5415 -10.9488 -1.3808 0.0000 30.5374 0.0000
# 6 0.0000 0.0000 0.0000 29.9881 0.0000 34.3772
#
#
#
# Elastic Compliance Matrix: (Units=1/GPa)
#
#
# Indices 1 2 3 4 5 6 
#
# 1 0.008735 -0.003592 -0.002449 0.000000 -0.003556 0.000000
# 2 -0.003592 0.011747 -0.003357 0.000000 0.004947 0.000000
# 3 -0.002449 -0.003357 0.018194 0.000000 0.000224 0.000000
# 4 0.000000 0.000000 0.000000 -0.009856 0.000000 0.008598
# 5 -0.003556 0.004947 0.000224 0.000000 0.035409 0.000000
# 6 0.000000 0.000000 0.000000 0.008598 0.000000 0.021589
#
#
# Mechanical properties :
#
#
# Convention : Reuss Voigt Hill
#
# Bulk Modulus (GPa) = 50.29785 59.43542 54.86664
# Shear Modulus (GPa) = 44.94818 12.37369 28.66094
#
# Velocity S-wave (km/s) = 4.63703 2.43295 3.70279
# Velocity P-wave (km/s) = 7.26159 6.02700 6.67291
#
# Compressibility (1/GPa) = 0.01988157
#
# Stress axis : x y z
#
# Youngs Moduli (GPa) = 114.48494 85.12836 54.96194
#
# Poissons Ratio (x) = 0.30574 0.13460
# Poissons Ratio (y) = 0.41118 0.18449
# Poissons Ratio (z) = 0.28038 0.28575
#
# Static dielectric constant tensor:
#      x y z
#    x 1.791350 0.000000 -0.020950 
#    y 0.000000 1.766290 0.000000 
#    z -0.020950 0.000000 1.775660 
# 
# From -- ./inp_files/133676.got.cif
#   From: 2010.05.17/outbox.cif.g08.bks.cpg/sg12_67_cif.got.tgz:133676.got - 2010.06.03 13:09:07.
