data_PCOD9215702
_publ_section_title
;
Structure prediction by ZEFSAII (Michael W. Deem and Ramdas Pophale) SiO2 
 PCOD9215702
Probable space group: C 2/M
;
_chemical_formula_sum "Si O2"
_cell_formula_units_Z 40
_cell_length_a 13.793990
_cell_length_b 15.473849
_cell_length_c 16.187509
_cell_angle_alpha 90.000000
_cell_angle_beta 146.904656
_cell_angle_gamma 90.000000
_cell_volume 1886.634960
_symmetry_space_group_name_H-M "C 2/M"
_symmetry_group_IT_number 12
_symmetry_cell_setting 'monoclinic'
loop_
_space_group_symop_operation_xyz
x,y,z
-x,y,-z
-x,-y,-z
x,-y,z
1/2+x,1/2+y,z
1/2-x,1/2+y,-z
1/2-x,1/2-y,-z
1/2+x,1/2-y,z
loop_
_atom_site_type_symbol
_atom_site_label
_atom_site_fract_x
_atom_site_fract_y
_atom_site_fract_z
Si Si1 0.201335 0.599631 0.646794
Si Si2 0.166087 0.000000 0.560783
Si Si3 0.722896 0.145889 0.478199
Si Si4 0.609092 0.147109 0.861046
Si Si5 0.489518 0.282447 0.081694
Si Si6 0.533074 0.000000 0.925109
O O1 0.193428 0.500000 0.667738
O O2 0.263097 0.608017 0.596412
O O3 0.346469 0.651878 0.801466
O O4 0.000000 0.635499 0.500000
O O5 0.166717 0.912020 0.507419
O O6 0.000000 0.000000 0.500000
O O7 0.342142 0.000000 0.743125
O O8 0.750000 0.250000 0.500000
O O9 0.520576 0.122261 0.306385
O O10 0.499558 0.221682 0.830679
O O11 0.633196 0.080339 0.953639
O O12 0.797558 0.174469 0.959398
O O13 0.500000 0.236310 0.000000
O O14 0.500000 0.000000 0.000000
#
# Coordination Sequence:
#
# PCOD9215702 Si02
#       6
#     8   4   8   8   8   4
#     4  11  24  41  65  94 123 163 212 262 319 385
#     4  10  24  42  63  98 129 162 223 270 312 396
#     4  11  21  43  66  91 129 169 211 269 326 375
#     4  10  23  41  64  92 124 168 211 257 318 380
#     4  11  23  42  62  92 128 162 211 262 311 381
#     4  10  22  42  63  90 127 166 207 258 320 378
#
# _framework density 21.201768999999999
#
# number of rings (size 3 to 8) (size 9 to 14) (size 15 to 20)
#    0.000    1.400    3.000    1.800    1.400    2.800 
#    7.200    0.000    0.000    0.000    0.000    0.000 
#    0.000    0.000    0.000    0.000    0.000    0.000 
#
# Total GULP energy -111535.878601 kJ/mol
# GULP energy per Si atom -5576.793930 kJ/mol
# Density = 2.115351 g / cm^3
# Si number density = 21.201769 Si / 1000 Ang^3
#
#
#
# Elastic Constant Matrix: (Units=GPa)
#
#
# Indices 1 2 3 4 5 6 
#
# 1 108.3268 18.3455 7.8813 0.0003 -5.7905 0.0001
# 2 18.3455 78.7112 -2.6852 0.0003 6.2196 0.0004
# 3 7.8813 -2.6852 20.7665 0.0023 -12.2371 0.0016
# 4 0.0003 0.0003 0.0023 11.8443 0.0010 2.5299
# 5 -5.7905 6.2196 -12.2371 0.0010 40.9739 0.0006
# 6 0.0001 0.0004 0.0016 2.5299 0.0006 23.9745
#
#
#
# Elastic Compliance Matrix: (Units=1/GPa)
#
#
# Indices 1 2 3 4 5 6 
#
# 1 0.009961 -0.002502 -0.003702 0.000000 0.000682 0.000000
# 2 -0.002502 0.013494 0.001552 0.000000 -0.001938 0.000000
# 3 -0.003702 0.001552 0.059845 -0.000012 0.017114 -0.000003
# 4 0.000000 0.000000 -0.000012 0.086376 -0.000005 -0.009115
# 5 0.000682 -0.001938 0.017114 -0.000005 0.029908 -0.000001
# 6 0.000000 0.000000 -0.000003 -0.009115 -0.000001 0.042673
#
#
# Mechanical properties :
#
#
# Convention : Reuss Voigt Hill
#
# Bulk Modulus (GPa) = 13.51417 28.32086 20.91752
# Shear Modulus (GPa) = 18.10118 27.64274 22.87196
#
# Velocity S-wave (km/s) = 2.92508 3.61473 3.28804
# Velocity P-wave (km/s) = 4.21854 5.55054 4.92973
#
# Compressibility (1/GPa) = 0.07399642
#
# Stress axis : x y z
#
# Youngs Moduli (GPa) = 100.39361 74.10768 16.70977
#
# Poissons Ratio (x) = 0.18540 0.06186
# Poissons Ratio (y) = 0.25116 -0.02594
# Poissons Ratio (z) = 0.37167 -0.11502
#
# Static dielectric constant tensor:
#      x y z
#    x 1.779650 0.000000 -0.003460 
#    y 0.000000 1.855630 0.000000 
#    z -0.003460 0.000000 1.742920 
# 
# From -- ./inp_files/270812.got.cif
#   From: 2010.05.17/outbox.cif.g08.bks.cpg/sg12_136_cif.got.tgz:270812.got - 2010.06.03 13:09:07.
