data_PCOD9215571
_publ_section_title
;
Structure prediction by ZEFSAII (Michael W. Deem and Ramdas Pophale) SiO2 
 PCOD9215571
Probable space group: C 2/M
;
_chemical_formula_sum "Si O2"
_cell_formula_units_Z 64
_cell_length_a 11.234509
_cell_length_b 15.916556
_cell_length_c 20.397921
_cell_angle_alpha 90.000000
_cell_angle_beta 125.974840
_cell_angle_gamma 90.000000
_cell_volume 2951.788543
_symmetry_space_group_name_H-M "C 2/M"
_symmetry_group_IT_number 12
_symmetry_cell_setting 'monoclinic'
loop_
_space_group_symop_operation_xyz
x,y,z
-x,y,-z
-x,-y,-z
x,-y,z
1/2+x,1/2+y,z
1/2-x,1/2+y,-z
1/2-x,1/2-y,-z
1/2+x,1/2-y,z
loop_
_atom_site_type_symbol
_atom_site_label
_atom_site_fract_x
_atom_site_fract_y
_atom_site_fract_z
Si Si1 0.211026 0.661886 0.454240
Si Si2 0.605948 0.409563 0.383208
Si Si3 0.172477 0.596296 0.071761
Si Si4 0.388213 0.812657 0.293042
Si Si5 0.629345 0.406798 0.235384
Si Si6 0.899757 0.238251 0.150490
Si Si7 0.568517 0.094707 0.180518
Si Si8 0.180939 0.835882 0.650265
O O1 0.250000 0.750000 0.500000
O O2 0.250634 0.599029 0.525310
O O3 0.316771 0.650497 0.426080
O O4 0.047843 0.664556 0.372325
O O5 0.537307 0.500000 0.371668
O O6 0.638088 0.401474 0.317311
O O7 0.476797 0.351504 0.368021
O O8 0.217307 0.500000 0.064517
O O9 0.259756 0.682008 0.081825
O O10 0.173920 0.595908 0.151198
O O11 0.000000 0.603561 0.000000
O O12 0.287390 0.894376 0.253272
O O13 0.390191 0.761608 0.225262
O O14 0.300162 0.759701 0.320032
O O15 0.570116 0.500000 0.201443
O O16 0.526167 0.330902 0.179604
O O17 0.951039 0.328673 0.137739
O O18 0.681111 0.113569 0.275944
O O19 0.505566 0.000000 0.164692
#
# Coordination Sequence:
#
# PCOD9215571 Si02
#       8
#     8   8   8   8   8   8   8   8
#     4  12  24  37  56  83 116 160 209 267 327 373
#     4  11  24  39  56  81 113 156 214 274 324 373
#     4  10  22  41  68 101 131 160 198 247 303 366
#     4  12  22  38  61  86 117 162 210 258 311 378
#     4  11  23  40  61  88 121 164 211 261 316 375
#     4  12  20  41  66  92 126 163 206 249 304 370
#     4  11  23  39  63  94 126 161 207 258 306 365
#     4  12  21  39  62  84 116 161 213 266 314 372
#
# _framework density 21.681768000000002
#
# number of rings (size 3 to 8) (size 9 to 14) (size 15 to 20)
#    0.000    0.625    6.250    1.875    0.000    6.500 
#    0.000    1.250    0.000    0.375    0.000    0.000 
#    0.000    0.000    0.000    0.000    0.000    0.000 
#
# Total GULP energy -178418.125639 kJ/mol
# GULP energy per Si atom -5575.566426 kJ/mol
# Density = 2.163242 g / cm^3
# Si number density = 21.681768 Si / 1000 Ang^3
#
#
#
# Elastic Constant Matrix: (Units=GPa)
#
#
# Indices 1 2 3 4 5 6 
#
# 1 43.7460 35.4421 9.1511 0.0000 27.0990 0.0000
# 2 35.4421 145.5707 2.6179 0.0000 16.9506 0.0000
# 3 9.1511 2.6179 31.4369 0.0000 16.4080 0.0000
# 4 0.0000 0.0000 0.0000 10.1258 0.0000 -1.2360
# 5 27.0990 16.9506 16.4080 0.0000 29.1872 0.0000
# 6 0.0000 0.0000 0.0000 -1.2360 0.0000 21.5470
#
#
#
# Elastic Compliance Matrix: (Units=1/GPa)
#
#
# Indices 1 2 3 4 5 6 
#
# 1 0.068752 -0.009168 0.015975 0.000000 -0.067490 0.000000
# 2 -0.009168 0.008709 0.000199 0.000000 0.003342 0.000000
# 3 0.015975 0.000199 0.049455 0.000000 -0.042750 0.000000
# 4 0.000000 0.000000 0.000000 0.099454 0.000000 0.005705
# 5 -0.067490 0.003342 -0.042750 0.000000 0.119014 0.000000
# 6 0.000000 0.000000 0.000000 0.005705 0.000000 0.046737
#
#
# Mechanical properties :
#
#
# Convention : Reuss Voigt Hill
#
# Bulk Modulus (GPa) = 7.09574 35.01953 21.05763
# Shear Modulus (GPa) = 11.76232 23.74150 17.75191
#
# Velocity S-wave (km/s) = 2.33169 3.31267 2.86448
# Velocity P-wave (km/s) = 3.24481 5.55143 4.54682
#
# Compressibility (1/GPa) = 0.14092965
#
# Stress axis : x y z
#
# Youngs Moduli (GPa) = 14.54493 114.82602 20.22024
#
# Poissons Ratio (x) = 1.05270 -0.32302
# Poissons Ratio (y) = 0.13334 -0.00402
# Poissons Ratio (z) = -0.23236 -0.02285
#
# Static dielectric constant tensor:
#      x y z
#    x 1.800740 0.000000 -0.007150 
#    y 0.000000 2.341040 0.000000 
#    z -0.007150 0.000000 1.900370 
# 
# From -- ./inp_files/306225.got.cif
#   From: 2010.05.17/outbox.cif.g08.bks.cpg/sg12_154_cif.got.tgz:306225.got - 2010.06.03 13:09:07.
