data_PCOD9215028
_publ_section_title
;
Structure prediction by ZEFSAII (Michael W. Deem and Ramdas Pophale) SiO2 
 PCOD9215028
Probable space group: C 2/M
;
_chemical_formula_sum "Si O2"
_cell_formula_units_Z 34
_cell_length_a 19.531049
_cell_length_b 14.131216
_cell_length_c 5.437774
_cell_angle_alpha 90.000000
_cell_angle_beta 113.217518
_cell_angle_gamma 90.000000
_cell_volume 1379.268403
_symmetry_space_group_name_H-M "C 2/M"
_symmetry_group_IT_number 12
_symmetry_cell_setting 'monoclinic'
loop_
_space_group_symop_operation_xyz
x,y,z
-x,y,-z
-x,-y,-z
x,-y,z
1/2+x,1/2+y,z
1/2-x,1/2+y,-z
1/2-x,1/2-y,-z
1/2+x,1/2-y,z
loop_
_atom_site_type_symbol
_atom_site_label
_atom_site_fract_x
_atom_site_fract_y
_atom_site_fract_z
Si Si1 0.023642 0.352006 0.281415
Si Si2 0.306750 0.884982 0.462184
Si Si3 0.279451 0.614471 0.162627
Si Si4 0.559312 0.653205 0.775369
Si Si5 0.500000 0.500000 0.000000
O O1 0.111832 0.339670 0.403751
O O2 0.000000 0.399848 0.500000
O O3 0.975439 0.254806 0.216383
O O4 0.000000 0.401499 0.000000
O O5 0.269200 0.861617 0.147674
O O6 0.316118 0.000000 0.482364
O O7 0.258450 0.858079 0.633416
O O8 0.287673 0.500000 0.178633
O O9 0.360918 0.656703 0.235673
O O10 0.500000 0.607049 0.500000
O O11 0.559798 0.583625 0.007046
#
# Coordination Sequence:
#
# PCOD9215028 Si02
#       5
#     8   8   8   8   2
#     4  11  24  44  65  96 137 170 222 270 324 395
#     4  10  23  43  68  98 130 175 219 272 329 385
#     4  10  22  40  68  97 132 168 223 274 327 388
#     4  11  25  40  66 100 133 172 219 270 332 393
#     4  12  22  40  72  90 138 172 222 270 326 392
#
# _framework density 24.650749000000001
#
# number of rings (size 3 to 8) (size 9 to 14) (size 15 to 20)
#    0.000    1.412    2.353    1.765    3.294    0.941 
#    0.000   16.471    0.000    0.000    0.000    0.000 
#    0.000    0.000    0.000    0.000    0.000    0.000 
#
# Total GULP energy -94967.647404 kJ/mol
# GULP energy per Si atom -5586.332200 kJ/mol
# Density = 2.459464 g / cm^3
# Si number density = 24.650749 Si / 1000 Ang^3
#
#
#
# Elastic Constant Matrix: (Units=GPa)
#
#
# Indices 1 2 3 4 5 6 
#
# 1 242.5684 54.5765 81.5489 0.0000 -10.7299 0.0000
# 2 54.5765 143.7592 38.0484 0.0000 -6.2750 0.0000
# 3 81.5489 38.0484 164.7933 0.0000 -14.6183 0.0000
# 4 0.0000 0.0000 0.0000 407.3808 0.0000 686.5278
# 5 -10.7299 -6.2750 -14.6183 0.0000 54.9604 0.0000
# 6 0.0000 0.0000 0.0000 686.5278 0.0000 1024.8332
#
#
#
# Elastic Compliance Matrix: (Units=1/GPa)
#
#
# Indices 1 2 3 4 5 6 
#
# 1 0.005192 -0.001369 -0.002230 0.000000 0.000264 0.000000
# 2 -0.001369 0.007779 -0.001089 0.000000 0.000331 0.000000
# 3 -0.002230 -0.001089 0.007552 0.000000 0.001449 0.000000
# 4 0.000000 0.000000 0.000000 -0.019041 0.000000 0.012755
# 5 0.000264 0.000331 0.001449 0.000000 0.018670 0.000000
# 6 0.000000 0.000000 0.000000 0.012755 0.000000 -0.007569
#
#
# Mechanical properties :
#
#
# Convention : Reuss Voigt Hill
#
# Bulk Modulus (GPa) = 89.71762 99.94094 94.82928
# Shear Modulus (GPa) = 194.75389 322.56468 258.65928
#
# Velocity S-wave (km/s) = 8.89813 11.45155 10.25463
# Velocity P-wave (km/s) = 11.91820 14.67929 13.37021
#
# Compressibility (1/GPa) = 0.01114608
#
# Stress axis : x y z
#
# Youngs Moduli (GPa) = 192.60670 128.55756 132.42392
#
# Poissons Ratio (x) = 0.17605 0.29526
# Poissons Ratio (y) = 0.26376 0.14420
# Poissons Ratio (z) = 0.42944 0.13999
#
# Static dielectric constant tensor:
#      x y z
#    x 1.889310 0.000000 -0.054670 
#    y 0.000000 1.981410 0.000000 
#    z -0.054670 0.000000 2.161820 
# 
# From -- ./inp_files/10845.got.cif
#   From: 2010.05.17/outbox.cif.g08.bks.cpg/sg12_6_cif.got.tgz:10845.got - 2010.06.03 13:09:07.
