data_PCOD9215760
_publ_section_title
;
Structure prediction by ZEFSAII (Michael W. Deem and Ramdas Pophale) SiO2 
 PCOD9215760
Probable space group: C 2/M
;
_chemical_formula_sum "Si O2"
_cell_formula_units_Z 58
_cell_length_a 7.665751
_cell_length_b 25.741413
_cell_length_c 17.779231
_cell_angle_alpha 90.000000
_cell_angle_beta 44.478325
_cell_angle_gamma 90.000000
_cell_volume 2458.072081
_symmetry_space_group_name_H-M "C 2/M"
_symmetry_group_IT_number 12
_symmetry_cell_setting 'monoclinic'
loop_
_space_group_symop_operation_xyz
x,y,z
-x,y,-z
-x,-y,-z
x,-y,z
1/2+x,1/2+y,z
1/2-x,1/2+y,-z
1/2-x,1/2-y,-z
1/2+x,1/2-y,z
loop_
_atom_site_type_symbol
_atom_site_label
_atom_site_fract_x
_atom_site_fract_y
_atom_site_fract_z
Si Si1 0.231902 0.711876 0.784355
Si Si2 0.772929 0.195150 0.447637
Si Si3 0.638212 0.822970 0.225417
Si Si4 0.646851 0.100072 0.570712
Si Si5 0.841390 0.057146 0.270266
Si Si6 0.500000 0.500000 0.500000
Si Si7 0.125011 0.606604 0.882896
Si Si8 0.768754 0.077678 0.119024
O O1 0.522117 0.702316 0.679132
O O2 0.202227 0.772951 0.803937
O O3 0.089365 0.698099 0.752616
O O4 0.124587 0.669179 0.874258
O O5 0.500000 0.186934 0.500000
O O6 0.750000 0.250000 0.500000
O O7 0.829204 0.140918 0.473348
O O8 0.496804 0.858888 0.329318
O O9 0.808012 0.861733 0.125762
O O10 0.394168 0.077610 0.611209
O O11 0.787920 0.047961 0.555300
O O12 0.766197 0.054623 0.204093
O O13 0.087128 0.090933 0.203945
O O14 0.907998 0.000000 0.276216
O O15 0.977168 0.579357 0.858485
O O16 0.000000 0.590947 0.000000
O O17 0.000000 0.057608 0.000000
#
# Coordination Sequence:
#
# PCOD9215760 Si02
#       8
#     8   8   8   8   8   2   8   8
#     4  11  23  39  63 103 131 177 225 279 353 418
#     4  12  24  39  69 103 139 180 230 292 357 433
#     4  10  23  38  66  96 137 175 223 285 345 421
#     4  11  24  44  69 100 141 185 235 288 355 437
#     4  11  24  45  71  96 134 184 234 289 355 411
#     4  12  24  44  74  96 136 192 242 278 352 440
#     4  11  24  43  68 100 142 184 230 291 354 424
#     4  10  22  42  64  99 135 173 232 287 340 411
#
# _framework density 23.595728000000001
#
# number of rings (size 3 to 8) (size 9 to 14) (size 15 to 20)
#    0.000    1.103    3.448    2.483    4.828    1.655 
#    0.000    3.103   10.621    0.000    0.000    0.000 
#    0.000    0.000    0.000    0.000    0.000    0.000 
#
# Total GULP energy -161482.363975 kJ/mol
# GULP energy per Si atom -5568.357378 kJ/mol
# Density = 2.354202 g / cm^3
# Si number density = 23.595728 Si / 1000 Ang^3
#
#
#
# Elastic Constant Matrix: (Units=GPa)
#
#
# Indices 1 2 3 4 5 6 
#
# 1 67.2246 37.9986 12.2764 0.0001 -0.8304 0.0000
# 2 37.9986 173.7760 11.1907 0.0000 -1.1384 0.0000
# 3 12.2764 11.1907 69.8874 0.0001 -3.9888 0.0001
# 4 0.0001 0.0000 0.0001 11.9923 -0.0001 3.1308
# 5 -0.8304 -1.1384 -3.9888 -0.0001 26.8871 0.0000
# 6 0.0000 0.0000 0.0001 3.1308 0.0000 15.1316
#
#
#
# Elastic Compliance Matrix: (Units=1/GPa)
#
#
# Indices 1 2 3 4 5 6 
#
# 1 0.017386 -0.003642 -0.002470 0.000000 0.000016 0.000000
# 2 -0.003642 0.006578 -0.000407 0.000000 0.000106 0.000000
# 3 -0.002470 -0.000407 0.014929 0.000000 0.002121 0.000000
# 4 0.000000 0.000000 0.000000 0.088148 0.000000 -0.018238
# 5 0.000016 0.000106 0.002121 0.000000 0.037512 0.000000
# 6 0.000000 0.000000 0.000000 -0.018238 0.000000 0.069860
#
#
# Mechanical properties :
#
#
# Convention : Reuss Voigt Hill
#
# Bulk Modulus (GPa) = 38.68009 48.20217 43.44113
# Shear Modulus (GPa) = 19.52589 27.43035 23.47812
#
# Velocity S-wave (km/s) = 2.87978 3.41326 3.15781
# Velocity P-wave (km/s) = 5.24270 6.00054 5.63438
#
# Compressibility (1/GPa) = 0.02585309
#
# Stress axis : x y z
#
# Youngs Moduli (GPa) = 57.51876 152.02322 66.98429
#
# Poissons Ratio (x) = 0.55374 0.16544
# Poissons Ratio (y) = 0.20951 0.02729
# Poissons Ratio (z) = 0.14206 0.06194
#
# Static dielectric constant tensor:
#      x y z
#    x 1.969690 0.000000 0.031300 
#    y 0.000000 1.996290 0.000000 
#    z 0.031300 0.000000 1.707900 
# 
# From -- ./inp_files/302441.got.cif
#   From: 2010.05.17/outbox.cif.g08.bks.cpg/sg12_152_cif.got.tgz:302441.got - 2010.06.03 13:09:07.
