data_PCOD9215958
_publ_section_title
;
Structure prediction by ZEFSAII (Michael W. Deem and Ramdas Pophale) SiO2 
 PCOD9215958
Probable space group: C 2/M
;
_chemical_formula_sum "Si O2"
_cell_formula_units_Z 48
_cell_length_a 23.883765
_cell_length_b 13.847812
_cell_length_c 7.753155
_cell_angle_alpha 90.000000
_cell_angle_beta 58.451713
_cell_angle_gamma 90.000000
_cell_volume 2185.262929
_symmetry_space_group_name_H-M "C 2/M"
_symmetry_group_IT_number 12
_symmetry_cell_setting 'monoclinic'
loop_
_space_group_symop_operation_xyz
x,y,z
-x,y,-z
-x,-y,-z
x,-y,z
1/2+x,1/2+y,z
1/2-x,1/2+y,-z
1/2-x,1/2-y,-z
1/2+x,1/2-y,z
loop_
_atom_site_type_symbol
_atom_site_label
_atom_site_fract_x
_atom_site_fract_y
_atom_site_fract_z
Si Si1 0.900625 0.112497 0.454137
Si Si2 0.846590 0.112618 0.922910
Si Si3 0.389350 0.885463 0.978386
Si Si4 0.196734 0.384564 0.224447
Si Si5 0.826323 0.728476 0.399629
Si Si6 0.024953 0.218962 0.155556
O O1 0.859683 0.118904 0.696835
O O2 0.861119 0.168647 0.370527
O O3 0.969095 0.169199 0.359790
O O4 0.912315 0.000000 0.396587
O O5 0.772963 0.146543 0.082731
O O6 0.905988 0.167498 0.917606
O O7 0.850621 0.000000 0.964252
O O8 0.356178 0.835213 0.198157
O O9 0.395602 0.000000 0.991862
O O10 0.343186 0.867268 0.886837
O O11 0.458723 0.831193 0.839347
O O12 0.196443 0.500000 0.255096
O O13 0.165144 0.329561 0.435555
O O14 0.750000 0.750000 0.500000
O O15 0.000000 0.206963 0.000000
#
# Coordination Sequence:
#
# PCOD9215958 Si02
#       6
#     8   8   8   8   8   8
#     4  11  25  44  66  95 134 177 224 277 339 406
#     4  10  22  42  68  98 135 176 220 276 336 401
#     4  11  25  47  70  98 136 179 229 285 339 395
#     4  10  23  44  72 103 135 177 228 280 337 400
#     4  12  24  42  69 103 139 178 223 277 338 405
#     4  12  24  43  63  98 130 179 221 274 334 402
#
# _framework density 21.965320999999999
#
# number of rings (size 3 to 8) (size 9 to 14) (size 15 to 20)
#    0.000    1.000    1.667    4.500    0.000    7.667 
#    0.000    0.000    0.000    4.000    0.000    0.000 
#    0.000    0.000    0.000    0.000    0.000    0.000 
#
# Total GULP energy -134366.082331 kJ/mol
# GULP energy per Si atom -5598.586764 kJ/mol
# Density = 2.191533 g / cm^3
# Si number density = 21.965321 Si / 1000 Ang^3
#
#
#
# Elastic Constant Matrix: (Units=GPa)
#
#
# Indices 1 2 3 4 5 6 
#
# 1 82.9644 48.0958 19.6795 0.0000 2.9790 0.0000
# 2 48.0958 131.4413 52.7263 0.0000 4.2725 0.0000
# 3 19.6795 52.7263 85.3800 0.0000 0.1997 0.0000
# 4 0.0000 0.0000 0.0000 37.0962 0.0000 -0.7276
# 5 2.9790 4.2725 0.1997 0.0000 34.0751 0.0000
# 6 0.0000 0.0000 0.0000 -0.7276 0.0000 42.1870
#
#
#
# Elastic Compliance Matrix: (Units=1/GPa)
#
#
# Indices 1 2 3 4 5 6 
#
# 1 0.015313 -0.005539 -0.000107 0.000000 -0.000644 0.000000
# 2 -0.005539 0.012169 -0.006236 0.000000 -0.001005 0.000000
# 3 -0.000107 -0.006236 0.015586 0.000000 0.000700 0.000000
# 4 0.000000 0.000000 0.000000 0.026966 0.000000 0.000465
# 5 -0.000644 -0.001005 0.000700 0.000000 0.029525 0.000000
# 6 0.000000 0.000000 0.000000 0.000465 0.000000 0.023712
#
#
# Mechanical properties :
#
#
# Convention : Reuss Voigt Hill
#
# Bulk Modulus (GPa) = 51.80361 60.08767 55.94564
# Shear Modulus (GPa) = 32.57947 34.62394 33.60171
#
# Velocity S-wave (km/s) = 3.85544 3.97457 3.91546
# Velocity P-wave (km/s) = 6.59202 6.96262 6.77985
#
# Compressibility (1/GPa) = 0.01930367
#
# Stress axis : x y z
#
# Youngs Moduli (GPa) = 65.30339 82.17650 64.15874
#
# Poissons Ratio (x) = 0.45520 0.00688
# Poissons Ratio (y) = 0.36173 0.40008
# Poissons Ratio (z) = 0.00701 0.51244
#
# Static dielectric constant tensor:
#      x y z
#    x 1.785420 0.000000 -0.001810 
#    y 0.000000 1.818880 0.000000 
#    z -0.001810 0.000000 1.820210 
# 
# From -- ./inp_files/94890.got.cif
#   From: 2010.05.17/outbox.cif.g08.bks.cpg/sg12_48_cif.got.tgz:94890.got - 2010.06.03 13:09:07.
