data_PCOD9215460
_publ_section_title
;
Structure prediction by ZEFSAII (Michael W. Deem and Ramdas Pophale) SiO2 
 PCOD9215460
Probable space group: C 2/M
;
_chemical_formula_sum "Si O2"
_cell_formula_units_Z 36
_cell_length_a 7.667624
_cell_length_b 16.520107
_cell_length_c 12.551542
_cell_angle_alpha 90.000000
_cell_angle_beta 110.166602
_cell_angle_gamma 90.000000
_cell_volume 1492.433037
_symmetry_space_group_name_H-M "C 2/M"
_symmetry_group_IT_number 12
_symmetry_cell_setting 'monoclinic'
loop_
_space_group_symop_operation_xyz
x,y,z
-x,y,-z
-x,-y,-z
x,-y,z
1/2+x,1/2+y,z
1/2-x,1/2+y,-z
1/2-x,1/2-y,-z
1/2+x,1/2-y,z
loop_
_atom_site_type_symbol
_atom_site_label
_atom_site_fract_x
_atom_site_fract_y
_atom_site_fract_z
Si Si1 0.523691 0.837686 0.879406
Si Si2 0.470505 0.000000 0.222836
Si Si3 0.275601 0.000000 0.404598
Si Si4 0.880982 0.000000 0.202969
Si Si5 0.116911 0.173407 0.804643
Si Si6 0.842463 0.834597 0.552319
O O1 0.609220 0.917088 0.844135
O O2 0.315618 0.827863 0.788062
O O3 0.619380 0.752814 0.876364
O O4 0.500000 0.851008 0.000000
O O5 0.688510 0.000000 0.231218
O O6 0.414335 0.000000 0.333792
O O7 0.286527 0.086092 0.466560
O O8 0.061583 0.000000 0.316286
O O9 0.890233 0.915213 0.142677
O O10 0.948284 0.177734 0.686713
O O11 0.750000 0.750000 0.500000
O O12 0.000000 0.854288 0.500000
#
# Coordination Sequence:
#
# PCOD9215460 Si02
#       6
#     8   4   4   4   8   8
#     4  11  23  41  67 100 136 180 225 278 341 404
#     4  10  23  41  71  96 137 183 225 280 341 405
#     4  10  23  45  70  98 135 181 227 281 344 405
#     4   8  20  42  65  90 133 182 217 275 345 390
#     4  10  22  41  66  93 136 174 225 279 338 393
#     4  11  24  44  70  99 135 181 227 278 343 406
#
# _framework density 24.121687999999999
#
# number of rings (size 3 to 8) (size 9 to 14) (size 15 to 20)
#    0.000    1.778    0.000    2.667    9.333    0.000 
#    0.000    4.444    0.000    0.000    0.000    0.000 
#    0.000    0.000    0.000    0.000    0.000    0.000 
#
# Total GULP energy -100569.276538 kJ/mol
# GULP energy per Si atom -5587.182030 kJ/mol
# Density = 2.406679 g / cm^3
# Si number density = 24.121688 Si / 1000 Ang^3
#
#
#
# Elastic Constant Matrix: (Units=GPa)
#
#
# Indices 1 2 3 4 5 6 
#
# 1 58.8530 59.0177 30.7199 0.0000 -6.2879 0.0000
# 2 59.0177 299.4475 80.4950 0.0000 -21.5586 0.0000
# 3 30.7199 80.4950 76.8873 0.0000 -8.4097 0.0000
# 4 0.0000 0.0000 0.0000 14.9478 0.0000 -26.6767
# 5 -6.2879 -21.5586 -8.4097 0.0000 39.9857 0.0000
# 6 0.0000 0.0000 0.0000 -26.6767 0.0000 24.3981
#
#
#
# Elastic Compliance Matrix: (Units=1/GPa)
#
#
# Indices 1 2 3 4 5 6 
#
# 1 0.023159 -0.002843 -0.006189 0.000000 0.000808 0.000000
# 2 -0.002843 0.005088 -0.004033 0.000000 0.001448 0.000000
# 3 -0.006189 -0.004033 0.019812 0.000000 0.001019 0.000000
# 4 0.000000 0.000000 0.000000 -0.070322 0.000000 -0.076890
# 5 0.000808 0.001448 0.001019 0.000000 0.026131 0.000000
# 6 0.000000 0.000000 0.000000 -0.076890 0.000000 -0.043084
#
#
# Mechanical properties :
#
#
# Convention : Reuss Voigt Hill
#
# Bulk Modulus (GPa) = 45.59750 86.18367 65.89058
# Shear Modulus (GPa) = -865.30832 33.53000 -415.88916
#
# Velocity S-wave (km/s) = -18.96062 3.73236 -13.14486
# Velocity P-wave (km/s) = 21.45684 7.37430 14.24808
#
# Compressibility (1/GPa) = 0.02193103
#
# Stress axis : x y z
#
# Youngs Moduli (GPa) = 43.18042 196.54115 50.47445
#
# Poissons Ratio (x) = 0.55869 0.31237
# Poissons Ratio (y) = 0.12274 0.20354
# Poissons Ratio (z) = 0.26723 0.79257
#
# Static dielectric constant tensor:
#      x y z
#    x 1.949410 0.000000 0.047750 
#    y 0.000000 1.980730 0.000000 
#    z 0.047750 0.000000 1.936150 
# 
# From -- ./inp_files/194200.got.cif
#   From: 2010.05.17/outbox.cif.g08.bks.cpg/sg12_98_cif.got.tgz:194200.got - 2010.06.03 13:09:07.
