data_PCOD9215219
_publ_section_title
;
Structure prediction by ZEFSAII (Michael W. Deem and Ramdas Pophale) SiO2 
 PCOD9215219
Probable space group: C 2/M
;
_chemical_formula_sum "Si O2"
_cell_formula_units_Z 48
_cell_length_a 13.593221
_cell_length_b 12.735568
_cell_length_c 12.471051
_cell_angle_alpha 90.000000
_cell_angle_beta 88.681664
_cell_angle_gamma 90.000000
_cell_volume 2158.384324
_symmetry_space_group_name_H-M "C 2/M"
_symmetry_group_IT_number 12
_symmetry_cell_setting 'monoclinic'
loop_
_space_group_symop_operation_xyz
x,y,z
-x,y,-z
-x,-y,-z
x,-y,z
1/2+x,1/2+y,z
1/2-x,1/2+y,-z
1/2-x,1/2-y,-z
1/2+x,1/2-y,z
loop_
_atom_site_type_symbol
_atom_site_label
_atom_site_fract_x
_atom_site_fract_y
_atom_site_fract_z
Si Si1 0.258097 0.203134 0.380452
Si Si2 0.479738 0.384015 0.155632
Si Si3 0.554390 0.163823 0.105370
Si Si4 0.260586 0.379924 0.195598
Si Si5 0.954064 0.159604 0.612471
Si Si6 0.974256 0.383289 0.339159
O O1 0.250000 0.250000 0.500000
O O2 0.360441 0.142567 0.364014
O O3 0.254693 0.295440 0.291393
O O4 0.160022 0.134126 0.369710
O O5 0.510104 0.500000 0.121216
O O6 0.545410 0.290265 0.110609
O O7 0.364986 0.365058 0.134336
O O8 0.487103 0.377775 0.285191
O O9 0.496286 0.124109 0.211774
O O10 0.500000 0.127333 0.000000
O O11 0.259241 0.500000 0.237400
O O12 0.167202 0.366924 0.120358
O O13 0.963384 0.287209 0.613643
O O14 0.000000 0.123024 0.500000
O O15 0.001223 0.500000 0.374958
#
# Coordination Sequence:
#
# PCOD9215219 Si02
#       6
#     8   8   8   8   8   8
#     4  12  22  40  62  95 132 169 210 257 317 382
#     4  10  22  41  63  90 127 168 209 258 320 384
#     4  11  24  43  71  93 126 166 219 273 326 376
#     4  11  22  41  65  92 127 168 212 260 316 383
#     4  11  21  39  64  90 129 169 214 259 310 381
#     4  11  24  41  62  93 130 164 213 270 316 371
#
# _framework density 22.238856999999999
#
# number of rings (size 3 to 8) (size 9 to 14) (size 15 to 20)
#    0.000    1.000    8.333    0.500    0.000    4.333 
#    0.000    0.000    0.000    0.000    0.000    0.000 
#    0.000    0.000    0.000    0.000    0.000    0.000 
#
# Total GULP energy -134241.817385 kJ/mol
# GULP energy per Si atom -5593.409058 kJ/mol
# Density = 2.218824 g / cm^3
# Si number density = 22.238857 Si / 1000 Ang^3
#
#
#
# Elastic Constant Matrix: (Units=GPa)
#
#
# Indices 1 2 3 4 5 6 
#
# 1 121.8623 3.3913 -3.3072 0.0000 -1.1977 0.0000
# 2 3.3913 121.7086 -5.2102 0.0000 -4.8523 0.0000
# 3 -3.3072 -5.2102 90.1647 0.0000 19.1361 0.0000
# 4 0.0000 0.0000 0.0000 -10.3987 0.0000 -6.5059
# 5 -1.1977 -4.8523 19.1361 0.0000 29.4836 0.0000
# 6 0.0000 0.0000 0.0000 -6.5059 0.0000 47.6113
#
#
#
# Elastic Compliance Matrix: (Units=1/GPa)
#
#
# Indices 1 2 3 4 5 6 
#
# 1 0.008220 -0.000213 0.000262 0.000000 0.000129 0.000000
# 2 -0.000213 0.008280 0.000213 0.000000 0.001216 0.000000
# 3 0.000262 0.000213 0.012877 0.000000 -0.008312 0.000000
# 4 0.000000 0.000000 0.000000 -0.088592 0.000000 -0.012106
# 5 0.000129 0.001216 -0.008312 0.000000 0.039517 0.000000
# 6 0.000000 0.000000 0.000000 -0.012106 0.000000 0.019349
#
#
# Mechanical properties :
#
#
# Convention : Reuss Voigt Hill
#
# Bulk Modulus (GPa) = 33.44442 35.94259 34.69350
# Shear Modulus (GPa) = 549.74003 35.93000 292.83501
#
# Velocity S-wave (km/s) = 15.73959 4.02386 11.48752
# Velocity P-wave (km/s) = 18.58452 6.14701 13.84142
#
# Compressibility (1/GPa) = 0.02990035
#
# Stress axis : x y z
#
# Youngs Moduli (GPa) = 121.65041 120.77502 77.65910
#
# Poissons Ratio (x) = 0.02569 -0.02034
# Poissons Ratio (y) = 0.02587 -0.01651
# Poissons Ratio (z) = -0.03185 -0.02567
#
# Static dielectric constant tensor:
#      x y z
#    x 1.821760 0.000000 0.019380 
#    y 0.000000 1.839930 0.000000 
#    z 0.019380 0.000000 1.843310 
# 
# From -- ./inp_files/142878.got.cif
#   From: 2010.05.17/outbox.cif.g08.bks.cpg/sg12_72_cif.got.tgz:142878.got - 2010.06.03 13:09:07.
