data_PCOD9215931
_publ_section_title
;
Structure prediction by ZEFSAII (Michael W. Deem and Ramdas Pophale) SiO2 
 PCOD9215931
Probable space group: C 2/M
;
_chemical_formula_sum "Si O2"
_cell_formula_units_Z 40
_cell_length_a 7.771794
_cell_length_b 13.246220
_cell_length_c 23.780602
_cell_angle_alpha 90.000000
_cell_angle_beta 141.544237
_cell_angle_gamma 90.000000
_cell_volume 1522.522707
_symmetry_space_group_name_H-M "C 2/M"
_symmetry_group_IT_number 12
_symmetry_cell_setting 'monoclinic'
loop_
_space_group_symop_operation_xyz
x,y,z
-x,y,-z
-x,-y,-z
x,-y,z
1/2+x,1/2+y,z
1/2-x,1/2+y,-z
1/2-x,1/2-y,-z
1/2+x,1/2-y,z
loop_
_atom_site_type_symbol
_atom_site_label
_atom_site_fract_x
_atom_site_fract_y
_atom_site_fract_z
Si Si1 0.897515 0.620339 0.534545
Si Si2 0.688599 0.818918 0.721899
Si Si3 0.167192 0.117385 0.659206
Si Si4 0.683733 0.829594 0.104114
Si Si5 0.209707 0.608005 0.894928
O O1 0.915776 0.500000 0.541575
O O2 0.571928 0.644476 0.447429
O O3 0.000000 0.654718 0.500000
O O4 0.089834 0.655575 0.633773
O O5 0.455599 0.865847 0.701675
O O6 0.669538 0.695543 0.712269
O O7 0.994137 0.861246 0.814251
O O8 0.115987 0.000000 0.661595
O O9 0.727629 0.709239 0.123833
O O10 0.509622 0.872642 0.111158
O O11 0.500000 0.844996 0.000000
O O12 0.148345 0.500000 0.851295
O O13 0.500000 0.597229 0.000000
#
# Coordination Sequence:
#
# PCOD9215931 Si02
#       5
#     8   8   8   8   8
#     4  10  22  43  71 102 137 176 221 277 339 404
#     4  12  24  43  70  99 136 181 223 273 337 398
#     4  11  25  44  69 101 135 174 223 277 336 403
#     4  11  24  45  68  98 139 178 226 280 326 391
#     4  10  22  42  68  94 127 175 225 277 335 387
#
# _framework density 26.272188
#
# number of rings (size 3 to 8) (size 9 to 14) (size 15 to 20)
#    0.000    1.200    0.000    6.600    0.000    4.400 
#    0.000    8.000    0.000    0.600    0.000    0.000 
#    0.000    0.000    0.000    0.000    0.000    0.000 
#
# Total GULP energy -111945.747093 kJ/mol
# GULP energy per Si atom -5597.287355 kJ/mol
# Density = 2.621239 g / cm^3
# Si number density = 26.272188 Si / 1000 Ang^3
#
#
#
# Elastic Constant Matrix: (Units=GPa)
#
#
# Indices 1 2 3 4 5 6 
#
# 1 84.8943 30.1257 65.2407 0.0000 28.2477 0.0000
# 2 30.1257 118.8665 17.3756 0.0000 9.6163 0.0000
# 3 65.2407 17.3756 263.7045 0.0001 10.4254 0.0000
# 4 0.0000 0.0000 0.0001 32.0603 0.0000 2.2679
# 5 28.2477 9.6163 10.4254 0.0000 59.1029 0.0000
# 6 0.0000 0.0000 0.0000 2.2679 0.0000 45.5283
#
#
#
# Elastic Compliance Matrix: (Units=1/GPa)
#
#
# Indices 1 2 3 4 5 6 
#
# 1 0.018727 -0.003528 -0.004098 0.000000 -0.007654 0.000000
# 2 -0.003528 0.009258 0.000257 0.000000 0.000134 0.000000
# 3 -0.004098 0.000257 0.004746 0.000000 0.001080 0.000000
# 4 0.000000 0.000000 0.000000 0.031302 0.000000 -0.001559
# 5 -0.007654 0.000134 0.001080 0.000000 0.020365 0.000000
# 6 0.000000 0.000000 0.000000 -0.001559 0.000000 0.022042
#
#
# Mechanical properties :
#
#
# Convention : Reuss Voigt Hill
#
# Bulk Modulus (GPa) = 55.57165 76.99439 66.28302
# Shear Modulus (GPa) = 39.31536 50.98651 45.15093
#
# Velocity S-wave (km/s) = 3.87261 4.41012 4.15008
# Velocity P-wave (km/s) = 6.41828 7.43655 6.94610
#
# Compressibility (1/GPa) = 0.01799479
#
# Stress axis : x y z
#
# Youngs Moduli (GPa) = 53.39775 108.00952 210.68781
#
# Poissons Ratio (x) = 0.38106 0.86343
# Poissons Ratio (y) = 0.18839 -0.05425
# Poissons Ratio (z) = 0.21883 -0.02781
#
# Static dielectric constant tensor:
#      x y z
#    x 2.009580 0.000000 0.011570 
#    y 0.000000 2.175100 0.000000 
#    z 0.011570 0.000000 2.107580 
# 
# From -- ./inp_files/372689.got.cif
#   From: 2010.05.17/outbox.cif.g08.bks.cpg/sg12_187_cif.got.tgz:372689.got - 2010.06.03 13:09:07.
