data_PCOD9215036
_publ_section_title
;
Structure prediction by ZEFSAII (Michael W. Deem and Ramdas Pophale) SiO2 
 PCOD9215036
Probable space group: C 2/M
;
_chemical_formula_sum "Si O2"
_cell_formula_units_Z 48
_cell_length_a 14.935932
_cell_length_b 26.023323
_cell_length_c 11.825119
_cell_angle_alpha 90.000000
_cell_angle_beta 150.043144
_cell_angle_gamma 90.000000
_cell_volume 2295.110954
_symmetry_space_group_name_H-M "C 2/M"
_symmetry_group_IT_number 12
_symmetry_cell_setting 'monoclinic'
loop_
_space_group_symop_operation_xyz
x,y,z
-x,y,-z
-x,-y,-z
x,-y,z
1/2+x,1/2+y,z
1/2-x,1/2+y,-z
1/2-x,1/2-y,-z
1/2+x,1/2-y,z
loop_
_atom_site_type_symbol
_atom_site_label
_atom_site_fract_x
_atom_site_fract_y
_atom_site_fract_z
Si Si1 0.050816 0.104328 0.310367
Si Si2 0.539486 0.106792 0.318973
Si Si3 0.947595 0.000000 0.811936
Si Si4 0.374298 0.186377 0.971734
Si Si5 0.500000 0.643546 0.500000
Si Si6 0.611743 0.699746 0.005488
Si Si7 0.978798 0.500000 0.613635
Si Si8 0.500000 0.167297 0.500000
O O1 0.265287 0.105368 0.524561
O O2 0.019922 0.109157 0.409817
O O3 0.990124 0.051567 0.183654
O O4 0.957452 0.153789 0.149464
O O5 0.567114 0.132470 0.470694
O O6 0.453557 0.051754 0.253243
O O7 0.416324 0.142264 0.107225
O O8 0.731922 0.000000 0.585043
O O9 0.000000 0.000000 0.000000
O O10 0.173065 0.179110 0.708107
O O11 0.415708 0.242369 0.069345
O O12 0.500000 0.180449 0.000000
O O13 0.823017 0.695848 0.263062
O O14 0.500000 0.695559 0.000000
O O15 0.000000 0.500000 0.500000
#
# Coordination Sequence:
#
# PCOD9215036 Si02
#       8
#     8   8   4   8   4   8   4   4
#     4  11  24  44  68 101 136 180 227 278 336 400
#     4  11  23  43  67 101 137 170 223 280 335 403
#     4  10  24  41  72 100 138 171 218 287 334 396
#     4  11  25  45  68  96 136 182 228 275 328 402
#     4  12  25  45  70  94 138 181 229 270 336 408
#     4  11  24  42  68 100 135 177 226 281 338 396
#     4  10  22  40  69 102 130 168 213 270 339 394
#     4  12  23  39  68 100 136 171 219 276 346 400
#
# _framework density 20.914021999999999
#
# number of rings (size 3 to 8) (size 9 to 14) (size 15 to 20)
#    0.000    1.000    4.167    2.000    2.333    6.333 
#    0.000    1.250    0.000    0.000    0.000    0.000 
#    0.000    0.000    0.000    0.000    0.000    0.000 
#
# Total GULP energy -134186.155086 kJ/mol
# GULP energy per Si atom -5591.089795 kJ/mol
# Density = 2.086642 g / cm^3
# Si number density = 20.914022 Si / 1000 Ang^3
#
#
#
# Elastic Constant Matrix: (Units=GPa)
#
#
# Indices 1 2 3 4 5 6 
#
# 1 150.4518 67.3493 36.6778 0.0000 -9.8221 0.0000
# 2 67.3493 198.9177 59.3366 0.0000 -32.4827 0.0000
# 3 36.6778 59.3366 97.2157 0.0000 0.9637 0.0000
# 4 0.0000 0.0000 0.0000 1.0507 0.0000 -58.8762
# 5 -9.8221 -32.4827 0.9637 0.0000 44.5834 0.0000
# 6 0.0000 0.0000 0.0000 -58.8762 0.0000 -196.5078
#
#
#
# Elastic Compliance Matrix: (Units=1/GPa)
#
#
# Indices 1 2 3 4 5 6 
#
# 1 0.008054 -0.002181 -0.001710 0.000000 0.000223 0.000000
# 2 -0.002181 0.007828 -0.004008 0.000000 0.005310 0.000000
# 3 -0.001710 -0.004008 0.013413 0.000000 -0.003587 0.000000
# 4 0.000000 0.000000 0.000000 0.053503 0.000000 -0.016030
# 5 0.000223 0.005310 -0.003587 0.000000 0.026425 0.000000
# 6 0.000000 0.000000 0.000000 -0.016030 0.000000 -0.000286
#
#
# Mechanical properties :
#
#
# Convention : Reuss Voigt Hill
#
# Bulk Modulus (GPa) = 74.08086 85.92363 80.00225
# Shear Modulus (GPa) = 38.68964 -11.29333 13.69816
#
# Velocity S-wave (km/s) = 4.30576 -2.32629 2.56202
# Velocity P-wave (km/s) = 7.76002 5.82734 6.86206
#
# Compressibility (1/GPa) = 0.01349876
#
# Stress axis : x y z
#
# Youngs Moduli (GPa) = 124.15942 127.74528 74.55243
#
# Poissons Ratio (x) = 0.27855 0.12749
# Poissons Ratio (y) = 0.27073 0.29880
# Poissons Ratio (z) = 0.21231 0.51199
#
# Static dielectric constant tensor:
#      x y z
#    x 1.734260 0.000000 0.005560 
#    y 0.000000 1.775390 0.000000 
#    z 0.005560 0.000000 1.634640 
# 
# From -- ./inp_files/149944.got.cif
#   From: 2010.05.17/outbox.cif.g08.bks.cpg/sg12_75_cif.got.tgz:149944.got - 2010.06.03 13:09:07.
