data_PCOD9215093
_publ_section_title
;
Structure prediction by ZEFSAII (Michael W. Deem and Ramdas Pophale) SiO2 
 PCOD9215093
Probable space group: C 2/M
;
_chemical_formula_sum "Si O2"
_cell_formula_units_Z 50
_cell_length_a 14.789479
_cell_length_b 7.250484
_cell_length_c 17.890716
_cell_angle_alpha 90.000000
_cell_angle_beta 107.244889
_cell_angle_gamma 90.000000
_cell_volume 1832.196563
_symmetry_space_group_name_H-M "C 2/M"
_symmetry_group_IT_number 12
_symmetry_cell_setting 'monoclinic'
loop_
_space_group_symop_operation_xyz
x,y,z
-x,y,-z
-x,-y,-z
x,-y,z
1/2+x,1/2+y,z
1/2-x,1/2+y,-z
1/2-x,1/2-y,-z
1/2+x,1/2-y,z
loop_
_atom_site_type_symbol
_atom_site_label
_atom_site_fract_x
_atom_site_fract_y
_atom_site_fract_z
Si Si1 0.733648 0.777013 0.647601
Si Si2 0.500000 0.000000 0.500000
Si Si3 0.547219 0.274897 0.935162
Si Si4 0.432900 0.708632 0.292091
Si Si5 0.887821 0.223860 0.573696
Si Si6 0.868574 0.211424 0.811684
Si Si7 0.295278 0.277333 0.126968
O O1 0.631318 0.711952 0.648930
O O2 0.786024 0.725677 0.584210
O O3 0.802641 0.708415 0.731523
O O4 0.728960 0.000000 0.648553
O O5 0.425788 0.840027 0.513829
O O6 0.547186 0.500000 0.936674
O O7 0.471903 0.214484 0.853494
O O8 0.651763 0.217669 0.935503
O O9 0.500000 0.211458 0.000000
O O10 0.448617 0.500000 0.271566
O O11 0.534508 0.778293 0.342614
O O12 0.365335 0.788739 0.211390
O O13 0.892606 0.000000 0.565148
O O14 0.808139 0.213667 0.873916
O O15 0.881489 0.000000 0.793184
O O16 0.291177 0.500000 0.127013
#
# Coordination Sequence:
#
# PCOD9215093 Si02
#       7
#     8   2   8   8   8   8   8
#     4   9  18  33  58  83 108 138 180 233 282 327
#     4  12  26  40  64  86 116 154 192 220 268 342
#     4   9  17  29  47  70 103 147 189 217 263 337
#     4   9  18  33  58  83 108 138 180 233 282 327
#     4  10  22  41  61  82 117 151 186 230 277 331
#     4   9  17  31  51  77 104 135 178 228 276 320
#     4   9  17  31  51  77 104 135 178 228 276 320
#
# _framework density 27.289648
#
# number of rings (size 3 to 8) (size 9 to 14) (size 15 to 20)
#    0.000    2.720    0.000    1.200    2.240    4.480 
#    0.000    1.600    0.000    0.960    0.000    0.000 
#    0.000    0.000    0.000    0.000    0.000    0.000 
#
# Total GULP energy -139588.822076 kJ/mol
# GULP energy per Si atom -5583.552883 kJ/mol
# Density = 2.722754 g / cm^3
# Si number density = 27.289648 Si / 1000 Ang^3
#
#
#
# Elastic Constant Matrix: (Units=GPa)
#
#
# Indices 1 2 3 4 5 6 
#
# 1 204.3079 3.9964 24.4268 0.0000 -55.2104 0.0000
# 2 3.9964 146.1388 -3.6300 0.0000 -16.1800 0.0000
# 3 24.4268 -3.6300 61.1280 0.0000 -15.8680 0.0000
# 4 0.0000 0.0000 0.0000 -1.7490 0.0000 -12.0641
# 5 -55.2104 -16.1800 -15.8680 0.0000 58.7877 0.0000
# 6 0.0000 0.0000 0.0000 -12.0641 0.0000 6.5202
#
#
#
# Elastic Compliance Matrix: (Units=1/GPa)
#
#
# Indices 1 2 3 4 5 6 
#
# 1 0.006659 0.000467 -0.001050 0.000000 0.006099 0.000000
# 2 0.000467 0.007147 0.000927 0.000000 0.002656 0.000000
# 3 -0.001050 0.000927 0.017898 0.000000 0.004100 0.000000
# 4 0.000000 0.000000 0.000000 -0.041545 0.000000 -0.076868
# 5 0.006099 0.002656 0.004100 0.000000 0.024576 0.000000
# 6 0.000000 0.000000 0.000000 -0.076868 0.000000 0.011144
#
#
# Mechanical properties :
#
#
# Convention : Reuss Voigt Hill
#
# Bulk Modulus (GPa) = 30.87089 51.24011 41.05550
# Shear Modulus (GPa) = 138.93168 38.49722 88.71445
#
# Velocity S-wave (km/s) = 7.14287 3.75999 5.70780
# Velocity P-wave (km/s) = 8.90866 6.13736 7.64956
#
# Compressibility (1/GPa) = 0.03239298
#
# Stress axis : x y z
#
# Youngs Moduli (GPa) = 150.16967 139.91621 55.87182
#
# Poissons Ratio (x) = -0.06535 0.05867
# Poissons Ratio (y) = -0.07014 -0.05181
# Poissons Ratio (z) = 0.15768 -0.12974
#
# Static dielectric constant tensor:
#      x y z
#    x 2.053850 0.000000 0.001990 
#    y 0.000000 2.274660 0.000000 
#    z 0.001990 0.000000 2.269720 
# 
# From -- ./inp_files/308366.got.cif
#   From: 2010.05.17/outbox.cif.g08.bks.cpg/sg12_155_cif.got.tgz:308366.got - 2010.06.03 13:09:07.
