data_PCOD9215355
_publ_section_title
;
Structure prediction by ZEFSAII (Michael W. Deem and Ramdas Pophale) SiO2 
 PCOD9215355
Probable space group: C 2/M
;
_chemical_formula_sum "Si O2"
_cell_formula_units_Z 44
_cell_length_a 22.286624
_cell_length_b 10.175253
_cell_length_c 9.721759
_cell_angle_alpha 90.000000
_cell_angle_beta 64.008403
_cell_angle_gamma 90.000000
_cell_volume 1981.643833
_symmetry_space_group_name_H-M "C 2/M"
_symmetry_group_IT_number 12
_symmetry_cell_setting 'monoclinic'
loop_
_space_group_symop_operation_xyz
x,y,z
-x,y,-z
-x,-y,-z
x,-y,z
1/2+x,1/2+y,z
1/2-x,1/2+y,-z
1/2-x,1/2-y,-z
1/2+x,1/2-y,z
loop_
_atom_site_type_symbol
_atom_site_label
_atom_site_fract_x
_atom_site_fract_y
_atom_site_fract_z
Si Si1 0.203586 0.500000 0.710035
Si Si2 0.411548 0.282181 0.875574
Si Si3 0.857422 0.267297 0.625979
Si Si4 0.721061 0.735304 0.873603
Si Si5 0.345576 0.500000 0.467095
Si Si6 0.588027 0.000000 0.603612
Si Si7 0.017248 0.000000 0.823017
Si Si8 0.540210 0.000000 0.100090
O O1 0.209962 0.373099 0.803206
O O2 0.264574 0.500000 0.537013
O O3 0.135864 0.500000 0.690219
O O4 0.387809 0.265049 0.743552
O O5 0.477402 0.371190 0.810094
O O6 0.421711 0.136326 0.924403
O O7 0.349702 0.335498 0.030461
O O8 0.782611 0.323812 0.726665
O O9 0.897439 0.372914 0.500734
O O10 0.856715 0.131791 0.543539
O O11 0.750000 0.750000 0.000000
O O12 0.404328 0.500000 0.293785
O O13 0.512374 0.000000 0.724597
O O14 0.000000 0.000000 0.000000
O O15 0.500000 0.000000 0.000000
#
# Coordination Sequence:
#
# PCOD9215355 Si02
#       8
#     4   8   8   8   4   4   4   4
#     4  10  22  41  65  90 125 165 200 261 313 345
#     4  11  23  41  65  90 126 165 200 254 308 361
#     4  10  23  41  65  94 121 162 210 254 302 362
#     4   9  20  39  65  92 122 161 210 250 302 369
#     4  10  23  44  63  86 125 164 207 246 304 376
#     4  12  25  39  63  97 126 157 209 259 306 364
#     4  12  27  41  61  93 124 161 207 254 311 374
#     4  12  25  41  62  88 124 166 205 249 309 376
#
# _framework density 22.203787999999999
#
# number of rings (size 3 to 8) (size 9 to 14) (size 15 to 20)
#    0.000    1.455    0.000    4.364    0.000   15.273 
#    0.000    0.000    0.000    1.091    0.000    0.000 
#    0.000    0.000    0.000    0.000    0.000    0.000 
#
# Total GULP energy -122854.618003 kJ/mol
# GULP energy per Si atom -5584.300818 kJ/mol
# Density = 2.215325 g / cm^3
# Si number density = 22.203788 Si / 1000 Ang^3
#
#
#
# Elastic Constant Matrix: (Units=GPa)
#
#
# Indices 1 2 3 4 5 6 
#
# 1 51.6635 0.0655 38.3284 0.0000 -23.3355 0.0000
# 2 0.0655 78.5786 19.2905 0.0000 -7.0991 0.0000
# 3 38.3284 19.2905 131.1985 0.0000 -32.1120 0.0000
# 4 0.0000 0.0000 0.0000 32.6264 0.0000 7.7324
# 5 -23.3355 -7.0991 -32.1120 0.0000 47.0624 0.0000
# 6 0.0000 0.0000 0.0000 7.7324 0.0000 23.3178
#
#
#
# Elastic Compliance Matrix: (Units=1/GPa)
#
#
# Indices 1 2 3 4 5 6 
#
# 1 0.028609 0.002428 -0.006186 0.000000 0.010331 0.000000
# 2 0.002428 0.013434 -0.002274 0.000000 0.001679 0.000000
# 3 -0.006186 -0.002274 0.010719 0.000000 0.003904 0.000000
# 4 0.000000 0.000000 0.000000 0.033264 0.000000 -0.011031
# 5 0.010331 0.001679 0.003904 0.000000 0.029287 0.000000
# 6 0.000000 0.000000 0.000000 -0.011031 0.000000 0.046544
#
#
# Mechanical properties :
#
#
# Convention : Reuss Voigt Hill
#
# Bulk Modulus (GPa) = 24.57121 41.86771 33.21946
# Shear Modulus (GPa) = 26.66861 34.18506 30.42684
#
# Velocity S-wave (km/s) = 3.46943 3.92804 3.70583
# Velocity P-wave (km/s) = 5.20955 6.28249 5.77101
#
# Compressibility (1/GPa) = 0.04069804
#
# Stress axis : x y z
#
# Youngs Moduli (GPa) = 34.95457 74.43830 93.29219
#
# Poissons Ratio (x) = -0.18075 0.57713
# Poissons Ratio (y) = -0.08487 0.21211
# Poissons Ratio (z) = 0.21624 0.16925
#
# Static dielectric constant tensor:
#      x y z
#    x 1.830030 0.000000 -0.040920 
#    y 0.000000 1.737780 0.000000 
#    z -0.040920 0.000000 1.802650 
# 
# From -- ./inp_files/94877.got.cif
#   From: 2010.05.17/outbox.cif.g08.bks.cpg/sg12_48_cif.got.tgz:94877.got - 2010.06.03 13:09:07.
