data_PCOD9215755
_publ_section_title
;
Structure prediction by ZEFSAII (Michael W. Deem and Ramdas Pophale) SiO2 
 PCOD9215755
Probable space group: C 2/M
;
_chemical_formula_sum "Si O2"
_cell_formula_units_Z 64
_cell_length_a 30.176816
_cell_length_b 15.951325
_cell_length_c 7.537780
_cell_angle_alpha 90.000000
_cell_angle_beta 57.786921
_cell_angle_gamma 90.000000
_cell_volume 3069.875085
_symmetry_space_group_name_H-M "C 2/M"
_symmetry_group_IT_number 12
_symmetry_cell_setting 'monoclinic'
loop_
_space_group_symop_operation_xyz
x,y,z
-x,y,-z
-x,-y,-z
x,-y,z
1/2+x,1/2+y,z
1/2-x,1/2+y,-z
1/2-x,1/2-y,-z
1/2+x,1/2-y,z
loop_
_atom_site_type_symbol
_atom_site_label
_atom_site_fract_x
_atom_site_fract_y
_atom_site_fract_z
Si Si1 0.005314 0.727129 0.782489
Si Si2 0.150143 0.149553 0.072243
Si Si3 0.697687 0.306107 0.597042
Si Si4 0.770748 0.094108 0.808627
Si Si5 0.162352 0.340567 0.154202
Si Si6 0.420048 0.094685 0.940807
Si Si7 0.467431 0.407751 0.750770
Si Si8 0.617185 0.172556 0.612168
O O1 0.065637 0.706531 0.619406
O O2 0.989780 0.823724 0.792707
O O3 0.000000 0.707922 0.000000
O O4 0.963585 0.663025 0.787996
O O5 0.181245 0.156324 0.820614
O O6 0.182991 0.100013 0.147784
O O7 0.146069 0.244209 0.155669
O O8 0.093389 0.110535 0.158607
O O9 0.750000 0.250000 0.500000
O O10 0.708806 0.374625 0.423868
O O11 0.650145 0.247691 0.630227
O O12 0.750627 0.000000 0.839506
O O13 0.723129 0.151588 0.975836
O O14 0.152007 0.365725 0.380111
O O15 0.128305 0.394469 0.089761
O O16 0.400153 0.115662 0.183784
O O17 0.440747 0.000000 0.891859
O O18 0.500000 0.411971 0.500000
O O19 0.472585 0.500000 0.827783
#
# Coordination Sequence:
#
# PCOD9215755 Si02
#       8
#     8   8   8   8   8   8   8   8
#     4  10  22  42  64  95 132 176 221 271 338 394
#     4  12  22  44  72  96 133 180 226 274 341 409
#     4  12  23  43  71  98 127 179 227 272 342 402
#     4  12  27  42  63 101 137 168 223 285 336 402
#     4  12  22  42  70  96 129 179 223 271 339 402
#     4  11  24  43  66  98 139 175 220 279 331 395
#     4  11  24  42  67  99 134 174 222 281 342 401
#     4  11  23  40  69  98 125 177 226 271 331 407
#
# _framework density 20.847753999999998
#
# number of rings (size 3 to 8) (size 9 to 14) (size 15 to 20)
#    0.000    0.625    5.000    3.375    0.000    4.500 
#    0.000    0.625    0.000    0.000    0.000    0.000 
#    0.000    0.000    0.000    0.000    0.000    0.000 
#
# Total GULP energy -178838.894720 kJ/mol
# GULP energy per Si atom -5588.715460 kJ/mol
# Density = 2.080030 g / cm^3
# Si number density = 20.847754 Si / 1000 Ang^3
#
#
#
# Elastic Constant Matrix: (Units=GPa)
#
#
# Indices 1 2 3 4 5 6 
#
# 1 44.4359 -3.6384 1.7472 0.0000 7.7640 0.0000
# 2 -3.6384 96.2823 -0.7478 0.0000 0.4230 0.0000
# 3 1.7472 -0.7478 97.1014 0.0000 12.5126 0.0000
# 4 0.0000 0.0000 0.0000 -22.3675 0.0000 36.1231
# 5 7.7640 0.4230 12.5126 0.0000 36.0552 0.0000
# 6 0.0000 0.0000 0.0000 36.1231 0.0000 -2.7631
#
#
#
# Elastic Compliance Matrix: (Units=1/GPa)
#
#
# Indices 1 2 3 4 5 6 
#
# 1 0.023469 0.000911 0.000248 0.000000 -0.005151 0.000000
# 2 0.000911 0.010423 0.000110 0.000000 -0.000357 0.000000
# 3 0.000248 0.000110 0.010784 0.000000 -0.003797 0.000000
# 4 0.000000 0.000000 0.000000 0.002223 0.000000 0.029059
# 5 -0.005151 -0.000357 -0.003797 0.000000 0.030166 0.000000
# 6 0.000000 0.000000 0.000000 0.029059 0.000000 0.017994
#
#
# Mechanical properties :
#
#
# Convention : Reuss Voigt Hill
#
# Bulk Modulus (GPa) = 21.17937 25.83796 23.50866
# Shear Modulus (GPa) = 46.18576 18.21546 32.20061
#
# Velocity S-wave (km/s) = 4.71189 2.95911 3.93435
# Velocity P-wave (km/s) = 6.30743 4.90873 5.65152
#
# Compressibility (1/GPa) = 0.04721576
#
# Stress axis : x y z
#
# Youngs Moduli (GPa) = 42.60911 95.94182 92.72808
#
# Poissons Ratio (x) = -0.08744 -0.02304
# Poissons Ratio (y) = -0.03884 -0.01018
# Poissons Ratio (z) = -0.01059 -0.01054
#
# Static dielectric constant tensor:
#      x y z
#    x 1.764110 0.000000 -0.007030 
#    y 0.000000 1.742590 0.000000 
#    z -0.007030 0.000000 1.785850 
# 
# From -- ./inp_files/111986.got.cif
#   From: 2010.05.17/outbox.cif.g08.bks.cpg/sg12_56_cif.got.tgz:111986.got - 2010.06.03 13:09:07.
