data_PCOD9215304
_publ_section_title
;
Structure prediction by ZEFSAII (Michael W. Deem and Ramdas Pophale) SiO2 
 PCOD9215304
Probable space group: C 2/M
;
_chemical_formula_sum "Si O2"
_cell_formula_units_Z 34
_cell_length_a 17.547205
_cell_length_b 8.950418
_cell_length_c 12.392363
_cell_angle_alpha 90.000000
_cell_angle_beta 52.954607
_cell_angle_gamma 90.000000
_cell_volume 1553.440128
_symmetry_space_group_name_H-M "C 2/M"
_symmetry_group_IT_number 12
_symmetry_cell_setting 'monoclinic'
loop_
_space_group_symop_operation_xyz
x,y,z
-x,y,-z
-x,-y,-z
x,-y,z
1/2+x,1/2+y,z
1/2-x,1/2+y,-z
1/2-x,1/2-y,-z
1/2+x,1/2-y,z
loop_
_atom_site_type_symbol
_atom_site_label
_atom_site_fract_x
_atom_site_fract_y
_atom_site_fract_z
Si Si1 0.148641 0.324297 0.059848
Si Si2 0.350117 0.669472 0.162106
Si Si3 0.962567 0.172090 0.285146
Si Si4 0.000000 0.000000 0.500000
Si Si5 0.823494 0.832354 0.582570
O O1 0.155267 0.500000 0.067783
O O2 0.127468 0.280212 0.954026
O O3 0.250000 0.250000 0.000000
O O4 0.061123 0.258604 0.203328
O O5 0.342764 0.500000 0.125606
O O6 0.427056 0.667365 0.192453
O O7 0.251757 0.724436 0.299499
O O8 0.873415 0.228940 0.431392
O O9 0.977187 0.000000 0.316118
O O10 0.914982 0.128826 0.577345
O O11 0.780402 0.000000 0.597054
#
# Coordination Sequence:
#
# PCOD9215304 Si02
#       5
#     8   8   8   2   8
#     4  12  27  43  64  90 123 163 210 261 317 377
#     4  11  23  40  63  94 127 167 208 258 310 371
#     4  10  22  41  64  92 130 166 207 257 314 369
#     4   8  20  36  62  96 120 172 208 258 324 352
#     4   9  20  37  64  91 124 162 208 255 313 362
#
# _framework density 21.886907000000001
#
# number of rings (size 3 to 8) (size 9 to 14) (size 15 to 20)
#    0.706    0.941    0.000    4.235    3.294    5.647 
#    0.000    0.588    0.000    0.000    0.000    0.000 
#    0.000    0.000    0.000    0.000    0.000    0.000 
#
# Total GULP energy -94740.453882 kJ/mol
# GULP energy per Si atom -5572.967875 kJ/mol
# Density = 2.183709 g / cm^3
# Si number density = 21.886907 Si / 1000 Ang^3
#
#
#
# Elastic Constant Matrix: (Units=GPa)
#
#
# Indices 1 2 3 4 5 6 
#
# 1 48.2819 20.2867 9.1745 0.0000 -17.8714 0.0000
# 2 20.2867 107.4003 34.9175 0.0000 -25.1824 0.0000
# 3 9.1745 34.9175 93.5157 0.0000 -9.2757 0.0000
# 4 0.0000 0.0000 0.0000 44.8064 0.0000 0.3850
# 5 -17.8714 -25.1824 -9.2757 0.0000 39.1595 0.0000
# 6 0.0000 0.0000 0.0000 0.3850 0.0000 21.8683
#
#
#
# Elastic Compliance Matrix: (Units=1/GPa)
#
#
# Indices 1 2 3 4 5 6 
#
# 1 0.025496 -0.002246 -0.000667 0.000000 0.010033 0.000000
# 2 -0.002246 0.012389 -0.003806 0.000000 0.006040 0.000000
# 3 -0.000667 -0.003806 0.012194 0.000000 0.000136 0.000000
# 4 0.000000 0.000000 0.000000 0.022322 0.000000 -0.000393
# 5 0.010033 0.006040 0.000136 0.000000 0.034032 0.000000
# 6 0.000000 0.000000 0.000000 -0.000393 0.000000 0.045735
#
#
# Mechanical properties :
#
#
# Convention : Reuss Voigt Hill
#
# Bulk Modulus (GPa) = 27.29381 41.99502 34.64442
# Shear Modulus (GPa) = 28.11817 33.48810 30.80314
#
# Velocity S-wave (km/s) = 3.58816 3.91583 3.75557
# Velocity P-wave (km/s) = 5.44647 6.29872 5.88804
#
# Compressibility (1/GPa) = 0.03663834
#
# Stress axis : x y z
#
# Youngs Moduli (GPa) = 39.22164 80.71619 82.01018
#
# Poissons Ratio (x) = 0.18133 0.05473
# Poissons Ratio (y) = 0.08811 0.31216
# Poissons Ratio (z) = 0.02618 0.30724
#
# Static dielectric constant tensor:
#      x y z
#    x 1.671550 0.000000 -0.017080 
#    y 0.000000 1.738220 0.000000 
#    z -0.017080 0.000000 1.781420 
# 
# From -- ./inp_files/220510.got.cif
#   From: 2010.05.17/outbox.cif.g08.bks.cpg/sg12_111_cif.got.tgz:220510.got - 2010.06.03 13:09:07.
