data_PCOD9215467
_publ_section_title
;
Structure prediction by ZEFSAII (Michael W. Deem and Ramdas Pophale) SiO2 
 PCOD9215467
Probable space group: C 2/M
;
_chemical_formula_sum "Si O2"
_cell_formula_units_Z 64
_cell_length_a 8.616743
_cell_length_b 19.664223
_cell_length_c 23.279972
_cell_angle_alpha 90.000000
_cell_angle_beta 125.067613
_cell_angle_gamma 90.000000
_cell_volume 3228.550606
_symmetry_space_group_name_H-M "C 2/M"
_symmetry_group_IT_number 12
_symmetry_cell_setting 'monoclinic'
loop_
_space_group_symop_operation_xyz
x,y,z
-x,y,-z
-x,-y,-z
x,-y,z
1/2+x,1/2+y,z
1/2-x,1/2+y,-z
1/2-x,1/2-y,-z
1/2+x,1/2-y,z
loop_
_atom_site_type_symbol
_atom_site_label
_atom_site_fract_x
_atom_site_fract_y
_atom_site_fract_z
Si Si1 0.017257 0.203457 0.069916
Si Si2 0.653574 0.845639 0.067370
Si Si3 0.082202 0.701165 0.775757
Si Si4 0.186033 0.419856 0.579244
Si Si5 0.893006 0.076058 0.205822
Si Si6 0.681462 0.921102 0.276422
Si Si7 0.042082 0.919141 0.570950
Si Si8 0.208082 0.829758 0.289803
O O1 0.018623 0.284577 0.060938
O O2 0.220780 0.198316 0.145968
O O3 0.839787 0.178534 0.070612
O O4 0.000000 0.175807 0.000000
O O5 0.736817 0.881622 0.139986
O O6 0.500000 0.889806 0.000000
O O7 0.131292 0.692961 0.719319
O O8 0.968681 0.635166 0.772551
O O9 0.950437 0.769018 0.747863
O O10 0.186284 0.500000 0.600688
O O11 0.362566 0.412111 0.573833
O O12 0.211838 0.362264 0.634000
O O13 0.000000 0.411672 0.500000
O O14 0.846435 0.078641 0.263521
O O15 0.097326 0.106807 0.238680
O O16 0.883195 0.000000 0.183198
O O17 0.773611 0.895918 0.355526
O O18 0.615863 0.000000 0.266790
O O19 0.000000 0.888536 0.500000
O O20 0.074664 0.000000 0.570441
#
# Coordination Sequence:
#
# PCOD9215467 Si02
#       8
#     8   8   8   8   8   8   8   8
#     4  11  22  39  62  94 121 164 211 258 313 374
#     4  11  23  38  63  92 122 161 208 259 310 377
#     4  12  25  41  66  94 125 166 208 266 322 369
#     4  10  22  41  66  94 128 169 210 254 308 372
#     4  11  22  40  64  89 125 167 207 257 314 374
#     4  10  23  40  64  94 125 165 209 257 315 379
#     4   9  18  35  60  90 121 158 203 250 299 362
#     4  12  24  42  63  94 126 164 214 265 311 373
#
# _framework density 19.823136999999999
#
# number of rings (size 3 to 8) (size 9 to 14) (size 15 to 20)
#    0.000    1.250    3.750    2.625    5.250    1.250 
#    0.000    1.250    0.000    0.750    0.000    0.000 
#    0.000    0.000    0.000    0.000    0.000    0.000 
#
# Total GULP energy -178217.276982 kJ/mol
# GULP energy per Si atom -5569.289906 kJ/mol
# Density = 1.977802 g / cm^3
# Si number density = 19.823137 Si / 1000 Ang^3
#
#
#
# Elastic Constant Matrix: (Units=GPa)
#
#
# Indices 1 2 3 4 5 6 
#
# 1 55.4155 31.9510 17.6638 0.0000 0.8686 0.0000
# 2 31.9510 63.4584 34.3544 0.0000 0.6608 0.0000
# 3 17.6638 34.3544 118.9750 0.0000 3.3747 0.0000
# 4 0.0000 0.0000 0.0000 77.1794 0.0000 8.2944
# 5 0.8686 0.6608 3.3747 0.0000 32.9930 0.0000
# 6 0.0000 0.0000 0.0000 8.2944 0.0000 23.1359
#
#
#
# Elastic Compliance Matrix: (Units=1/GPa)
#
#
# Indices 1 2 3 4 5 6 
#
# 1 0.025433 -0.012758 -0.000081 0.000000 -0.000406 0.000000
# 2 -0.012758 0.025079 -0.005358 0.000000 0.000382 0.000000
# 3 -0.000081 -0.005358 0.009990 0.000000 -0.000912 0.000000
# 4 0.000000 0.000000 0.000000 0.013476 0.000000 -0.004831
# 5 -0.000406 0.000382 -0.000912 0.000000 0.030406 0.000000
# 6 0.000000 0.000000 0.000000 -0.004831 0.000000 0.044955
#
#
# Mechanical properties :
#
#
# Convention : Reuss Voigt Hill
#
# Bulk Modulus (GPa) = 41.47844 45.08749 43.28296
# Shear Modulus (GPa) = 25.80402 36.92030 31.36216
#
# Velocity S-wave (km/s) = 3.61184 4.32033 3.98188
# Velocity P-wave (km/s) = 6.19383 6.90516 6.55915
#
# Compressibility (1/GPa) = 0.02410891
#
# Stress axis : x y z
#
# Youngs Moduli (GPa) = 39.31859 39.87467 100.09813
#
# Poissons Ratio (x) = 0.50871 0.00808
# Poissons Ratio (y) = 0.50161 0.53635
# Poissons Ratio (z) = 0.00317 0.21366
#
# Static dielectric constant tensor:
#      x y z
#    x 1.697840 0.000000 -0.015170 
#    y 0.000000 1.707840 0.000000 
#    z -0.015170 0.000000 1.836720 
# 
# From -- ./inp_files/301688.got.cif
#   From: 2010.05.17/outbox.cif.g08.bks.cpg/sg12_151_cif.got.tgz:301688.got - 2010.06.03 13:09:07.
