data_PCOD9215748
_publ_section_title
;
Structure prediction by ZEFSAII (Michael W. Deem and Ramdas Pophale) SiO2 
 PCOD9215748
Probable space group: C 2/M
;
_chemical_formula_sum "Si O2"
_cell_formula_units_Z 56
_cell_length_a 9.439149
_cell_length_b 28.127215
_cell_length_c 21.230729
_cell_angle_alpha 90.000000
_cell_angle_beta 151.551496
_cell_angle_gamma 90.000000
_cell_volume 2685.144783
_symmetry_space_group_name_H-M "C 2/M"
_symmetry_group_IT_number 12
_symmetry_cell_setting 'monoclinic'
loop_
_space_group_symop_operation_xyz
x,y,z
-x,y,-z
-x,-y,-z
x,-y,z
1/2+x,1/2+y,z
1/2-x,1/2+y,-z
1/2-x,1/2-y,-z
1/2+x,1/2-y,z
loop_
_atom_site_type_symbol
_atom_site_label
_atom_site_fract_x
_atom_site_fract_y
_atom_site_fract_z
Si Si1 0.132890 0.404417 0.715221
Si Si2 0.682347 0.382781 0.009635
Si Si3 0.968320 0.709279 0.061686
Si Si4 0.714064 0.108064 0.296137
Si Si5 0.030418 0.686444 0.586406
Si Si6 0.644831 0.712839 0.672321
Si Si7 0.299845 0.946529 0.481359
O O1 0.443796 0.409162 0.872895
O O2 0.878507 0.404348 0.669478
O O3 0.135954 0.356247 0.673078
O O4 0.035477 0.445013 0.629924
O O5 0.500000 0.364709 0.000000
O O6 0.819487 0.340425 0.022627
O O7 0.960700 0.410239 0.148863
O O8 0.268930 0.714509 0.220258
O O9 0.750000 0.750000 0.000000
O O10 0.000000 0.712607 0.000000
O O11 0.687832 0.165711 0.285712
O O12 0.030533 0.088803 0.395204
O O13 0.694661 0.699808 0.474766
O O14 0.000000 0.675421 0.500000
O O15 0.208013 0.735704 0.667500
O O16 0.500000 0.932291 0.500000
O O17 0.184136 0.000000 0.426445
#
# Coordination Sequence:
#
# PCOD9215748 Si02
#       7
#     8   8   8   8   8   8   8
#     4  11  22  39  67  92 125 161 206 253 306 365
#     4   9  21  40  61  89 122 156 198 252 307 363
#     4  11  23  36  54  77 113 163 214 258 307 358
#     4  10  22  42  64  93 124 162 203 254 307 364
#     4  11  24  35  56  85 126 166 209 255 305 359
#     4  10  24  36  55  84 121 162 211 252 303 355
#     4  11  25  44  67  94 125 158 200 250 305 368
#
# _framework density 20.855487
#
# number of rings (size 3 to 8) (size 9 to 14) (size 15 to 20)
#    0.000    1.571    1.429    2.143    8.000    3.429 
#    0.000    0.714    0.000    4.286    0.000    0.000 
#    0.000    0.000    0.000    0.000    0.000    0.000 
#
# Total GULP energy -156205.534621 kJ/mol
# GULP energy per Si atom -5578.769094 kJ/mol
# Density = 2.080802 g / cm^3
# Si number density = 20.855487 Si / 1000 Ang^3
#
#
#
# Elastic Constant Matrix: (Units=GPa)
#
#
# Indices 1 2 3 4 5 6 
#
# 1 132.1581 29.6203 37.6425 0.0010 -21.0684 -0.0002
# 2 29.6203 73.3107 17.9785 0.0019 -0.8293 -0.0028
# 3 37.6425 17.9785 115.9448 0.0091 -13.5639 -0.0261
# 4 0.0010 0.0019 0.0091 7.4294 -0.0050 -4.9604
# 5 -21.0684 -0.8293 -13.5639 -0.0050 33.6700 0.0056
# 6 -0.0002 -0.0028 -0.0261 -4.9604 0.0056 7.0519
#
#
#
# Elastic Compliance Matrix: (Units=1/GPa)
#
#
# Indices 1 2 3 4 5 6 
#
# 1 0.009727 -0.003374 -0.002028 -0.000005 0.005187 -0.000016
# 2 -0.003374 0.015360 -0.001563 -0.000004 -0.002363 0.000000
# 3 -0.002028 -0.001563 0.009836 0.000024 0.002655 0.000051
# 4 -0.000005 -0.000004 0.000024 0.253799 0.000015 0.178526
# 5 0.005187 -0.002363 0.002655 0.000015 0.033957 -0.000008
# 6 -0.000016 0.000000 0.000051 0.178526 -0.000008 0.267385
#
#
# Mechanical properties :
#
#
# Convention : Reuss Voigt Hill
#
# Bulk Modulus (GPa) = 47.63293 54.65514 51.14404
# Shear Modulus (GPa) = 8.18341 25.37507 16.77924
#
# Velocity S-wave (km/s) = 1.98302 3.49192 2.83953
# Velocity P-wave (km/s) = 5.30399 6.52085 5.94364
#
# Compressibility (1/GPa) = 0.02099388
#
# Stress axis : x y z
#
# Youngs Moduli (GPa) = 102.80161 65.10249 101.66575
#
# Poissons Ratio (x) = 0.21967 0.20619
# Poissons Ratio (y) = 0.34688 0.15887
# Poissons Ratio (z) = 0.20850 0.10174
#
# Static dielectric constant tensor:
#      x y z
#    x 1.747790 0.000000 0.005670 
#    y 0.000000 1.754480 -0.000010 
#    z 0.005670 -0.000010 1.801990 
# 
# From -- ./inp_files/303070.got.cif
#   From: 2010.05.17/outbox.cif.g08.bks.cpg/sg12_152_cif.got.tgz:303070.got - 2010.06.03 13:09:07.
