data_PCOD9215576
_publ_section_title
;
Structure prediction by ZEFSAII (Michael W. Deem and Ramdas Pophale) SiO2 
 PCOD9215576
Probable space group: C 2/M
;
_chemical_formula_sum "Si O2"
_cell_formula_units_Z 38
_cell_length_a 30.005697
_cell_length_b 10.514471
_cell_length_c 5.111338
_cell_angle_alpha 90.000000
_cell_angle_beta 105.705727
_cell_angle_gamma 90.000000
_cell_volume 1552.389840
_symmetry_space_group_name_H-M "C 2/M"
_symmetry_group_IT_number 12
_symmetry_cell_setting 'monoclinic'
loop_
_space_group_symop_operation_xyz
x,y,z
-x,y,-z
-x,-y,-z
x,-y,z
1/2+x,1/2+y,z
1/2-x,1/2+y,-z
1/2-x,1/2-y,-z
1/2+x,1/2-y,z
loop_
_atom_site_type_symbol
_atom_site_label
_atom_site_fract_x
_atom_site_fract_y
_atom_site_fract_z
Si Si1 0.533105 0.000000 0.303915
Si Si2 0.546841 0.288489 0.244460
Si Si3 0.000000 0.000000 0.500000
Si Si4 0.859732 0.218002 0.817067
Si Si5 0.835095 0.359097 0.254506
Si Si6 0.238947 0.862453 0.284636
O O1 0.500000 0.000000 0.500000
O O2 0.556873 0.859571 0.337620
O O3 0.500000 0.000000 0.000000
O O4 0.536165 0.386890 0.457067
O O5 0.589565 0.337655 0.137434
O O6 0.500000 0.290187 0.000000
O O7 0.846463 0.261473 0.503196
O O8 0.815575 0.142772 0.862265
O O9 0.861297 0.331978 0.028061
O O10 0.846611 0.500000 0.366744
O O11 0.779004 0.355728 0.128173
O O12 0.250000 0.750000 0.500000
O O13 0.247117 0.000000 0.427696
#
# Coordination Sequence:
#
# PCOD9215576 Si02
#       6
#     4   8   2   8   8   8
#     4  10  22  44  70  98 126 174 232 290 340 400
#     4  11  27  47  72 102 141 187 239 298 360 418
#     4  12  26  50  72  94 148 190 238 292 370 426
#     4  11  24  41  69 101 135 184 234 283 347 426
#     4  10  22  41  68 102 142 177 226 288 353 412
#     4   9  20  42  68 102 140 183 228 286 345 415
#
# _framework density 24.478389
#
# number of rings (size 3 to 8) (size 9 to 14) (size 15 to 20)
#    0.000    1.684    1.053    1.579    7.368    0.842 
#    0.000    8.421    0.000    0.000    0.000    0.000 
#    0.000    0.000    0.000    0.000    0.000    0.000 
#
# Total GULP energy -105778.521727 kJ/mol
# GULP energy per Si atom -5567.290617 kJ/mol
# Density = 2.442268 g / cm^3
# Si number density = 24.478389 Si / 1000 Ang^3
#
#
#
# Elastic Constant Matrix: (Units=GPa)
#
#
# Indices 1 2 3 4 5 6 
#
# 1 208.7778 22.6922 30.2451 0.0000 -18.3982 0.0000
# 2 22.6922 142.2546 7.5266 0.0000 -4.1637 0.0000
# 3 30.2451 7.5266 70.3387 0.0000 -10.8735 0.0000
# 4 0.0000 0.0000 0.0000 9.5239 0.0000 -3.1953
# 5 -18.3982 -4.1637 -10.8735 0.0000 38.7283 0.0000
# 6 0.0000 0.0000 0.0000 -3.1953 0.0000 16.7548
#
#
#
# Elastic Compliance Matrix: (Units=1/GPa)
#
#
# Indices 1 2 3 4 5 6 
#
# 1 0.005310 -0.000690 -0.001914 0.000000 0.001911 0.000000
# 2 -0.000690 0.007171 -0.000420 0.000000 0.000325 0.000000
# 3 -0.001914 -0.000420 0.015615 0.000000 0.003430 0.000000
# 4 0.000000 0.000000 0.000000 0.112176 0.000000 0.021393
# 5 0.001911 0.000325 0.003430 0.000000 0.027727 0.000000
# 6 0.000000 0.000000 0.000000 0.021393 0.000000 0.063764
#
#
# Mechanical properties :
#
#
# Convention : Reuss Voigt Hill
#
# Bulk Modulus (GPa) = 45.35556 60.25542 52.80549
# Shear Modulus (GPa) = 20.39461 37.06191 28.72826
#
# Velocity S-wave (km/s) = 2.88960 3.89532 3.42953
# Velocity P-wave (km/s) = 5.44996 6.70079 6.10748
#
# Compressibility (1/GPa) = 0.02204801
#
# Stress axis : x y z
#
# Youngs Moduli (GPa) = 188.30645 139.44153 64.04029
#
# Poissons Ratio (x) = 0.09620 0.12259
# Poissons Ratio (y) = 0.12991 0.02693
# Poissons Ratio (z) = 0.36046 0.05863
#
# Static dielectric constant tensor:
#      x y z
#    x 2.000670 0.000000 0.069320 
#    y 0.000000 2.059250 0.000000 
#    z 0.069320 0.000000 1.918520 
# 
# From -- ./inp_files/27418.got.cif
#   From: 2010.05.17/outbox.cif.g08.bks.cpg/sg12_14_cif.got.tgz:27418.got - 2010.06.03 13:09:07.
