data_PCOD9215131
_publ_section_title
;
Structure prediction by ZEFSAII (Michael W. Deem and Ramdas Pophale) SiO2 
 PCOD9215131
Probable space group: C 2/M
;
_chemical_formula_sum "Si O2"
_cell_formula_units_Z 64
_cell_length_a 15.507034
_cell_length_b 8.333909
_cell_length_c 24.581063
_cell_angle_alpha 90.000000
_cell_angle_beta 84.881409
_cell_angle_gamma 90.000000
_cell_volume 3164.046064
_symmetry_space_group_name_H-M "C 2/M"
_symmetry_group_IT_number 12
_symmetry_cell_setting 'monoclinic'
loop_
_space_group_symop_operation_xyz
x,y,z
-x,y,-z
-x,-y,-z
x,-y,z
1/2+x,1/2+y,z
1/2-x,1/2+y,-z
1/2-x,1/2-y,-z
1/2+x,1/2-y,z
loop_
_atom_site_type_symbol
_atom_site_label
_atom_site_fract_x
_atom_site_fract_y
_atom_site_fract_z
Si Si1 0.631987 0.190520 0.315163
Si Si2 0.050554 0.809671 0.664238
Si Si3 0.215280 0.692532 0.060332
Si Si4 0.807947 0.309217 0.261667
Si Si5 0.630467 0.306832 0.549993
Si Si6 0.519647 0.804160 0.060948
Si Si7 0.672088 0.192940 0.434835
Si Si8 0.355338 0.806427 0.138479
O O1 0.533795 0.229431 0.305127
O O2 0.707033 0.271034 0.275863
O O3 0.642926 0.248371 0.377137
O O4 0.646130 0.000000 0.312932
O O5 0.135870 0.773381 0.694405
O O6 0.067715 0.749402 0.601553
O O7 0.036741 0.000000 0.663137
O O8 0.216662 0.500000 0.060828
O O9 0.115849 0.746757 0.071881
O O10 0.276933 0.756220 0.104017
O O11 0.250000 0.750000 0.000000
O O12 0.821341 0.500000 0.264906
O O13 0.839977 0.251424 0.200877
O O14 0.629159 0.500000 0.550834
O O15 0.616371 0.251487 0.489204
O O16 0.728381 0.254286 0.560546
O O17 0.444274 0.749020 0.105621
O O18 0.518412 0.000000 0.060994
O O19 0.500000 0.753923 0.000000
O O20 0.671143 0.000000 0.435098
O O21 0.358184 0.000000 0.139475
#
# Coordination Sequence:
#
# PCOD9215131 Si02
#       8
#     8   8   8   8   8   8   8   8
#     4  11  23  41  63  88 121 161 207 254 305 368
#     4  11  23  41  63  89 122 159 205 255 307 368
#     4  11  21  35  60  91 122 160 199 238 292 349
#     4  11  24  42  64  89 120 161 206 256 312 363
#     4   9  18  34  56  84 117 154 193 246 308 365
#     4   9  17  34  60  85 117 159 191 226 284 349
#     4   9  18  34  56  84 116 154 196 246 304 364
#     4  10  22  41  62  88 120 154 199 248 294 356
#
# _framework density 20.227264999999999
#
# number of rings (size 3 to 8) (size 9 to 14) (size 15 to 20)
#    0.000    1.875    2.500    1.500    0.000    4.500 
#    0.000    5.625    0.000    0.000    0.000    0.000 
#    0.000    0.000    0.000    0.000    0.000    0.000 
#
# Total GULP energy -178776.709755 kJ/mol
# GULP energy per Si atom -5586.772180 kJ/mol
# Density = 2.018123 g / cm^3
# Si number density = 20.227265 Si / 1000 Ang^3
#
#
#
# Elastic Constant Matrix: (Units=GPa)
#
#
# Indices 1 2 3 4 5 6 
#
# 1 111.9682 -0.6177 32.3265 0.0000 -29.7509 0.0000
# 2 -0.6177 12.8301 7.6790 0.0000 -5.1706 0.0000
# 3 32.3265 7.6790 104.5619 0.0000 -32.0127 0.0000
# 4 0.0000 0.0000 0.0000 23.2404 0.0000 3.8410
# 5 -29.7509 -5.1706 -32.0127 0.0000 26.8599 0.0000
# 6 0.0000 0.0000 0.0000 3.8410 0.0000 25.5442
#
#
#
# Elastic Compliance Matrix: (Units=1/GPa)
#
#
# Indices 1 2 3 4 5 6 
#
# 1 0.013239 0.007039 0.000464 0.000000 0.016572 0.000000
# 2 0.007039 0.088487 -0.001689 0.000000 0.022818 0.000000
# 3 0.000464 -0.001689 0.015119 0.000000 0.018208 0.000000
# 4 0.000000 0.000000 0.000000 0.044125 0.000000 -0.006635
# 5 0.016572 0.022818 0.018208 0.000000 0.081679 0.000000
# 6 0.000000 0.000000 0.000000 -0.006635 0.000000 0.040145
#
#
# Mechanical properties :
#
#
# Convention : Reuss Voigt Hill
#
# Bulk Modulus (GPa) = 7.78379 34.23730 21.01054
# Shear Modulus (GPa) = 15.92399 27.79373 21.85886
#
# Velocity S-wave (km/s) = 2.80885 3.71087 3.29091
# Velocity P-wave (km/s) = 3.79157 5.94338 4.98497
#
# Compressibility (1/GPa) = 0.12847217
#
# Stress axis : x y z
#
# Youngs Moduli (GPa) = 75.53228 11.30112 66.14245
#
# Poissons Ratio (x) = -0.07954 -0.03067
# Poissons Ratio (y) = -0.53164 0.11169
# Poissons Ratio (z) = -0.03502 0.01908
#
# Static dielectric constant tensor:
#      x y z
#    x 1.707320 0.000000 -0.011520 
#    y 0.000000 1.693590 0.000000 
#    z -0.011520 0.000000 1.706580 
# 
# From -- ./inp_files/338682.got.cif
#   From: 2010.05.17/outbox.cif.g08.bks.cpg/sg12_170_cif.got.tgz:338682.got - 2010.06.03 13:09:07.
