data_PCOD9215661
_publ_section_title
;
Structure prediction by ZEFSAII (Michael W. Deem and Ramdas Pophale) SiO2 
 PCOD9215661
Probable space group: C 2/M
;
_chemical_formula_sum "Si O2"
_cell_formula_units_Z 40
_cell_length_a 14.348995
_cell_length_b 31.290272
_cell_length_c 8.755268
_cell_angle_alpha 90.000000
_cell_angle_beta 148.277759
_cell_angle_gamma 90.000000
_cell_volume 2066.913968
_symmetry_space_group_name_H-M "C 2/M"
_symmetry_group_IT_number 12
_symmetry_cell_setting 'monoclinic'
loop_
_space_group_symop_operation_xyz
x,y,z
-x,y,-z
-x,-y,-z
x,-y,z
1/2+x,1/2+y,z
1/2-x,1/2+y,-z
1/2-x,1/2-y,-z
1/2+x,1/2-y,z
loop_
_atom_site_type_symbol
_atom_site_label
_atom_site_fract_x
_atom_site_fract_y
_atom_site_fract_z
Si Si1 0.500000 0.432627 0.000000
Si Si2 0.253688 0.863766 0.486376
Si Si3 0.262484 0.000000 0.796346
Si Si4 0.692804 0.792438 0.690128
Si Si5 0.500000 0.923535 0.000000
Si Si6 0.393808 0.500000 0.094038
Si Si7 0.549255 0.705276 0.392848
O O1 0.379175 0.401704 0.734643
O O2 0.608069 0.460840 0.028161
O O3 0.277395 0.832859 0.375866
O O4 0.166375 0.833239 0.491501
O O5 0.425605 0.890125 0.773274
O O6 0.238936 0.000000 0.947515
O O7 0.081199 0.000000 0.445825
O O8 0.362132 0.043310 0.883781
O O9 0.500000 0.797472 0.500000
O O10 0.665453 0.748686 0.556931
O O11 0.865126 0.789026 0.040855
O O12 0.500000 0.697167 0.500000
#
# Coordination Sequence:
#
# PCOD9215661 Si02
#       7
#     4   8   4   8   4   4   8
#     4  11  22  44  61 100 120 166 201 266 308 379
#     4  12  25  41  65  92 132 165 211 263 314 366
#     4  10  22  45  64  97 120 169 202 255 314 388
#     4  11  24  42  63  93 130 169 215 257 312 372
#     4  11  26  40  65  96 132 154 215 264 310 375
#     4  10  22  41  74  85 128 165 205 248 326 378
#     4  11  24  42  64  92 129 172 213 257 313 371
#
# _framework density 19.352523000000001
#
# number of rings (size 3 to 8) (size 9 to 14) (size 15 to 20)
#    0.000    1.000    4.000    3.000    5.600    3.200 
#    0.000    1.000    0.000    0.000    0.000    0.000 
#    0.000    0.000    0.000    0.000    0.000    0.000 
#
# Total GULP energy -111551.160995 kJ/mol
# GULP energy per Si atom -5577.558050 kJ/mol
# Density = 1.930848 g / cm^3
# Si number density = 19.352523 Si / 1000 Ang^3
#
#
#
# Elastic Constant Matrix: (Units=GPa)
#
#
# Indices 1 2 3 4 5 6 
#
# 1 90.8972 47.9241 -0.7389 0.0000 -10.9440 0.0000
# 2 47.9241 143.7503 39.5681 0.0000 -12.0987 0.0000
# 3 -0.7389 39.5681 79.4662 0.0000 -8.1581 0.0000
# 4 0.0000 0.0000 0.0000 76.4806 0.0000 -29.7981
# 5 -10.9440 -12.0987 -8.1581 0.0000 21.4284 0.0000
# 6 0.0000 0.0000 0.0000 -29.7981 0.0000 19.4857
#
#
#
# Elastic Compliance Matrix: (Units=1/GPa)
#
#
# Indices 1 2 3 4 5 6 
#
# 1 0.014495 -0.005274 0.003346 0.000000 0.005699 0.000000
# 2 -0.005274 0.010189 -0.005004 0.000000 0.001154 0.000000
# 3 0.003346 -0.005004 0.015602 0.000000 0.004823 0.000000
# 4 0.000000 0.000000 0.000000 0.032349 0.000000 0.049469
# 5 0.005699 0.001154 0.004823 0.000000 0.052066 0.000000
# 6 0.000000 0.000000 0.000000 0.049469 0.000000 0.126969
#
#
# Mechanical properties :
#
#
# Convention : Reuss Voigt Hill
#
# Bulk Modulus (GPa) = 37.84649 54.18001 46.01325
# Shear Modulus (GPa) = 18.22540 38.63631 28.43085
#
# Velocity S-wave (km/s) = 3.07214 4.47301 3.83705
# Velocity P-wave (km/s) = 5.67299 7.39826 6.59231
#
# Compressibility (1/GPa) = 0.02642253
#
# Stress axis : x y z
#
# Youngs Moduli (GPa) = 68.98757 98.14267 64.09495
#
# Poissons Ratio (x) = 0.51758 -0.21445
# Poissons Ratio (y) = 0.36383 0.32073
# Poissons Ratio (z) = -0.23082 0.49110
#
# Static dielectric constant tensor:
#      x y z
#    x 1.686800 0.000000 0.012610 
#    y 0.000000 1.641740 0.000000 
#    z 0.012610 0.000000 1.595880 
# 
# From -- ./inp_files/41506.got.cif
#   From: 2010.05.17/outbox.cif.g08.bks.cpg/sg12_21_cif.got.tgz:41506.got - 2010.06.03 13:09:07.
