data_PCOD9215907
_publ_section_title
;
Structure prediction by ZEFSAII (Michael W. Deem and Ramdas Pophale) SiO2 
 PCOD9215907
Probable space group: C 2/M
;
_chemical_formula_sum "Si O2"
_cell_formula_units_Z 48
_cell_length_a 10.597476
_cell_length_b 13.477476
_cell_length_c 18.299932
_cell_angle_alpha 90.000000
_cell_angle_beta 107.565486
_cell_angle_gamma 90.000000
_cell_volume 2491.857298
_symmetry_space_group_name_H-M "C 2/M"
_symmetry_group_IT_number 12
_symmetry_cell_setting 'monoclinic'
loop_
_space_group_symop_operation_xyz
x,y,z
-x,y,-z
-x,-y,-z
x,-y,z
1/2+x,1/2+y,z
1/2-x,1/2+y,-z
1/2-x,1/2-y,-z
1/2+x,1/2-y,z
loop_
_atom_site_type_symbol
_atom_site_label
_atom_site_fract_x
_atom_site_fract_y
_atom_site_fract_z
Si Si1 0.544949 0.000000 0.126856
Si Si2 0.598877 0.271111 0.450692
Si Si3 0.386390 0.302594 0.040074
Si Si4 0.982059 0.707151 0.797345
Si Si5 0.056690 0.612714 0.664689
Si Si6 0.141980 0.886442 0.315410
Si Si7 0.725946 0.000000 0.013209
O O1 0.570959 0.103174 0.175879
O O2 0.639470 0.000000 0.072455
O O3 0.390120 0.000000 0.070287
O O4 0.500000 0.294067 0.500000
O O5 0.750000 0.250000 0.500000
O O6 0.545163 0.171495 0.402922
O O7 0.590605 0.354731 0.386237
O O8 0.438966 0.261692 0.125420
O O9 0.330824 0.412055 0.029808
O O10 0.500000 0.284972 0.000000
O O11 0.250000 0.250000 0.000000
O O12 0.894145 0.795968 0.746245
O O13 0.067108 0.667669 0.744086
O O14 0.014005 0.500000 0.669760
O O15 0.199528 0.612725 0.652927
O O16 0.100248 0.000000 0.287548
#
# Coordination Sequence:
#
# PCOD9215907 Si02
#       7
#     4   8   8   8   8   8   4
#     4  11  22  44  68  94 133 180 232 291 340 409
#     4  11  22  42  71 101 135 172 218 270 324 395
#     4  12  26  44  68  97 135 178 233 292 346 408
#     4  11  24  41  66  96 132 181 225 281 336 404
#     4  10  22  42  67  98 131 181 226 265 328 404
#     4  10  24  43  67  99 140 176 219 275 334 400
#     4  11  25  42  64 100 130 173 234 293 357 398
#
# _framework density 19.262739
#
# number of rings (size 3 to 8) (size 9 to 14) (size 15 to 20)
#    0.000    1.167    4.167    1.250    5.833    1.333 
#    0.000    0.000    0.000    0.000    0.000    0.000 
#    0.000    0.000    0.000    0.000    0.000    0.000 
#
# Total GULP energy -133729.615834 kJ/mol
# GULP energy per Si atom -5572.067326 kJ/mol
# Density = 1.921890 g / cm^3
# Si number density = 19.262739 Si / 1000 Ang^3
#
#
#
# Elastic Constant Matrix: (Units=GPa)
#
#
# Indices 1 2 3 4 5 6 
#
# 1 116.2085 42.2408 57.8850 0.0000 -6.6963 0.0000
# 2 42.2408 168.8952 54.7165 0.0000 9.3788 0.0000
# 3 57.8850 54.7165 119.3813 0.0000 -1.4945 0.0000
# 4 0.0000 0.0000 0.0000 30.2212 0.0000 -5.3616
# 5 -6.6963 9.3788 -1.4945 0.0000 22.6836 0.0000
# 6 0.0000 0.0000 0.0000 -5.3616 0.0000 39.0341
#
#
#
# Elastic Compliance Matrix: (Units=1/GPa)
#
#
# Indices 1 2 3 4 5 6 
#
# 1 0.011884 -0.001566 -0.004997 0.000000 0.003826 0.000000
# 2 -0.001566 0.007383 -0.002671 0.000000 -0.003691 0.000000
# 3 -0.004997 -0.002671 0.012029 0.000000 0.000422 0.000000
# 4 0.000000 0.000000 0.000000 0.033916 0.000000 0.004659
# 5 0.003826 -0.003691 0.000422 0.000000 0.046768 0.000000
# 6 0.000000 0.000000 0.000000 0.004659 0.000000 0.026259
#
#
# Mechanical properties :
#
#
# Convention : Reuss Voigt Hill
#
# Bulk Modulus (GPa) = 77.94985 79.35218 78.65101
# Shear Modulus (GPa) = 31.05986 35.03064 33.04525
#
# Velocity S-wave (km/s) = 4.01987 4.26910 4.14635
# Velocity P-wave (km/s) = 7.88037 8.09841 7.99014
#
# Compressibility (1/GPa) = 0.01282876
#
# Stress axis : x y z
#
# Youngs Moduli (GPa) = 84.14867 135.45360 83.13569
#
# Poissons Ratio (x) = 0.21211 0.41539
# Poissons Ratio (y) = 0.13177 0.22203
# Poissons Ratio (z) = 0.42045 0.36175
#
# Static dielectric constant tensor:
#      x y z
#    x 1.576810 0.000000 -0.012980 
#    y 0.000000 1.664750 0.000000 
#    z -0.012980 0.000000 1.668280 
# 
# From -- ./inp_files/262184.got.cif
#   From: 2010.05.17/outbox.cif.g08.bks.cpg/sg12_132_cif.got.tgz:262184.got - 2010.06.03 13:09:07.
