data_PCOD9215919
_publ_section_title
;
Structure prediction by ZEFSAII (Michael W. Deem and Ramdas Pophale) SiO2 
 PCOD9215919
Probable space group: C 2/M
;
_chemical_formula_sum "Si O2"
_cell_formula_units_Z 32
_cell_length_a 11.670381
_cell_length_b 18.257827
_cell_length_c 14.828057
_cell_angle_alpha 90.000000
_cell_angle_beta 25.984742
_cell_angle_gamma 90.000000
_cell_volume 1384.277390
_symmetry_space_group_name_H-M "C 2/M"
_symmetry_group_IT_number 12
_symmetry_cell_setting 'monoclinic'
loop_
_space_group_symop_operation_xyz
x,y,z
-x,y,-z
-x,-y,-z
x,-y,z
1/2+x,1/2+y,z
1/2-x,1/2+y,-z
1/2-x,1/2-y,-z
1/2+x,1/2-y,z
loop_
_atom_site_type_symbol
_atom_site_label
_atom_site_fract_x
_atom_site_fract_y
_atom_site_fract_z
Si Si1 0.505023 0.266917 0.601812
Si Si2 0.700543 0.580533 0.690640
Si Si3 0.281284 0.415602 0.538115
Si Si4 0.737913 0.817997 0.077468
O O1 0.500000 0.245300 0.500000
O O2 0.750000 0.250000 0.500000
O O3 0.492056 0.355269 0.604790
O O4 0.289204 0.221047 0.806871
O O5 0.633251 0.500000 0.773848
O O6 0.701328 0.579709 0.582145
O O7 0.000000 0.594324 0.500000
O O8 0.492193 0.635244 0.877669
O O9 0.295825 0.500000 0.561708
O O10 0.012428 0.373384 0.756757
O O11 0.750000 0.750000 0.000000
#
# Coordination Sequence:
#
# PCOD9215919 Si02
#       4
#     8   8   8   8
#     4  10  23  46  74 108 149 193 245 304 370 435
#     4  10  22  42  69 106 147 192 242 299 368 439
#     4  10  22  42  68 102 146 190 237 300 369 439
#     4  11  22  43  70 105 143 194 241 303 364 437
#
# _framework density 23.116755000000001
#
# number of rings (size 3 to 8) (size 9 to 14) (size 15 to 20)
#    0.000    1.750    2.500    0.750    0.000    5.500 
#    9.000    3.750    0.000    8.250    0.000    0.000 
#    0.000    1.000    0.000    0.000    0.000    0.000 
#
# Total GULP energy -89254.557948 kJ/mol
# GULP energy per Si atom -5578.409872 kJ/mol
# Density = 2.306414 g / cm^3
# Si number density = 23.116755 Si / 1000 Ang^3
#
#
#
# Elastic Constant Matrix: (Units=GPa)
#
#
# Indices 1 2 3 4 5 6 
#
# 1 111.6769 50.5153 54.7311 -1.5549 25.3844 0.9712
# 2 50.5153 272.0476 96.8265 -1.0989 5.1955 0.6657
# 3 54.7311 96.8265 166.0046 -0.2585 5.9684 0.1767
# 4 -1.5549 -1.0989 -0.2585 -194.2221 0.7068 160.5487
# 5 25.3844 5.1955 5.9684 0.7068 36.9369 -0.4481
# 6 0.9712 0.6657 0.1767 160.5487 -0.4481 -80.0464
#
#
#
# Elastic Compliance Matrix: (Units=1/GPa)
#
#
# Indices 1 2 3 4 5 6 
#
# 1 0.012938 -0.001051 -0.003358 -0.000048 -0.008199 0.000091
# 2 -0.001051 0.004726 -0.002426 -0.000003 0.000450 0.000013
# 3 -0.003358 -0.002426 0.008500 0.000010 0.001275 -0.000029
# 4 -0.000048 -0.000003 0.000010 0.007826 0.000072 0.015695
# 5 -0.008199 0.000450 0.001275 0.000072 0.032435 -0.000130
# 6 0.000091 0.000013 -0.000029 0.015695 -0.000130 0.018988
#
#
# Mechanical properties :
#
#
# Convention : Reuss Voigt Hill
#
# Bulk Modulus (GPa) = 80.04017 105.98610 93.01313
# Shear Modulus (GPa) = 48.42730 -24.28923 12.06904
#
# Velocity S-wave (km/s) = 4.58197 -3.24500 2.28741
# Velocity P-wave (km/s) = 7.91784 5.64869 6.87749
#
# Compressibility (1/GPa) = 0.01249373
#
# Stress axis : x y z
#
# Youngs Moduli (GPa) = 77.29419 211.60135 117.64263
#
# Poissons Ratio (x) = 0.22240 0.39502
# Poissons Ratio (y) = 0.08124 0.28542
# Poissons Ratio (z) = 0.25954 0.51338
#
# Static dielectric constant tensor:
#      x y z
#    x 1.321070 0.000710 -0.332200 
#    y 0.000710 1.941810 0.000540 
#    z -0.332200 0.000540 1.757390 
# 
# From -- ./inp_files/206495.got.cif
#   From: 2010.05.17/outbox.cif.g08.bks.cpg/sg12_104_cif.got.tgz:206495.got - 2010.06.03 13:09:07.
