data_PCOD9215932
_publ_section_title
;
Structure prediction by ZEFSAII (Michael W. Deem and Ramdas Pophale) SiO2 
 PCOD9215932
Probable space group: C 2/M
;
_chemical_formula_sum "Si O2"
_cell_formula_units_Z 48
_cell_length_a 10.384416
_cell_length_b 18.499071
_cell_length_c 10.992204
_cell_angle_alpha 90.000000
_cell_angle_beta 101.624271
_cell_angle_gamma 90.000000
_cell_volume 2068.315448
_symmetry_space_group_name_H-M "C 2/M"
_symmetry_group_IT_number 12
_symmetry_cell_setting 'monoclinic'
loop_
_space_group_symop_operation_xyz
x,y,z
-x,y,-z
-x,-y,-z
x,-y,z
1/2+x,1/2+y,z
1/2-x,1/2+y,-z
1/2-x,1/2-y,-z
1/2+x,1/2-y,z
loop_
_atom_site_type_symbol
_atom_site_label
_atom_site_fract_x
_atom_site_fract_y
_atom_site_fract_z
Si Si1 0.679585 0.082920 0.986331
Si Si2 0.089551 0.919990 0.173367
Si Si3 0.724179 0.812435 0.395919
Si Si4 0.957600 0.669904 0.222061
Si Si5 0.312954 0.082715 0.402766
Si Si6 0.352055 0.319529 0.178541
O O1 0.798305 0.084835 0.907996
O O2 0.553858 0.109663 0.884813
O O3 0.667169 0.000000 0.024427
O O4 0.729715 0.138110 0.097586
O O5 0.169153 0.915134 0.314417
O O6 0.979998 0.859438 0.151156
O O7 0.027558 0.000000 0.152169
O O8 0.750000 0.750000 0.500000
O O9 0.596763 0.796919 0.287987
O O10 0.694629 0.884759 0.465253
O O11 0.841573 0.823315 0.323089
O O12 0.900169 0.633842 0.333507
O O13 0.864671 0.734569 0.156879
O O14 0.358649 0.000000 0.406610
#
# Coordination Sequence:
#
# PCOD9215932 Si02
#       6
#     8   8   8   8   8   8
#     4  10  23  46  70  99 134 175 228 275 332 409
#     4   9  20  41  68  99 133 171 218 279 337 401
#     4  12  26  43  62  98 138 176 225 286 338 396
#     4  11  24  42  66  92 133 177 223 279 336 397
#     4  10  22  42  68  94 127 179 232 271 331 404
#     4  12  24  39  68  97 136 176 219 278 346 398
#
# _framework density 23.207291000000001
#
# number of rings (size 3 to 8) (size 9 to 14) (size 15 to 20)
#    0.000    1.333    1.667    4.500    2.333    7.333 
#    3.000    2.500    0.000    0.000    0.000    0.000 
#    0.000    0.000    0.000    0.000    0.000    0.000 
#
# Total GULP energy -134279.124005 kJ/mol
# GULP energy per Si atom -5594.963500 kJ/mol
# Density = 2.315447 g / cm^3
# Si number density = 23.207291 Si / 1000 Ang^3
#
#
#
# Elastic Constant Matrix: (Units=GPa)
#
#
# Indices 1 2 3 4 5 6 
#
# 1 63.6979 26.4002 9.8605 0.0000 7.2411 0.0000
# 2 26.4002 140.6264 27.8405 0.0000 5.0540 0.0000
# 3 9.8605 27.8405 97.5293 0.0000 7.8735 0.0000
# 4 0.0000 0.0000 0.0000 32.6060 0.0000 3.3198
# 5 7.2411 5.0540 7.8735 0.0000 38.2071 0.0000
# 6 0.0000 0.0000 0.0000 3.3198 0.0000 28.2715
#
#
#
# Elastic Compliance Matrix: (Units=1/GPa)
#
#
# Indices 1 2 3 4 5 6 
#
# 1 0.017371 -0.003030 -0.000669 0.000000 -0.002754 0.000000
# 2 -0.003030 0.008077 -0.001993 0.000000 -0.000084 0.000000
# 3 -0.000669 -0.001993 0.011042 0.000000 -0.001885 0.000000
# 4 0.000000 0.000000 0.000000 0.031040 0.000000 -0.003645
# 5 -0.002754 -0.000084 -0.001885 0.000000 0.027095 0.000000
# 6 0.000000 0.000000 0.000000 -0.003645 0.000000 0.035799
#
#
# Mechanical properties :
#
#
# Convention : Reuss Voigt Hill
#
# Bulk Modulus (GPa) = 39.82853 47.78399 43.80626
# Shear Modulus (GPa) = 33.29398 35.66707 34.48052
#
# Velocity S-wave (km/s) = 3.79177 3.92457 3.85874
# Velocity P-wave (km/s) = 6.03070 6.41647 6.22657
#
# Compressibility (1/GPa) = 0.02510763
#
# Stress axis : x y z
#
# Youngs Moduli (GPa) = 57.56575 123.80332 90.56341
#
# Poissons Ratio (x) = 0.37509 0.06060
# Poissons Ratio (y) = 0.17441 0.18046
# Poissons Ratio (z) = 0.03852 0.24670
#
# Static dielectric constant tensor:
#      x y z
#    x 1.951810 0.000000 0.027140 
#    y 0.000000 1.843860 0.000000 
#    z 0.027140 0.000000 1.862060 
# 
# From -- ./inp_files/131736.got.cif
#   From: 2010.05.17/outbox.cif.g08.bks.cpg/sg12_66_cif.got.tgz:131736.got - 2010.06.03 13:09:07.
