data_PCOD9215247
_publ_section_title
;
Structure prediction by ZEFSAII (Michael W. Deem and Ramdas Pophale) SiO2 
 PCOD9215247
Probable space group: C 2/M
;
_chemical_formula_sum "Si O2"
_cell_formula_units_Z 56
_cell_length_a 18.389904
_cell_length_b 25.168767
_cell_length_c 9.463793
_cell_angle_alpha 90.000000
_cell_angle_beta 44.733468
_cell_angle_gamma 90.000000
_cell_volume 3082.917707
_symmetry_space_group_name_H-M "C 2/M"
_symmetry_group_IT_number 12
_symmetry_cell_setting 'monoclinic'
loop_
_space_group_symop_operation_xyz
x,y,z
-x,y,-z
-x,-y,-z
x,-y,z
1/2+x,1/2+y,z
1/2-x,1/2+y,-z
1/2-x,1/2-y,-z
1/2+x,1/2-y,z
loop_
_atom_site_type_symbol
_atom_site_label
_atom_site_fract_x
_atom_site_fract_y
_atom_site_fract_z
Si Si1 0.744167 0.638571 0.094738
Si Si2 0.070838 0.750190 0.539571
Si Si3 0.710678 0.712206 0.873310
Si Si4 0.589547 0.632139 0.572268
Si Si5 0.112950 0.939419 0.120445
Si Si6 0.120218 0.884565 0.831266
Si Si7 0.055363 0.689337 0.072874
O O1 0.664234 0.635484 0.335051
O O2 0.715373 0.585843 0.047194
O O3 0.859729 0.646418 0.993469
O O4 0.721684 0.687323 0.015861
O O5 0.184487 0.738126 0.326903
O O6 0.064898 0.805680 0.632512
O O7 0.000000 0.756532 0.500000
O O8 0.030045 0.702007 0.691082
O O9 0.685170 0.662408 0.809491
O O10 0.622660 0.756268 0.977351
O O11 0.484159 0.598268 0.700718
O O12 0.644856 0.607628 0.633522
O O13 0.095035 0.000000 0.185775
O O14 0.123866 0.933011 0.936028
O O15 0.000000 0.867717 0.000000
O O16 0.000000 0.679034 0.000000
#
# Coordination Sequence:
#
# PCOD9215247 Si02
#       7
#     8   8   8   8   8   8   8
#     4  11  22  38  55  84 122 150 196 250 287 345
#     4  12  22  35  57  83 121 172 200 234 279 349
#     4  11  21  38  56  79 122 170 205 228 283 349
#     4  11  21  33  57  88 121 152 188 244 295 342
#     4  10  22  41  64  86 114 153 195 244 310 373
#     4   9  20  36  55  86 119 151 191 239 290 349
#     4  12  24  35  52  84 119 159 205 244 289 340
#
# _framework density 18.164612000000002
#
# number of rings (size 3 to 8) (size 9 to 14) (size 15 to 20)
#    0.000    1.143    2.857    6.429    2.000    4.857 
#    0.000    0.000    0.000    0.429    0.000    8.000 
#    0.000    0.000    0.000    0.000    0.000    0.000 
#
# Total GULP energy -156282.637559 kJ/mol
# GULP energy per Si atom -5581.522770 kJ/mol
# Density = 1.812327 g / cm^3
# Si number density = 18.164612 Si / 1000 Ang^3
#
#
#
# Elastic Constant Matrix: (Units=GPa)
#
#
# Indices 1 2 3 4 5 6 
#
# 1 116.5777 29.2788 43.2144 0.0000 10.4884 0.0000
# 2 29.2788 82.5472 33.8344 0.0000 -8.2005 0.0000
# 3 43.2144 33.8344 89.5137 0.0000 9.8344 0.0000
# 4 0.0000 0.0000 0.0000 13.9640 0.0000 2.9917
# 5 10.4884 -8.2005 9.8344 0.0000 27.0598 0.0000
# 6 0.0000 0.0000 0.0000 2.9917 0.0000 5.7864
#
#
#
# Elastic Compliance Matrix: (Units=1/GPa)
#
#
# Indices 1 2 3 4 5 6 
#
# 1 0.011029 -0.002672 -0.003912 0.000000 -0.003663 0.000000
# 2 -0.002672 0.016202 -0.005715 0.000000 0.008023 0.000000
# 3 -0.003912 -0.005715 0.015878 0.000000 -0.005986 0.000000
# 4 0.000000 0.000000 0.000000 0.080533 0.000000 -0.041637
# 5 -0.003663 0.008023 -0.005986 0.000000 0.042982 0.000000
# 6 0.000000 0.000000 0.000000 -0.041637 0.000000 0.194346
#
#
# Mechanical properties :
#
#
# Convention : Reuss Voigt Hill
#
# Bulk Modulus (GPa) = 54.02599 55.69931 54.86265
# Shear Modulus (GPa) = 12.76363 21.51609 17.13986
#
# Velocity S-wave (km/s) = 2.65366 3.44540 3.07512
# Velocity P-wave (km/s) = 6.26069 6.82334 6.54806
#
# Compressibility (1/GPa) = 0.01850961
#
# Stress axis : x y z
#
# Youngs Moduli (GPa) = 90.67191 61.72188 62.98059
#
# Poissons Ratio (x) = 0.16494 0.24637
# Poissons Ratio (y) = 0.24230 0.35995
# Poissons Ratio (z) = 0.35469 0.35275
#
# Static dielectric constant tensor:
#      x y z
#    x 1.660860 0.000000 0.032650 
#    y 0.000000 1.620250 0.000000 
#    z 0.032650 0.000000 1.666630 
# 
# From -- ./inp_files/79058.got.cif
#   From: 2010.05.17/outbox.cif.g08.bks.cpg/sg12_40_cif.got.tgz:79058.got - 2010.06.03 13:09:07.
