data_PCOD9215550
_publ_section_title
;
Structure prediction by ZEFSAII (Michael W. Deem and Ramdas Pophale) SiO2 
 PCOD9215550
Probable space group: C 2/M
;
_chemical_formula_sum "Si O2"
_cell_formula_units_Z 56
_cell_length_a 17.833402
_cell_length_b 31.845774
_cell_length_c 6.663500
_cell_angle_alpha 90.000000
_cell_angle_beta 126.516318
_cell_angle_gamma 90.000000
_cell_volume 3041.414283
_symmetry_space_group_name_H-M "C 2/M"
_symmetry_group_IT_number 12
_symmetry_cell_setting 'monoclinic'
loop_
_space_group_symop_operation_xyz
x,y,z
-x,y,-z
-x,-y,-z
x,-y,z
1/2+x,1/2+y,z
1/2-x,1/2+y,-z
1/2-x,1/2-y,-z
1/2+x,1/2-y,z
loop_
_atom_site_type_symbol
_atom_site_label
_atom_site_fract_x
_atom_site_fract_y
_atom_site_fract_z
Si Si1 0.117600 0.321988 0.854979
Si Si2 0.082869 0.766492 0.753004
Si Si3 0.702238 0.876194 0.634854
Si Si4 0.388931 0.951041 0.276640
Si Si5 0.107287 0.166193 0.139244
Si Si6 0.282535 0.718367 0.375496
Si Si7 0.095861 0.599639 0.068459
O O1 0.201784 0.307263 0.134580
O O2 0.069632 0.361873 0.879636
O O3 0.053697 0.280647 0.764340
O O4 0.156021 0.339591 0.702448
O O5 0.164918 0.759132 0.723775
O O6 0.000000 0.787743 0.500000
O O7 0.107786 0.795792 0.977559
O O8 0.672736 0.920040 0.687629
O O9 0.812719 0.866471 0.800772
O O10 0.659726 0.881106 0.344561
O O11 0.500000 0.943817 0.500000
O O12 0.371148 0.000000 0.281175
O O13 0.364410 0.936311 0.011577
O O14 0.146671 0.186462 0.405745
O O15 0.000000 0.152225 0.000000
O O16 0.250000 0.750000 0.500000
O O17 0.000000 0.582124 0.000000
#
# Coordination Sequence:
#
# PCOD9215550 Si02
#       7
#     8   8   8   8   8   8   8
#     4  11  24  35  56  81 120 162 206 255 311 356
#     4  12  25  37  53  81 117 163 219 268 308 351
#     4  11  23  41  61  88 126 162 198 252 310 367
#     4  10  22  41  67  98 128 156 188 234 306 389
#     4  12  24  41  60  84 117 166 222 266 309 357
#     4  12  22  37  57  79 113 159 212 273 316 353
#     4  11  23  36  57  92 126 159 196 238 301 377
#
# _framework density 18.412486999999999
#
# number of rings (size 3 to 8) (size 9 to 14) (size 15 to 20)
#    0.000    0.714    7.143    1.286    2.000    1.429 
#    0.000    0.000    0.000    0.429    0.000    1.000 
#    0.000    0.000    0.000    0.000    0.000    0.000 
#
# Total GULP energy -156159.345890 kJ/mol
# GULP energy per Si atom -5577.119496 kJ/mol
# Density = 1.837058 g / cm^3
# Si number density = 18.412487 Si / 1000 Ang^3
#
#
#
# Elastic Constant Matrix: (Units=GPa)
#
#
# Indices 1 2 3 4 5 6 
#
# 1 84.4816 37.3553 22.1872 0.0000 -4.9750 0.0000
# 2 37.3553 109.1166 25.1167 0.0000 -2.2985 0.0000
# 3 22.1872 25.1167 114.2177 0.0000 6.4504 0.0000
# 4 0.0000 0.0000 0.0000 15.7267 0.0000 3.3262
# 5 -4.9750 -2.2985 6.4504 0.0000 29.2611 0.0000
# 6 0.0000 0.0000 0.0000 3.3262 0.0000 19.1365
#
#
#
# Elastic Compliance Matrix: (Units=1/GPa)
#
#
# Indices 1 2 3 4 5 6 
#
# 1 0.014472 -0.004446 -0.001978 0.000000 0.002547 0.000000
# 2 -0.004446 0.011063 -0.001596 0.000000 0.000465 0.000000
# 3 -0.001978 -0.001596 0.009636 0.000000 -0.002586 0.000000
# 4 0.000000 0.000000 0.000000 0.066013 0.000000 -0.011474
# 5 0.002547 0.000465 -0.002586 0.000000 0.035215 0.000000
# 6 0.000000 0.000000 0.000000 -0.011474 0.000000 0.054251
#
#
# Mechanical properties :
#
#
# Convention : Reuss Voigt Hill
#
# Bulk Modulus (GPa) = 52.26176 53.01491 52.63834
# Shear Modulus (GPa) = 23.46698 27.70195 25.58447
#
# Velocity S-wave (km/s) = 3.57391 3.88302 3.73167
# Velocity P-wave (km/s) = 6.74358 6.99709 6.87150
#
# Compressibility (1/GPa) = 0.01913445
#
# Stress axis : x y z
#
# Youngs Moduli (GPa) = 69.09926 90.38752 103.77475
#
# Poissons Ratio (x) = 0.40182 0.20521
# Poissons Ratio (y) = 0.30718 0.16558
# Poissons Ratio (z) = 0.13664 0.14422
#
# Static dielectric constant tensor:
#      x y z
#    x 1.682610 0.000000 -0.006160 
#    y 0.000000 1.618820 0.000000 
#    z -0.006160 0.000000 1.702940 
# 
# From -- ./inp_files/13129.got.cif
#   From: 2010.05.17/outbox.cif.g08.bks.cpg/sg12_7_cif.got.tgz:13129.got - 2010.06.03 13:09:07.
