data_PCOD9215535
_publ_section_title
;
Structure prediction by ZEFSAII (Michael W. Deem and Ramdas Pophale) SiO2 
 PCOD9215535
Probable space group: C 2/M
;
_chemical_formula_sum "Si O2"
_cell_formula_units_Z 48
_cell_length_a 9.301743
_cell_length_b 17.301857
_cell_length_c 13.717583
_cell_angle_alpha 90.000000
_cell_angle_beta 89.820101
_cell_angle_gamma 90.000000
_cell_volume 2207.661634
_symmetry_space_group_name_H-M "C 2/M"
_symmetry_group_IT_number 12
_symmetry_cell_setting 'monoclinic'
loop_
_space_group_symop_operation_xyz
x,y,z
-x,y,-z
-x,-y,-z
x,-y,z
1/2+x,1/2+y,z
1/2-x,1/2+y,-z
1/2-x,1/2-y,-z
1/2+x,1/2-y,z
loop_
_atom_site_type_symbol
_atom_site_label
_atom_site_fract_x
_atom_site_fract_y
_atom_site_fract_z
Si Si1 0.934131 0.374601 0.105869
Si Si2 0.169333 0.331459 0.613680
Si Si3 0.717029 0.914744 0.197667
Si Si4 0.164859 0.087322 0.213468
Si Si5 0.560807 0.309028 0.891035
Si Si6 0.174993 0.666280 0.390319
O O1 0.778275 0.408878 0.124327
O O2 0.926143 0.282423 0.124014
O O3 0.047538 0.411405 0.179063
O O4 0.000000 0.388455 0.000000
O O5 0.244935 0.385728 0.692645
O O6 0.195202 0.358509 0.502339
O O7 0.243960 0.247712 0.623304
O O8 0.996920 0.324369 0.625734
O O9 0.787596 0.850516 0.127751
O O10 0.737595 0.891320 0.309678
O O11 0.772204 0.000000 0.175077
O O12 0.043076 0.148997 0.186036
O O13 0.111172 0.000000 0.224868
O O14 0.500000 0.321257 0.000000
#
# Coordination Sequence:
#
# PCOD9215535 Si02
#       6
#     8   8   8   8   8   8
#     4  11  23  41  66  91 120 163 217 266 308 371
#     4  10  22  41  67  96 127 167 213 259 310 374
#     4  12  25  40  62  96 131 165 205 259 324 377
#     4  12  25  40  62  96 131 165 205 259 324 377
#     4  11  25  45  66  89 124 173 219 260 310 373
#     4  10  22  41  67  96 127 167 213 259 310 374
#
# _framework density 21.742463000000001
#
# number of rings (size 3 to 8) (size 9 to 14) (size 15 to 20)
#    0.000    1.000    1.667    5.000    2.333    7.333 
#    0.000    1.667    0.000    2.000    0.000    0.000 
#    0.000    0.000    0.000    0.000    0.000    0.000 
#
# Total GULP energy -134301.276603 kJ/mol
# GULP energy per Si atom -5595.886525 kJ/mol
# Density = 2.169298 g / cm^3
# Si number density = 21.742463 Si / 1000 Ang^3
#
#
#
# Elastic Constant Matrix: (Units=GPa)
#
#
# Indices 1 2 3 4 5 6 
#
# 1 52.9283 -2.2814 -7.3678 0.0000 5.0100 0.0000
# 2 -2.2814 87.2774 33.7415 0.0000 1.2750 0.0000
# 3 -7.3678 33.7415 78.6730 0.0000 5.8904 0.0000
# 4 0.0000 0.0000 0.0000 5.5231 0.0000 -8.4561
# 5 5.0100 1.2750 5.8904 0.0000 35.9228 0.0000
# 6 0.0000 0.0000 0.0000 -8.4561 0.0000 -53.0027
#
#
#
# Elastic Compliance Matrix: (Units=1/GPa)
#
#
# Indices 1 2 3 4 5 6 
#
# 1 0.019474 -0.000288 0.002176 0.000000 -0.003063 0.000000
# 2 -0.000288 0.013748 -0.005963 0.000000 0.000530 0.000000
# 3 0.002176 -0.005963 0.015671 0.000000 -0.002662 0.000000
# 4 0.000000 0.000000 0.000000 0.145514 0.000000 -0.023215
# 5 -0.003063 0.000530 -0.002662 0.000000 0.028682 0.000000
# 6 0.000000 0.000000 0.000000 -0.023215 0.000000 -0.015163
#
#
# Mechanical properties :
#
#
# Convention : Reuss Voigt Hill
#
# Bulk Modulus (GPa) = 24.54291 29.67370 27.10830
# Shear Modulus (GPa) = 21.77171 10.67442 16.22307
#
# Velocity S-wave (km/s) = 3.16784 2.21814 2.73453
# Velocity P-wave (km/s) = 4.96918 4.49862 4.73975
#
# Compressibility (1/GPa) = 0.04074496
#
# Stress axis : x y z
#
# Youngs Moduli (GPa) = 51.35068 72.73973 63.81115
#
# Poissons Ratio (x) = 0.02092 -0.13888
# Poissons Ratio (y) = 0.01477 0.38049
# Poissons Ratio (z) = -0.11176 0.43373
#
# Static dielectric constant tensor:
#      x y z
#    x 1.794420 0.000000 -0.003320 
#    y 0.000000 1.749990 0.000000 
#    z -0.003320 0.000000 1.812630 
# 
# From -- ./inp_files/195920.got.cif
#   From: 2010.05.17/outbox.cif.g08.bks.cpg/sg12_98_cif.got.tgz:195920.got - 2010.06.03 13:09:07.
