data_PCOD9215039
_publ_section_title
;
Structure prediction by ZEFSAII (Michael W. Deem and Ramdas Pophale) SiO2 
 PCOD9215039
Probable space group: C 2/M
;
_chemical_formula_sum "Si O2"
_cell_formula_units_Z 56
_cell_length_a 17.648651
_cell_length_b 26.107967
_cell_length_c 8.911345
_cell_angle_alpha 90.000000
_cell_angle_beta 39.954487
_cell_angle_gamma 90.000000
_cell_volume 2636.840487
_symmetry_space_group_name_H-M "C 2/M"
_symmetry_group_IT_number 12
_symmetry_cell_setting 'monoclinic'
loop_
_space_group_symop_operation_xyz
x,y,z
-x,y,-z
-x,-y,-z
x,-y,z
1/2+x,1/2+y,z
1/2-x,1/2+y,-z
1/2-x,1/2-y,-z
1/2+x,1/2-y,z
loop_
_atom_site_type_symbol
_atom_site_label
_atom_site_fract_x
_atom_site_fract_y
_atom_site_fract_z
Si Si1 0.675926 0.254541 0.958515
Si Si2 0.609215 0.363710 0.941547
Si Si3 0.011238 0.676042 0.304726
Si Si4 0.263895 0.150140 0.205948
Si Si5 0.567147 0.000000 0.629843
Si Si6 0.190572 0.500000 0.113489
Si Si7 0.609153 0.416619 0.248990
Si Si8 0.825440 0.604139 0.428930
O O1 0.669063 0.310799 0.904832
O O2 0.734326 0.211130 0.763831
O O3 0.750000 0.250000 0.000000
O O4 0.545056 0.232706 0.194806
O O5 0.705158 0.396544 0.705762
O O6 0.500000 0.352180 0.000000
O O7 0.571668 0.394643 0.145597
O O8 0.905121 0.648936 0.381097
O O9 0.000000 0.675177 0.500000
O O10 0.128852 0.645580 0.076070
O O11 0.149814 0.129909 0.294958
O O12 0.294720 0.118599 0.306033
O O13 0.605817 0.051080 0.657488
O O14 0.638527 0.000000 0.362094
O O15 0.427593 0.000000 0.807515
O O16 0.276876 0.452235 0.949850
O O17 0.500000 0.442121 0.500000
#
# Coordination Sequence:
#
# PCOD9215039 Si02
#       8
#     8   8   8   8   4   4   8   8
#     4  10  22  43  67 101 142 192 236 285 354 429
#     4  12  26  45  68 103 143 190 245 285 357 437
#     4  10  22  40  69  95 139 186 228 299 354 418
#     4  10  24  42  67 104 143 181 235 288 359 420
#     4  11  26  43  83 105 140 181 246 306 368 427
#     4  11  25  47  75 111 128 189 249 294 371 431
#     4  12  24  47  71 101 148 186 233 298 359 435
#     4  12  24  46  69 106 142 183 235 308 360 422
#
# _framework density 21.237539000000002
#
# number of rings (size 3 to 8) (size 9 to 14) (size 15 to 20)
#    0.857    0.143    2.857    4.071    4.000    1.714 
#    5.143    5.000    0.000    0.000    0.000    0.000 
#    0.000    0.000    0.000    0.000    0.000    0.000 
#
# Total GULP energy -156421.396136 kJ/mol
# GULP energy per Si atom -5586.478433 kJ/mol
# Density = 2.118920 g / cm^3
# Si number density = 21.237539 Si / 1000 Ang^3
#
#
#
# Elastic Constant Matrix: (Units=GPa)
#
#
# Indices 1 2 3 4 5 6 
#
# 1 102.8728 41.3952 23.8361 0.0000 6.1850 0.0000
# 2 41.3952 90.9891 24.3843 0.0000 11.0569 0.0000
# 3 23.8361 24.3843 104.5815 0.0000 4.2744 0.0000
# 4 0.0000 0.0000 0.0000 27.9951 0.0000 -0.4359
# 5 6.1850 11.0569 4.2744 0.0000 33.9657 0.0000
# 6 0.0000 0.0000 0.0000 -0.4359 0.0000 20.1798
#
#
#
# Elastic Compliance Matrix: (Units=1/GPa)
#
#
# Indices 1 2 3 4 5 6 
#
# 1 0.012143 -0.005058 -0.001573 0.000000 -0.000367 0.000000
# 2 -0.005058 0.014256 -0.002030 0.000000 -0.003464 0.000000
# 3 -0.001573 -0.002030 0.010409 0.000000 -0.000363 0.000000
# 4 0.000000 0.000000 0.000000 0.035733 0.000000 0.000772
# 5 -0.000367 -0.003464 -0.000363 0.000000 0.030682 0.000000
# 6 0.000000 0.000000 0.000000 0.000772 0.000000 0.049571
#
#
# Mechanical properties :
#
#
# Convention : Reuss Voigt Hill
#
# Bulk Modulus (GPa) = 51.31952 53.07494 52.19723
# Shear Modulus (GPa) = 28.31097 30.34997 29.33047
#
# Velocity S-wave (km/s) = 3.65507 3.78441 3.72030
# Velocity P-wave (km/s) = 6.48303 6.64387 6.56395
#
# Compressibility (1/GPa) = 0.01948576
#
# Stress axis : x y z
#
# Youngs Moduli (GPa) = 82.35442 70.14388 96.07511
#
# Poissons Ratio (x) = 0.35480 0.15115
# Poissons Ratio (y) = 0.41656 0.19499
# Poissons Ratio (z) = 0.12956 0.14236
#
# Static dielectric constant tensor:
#      x y z
#    x 1.724230 0.000000 -0.020430 
#    y 0.000000 1.799300 0.000000 
#    z -0.020430 0.000000 1.782110 
# 
# From -- ./inp_files/80063.got.cif
#   From: 2010.05.17/outbox.cif.g08.bks.cpg/sg12_41_cif.got.tgz:80063.got - 2010.06.03 13:09:07.
