data_PCOD9215969
_publ_section_title
;
Structure prediction by ZEFSAII (Michael W. Deem and Ramdas Pophale) SiO2 
 PCOD9215969
Probable space group: C 2/M
;
_chemical_formula_sum "Si O2"
_cell_formula_units_Z 64
_cell_length_a 11.313879
_cell_length_b 18.374056
_cell_length_c 28.411964
_cell_angle_alpha 90.000000
_cell_angle_beta 149.346635
_cell_angle_gamma 90.000000
_cell_volume 3011.301113
_symmetry_space_group_name_H-M "C 2/M"
_symmetry_group_IT_number 12
_symmetry_cell_setting 'monoclinic'
loop_
_space_group_symop_operation_xyz
x,y,z
-x,y,-z
-x,-y,-z
x,-y,z
1/2+x,1/2+y,z
1/2-x,1/2+y,-z
1/2-x,1/2-y,-z
1/2+x,1/2-y,z
loop_
_atom_site_type_symbol
_atom_site_label
_atom_site_fract_x
_atom_site_fract_y
_atom_site_fract_z
Si Si1 0.227210 0.585530 0.050273
Si Si2 0.952843 0.290877 0.647658
Si Si3 0.170131 0.078724 0.514147
Si Si4 0.943064 0.131034 0.343175
Si Si5 0.210038 0.583061 0.608083
Si Si6 0.963851 0.912935 0.931353
Si Si7 0.487520 0.815785 0.228332
Si Si8 0.411784 0.662444 0.765861
O O1 0.183852 0.500000 0.029070
O O2 0.327395 0.610479 0.033131
O O3 0.435643 0.600814 0.158039
O O4 0.000000 0.616103 0.000000
O O5 0.826764 0.351064 0.573881
O O6 0.931836 0.209689 0.620831
O O7 0.879686 0.302843 0.676504
O O8 0.224759 0.308138 0.738687
O O9 0.000000 0.078230 0.500000
O O10 0.027210 0.089484 0.417990
O O11 0.292085 0.000000 0.555611
O O12 0.671758 0.147347 0.255982
O O13 0.044543 0.085948 0.334967
O O14 0.158810 0.500000 0.604226
O O15 0.262741 0.633907 0.670553
O O16 0.000000 0.604691 0.500000
O O17 0.733112 0.866940 0.841360
O O18 0.928052 0.000000 0.911289
O O19 0.000000 0.902799 0.000000
O O20 0.435025 0.733059 0.194828
#
# Coordination Sequence:
#
# PCOD9215969 Si02
#       8
#     8   8   8   8   8   8   8   8
#     4  10  22  42  69 100 132 169 214 264 324 394
#     4  11  22  41  62  86 124 169 210 261 317 375
#     4  11  23  37  58  88 121 161 215 267 318 372
#     4  11  23  40  62  89 125 165 211 269 318 376
#     4  11  24  41  62  91 131 175 219 267 322 382
#     4  10  23  45  71  98 131 169 210 264 329 393
#     4  11  23  42  65  94 124 163 214 260 316 385
#     4  11  23  41  65  94 126 170 217 261 319 384
#
# _framework density 21.253271000000002
#
# number of rings (size 3 to 8) (size 9 to 14) (size 15 to 20)
#    0.000    1.250    3.750    1.875    0.000    6.500 
#    0.000    2.500    0.000    0.000    0.000    0.000 
#    0.000    0.000    0.000    0.000    0.000    0.000 
#
# Total GULP energy -178418.904499 kJ/mol
# GULP energy per Si atom -5575.590766 kJ/mol
# Density = 2.120490 g / cm^3
# Si number density = 21.253271 Si / 1000 Ang^3
#
#
#
# Elastic Constant Matrix: (Units=GPa)
#
#
# Indices 1 2 3 4 5 6 
#
# 1 147.5345 22.7780 26.4129 0.0001 8.7676 0.0006
# 2 22.7780 80.7872 20.3561 0.0001 5.7612 -0.0004
# 3 26.4129 20.3561 40.0173 0.0002 -3.2858 -0.0072
# 4 0.0001 0.0001 0.0002 18.7723 0.0002 5.6079
# 5 8.7676 5.7612 -3.2858 0.0002 31.8642 -0.0001
# 6 0.0006 -0.0004 -0.0072 5.6079 -0.0001 66.0802
#
#
#
# Elastic Compliance Matrix: (Units=1/GPa)
#
#
# Indices 1 2 3 4 5 6 
#
# 1 0.007959 -0.000784 -0.005065 0.000000 -0.002570 -0.000001
# 2 -0.000784 0.014637 -0.007188 0.000000 -0.003172 -0.000001
# 3 -0.005065 -0.007188 0.032485 -0.000001 0.006043 0.000004
# 4 0.000000 0.000000 -0.000001 0.054656 -0.000001 -0.004638
# 5 -0.002570 -0.003172 0.006043 -0.000001 0.033287 0.000001
# 6 -0.000001 -0.000001 0.000004 -0.004638 0.000001 0.015527
#
#
# Mechanical properties :
#
#
# Convention : Reuss Voigt Hill
#
# Bulk Modulus (GPa) = 34.47654 45.27032 39.87343
# Shear Modulus (GPa) = 25.73423 36.59614 31.16519
#
# Velocity S-wave (km/s) = 3.48348 4.15409 3.83348
# Velocity P-wave (km/s) = 5.69531 6.65997 6.19644
#
# Compressibility (1/GPa) = 0.02900523
#
# Stress axis : x y z
#
# Youngs Moduli (GPa) = 125.64825 68.32112 30.78339
#
# Poissons Ratio (x) = 0.05359 0.15592
# Poissons Ratio (y) = 0.09856 0.22128
# Poissons Ratio (z) = 0.63642 0.49110
#
# Static dielectric constant tensor:
#      x y z
#    x 1.832390 0.000000 0.012750 
#    y 0.000000 1.768560 0.000000 
#    z 0.012750 0.000000 1.739620 
# 
# From -- ./inp_files/374514.got.cif
#   From: 2010.05.17/outbox.cif.g08.bks.cpg/sg12_188_cif.got.tgz:374514.got - 2010.06.03 13:09:07.
