data_PCOD9215140
_publ_section_title
;
Structure prediction by ZEFSAII (Michael W. Deem and Ramdas Pophale) SiO2 
 PCOD9215140
Probable space group: C 2/M
;
_chemical_formula_sum "Si O2"
_cell_formula_units_Z 32
_cell_length_a 9.885043
_cell_length_b 28.139698
_cell_length_c 9.784616
_cell_angle_alpha 90.000000
_cell_angle_beta 138.027233
_cell_angle_gamma 90.000000
_cell_volume 1820.217609
_symmetry_space_group_name_H-M "C 2/M"
_symmetry_group_IT_number 12
_symmetry_cell_setting 'monoclinic'
loop_
_space_group_symop_operation_xyz
x,y,z
-x,y,-z
-x,-y,-z
x,-y,z
1/2+x,1/2+y,z
1/2-x,1/2+y,-z
1/2-x,1/2-y,-z
1/2+x,1/2-y,z
loop_
_atom_site_type_symbol
_atom_site_label
_atom_site_fract_x
_atom_site_fract_y
_atom_site_fract_z
Si Si1 0.512180 0.252652 0.849310
Si Si2 0.044941 0.000000 0.370254
Si Si3 0.662181 0.817770 0.501629
Si Si4 0.104235 0.429598 0.431819
Si Si5 0.102781 0.500000 0.928093
O O1 0.401098 0.212378 0.677682
O O2 0.385441 0.300499 0.716236
O O3 0.500000 0.244594 0.000000
O O4 0.750000 0.250000 0.000000
O O5 0.181681 0.044682 0.429598
O O6 0.000000 0.000000 0.500000
O O7 0.838815 0.000000 0.133055
O O8 0.500000 0.806090 0.500000
O O9 0.638088 0.873316 0.451911
O O10 0.000000 0.440235 0.500000
O O11 0.967532 0.454069 0.211857
O O12 0.000000 0.500000 0.000000
#
# Coordination Sequence:
#
# PCOD9215140 Si02
#       5
#     8   4   8   8   4
#     4  11  22  40  63  90 123 163 200 248 308 356
#     4  11  21  41  62  89 124 157 193 254 305 353
#     4  10  22  41  62  89 125 157 205 254 295 364
#     4  10  23  41  61  91 121 158 205 248 297 362
#     4  11  21  39  64  85 124 159 195 246 307 355
#
# _framework density 17.580316
#
# number of rings (size 3 to 8) (size 9 to 14) (size 15 to 20)
#    0.000    1.500    5.000    1.500    0.000    5.000 
#    4.500    0.000    0.000    0.000    0.000    0.000 
#    0.000    0.000    0.000    0.000    0.000    0.000 
#
# Total GULP energy -89222.697483 kJ/mol
# GULP energy per Si atom -5576.418593 kJ/mol
# Density = 1.754030 g / cm^3
# Si number density = 17.580316 Si / 1000 Ang^3
#
#
#
# Elastic Constant Matrix: (Units=GPa)
#
#
# Indices 1 2 3 4 5 6 
#
# 1 142.8886 57.9519 82.9322 0.0000 -0.4284 0.0000
# 2 57.9519 124.2493 66.3481 0.0000 -10.5024 0.0000
# 3 82.9322 66.3481 167.9101 0.0000 5.7724 0.0000
# 4 0.0000 0.0000 0.0000 4.5179 0.0000 -4.4114
# 5 -0.4284 -10.5024 5.7724 0.0000 50.1723 0.0000
# 6 0.0000 0.0000 0.0000 -4.4114 0.0000 23.6875
#
#
#
# Elastic Compliance Matrix: (Units=1/GPa)
#
#
# Indices 1 2 3 4 5 6 
#
# 1 0.010476 -0.002691 -0.004111 0.000000 -0.000001 0.000000
# 2 -0.002691 0.011244 -0.003207 0.000000 0.002700 0.000000
# 3 -0.004111 -0.003207 0.009314 0.000000 -0.001778 0.000000
# 4 0.000000 0.000000 0.000000 0.270540 0.000000 0.050384
# 5 -0.000001 0.002700 -0.001778 0.000000 0.020701 0.000000
# 6 0.000000 0.000000 0.000000 0.050384 0.000000 0.051600
#
#
# Mechanical properties :
#
#
# Convention : Reuss Voigt Hill
#
# Bulk Modulus (GPa) = 90.76844 94.39028 92.57936
# Shear Modulus (GPa) = 12.57661 30.86325 21.71993
#
# Velocity S-wave (km/s) = 2.67756 4.19448 3.51874
# Velocity P-wave (km/s) = 7.82955 8.79009 8.32369
#
# Compressibility (1/GPa) = 0.01101705
#
# Stress axis : x y z
#
# Youngs Moduli (GPa) = 95.45910 88.93645 107.36483
#
# Poissons Ratio (x) = 0.23933 0.44134
# Poissons Ratio (y) = 0.25689 0.34428
# Poissons Ratio (z) = 0.39240 0.28519
#
# Static dielectric constant tensor:
#      x y z
#    x 1.582530 0.000000 0.010860 
#    y 0.000000 1.593920 0.000000 
#    z 0.010860 0.000000 1.605480 
# 
# From -- ./inp_files/40710.got.cif
#   From: 2010.05.17/outbox.cif.g08.bks.cpg/sg12_21_cif.got.tgz:40710.got - 2010.06.03 13:09:07.
