data_PCOD9215638
_publ_section_title
;
Structure prediction by ZEFSAII (Michael W. Deem and Ramdas Pophale) SiO2 
 PCOD9215638
Probable space group: C 2/M
;
_chemical_formula_sum "Si O2"
_cell_formula_units_Z 48
_cell_length_a 16.541164
_cell_length_b 22.860127
_cell_length_c 6.015769
_cell_angle_alpha 90.000000
_cell_angle_beta 91.287323
_cell_angle_gamma 90.000000
_cell_volume 2274.187300
_symmetry_space_group_name_H-M "C 2/M"
_symmetry_group_IT_number 12
_symmetry_cell_setting 'monoclinic'
loop_
_space_group_symop_operation_xyz
x,y,z
-x,y,-z
-x,-y,-z
x,-y,z
1/2+x,1/2+y,z
1/2-x,1/2+y,-z
1/2-x,1/2-y,-z
1/2+x,1/2-y,z
loop_
_atom_site_type_symbol
_atom_site_label
_atom_site_fract_x
_atom_site_fract_y
_atom_site_fract_z
Si Si1 0.152611 0.500000 0.362842
Si Si2 0.641412 0.602782 0.236457
Si Si3 0.100784 0.184959 0.846992
Si Si4 0.420441 0.127660 0.643514
Si Si5 0.742834 0.000000 0.876327
Si Si6 0.747970 0.682874 0.564661
Si Si7 0.000000 0.292568 0.000000
Si Si8 0.500000 0.606502 0.500000
O O1 0.100101 0.559063 0.346284
O O2 0.196717 0.500000 0.620234
O O3 0.199942 0.500000 0.121413
O O4 0.699562 0.556564 0.124162
O O5 0.696983 0.641903 0.398417
O O6 0.568478 0.572666 0.367843
O O7 0.597799 0.648429 0.071986
O O8 0.195513 0.183855 0.787627
O O9 0.058766 0.248054 0.869339
O O10 0.051826 0.148816 0.661340
O O11 0.500000 0.135558 0.500000
O O12 0.337612 0.157749 0.563328
O O13 0.442609 0.163479 0.864406
O O14 0.750000 0.750000 0.500000
#
# Coordination Sequence:
#
# PCOD9215638 Si02
#       8
#     4   8   8   8   4   8   4   4
#     4  12  29  55  76 106 154 196 260 316 377 435
#     4  11  23  44  73 102 146 190 248 300 376 444
#     4  11  23  43  69 105 150 192 234 305 378 451
#     4  12  28  47  73 107 145 195 254 310 376 443
#     4  12  28  49  83 111 145 200 258 316 367 455
#     4  11  24  41  70 103 143 189 242 306 376 445
#     4  12  26  41  72 111 146 194 246 306 370 460
#     4  10  22  41  70 106 150 193 232 300 384 448
#
# _framework density 21.106441
#
# number of rings (size 3 to 8) (size 9 to 14) (size 15 to 20)
#    0.000    0.667    3.333    3.250    8.167    6.000 
#    0.000    1.667    0.000    0.000    0.000    0.000 
#    0.000    0.000    0.000    0.000    0.000    0.000 
#
# Total GULP energy -133805.030190 kJ/mol
# GULP energy per Si atom -5575.209591 kJ/mol
# Density = 2.105840 g / cm^3
# Si number density = 21.106441 Si / 1000 Ang^3
#
#
#
# Elastic Constant Matrix: (Units=GPa)
#
#
# Indices 1 2 3 4 5 6 
#
# 1 155.0504 41.4678 51.6783 0.0000 -8.5611 0.0000
# 2 41.4678 102.2450 -7.0988 0.0000 7.8303 0.0000
# 3 51.6783 -7.0988 51.1174 0.0000 2.6581 0.0000
# 4 0.0000 0.0000 0.0000 12.2467 0.0000 12.7130
# 5 -8.5611 7.8303 2.6581 0.0000 44.4858 0.0000
# 6 0.0000 0.0000 0.0000 12.7130 0.0000 4.7297
#
#
#
# Elastic Compliance Matrix: (Units=1/GPa)
#
#
# Indices 1 2 3 4 5 6 
#
# 1 0.013485 -0.006858 -0.014829 0.000000 0.004688 0.000000
# 2 -0.006858 0.013513 0.009030 0.000000 -0.004238 0.000000
# 3 -0.014829 0.009030 0.036152 0.000000 -0.006603 0.000000
# 4 0.000000 0.000000 0.000000 -0.045611 0.000000 0.122598
# 5 0.004688 -0.004238 -0.006603 0.000000 0.024522 0.000000
# 6 0.000000 0.000000 0.000000 0.122598 0.000000 -0.118101
#
#
# Mechanical properties :
#
#
# Convention : Reuss Voigt Hill
#
# Bulk Modulus (GPa) = 26.42942 53.38971 39.90957
# Shear Modulus (GPa) = -131.18468 27.11682 -52.03393
#
# Velocity S-wave (km/s) = -7.89232 3.58825 -4.97058
# Velocity P-wave (km/s) = 8.39658 6.52056 3.74064
#
# Compressibility (1/GPa) = 0.03783662
#
# Stress axis : x y z
#
# Youngs Moduli (GPa) = 74.15621 74.00133 27.66087
#
# Poissons Ratio (x) = 0.50749 0.41019
# Poissons Ratio (y) = 0.50855 -0.24978
# Poissons Ratio (z) = 1.09968 -0.66824
#
# Static dielectric constant tensor:
#      x y z
#    x 1.868290 0.000000 -0.086250 
#    y 0.000000 1.706690 0.000000 
#    z -0.086250 0.000000 1.863330 
# 
# From -- ./inp_files/12442.got.cif
#   From: 2010.05.17/outbox.cif.g08.bks.cpg/sg12_7_cif.got.tgz:12442.got - 2010.06.03 13:09:07.
