data_PCOD9215597
_publ_section_title
;
Structure prediction by ZEFSAII (Michael W. Deem and Ramdas Pophale) SiO2 
 PCOD9215597
Probable space group: C 2/M
;
_chemical_formula_sum "Si O2"
_cell_formula_units_Z 40
_cell_length_a 8.056088
_cell_length_b 17.563957
_cell_length_c 12.073642
_cell_angle_alpha 90.000000
_cell_angle_beta 92.293477
_cell_angle_gamma 90.000000
_cell_volume 1707.013019
_symmetry_space_group_name_H-M "C 2/M"
_symmetry_group_IT_number 12
_symmetry_cell_setting 'monoclinic'
loop_
_space_group_symop_operation_xyz
x,y,z
-x,y,-z
-x,-y,-z
x,-y,z
1/2+x,1/2+y,z
1/2-x,1/2+y,-z
1/2-x,1/2-y,-z
1/2+x,1/2-y,z
loop_
_atom_site_type_symbol
_atom_site_label
_atom_site_fract_x
_atom_site_fract_y
_atom_site_fract_z
Si Si1 0.119553 0.197617 0.609476
Si Si2 0.623169 0.142038 0.739274
Si Si3 0.694066 0.080044 0.520828
Si Si4 0.240875 0.090258 0.787356
Si Si5 0.302751 0.162902 0.014672
O O1 0.129750 0.274944 0.679931
O O2 0.265232 0.156220 0.544540
O O3 0.108046 0.134077 0.706590
O O4 0.000000 0.205923 0.500000
O O5 0.713735 0.090030 0.651812
O O6 0.429903 0.118113 0.757128
O O7 0.717931 0.140675 0.858222
O O8 0.500000 0.072748 0.500000
O O9 0.774740 0.000000 0.485268
O O10 0.235136 0.000000 0.775165
O O11 0.219653 0.114498 0.914861
O O12 0.500000 0.157502 0.000000
O O13 0.250000 0.250000 0.000000
#
# Coordination Sequence:
#
# PCOD9215597 Si02
#       5
#     8   8   8   8   8
#     4  12  26  40  67  96 138 178 221 268 338 395
#     4  11  23  40  69  97 129 171 223 274 326 392
#     4  11  23  40  62  92 134 173 216 271 326 387
#     4  11  24  44  69 100 135 174 223 277 327 392
#     4  10  22  41  68  97 131 170 218 273 332 390
#
# _framework density 23.432744
#
# number of rings (size 3 to 8) (size 9 to 14) (size 15 to 20)
#    0.000    1.000    4.000    2.400    2.800    6.000 
#    0.000    0.000    0.000    0.600    0.000    0.000 
#    0.000    0.000    0.000    0.000    0.000    0.000 
#
# Total GULP energy -111552.497917 kJ/mol
# GULP energy per Si atom -5577.624896 kJ/mol
# Density = 2.337941 g / cm^3
# Si number density = 23.432744 Si / 1000 Ang^3
#
#
#
# Elastic Constant Matrix: (Units=GPa)
#
#
# Indices 1 2 3 4 5 6 
#
# 1 18.9430 24.4889 17.3484 0.0000 -1.8617 0.0000
# 2 24.4889 190.1387 70.4542 0.0000 -0.7951 0.0000
# 3 17.3484 70.4542 255.4711 0.0000 11.4423 0.0000
# 4 0.0000 0.0000 0.0000 27.2843 0.0000 4.4988
# 5 -1.8617 -0.7951 11.4423 0.0000 19.0480 0.0000
# 6 0.0000 0.0000 0.0000 4.4988 0.0000 24.9045
#
#
#
# Elastic Compliance Matrix: (Units=1/GPa)
#
#
# Indices 1 2 3 4 5 6 
#
# 1 0.065650 -0.007398 -0.002766 0.000000 0.007769 0.000000
# 2 -0.007398 0.006721 -0.001368 0.000000 0.000379 0.000000
# 3 -0.002766 -0.001368 0.004618 0.000000 -0.003102 0.000000
# 4 0.000000 0.000000 0.000000 0.037776 0.000000 -0.006824
# 5 0.007769 0.000379 -0.003102 0.000000 0.055137 0.000000
# 6 0.000000 0.000000 0.000000 -0.006824 0.000000 0.041386
#
#
# Mechanical properties :
#
#
# Convention : Reuss Voigt Hill
#
# Bulk Modulus (GPa) = 18.54411 76.57065 47.55738
# Shear Modulus (GPa) = 19.81544 37.73146 28.77345
#
# Velocity S-wave (km/s) = 2.91113 4.01709 3.50797
# Velocity P-wave (km/s) = 4.38526 7.36639 6.06194
#
# Compressibility (1/GPa) = 0.05392547
#
# Stress axis : x y z
#
# Youngs Moduli (GPa) = 15.23219 148.79507 216.52697
#
# Poissons Ratio (x) = 1.10080 0.59889
# Poissons Ratio (y) = 0.11269 0.29622
# Poissons Ratio (z) = 0.04213 0.20356
#
# Static dielectric constant tensor:
#      x y z
#    x 2.081950 0.000000 0.066670 
#    y 0.000000 1.881720 0.000000 
#    z 0.066670 0.000000 1.975380 
# 
# From -- ./inp_files/119132.got.cif
#   From: 2010.05.17/outbox.cif.g08.bks.cpg/sg12_60_cif.got.tgz:119132.got - 2010.06.03 13:09:07.
