data_PCOD9215130
_publ_section_title
;
Structure prediction by ZEFSAII (Michael W. Deem and Ramdas Pophale) SiO2 
 PCOD9215130
Probable space group: C 2/M
;
_chemical_formula_sum "Si O2"
_cell_formula_units_Z 56
_cell_length_a 9.864446
_cell_length_b 18.470830
_cell_length_c 24.906084
_cell_angle_alpha 90.000000
_cell_angle_beta 141.582848
_cell_angle_gamma 90.000000
_cell_volume 2819.833582
_symmetry_space_group_name_H-M "C 2/M"
_symmetry_group_IT_number 12
_symmetry_cell_setting 'monoclinic'
loop_
_space_group_symop_operation_xyz
x,y,z
-x,y,-z
-x,-y,-z
x,-y,z
1/2+x,1/2+y,z
1/2-x,1/2+y,-z
1/2-x,1/2-y,-z
1/2+x,1/2-y,z
loop_
_atom_site_type_symbol
_atom_site_label
_atom_site_fract_x
_atom_site_fract_y
_atom_site_fract_z
Si Si1 0.213074 0.336528 0.724384
Si Si2 0.943333 0.412701 0.732398
Si Si3 0.589352 0.188404 0.469026
Si Si4 0.226385 0.834195 0.085888
Si Si5 0.607003 0.217654 0.138770
Si Si6 0.072671 0.915396 0.773002
Si Si7 0.959156 0.915740 0.614613
O O1 0.040657 0.377208 0.708966
O O2 0.297112 0.265096 0.781564
O O3 0.412144 0.389281 0.770394
O O4 0.098378 0.317836 0.633000
O O5 0.947495 0.500000 0.731607
O O6 0.103364 0.384106 0.828948
O O7 0.694553 0.387899 0.666776
O O8 0.500000 0.204904 0.500000
O O9 0.750000 0.250000 0.500000
O O10 0.745730 0.119128 0.523191
O O11 0.360666 0.802059 0.077766
O O12 0.152400 0.768739 0.102034
O O13 0.000000 0.872174 0.000000
O O14 0.732552 0.142275 0.169017
O O15 0.958074 0.907912 0.678923
O O16 0.134684 0.000000 0.797831
O O17 0.957256 0.000000 0.601499
#
# Coordination Sequence:
#
# PCOD9215130 Si02
#       7
#     8   8   8   8   8   8   8
#     4  11  24  40  65  89 127 169 211 264 312 375
#     4  10  23  42  65  91 123 163 208 258 319 381
#     4  12  27  39  61  91 125 162 215 265 311 359
#     4  11  23  39  66  95 125 161 207 262 316 384
#     4  11  22  40  64  93 128 165 208 256 322 381
#     4  11  21  39  65  91 122 170 217 256 308 378
#     4  10  22  41  62  87 123 167 209 252 311 375
#
# _framework density 19.859328999999999
#
# number of rings (size 3 to 8) (size 9 to 14) (size 15 to 20)
#    0.000    1.143    4.286    1.714    2.000    1.714 
#    0.000    1.429    0.000    0.429    0.000    0.000 
#    0.000    0.000    0.000    0.000    0.000    0.000 
#
# Total GULP energy -156431.858479 kJ/mol
# GULP energy per Si atom -5586.852089 kJ/mol
# Density = 1.981413 g / cm^3
# Si number density = 19.859329 Si / 1000 Ang^3
#
#
#
# Elastic Constant Matrix: (Units=GPa)
#
#
# Indices 1 2 3 4 5 6 
#
# 1 117.4670 28.4744 6.4613 -0.0001 17.9023 0.0000
# 2 28.4744 71.4023 5.2872 -0.0001 7.4707 -0.0001
# 3 6.4613 5.2872 40.5876 -0.0002 7.8898 -0.0001
# 4 -0.0001 -0.0001 -0.0002 25.1688 -0.0001 5.1865
# 5 17.9023 7.4707 7.8898 -0.0001 25.1435 0.0000
# 6 0.0000 -0.0001 -0.0001 5.1865 0.0000 24.7689
#
#
#
# Elastic Compliance Matrix: (Units=1/GPa)
#
#
# Indices 1 2 3 4 5 6 
#
# 1 0.010312 -0.003453 0.000038 0.000000 -0.006329 0.000000
# 2 -0.003453 0.015658 -0.001133 0.000000 -0.001838 0.000000
# 3 0.000038 -0.001133 0.026325 0.000000 -0.007951 0.000000
# 4 0.000000 0.000000 0.000000 0.041524 0.000000 -0.008695
# 5 -0.006329 -0.001838 -0.007951 0.000000 0.047319 0.000000
# 6 0.000000 0.000000 0.000000 -0.008695 0.000000 0.042194
#
#
# Mechanical properties :
#
#
# Convention : Reuss Voigt Hill
#
# Bulk Modulus (GPa) = 23.14759 34.43364 28.79062
# Shear Modulus (GPa) = 24.17470 27.63183 25.90327
#
# Velocity S-wave (km/s) = 3.49276 3.73416 3.61548
# Velocity P-wave (km/s) = 5.28649 5.99737 5.65311
#
# Compressibility (1/GPa) = 0.04320104
#
# Stress axis : x y z
#
# Youngs Moduli (GPa) = 96.97001 63.86321 37.98649
#
# Poissons Ratio (x) = 0.22053 -0.00146
# Poissons Ratio (y) = 0.33486 0.04303
# Poissons Ratio (z) = -0.00372 0.07234
#
# Static dielectric constant tensor:
#      x y z
#    x 1.704180 0.000000 0.013370 
#    y 0.000000 1.698460 0.000000 
#    z 0.013370 0.000000 1.749050 
# 
# From -- ./inp_files/197526.got.cif
#   From: 2010.05.17/outbox.cif.g08.bks.cpg/sg12_99_cif.got.tgz:197526.got - 2010.06.03 13:09:07.
