data_PCOD9215900
_publ_section_title
;
Structure prediction by ZEFSAII (Michael W. Deem and Ramdas Pophale) SiO2 
 PCOD9215900
Probable space group: C 2/M
;
_chemical_formula_sum "Si O2"
_cell_formula_units_Z 40
_cell_length_a 9.407094
_cell_length_b 17.863149
_cell_length_c 10.577430
_cell_angle_alpha 90.000000
_cell_angle_beta 81.224881
_cell_angle_gamma 90.000000
_cell_volume 1756.629375
_symmetry_space_group_name_H-M "C 2/M"
_symmetry_group_IT_number 12
_symmetry_cell_setting 'monoclinic'
loop_
_space_group_symop_operation_xyz
x,y,z
-x,y,-z
-x,-y,-z
x,-y,z
1/2+x,1/2+y,z
1/2-x,1/2+y,-z
1/2-x,1/2-y,-z
1/2+x,1/2-y,z
loop_
_atom_site_type_symbol
_atom_site_label
_atom_site_fract_x
_atom_site_fract_y
_atom_site_fract_z
Si Si1 0.605852 0.586455 0.633755
Si Si2 0.698803 0.366393 0.357681
Si Si3 0.777200 0.167250 0.147859
Si Si4 0.537042 0.796191 0.791561
Si Si5 0.182621 0.415874 0.913520
O O1 0.556361 0.500000 0.638836
O O2 0.473423 0.645609 0.636987
O O3 0.703303 0.597572 0.495903
O O4 0.685835 0.605421 0.752274
O O5 0.835544 0.309643 0.329138
O O6 0.723715 0.415363 0.227917
O O7 0.630553 0.208775 0.213254
O O8 0.902692 0.228282 0.134795
O O9 0.757323 0.132589 0.012346
O O10 0.546232 0.872546 0.873219
O O11 0.159731 0.500000 0.959554
#
# Coordination Sequence:
#
# PCOD9215900 Si02
#       5
#     8   8   8   8   8
#     4  11  22  41  68 100 128 167 213 263 315 380
#     4   9  22  43  67  91 134 165 208 257 324 380
#     4  12  24  43  67  94 131 168 219 265 313 380
#     4  10  25  43  66  93 129 174 212 261 324 375
#     4  10  22  42  67  97 129 167 208 263 324 381
#
# _framework density 22.770879000000001
#
# number of rings (size 3 to 8) (size 9 to 14) (size 15 to 20)
#    1.200    0.400    0.000    5.400    0.000    4.800 
#    0.000    3.000    0.000    0.000    0.000    0.000 
#    0.000    0.000    0.000    0.000    0.000    0.000 
#
# Total GULP energy -111350.074951 kJ/mol
# GULP energy per Si atom -5567.503748 kJ/mol
# Density = 2.271905 g / cm^3
# Si number density = 22.770879 Si / 1000 Ang^3
#
#
#
# Elastic Constant Matrix: (Units=GPa)
#
#
# Indices 1 2 3 4 5 6 
#
# 1 89.3220 10.7405 16.7526 0.0000 -13.0635 0.0000
# 2 10.7405 65.7799 1.5649 0.0000 -6.1243 0.0000
# 3 16.7526 1.5649 82.2925 0.0000 -13.1885 0.0000
# 4 0.0000 0.0000 0.0000 21.6962 0.0000 -2.1169
# 5 -13.0635 -6.1243 -13.1885 0.0000 36.8720 0.0000
# 6 0.0000 0.0000 0.0000 -2.1169 0.0000 26.2634
#
#
#
# Elastic Compliance Matrix: (Units=1/GPa)
#
#
# Indices 1 2 3 4 5 6 
#
# 1 0.012247 -0.001639 -0.001920 0.000000 0.003380 0.000000
# 2 -0.001639 0.015662 0.000382 0.000000 0.002157 0.000000
# 3 -0.001920 0.000382 0.013193 0.000000 0.004102 0.000000
# 4 0.000000 0.000000 0.000000 0.046456 0.000000 0.003745
# 5 0.003380 0.002157 0.004102 0.000000 0.030144 0.000000
# 6 0.000000 0.000000 0.000000 0.003745 0.000000 0.038378
#
#
# Mechanical properties :
#
#
# Convention : Reuss Voigt Hill
#
# Bulk Modulus (GPa) = 28.78080 32.83448 30.80764
# Shear Modulus (GPa) = 28.73279 30.85542 29.79410
#
# Velocity S-wave (km/s) = 3.55607 3.68508 3.62115
# Velocity P-wave (km/s) = 5.43393 5.70589 5.57157
#
# Compressibility (1/GPa) = 0.03474538
#
# Stress axis : x y z
#
# Youngs Moduli (GPa) = 81.65237 63.85031 75.79875
#
# Poissons Ratio (x) = 0.10467 0.14556
# Poissons Ratio (y) = 0.13385 -0.02892
# Poissons Ratio (z) = 0.15680 -0.02436
#
# Static dielectric constant tensor:
#      x y z
#    x 1.945920 0.000000 -0.041330 
#    y 0.000000 1.861960 0.000000 
#    z -0.041330 0.000000 1.856190 
# 
# From -- ./inp_files/119152.got.cif
#   From: 2010.05.17/outbox.cif.g08.bks.cpg/sg12_60_cif.got.tgz:119152.got - 2010.06.03 13:09:07.
