data_PCOD9215468
_publ_section_title
;
Structure prediction by ZEFSAII (Michael W. Deem and Ramdas Pophale) SiO2 
 PCOD9215468
Probable space group: C 2/M
;
_chemical_formula_sum "Si O2"
_cell_formula_units_Z 40
_cell_length_a 24.493345
_cell_length_b 8.749667
_cell_length_c 8.441234
_cell_angle_alpha 90.000000
_cell_angle_beta 83.543443
_cell_angle_gamma 90.000000
_cell_volume 1797.555204
_symmetry_space_group_name_H-M "C 2/M"
_symmetry_group_IT_number 12
_symmetry_cell_setting 'monoclinic'
loop_
_space_group_symop_operation_xyz
x,y,z
-x,y,-z
-x,-y,-z
x,-y,z
1/2+x,1/2+y,z
1/2-x,1/2+y,-z
1/2-x,1/2-y,-z
1/2+x,1/2-y,z
loop_
_atom_site_type_symbol
_atom_site_label
_atom_site_fract_x
_atom_site_fract_y
_atom_site_fract_z
Si Si1 0.062721 0.823570 0.423047
Si Si2 0.796018 0.826556 0.878682
Si Si3 0.579999 0.325387 0.058875
Si Si4 0.267397 0.322008 0.332819
Si Si5 0.387029 0.182411 0.272565
O O1 0.062398 0.762903 0.239826
O O2 0.094541 0.743777 0.559254
O O3 0.000000 0.826629 0.500000
O O4 0.083875 0.000000 0.403965
O O5 0.854545 0.831682 0.936981
O O6 0.790021 0.711015 0.738211
O O7 0.780645 0.000000 0.838909
O O8 0.750000 0.750000 0.000000
O O9 0.559123 0.500000 0.052091
O O10 0.575388 0.243555 0.888523
O O11 0.279691 0.500000 0.327013
O O12 0.250000 0.250000 0.500000
O O13 0.324024 0.237932 0.265418
O O14 0.389064 0.000000 0.270903
#
# Coordination Sequence:
#
# PCOD9215468 Si02
#       5
#     8   8   8   8   8
#     4  10  23  45  71  96 125 165 217 275 332 390
#     4  11  21  35  58  89 126 167 209 255 307 370
#     4  10  22  41  66  94 128 171 216 265 320 384
#     4  12  24  39  60  89 128 170 215 264 315 382
#     4  12  25  41  65  95 130 170 215 267 326 392
#
# _framework density 22.252447
#
# number of rings (size 3 to 8) (size 9 to 14) (size 15 to 20)
#    0.000    1.000    2.000    5.400    0.000    4.400 
#    0.000    4.000    0.000    0.000    0.000    0.000 
#    0.000    0.000    0.000    0.000    0.000    0.000 
#
# Total GULP energy -111392.739060 kJ/mol
# GULP energy per Si atom -5569.636953 kJ/mol
# Density = 2.220180 g / cm^3
# Si number density = 22.252447 Si / 1000 Ang^3
#
#
#
# Elastic Constant Matrix: (Units=GPa)
#
#
# Indices 1 2 3 4 5 6 
#
# 1 60.3099 13.3214 21.0106 0.0000 9.8258 0.0000
# 2 13.3214 120.2557 46.4491 0.0000 9.9430 0.0000
# 3 21.0106 46.4491 165.2455 0.0000 -7.0631 0.0000
# 4 0.0000 0.0000 0.0000 30.2656 0.0000 1.8607
# 5 9.8258 9.9430 -7.0631 0.0000 35.1538 0.0000
# 6 0.0000 0.0000 0.0000 1.8607 0.0000 4.4259
#
#
#
# Elastic Compliance Matrix: (Units=1/GPa)
#
#
# Indices 1 2 3 4 5 6 
#
# 1 0.018449 -0.000670 -0.002390 0.000000 -0.005447 0.000000
# 2 -0.000670 0.009722 -0.002781 0.000000 -0.003121 0.000000
# 3 -0.002390 -0.002781 0.007262 0.000000 0.002914 0.000000
# 4 0.000000 0.000000 0.000000 0.033917 0.000000 -0.014259
# 5 -0.005447 -0.003121 0.002914 0.000000 0.031437 0.000000
# 6 0.000000 0.000000 0.000000 -0.014259 0.000000 0.231937
#
#
# Mechanical properties :
#
#
# Convention : Reuss Voigt Hill
#
# Bulk Modulus (GPa) = 42.10452 56.37482 49.23967
# Shear Modulus (GPa) = 14.19147 31.63774 22.91460
#
# Velocity S-wave (km/s) = 2.52811 3.77472 3.21246
# Velocity P-wave (km/s) = 5.24253 6.66237 5.99464
#
# Compressibility (1/GPa) = 0.02375042
#
# Stress axis : x y z
#
# Youngs Moduli (GPa) = 54.20272 102.85853 137.70735
#
# Poissons Ratio (x) = 0.06892 0.32916
# Poissons Ratio (y) = 0.03632 0.38297
# Poissons Ratio (z) = 0.12956 0.28605
#
# Static dielectric constant tensor:
#      x y z
#    x 1.562530 0.000000 -0.226750 
#    y 0.000000 1.751700 0.000000 
#    z -0.226750 0.000000 1.665480 
# 
# From -- ./inp_files/92833.got.cif
#   From: 2010.05.17/outbox.cif.g08.bks.cpg/sg12_47_cif.got.tgz:92833.got - 2010.06.03 13:09:07.
