data_PCOD9215509
_publ_section_title
;
Structure prediction by ZEFSAII (Michael W. Deem and Ramdas Pophale) SiO2 
 PCOD9215509
Probable space group: C 2/M
;
_chemical_formula_sum "Si O2"
_cell_formula_units_Z 52
_cell_length_a 13.928650
_cell_length_b 16.554119
_cell_length_c 19.859090
_cell_angle_alpha 90.000000
_cell_angle_beta 32.205682
_cell_angle_gamma 90.000000
_cell_volume 2440.446057
_symmetry_space_group_name_H-M "C 2/M"
_symmetry_group_IT_number 12
_symmetry_cell_setting 'monoclinic'
loop_
_space_group_symop_operation_xyz
x,y,z
-x,y,-z
-x,-y,-z
x,-y,z
1/2+x,1/2+y,z
1/2-x,1/2+y,-z
1/2-x,1/2-y,-z
1/2+x,1/2-y,z
loop_
_atom_site_type_symbol
_atom_site_label
_atom_site_fract_x
_atom_site_fract_y
_atom_site_fract_z
Si Si1 0.234996 0.744059 0.089771
Si Si2 0.500000 0.869293 0.000000
Si Si3 0.142171 0.905225 0.710274
Si Si4 0.318184 0.413712 0.005363
Si Si5 0.595313 0.913851 0.799363
Si Si6 0.430234 0.712632 0.360447
Si Si7 0.334364 0.742555 0.648744
O O1 0.345730 0.814644 0.058388
O O2 0.033364 0.744063 0.237423
O O3 0.250000 0.750000 0.000000
O O4 0.333896 0.660265 0.046127
O O5 0.416401 0.914843 0.112636
O O6 0.118736 0.872470 0.647279
O O7 0.253678 0.833033 0.682685
O O8 0.950642 0.905652 0.862856
O O9 0.206589 0.000000 0.674052
O O10 0.355793 0.500000 0.014680
O O11 0.110279 0.412006 0.104842
O O12 0.699572 0.832603 0.718464
O O13 0.675827 0.000000 0.728240
O O14 0.250000 0.750000 0.500000
O O15 0.579294 0.724242 0.329780
O O16 0.500000 0.735294 0.500000
#
# Coordination Sequence:
#
# PCOD9215509 Si02
#       7
#     8   4   8   8   8   8   8
#     4  12  22  40  69  95 136 181 228 282 364 411
#     4  12  21  36  65  98 130 170 227 278 346 432
#     4  11  24  47  76 106 142 192 242 293 361 444
#     4  10  22  41  67 101 138 175 228 292 356 421
#     4  11  23  40  66 102 137 176 227 290 357 422
#     4  12  25  44  69 102 140 188 244 297 353 425
#     4  12  26  46  71 100 145 190 242 296 357 428
#
# _framework density 21.307580000000002
#
# number of rings (size 3 to 8) (size 9 to 14) (size 15 to 20)
#    0.000    0.615    6.154    2.077    0.000    1.231 
#    0.000    1.923    0.000    0.923    0.000    0.000 
#    0.000    0.000    0.000    0.000    0.000    0.000 
#
# Total GULP energy -144914.844544 kJ/mol
# GULP energy per Si atom -5573.647867 kJ/mol
# Density = 2.125908 g / cm^3
# Si number density = 21.307580 Si / 1000 Ang^3
#
#
#
# Elastic Constant Matrix: (Units=GPa)
#
#
# Indices 1 2 3 4 5 6 
#
# 1 102.4129 41.8047 16.6625 -0.0005 -16.5872 0.0001
# 2 41.8047 188.1805 60.7102 -0.0041 -11.3441 0.0017
# 3 16.6625 60.7102 139.0367 -0.0101 -1.6519 0.0046
# 4 -0.0005 -0.0041 -0.0101 19.7864 0.0034 9.0633
# 5 -16.5872 -11.3441 -1.6519 0.0034 20.9407 -0.0007
# 6 0.0001 0.0017 0.0046 9.0633 -0.0007 17.8688
#
#
#
# Elastic Compliance Matrix: (Units=1/GPa)
#
#
# Indices 1 2 3 4 5 6 
#
# 1 0.012022 -0.002016 -0.000461 -0.000003 0.008394 0.000002
# 2 -0.002016 0.006737 -0.002678 -0.000001 0.001841 0.000000
# 3 -0.000461 -0.002678 0.008403 0.000006 -0.001153 -0.000005
# 4 -0.000003 -0.000001 0.000006 0.065835 -0.000014 -0.033393
# 5 0.008394 0.001841 -0.001153 -0.000014 0.055310 0.000009
# 6 0.000002 0.000000 -0.000005 -0.033393 0.000009 0.072901
#
#
# Mechanical properties :
#
#
# Convention : Reuss Voigt Hill
#
# Bulk Modulus (GPa) = 59.33935 74.22055 66.77995
# Shear Modulus (GPa) = 21.08504 32.41602 26.75053
#
# Velocity S-wave (km/s) = 3.14913 3.90466 3.54707
# Velocity P-wave (km/s) = 6.41343 7.43217 6.94151
#
# Compressibility (1/GPa) = 0.01685222
#
# Stress axis : x y z
#
# Youngs Moduli (GPa) = 83.18203 148.43513 119.00096
#
# Poissons Ratio (x) = 0.29925 0.05482
# Poissons Ratio (y) = 0.16770 0.31871
# Poissons Ratio (z) = 0.03832 0.39754
#
# Static dielectric constant tensor:
#      x y z
#    x 1.922010 0.000000 -0.011560 
#    y 0.000000 1.906140 0.000000 
#    z -0.011560 0.000000 1.763540 
# 
# From -- ./inp_files/311484.got.cif
#   From: 2010.05.17/outbox.cif.g08.bks.cpg/sg12_156_cif.got.tgz:311484.got - 2010.06.03 13:09:07.
