data_PCOD9215914
_publ_section_title
;
Structure prediction by ZEFSAII (Michael W. Deem and Ramdas Pophale) SiO2 
 PCOD9215914
Probable space group: C 2/M
;
_chemical_formula_sum "Si O2"
_cell_formula_units_Z 48
_cell_length_a 22.928200
_cell_length_b 13.595977
_cell_length_c 10.855691
_cell_angle_alpha 90.000000
_cell_angle_beta 147.870337
_cell_angle_gamma 90.000000
_cell_volume 1799.767756
_symmetry_space_group_name_H-M "C 2/M"
_symmetry_group_IT_number 12
_symmetry_cell_setting 'monoclinic'
loop_
_space_group_symop_operation_xyz
x,y,z
-x,y,-z
-x,-y,-z
x,-y,z
1/2+x,1/2+y,z
1/2-x,1/2+y,-z
1/2-x,1/2-y,-z
1/2+x,1/2-y,z
loop_
_atom_site_type_symbol
_atom_site_label
_atom_site_fract_x
_atom_site_fract_y
_atom_site_fract_z
Si Si1 0.438841 0.109649 0.224384
Si Si2 0.767209 0.111342 0.290777
Si Si3 0.119176 0.802984 0.733568
Si Si4 0.430562 0.310598 0.762625
Si Si5 0.135866 0.885459 0.010426
Si Si6 0.347306 0.111793 0.549408
O O1 0.402856 0.193987 0.253708
O O2 0.563737 0.113992 0.402694
O O3 0.417761 0.000000 0.236932
O O4 0.362167 0.118512 0.964490
O O5 0.818180 0.184842 0.281608
O O6 0.823386 0.133991 0.521302
O O7 0.799215 0.000000 0.315165
O O8 0.000000 0.849684 0.500000
O O9 0.177071 0.861931 0.947243
O O10 0.390472 0.199578 0.712150
O O11 0.500000 0.352277 0.000000
O O12 0.525316 0.321747 0.828786
O O13 0.228763 0.864745 0.278426
O O14 0.107235 0.000000 0.969610
O O15 0.347281 0.000000 0.599180
#
# Coordination Sequence:
#
# PCOD9215914 Si02
#       6
#     8   8   8   8   8   8
#     4  10  22  42  68 101 139 180 226 279 338 407
#     4  11  24  42  67 101 138 179 229 280 339 404
#     4  12  22  39  67  98 139 179 216 279 336 413
#     4  12  26  45  73  99 136 177 230 289 341 395
#     4  11  24  44  71 104 137 177 227 277 340 410
#     4  10  23  47  72 100 139 182 228 279 338 406
#
# _framework density 26.670107999999999
#
# number of rings (size 3 to 8) (size 9 to 14) (size 15 to 20)
#    0.000    1.000    3.333    2.500    0.000    4.667 
#    0.000    5.833    0.000    0.000    0.000    0.000 
#    0.000    0.000    0.000    0.000    0.000    0.000 
#
# Total GULP energy -134484.472318 kJ/mol
# GULP energy per Si atom -5603.519680 kJ/mol
# Density = 2.660941 g / cm^3
# Si number density = 26.670108 Si / 1000 Ang^3
#
#
#
# Elastic Constant Matrix: (Units=GPa)
#
#
# Indices 1 2 3 4 5 6 
#
# 1 55.5376 11.9797 19.4152 0.0000 1.9860 0.0000
# 2 11.9797 142.0960 30.6064 0.0000 4.2237 0.0000
# 3 19.4152 30.6064 181.6336 0.0000 1.4422 0.0000
# 4 0.0000 0.0000 0.0000 35.7837 0.0000 5.9308
# 5 1.9860 4.2237 1.4422 0.0000 51.5139 0.0000
# 6 0.0000 0.0000 0.0000 5.9308 0.0000 17.0077
#
#
#
# Elastic Compliance Matrix: (Units=1/GPa)
#
#
# Indices 1 2 3 4 5 6 
#
# 1 0.018918 -0.001186 -0.001818 0.000000 -0.000581 0.000000
# 2 -0.001186 0.007393 -0.001115 0.000000 -0.000529 0.000000
# 3 -0.001818 -0.001115 0.005888 0.000000 -0.000003 0.000000
# 4 0.000000 0.000000 0.000000 0.029660 0.000000 -0.010343
# 5 -0.000581 -0.000529 -0.000003 0.000000 0.019478 0.000000
# 6 0.000000 0.000000 0.000000 -0.010343 0.000000 0.062404
#
#
# Mechanical properties :
#
#
# Convention : Reuss Voigt Hill
#
# Bulk Modulus (GPa) = 41.73326 55.91888 48.82607
# Shear Modulus (GPa) = 31.25676 42.01210 36.63443
#
# Velocity S-wave (km/s) = 3.42713 3.97325 3.71025
# Velocity P-wave (km/s) = 5.59841 6.48547 6.05820
#
# Compressibility (1/GPa) = 0.02396170
#
# Stress axis : x y z
#
# Youngs Moduli (GPa) = 52.86004 135.25660 169.84354
#
# Poissons Ratio (x) = 0.16043 0.30872
# Poissons Ratio (y) = 0.06270 0.18935
# Poissons Ratio (z) = 0.09608 0.15079
#
# Static dielectric constant tensor:
#      x y z
#    x 2.146580 0.000000 -0.035600 
#    y 0.000000 2.045810 0.000000 
#    z -0.035600 0.000000 2.073000 
# 
# From -- ./inp_files/183904.got.cif
#   From: 2010.05.17/outbox.cif.g08.bks.cpg/sg12_92_cif.got.tgz:183904.got - 2010.06.03 13:09:07.
