data_PCOD9215490
_publ_section_title
;
Structure prediction by ZEFSAII (Michael W. Deem and Ramdas Pophale) SiO2 
 PCOD9215490
Probable space group: C 2/M
;
_chemical_formula_sum "Si O2"
_cell_formula_units_Z 30
_cell_length_a 8.967299
_cell_length_b 31.990112
_cell_length_c 5.181136
_cell_angle_alpha 90.000000
_cell_angle_beta 74.801378
_cell_angle_gamma 90.000000
_cell_volume 1434.299932
_symmetry_space_group_name_H-M "C 2/M"
_symmetry_group_IT_number 12
_symmetry_cell_setting 'monoclinic'
loop_
_space_group_symop_operation_xyz
x,y,z
-x,y,-z
-x,-y,-z
x,-y,z
1/2+x,1/2+y,z
1/2-x,1/2+y,-z
1/2-x,1/2-y,-z
1/2+x,1/2-y,z
loop_
_atom_site_type_symbol
_atom_site_label
_atom_site_fract_x
_atom_site_fract_y
_atom_site_fract_z
Si Si1 0.000000 0.500000 0.500000
Si Si2 0.813206 0.155752 0.093301
Si Si3 0.106517 0.000000 0.205052
Si Si4 0.314635 0.706948 0.585815
Si Si5 0.339161 0.933467 0.923801
O O1 0.881918 0.463313 0.664728
O O2 0.770118 0.172668 0.393662
O O3 0.732637 0.111447 0.093658
O O4 0.769785 0.189536 0.889210
O O5 0.000000 0.150979 0.000000
O O6 0.000000 0.000000 0.500000
O O7 0.218093 0.039965 0.146921
O O8 0.000000 0.000000 0.000000
O O9 0.500000 0.710841 0.500000
O O10 0.250000 0.750000 0.500000
O O11 0.500000 0.929545 0.000000
#
# Coordination Sequence:
#
# PCOD9215490 Si02
#       5
#     2   8   4   8   8
#     4  10  24  44  64  92 142 172 224 294 344 388
#     4  10  23  42  66  98 132 178 224 278 333 413
#     4  11  26  43  68  94 129 177 222 276 341 408
#     4  10  22  41  66  96 135 171 220 276 341 409
#     4  11  26  43  68  97 138 179 231 288 345 401
#
# _framework density 20.916125999999998
#
# number of rings (size 3 to 8) (size 9 to 14) (size 15 to 20)
#    0.000    1.600    0.000    3.200   11.200    5.333 
#    0.000    0.000    0.000    0.000    0.000    0.000 
#    0.000    0.000    0.000    0.000    0.000    0.000 
#
# Total GULP energy -83574.640943 kJ/mol
# GULP energy per Si atom -5571.642730 kJ/mol
# Density = 2.086852 g / cm^3
# Si number density = 20.916126 Si / 1000 Ang^3
#
#
#
# Elastic Constant Matrix: (Units=GPa)
#
#
# Indices 1 2 3 4 5 6 
#
# 1 102.5280 76.8156 45.6624 0.0000 18.2371 0.0000
# 2 76.8156 150.9263 16.9025 0.0000 10.4096 0.0000
# 3 45.6624 16.9025 103.0453 0.0000 1.7231 0.0000
# 4 0.0000 0.0000 0.0000 -253.6231 0.0000 -155.6496
# 5 18.2371 10.4096 1.7231 0.0000 35.0472 0.0000
# 6 0.0000 0.0000 0.0000 -155.6496 0.0000 -57.0807
#
#
#
# Elastic Compliance Matrix: (Units=1/GPa)
#
#
# Indices 1 2 3 4 5 6 
#
# 1 0.022158 -0.009807 -0.008073 0.000000 -0.008221 0.000000
# 2 -0.009807 0.011226 0.002477 0.000000 0.001647 0.000000
# 3 -0.008073 0.002477 0.012828 0.000000 0.002835 0.000000
# 4 0.000000 0.000000 0.000000 0.005855 0.000000 -0.015964
# 5 -0.008221 0.001647 0.002835 0.000000 0.032182 0.000000
# 6 0.000000 0.000000 0.000000 -0.015964 0.000000 0.026013
#
#
# Mechanical properties :
#
#
# Convention : Reuss Voigt Hill
#
# Bulk Modulus (GPa) = 64.90699 70.58452 67.74576
# Shear Modulus (GPa) = 34.19880 -40.65673 -3.22897
#
# Velocity S-wave (km/s) = 4.04796 -4.41364 -1.24383
# Velocity P-wave (km/s) = 7.27649 2.80110 5.51332
#
# Compressibility (1/GPa) = 0.01540666
#
# Stress axis : x y z
#
# Youngs Moduli (GPa) = 45.12961 89.07894 77.95330
#
# Poissons Ratio (x) = 0.87357 0.62932
# Poissons Ratio (y) = 0.44257 -0.19307
# Poissons Ratio (z) = 0.36433 -0.22062
#
# Static dielectric constant tensor:
#      x y z
#    x 1.736630 0.000000 0.055440 
#    y 0.000000 1.734040 0.000000 
#    z 0.055440 0.000000 1.778290 
# 
# From -- ./inp_files/3765.got.cif
#   From: 2010.05.17/outbox.cif.g08.bks.cpg/sg12_2_cif.got.tgz:3765.got - 2010.06.03 13:09:07.
