data_PCOD9215938
_publ_section_title
;
Structure prediction by ZEFSAII (Michael W. Deem and Ramdas Pophale) SiO2 
 PCOD9215938
Probable space group: C 2/M
;
_chemical_formula_sum "Si O2"
_cell_formula_units_Z 56
_cell_length_a 9.168095
_cell_length_b 23.376086
_cell_length_c 13.960412
_cell_angle_alpha 90.000000
_cell_angle_beta 111.025333
_cell_angle_gamma 90.000000
_cell_volume 2792.718202
_symmetry_space_group_name_H-M "C 2/M"
_symmetry_group_IT_number 12
_symmetry_cell_setting 'monoclinic'
loop_
_space_group_symop_operation_xyz
x,y,z
-x,y,-z
-x,-y,-z
x,-y,z
1/2+x,1/2+y,z
1/2-x,1/2+y,-z
1/2-x,1/2-y,-z
1/2+x,1/2-y,z
loop_
_atom_site_type_symbol
_atom_site_label
_atom_site_fract_x
_atom_site_fract_y
_atom_site_fract_z
Si Si1 0.686748 0.067145 0.027335
Si Si2 0.506052 0.567222 0.213699
Si Si3 0.608359 0.163094 0.246769
Si Si4 0.425132 0.760007 0.575998
Si Si5 0.944505 0.132367 0.383429
Si Si6 0.767165 0.630717 0.150860
Si Si7 0.664261 0.249319 0.082670
O O1 0.745722 0.110916 0.961523
O O2 0.695411 0.000000 0.998978
O O3 0.500000 0.077906 0.000000
O O4 0.822640 0.073873 0.139252
O O5 0.535631 0.500000 0.223451
O O6 0.526870 0.597318 0.320020
O O7 0.634978 0.596006 0.175591
O O8 0.576226 0.209018 0.322979
O O9 0.760632 0.129991 0.319010
O O10 0.453337 0.123999 0.210859
O O11 0.642371 0.195673 0.151917
O O12 0.500000 0.790431 0.500000
O O13 0.250000 0.750000 0.500000
O O14 0.510512 0.699406 0.610384
O O15 0.000000 0.111987 0.500000
O O16 0.734611 0.697868 0.157782
O O17 0.500000 0.265567 0.000000
O O18 0.750000 0.250000 0.000000
#
# Coordination Sequence:
#
# PCOD9215938 Si02
#       7
#     8   8   8   8   8   8   8
#     4  10  22  42  68  96 125 165 217 266 316 384
#     4  11  25  44  68  96 126 167 220 275 332 383
#     4  12  25  41  61  96 134 175 216 262 325 395
#     4  11  22  40  66  96 130 168 219 268 316 389
#     4  11  24  42  66  93 126 171 217 271 331 385
#     4  12  25  38  66  91 133 173 210 267 317 392
#     4  12  26  40  58  94 138 176 210 253 318 394
#
# _framework density 20.052147999999999
#
# number of rings (size 3 to 8) (size 9 to 14) (size 15 to 20)
#    0.000    0.714    4.286    4.286    8.000    1.429 
#    0.000    0.714    0.000    0.857    0.000    0.000 
#    0.000    0.000    0.000    0.000    0.000    0.000 
#
# Total GULP energy -156071.660558 kJ/mol
# GULP energy per Si atom -5573.987877 kJ/mol
# Density = 2.000651 g / cm^3
# Si number density = 20.052148 Si / 1000 Ang^3
#
#
#
# Elastic Constant Matrix: (Units=GPa)
#
#
# Indices 1 2 3 4 5 6 
#
# 1 119.8366 22.4930 31.4150 0.0000 -8.1346 0.0000
# 2 22.4930 54.8920 21.5206 0.0000 -11.6883 0.0000
# 3 31.4150 21.5206 87.9856 0.0000 -10.3869 0.0000
# 4 0.0000 0.0000 0.0000 6.1544 0.0000 7.3920
# 5 -8.1346 -11.6883 -10.3869 0.0000 41.7649 0.0000
# 6 0.0000 0.0000 0.0000 7.3920 0.0000 28.0975
#
#
#
# Elastic Compliance Matrix: (Units=1/GPa)
#
#
# Indices 1 2 3 4 5 6 
#
# 1 0.009604 -0.002788 -0.002697 0.000000 0.000419 0.000000
# 2 -0.002788 0.021834 -0.003799 0.000000 0.004622 0.000000
# 3 -0.002697 -0.003799 0.013466 0.000000 0.001760 0.000000
# 4 0.000000 0.000000 0.000000 0.237545 0.000000 -0.062494
# 5 0.000419 0.004622 0.001760 0.000000 0.025757 0.000000
# 6 0.000000 0.000000 0.000000 -0.062494 0.000000 0.052032
#
#
# Mechanical properties :
#
#
# Convention : Reuss Voigt Hill
#
# Bulk Modulus (GPa) = 37.97476 45.95237 41.96357
# Shear Modulus (GPa) = 12.90041 27.68908 20.29474
#
# Velocity S-wave (km/s) = 2.53917 3.72002 3.18480
# Velocity P-wave (km/s) = 5.25125 6.43565 5.87338
#
# Compressibility (1/GPa) = 0.02633328
#
# Stress axis : x y z
#
# Youngs Moduli (GPa) = 104.12683 45.80023 74.26301
#
# Poissons Ratio (x) = 0.12771 0.20032
# Poissons Ratio (y) = 0.29035 0.28213
# Poissons Ratio (z) = 0.28088 0.17400
#
# Static dielectric constant tensor:
#      x y z
#    x 1.689810 0.000000 -0.004670 
#    y 0.000000 1.711620 0.000000 
#    z -0.004670 0.000000 1.702840 
# 
# From -- ./inp_files/198508.got.cif
#   From: 2010.05.17/outbox.cif.g08.bks.cpg/sg12_100_cif.got.tgz:198508.got - 2010.06.03 13:09:07.
