data_PCOD9215734
_publ_section_title
;
Structure prediction by ZEFSAII (Michael W. Deem and Ramdas Pophale) SiO2 
 PCOD9215734
Probable space group: C 2/M
;
_chemical_formula_sum "Si O2"
_cell_formula_units_Z 40
_cell_length_a 8.196885
_cell_length_b 14.084611
_cell_length_c 14.563491
_cell_angle_alpha 90.000000
_cell_angle_beta 102.239645
_cell_angle_gamma 90.000000
_cell_volume 1643.135988
_symmetry_space_group_name_H-M "C 2/M"
_symmetry_group_IT_number 12
_symmetry_cell_setting 'monoclinic'
loop_
_space_group_symop_operation_xyz
x,y,z
-x,y,-z
-x,-y,-z
x,-y,z
1/2+x,1/2+y,z
1/2-x,1/2+y,-z
1/2-x,1/2-y,-z
1/2+x,1/2-y,z
loop_
_atom_site_type_symbol
_atom_site_label
_atom_site_fract_x
_atom_site_fract_y
_atom_site_fract_z
Si Si1 0.194803 0.779132 0.892122
Si Si2 0.589608 0.794882 0.430211
Si Si3 0.982791 0.900290 0.648658
Si Si4 0.143751 0.395218 0.240506
Si Si5 0.846027 0.110554 0.823079
O O1 0.338345 0.837112 0.852808
O O2 0.195499 0.677537 0.838806
O O3 0.022323 0.839240 0.873478
O O4 0.250000 0.750000 0.000000
O O5 0.500000 0.854317 0.500000
O O6 0.750000 0.750000 0.500000
O O7 0.494750 0.696797 0.400051
O O8 0.597834 0.845588 0.332379
O O9 0.847041 0.887398 0.712518
O O10 0.157968 0.909739 0.720031
O O11 0.947379 0.000000 0.594792
O O12 0.065106 0.500000 0.222393
O O13 0.843131 0.000000 0.851878
#
# Coordination Sequence:
#
# PCOD9215734 Si02
#       5
#     8   8   8   8   8
#     4  11  22  39  69  99 128 170 219 271 330 397
#     4  12  23  37  63  94 124 162 214 264 320 385
#     4   9  19  39  64  87 120 167 210 253 319 389
#     4  10  22  42  64  90 129 172 212 265 328 388
#     4  10  22  42  68  96 131 174 218 269 330 395
#
# _framework density 24.343692999999998
#
# number of rings (size 3 to 8) (size 9 to 14) (size 15 to 20)
#    0.000    1.600    4.000    2.400    0.000    4.000 
#    0.000    2.000    0.000    6.000    0.000    0.000 
#    0.000    0.000    0.000    0.000    0.000    0.000 
#
# Total GULP energy -111425.251223 kJ/mol
# GULP energy per Si atom -5571.262561 kJ/mol
# Density = 2.428829 g / cm^3
# Si number density = 24.343693 Si / 1000 Ang^3
#
#
#
# Elastic Constant Matrix: (Units=GPa)
#
#
# Indices 1 2 3 4 5 6 
#
# 1 70.3001 19.8720 25.4836 0.0000 -12.6036 0.0000
# 2 19.8720 171.1096 56.0160 0.0000 -19.3159 0.0000
# 3 25.4836 56.0160 166.5582 0.0000 -32.4662 0.0000
# 4 0.0000 0.0000 0.0000 -41.9131 0.0000 18.6286
# 5 -12.6036 -19.3159 -32.4662 0.0000 35.1409 0.0000
# 6 0.0000 0.0000 0.0000 18.6286 0.0000 22.6565
#
#
#
# Elastic Compliance Matrix: (Units=1/GPa)
#
#
# Indices 1 2 3 4 5 6 
#
# 1 0.015667 -0.000949 -0.001322 0.000000 0.003876 0.000000
# 2 -0.000949 0.006732 -0.001785 0.000000 0.001710 0.000000
# 3 -0.001322 -0.001785 0.007956 0.000000 0.005894 0.000000
# 4 0.000000 0.000000 0.000000 -0.017473 0.000000 0.014367
# 5 0.003876 0.001710 0.005894 0.000000 0.036233 0.000000
# 6 0.000000 0.000000 0.000000 0.014367 0.000000 0.032325
#
#
# Mechanical properties :
#
#
# Convention : Reuss Voigt Hill
#
# Bulk Modulus (GPa) = 44.96208 67.85677 56.40943
# Shear Modulus (GPa) = 51.56408 23.61662 37.59035
#
# Velocity S-wave (km/s) = 4.60735 3.11808 3.93383
# Velocity P-wave (km/s) = 6.84203 6.39517 6.62237
#
# Compressibility (1/GPa) = 0.02224097
#
# Stress axis : x y z
#
# Youngs Moduli (GPa) = 63.82746 148.54382 125.69636
#
# Poissons Ratio (x) = 0.14098 0.16623
# Poissons Ratio (y) = 0.06058 0.22443
# Poissons Ratio (z) = 0.08441 0.26522
#
# Static dielectric constant tensor:
#      x y z
#    x 2.021870 0.000000 -0.010460 
#    y 0.000000 2.049280 0.000000 
#    z -0.010460 0.000000 1.955870 
# 
# From -- ./inp_files/194550.got.cif
#   From: 2010.05.17/outbox.cif.g08.bks.cpg/sg12_98_cif.got.tgz:194550.got - 2010.06.03 13:09:07.
