data_PCOD9215023
_publ_section_title
;
Structure prediction by ZEFSAII (Michael W. Deem and Ramdas Pophale) SiO2 
 PCOD9215023
Probable space group: C 2/M
;
_chemical_formula_sum "Si O2"
_cell_formula_units_Z 26
_cell_length_a 12.558993
_cell_length_b 17.788186
_cell_length_c 4.992004
_cell_angle_alpha 90.000000
_cell_angle_beta 86.840316
_cell_angle_gamma 90.000000
_cell_volume 1113.526832
_symmetry_space_group_name_H-M "C 2/M"
_symmetry_group_IT_number 12
_symmetry_cell_setting 'monoclinic'
loop_
_space_group_symop_operation_xyz
x,y,z
-x,y,-z
-x,-y,-z
x,-y,z
1/2+x,1/2+y,z
1/2-x,1/2+y,-z
1/2-x,1/2-y,-z
1/2+x,1/2-y,z
loop_
_atom_site_type_symbol
_atom_site_label
_atom_site_fract_x
_atom_site_fract_y
_atom_site_fract_z
Si Si1 0.876769 0.203847 0.549390
Si Si2 0.788642 0.917513 0.192874
Si Si3 0.123837 0.691798 0.951444
Si Si4 0.000000 0.000000 0.000000
O O1 0.813149 0.132887 0.448033
O O2 0.860127 0.238785 0.843197
O O3 0.000000 0.182341 0.500000
O O4 0.860145 0.272499 0.342506
O O5 0.702736 0.874356 0.025573
O O6 0.747499 0.000000 0.277198
O O7 0.903948 0.935648 0.040831
O O8 0.000000 0.668777 0.000000
#
# Coordination Sequence:
#
# PCOD9215023 Si02
#       4
#     8   8   8   2
#     4  10  22  40  68  93 130 169 219 270 319 385
#     4  10  22  41  64  97 136 174 214 266 329 393
#     4  10  22  42  68  96 125 171 221 272 321 378
#     4   8  24  40  64  96 138 180 204 270 332 394
#
# _framework density 23.349236999999999
#
# number of rings (size 3 to 8) (size 9 to 14) (size 15 to 20)
#    0.923    1.231    0.000    1.846    6.462    1.231 
#    0.000    6.154    0.000    6.462    0.000    0.000 
#    0.000    0.000    0.000    0.000    0.000    0.000 
#
# Total GULP energy -72486.189623 kJ/mol
# GULP energy per Si atom -5575.860740 kJ/mol
# Density = 2.329609 g / cm^3
# Si number density = 23.349237 Si / 1000 Ang^3
#
#
#
# Elastic Constant Matrix: (Units=GPa)
#
#
# Indices 1 2 3 4 5 6 
#
# 1 155.8786 89.9075 46.0504 0.0000 20.0728 0.0000
# 2 89.9075 171.2112 39.2711 0.0000 17.7713 0.0000
# 3 46.0504 39.2711 98.3606 0.0000 3.2929 0.0000
# 4 0.0000 0.0000 0.0000 2.9130 0.0000 -2.0626
# 5 20.0728 17.7713 3.2929 0.0000 39.5495 0.0000
# 6 0.0000 0.0000 0.0000 -2.0626 0.0000 49.0224
#
#
#
# Elastic Compliance Matrix: (Units=1/GPa)
#
#
# Indices 1 2 3 4 5 6 
#
# 1 0.010179 -0.004368 -0.002923 0.000000 -0.002960 0.000000
# 2 -0.004368 0.008601 -0.001338 0.000000 -0.001537 0.000000
# 3 -0.002923 -0.001338 0.012033 0.000000 0.001083 0.000000
# 4 0.000000 0.000000 0.000000 0.353827 0.000000 0.014887
# 5 -0.002960 -0.001537 0.001083 0.000000 0.027388 0.000000
# 6 0.000000 0.000000 0.000000 0.014887 0.000000 0.021025
#
#
# Mechanical properties :
#
#
# Convention : Reuss Voigt Hill
#
# Bulk Modulus (GPa) = 73.76461 86.21205 79.98833
# Shear Modulus (GPa) = 10.99318 34.97840 22.98579
#
# Velocity S-wave (km/s) = 2.17218 3.87467 3.14097
# Velocity P-wave (km/s) = 6.16049 7.55119 6.89101
#
# Compressibility (1/GPa) = 0.01355664
#
# Stress axis : x y z
#
# Youngs Moduli (GPa) = 98.24094 116.27118 83.10606
#
# Poissons Ratio (x) = 0.50783 0.24290
# Poissons Ratio (y) = 0.42908 0.11116
# Poissons Ratio (z) = 0.28713 0.15552
#
# Static dielectric constant tensor:
#      x y z
#    x 1.981490 0.000000 -0.029520 
#    y 0.000000 1.844760 0.000000 
#    z -0.029520 0.000000 1.905160 
# 
# From -- ./inp_files/9496.got.cif
#   From: 2010.05.17/outbox.cif.g08.bks.cpg/sg12_5_cif.got.tgz:9496.got - 2010.06.03 13:09:07.
