data_PCOD9215624
_publ_section_title
;
Structure prediction by ZEFSAII (Michael W. Deem and Ramdas Pophale) SiO2 
 PCOD9215624
Probable space group: C 2/M
;
_chemical_formula_sum "Si O2"
_cell_formula_units_Z 48
_cell_length_a 11.776326
_cell_length_b 24.290052
_cell_length_c 8.669014
_cell_angle_alpha 90.000000
_cell_angle_beta 101.961319
_cell_angle_gamma 90.000000
_cell_volume 2425.909415
_symmetry_space_group_name_H-M "C 2/M"
_symmetry_group_IT_number 12
_symmetry_cell_setting 'monoclinic'
loop_
_space_group_symop_operation_xyz
x,y,z
-x,y,-z
-x,-y,-z
x,-y,z
1/2+x,1/2+y,z
1/2-x,1/2+y,-z
1/2-x,1/2-y,-z
1/2+x,1/2-y,z
loop_
_atom_site_type_symbol
_atom_site_label
_atom_site_fract_x
_atom_site_fract_y
_atom_site_fract_z
Si Si1 0.582103 0.812306 0.171262
Si Si2 0.197138 0.190900 0.935261
Si Si3 0.892683 0.500000 0.091040
Si Si4 0.437694 0.101773 0.327997
Si Si5 0.866456 0.000000 0.900827
Si Si6 0.678564 0.620073 0.239138
Si Si7 0.470314 0.292000 0.666353
O O1 0.700839 0.836299 0.137064
O O2 0.515551 0.853021 0.265566
O O3 0.602423 0.756205 0.270941
O O4 0.500000 0.801476 0.000000
O O5 0.086350 0.201905 0.799612
O O6 0.250000 0.250000 0.000000
O O7 0.167764 0.153206 0.073711
O O8 0.914288 0.553401 0.201203
O O9 0.750938 0.500000 0.020059
O O10 0.000000 0.500000 0.000000
O O11 0.500000 0.082185 0.500000
O O12 0.311291 0.125834 0.329204
O O13 0.851961 0.056459 0.799975
O O14 0.000000 0.000000 0.000000
O O15 0.597281 0.650809 0.337212
O O16 0.500000 0.277662 0.500000
#
# Coordination Sequence:
#
# PCOD9215624 Si02
#       7
#     8   8   4   8   4   8   8
#     4  12  22  39  63  93 124 165 214 263 316 383
#     4  12  22  40  65  89 123 170 210 260 313 386
#     4  10  23  43  68  97 128 169 222 271 323 391
#     4  11  24  41  65  95 130 166 206 269 327 380
#     4  10  22  41  69  95 123 165 220 272 310 375
#     4  11  23  44  66  91 127 168 216 260 323 385
#     4  12  26  40  60  92 131 168 211 265 325 383
#
# _framework density 19.786393
#
# number of rings (size 3 to 8) (size 9 to 14) (size 15 to 20)
#    0.000    0.667    5.000    2.750    4.667    0.667 
#    0.000    0.417    0.000    0.000    0.000    0.000 
#    0.000    0.000    0.000    0.000    0.000    0.000 
#
# Total GULP energy -134097.274337 kJ/mol
# GULP energy per Si atom -5587.386431 kJ/mol
# Density = 1.974136 g / cm^3
# Si number density = 19.786393 Si / 1000 Ang^3
#
#
#
# Elastic Constant Matrix: (Units=GPa)
#
#
# Indices 1 2 3 4 5 6 
#
# 1 97.5697 1.5513 22.7895 0.0000 -0.3724 0.0000
# 2 1.5513 83.6057 -6.3037 0.0000 -10.3945 0.0000
# 3 22.7895 -6.3037 64.8553 0.0000 -0.3150 0.0000
# 4 0.0000 0.0000 0.0000 -39.9148 0.0000 -7.1284
# 5 -0.3724 -10.3945 -0.3150 0.0000 29.1444 0.0000
# 6 0.0000 0.0000 0.0000 -7.1284 0.0000 32.1212
#
#
#
# Elastic Compliance Matrix: (Units=1/GPa)
#
#
# Indices 1 2 3 4 5 6 
#
# 1 0.011187 -0.000518 -0.003982 0.000000 -0.000085 0.000000
# 2 -0.000518 0.012640 0.001433 0.000000 0.004517 0.000000
# 3 -0.003982 0.001433 0.016960 0.000000 0.000643 0.000000
# 4 0.000000 0.000000 0.000000 -0.024098 0.000000 -0.005348
# 5 -0.000085 0.004517 0.000643 0.000000 0.035929 0.000000
# 6 0.000000 0.000000 0.000000 -0.005348 0.000000 0.029945
#
#
# Mechanical properties :
#
#
# Convention : Reuss Voigt Hill
#
# Bulk Modulus (GPa) = 28.85784 31.34499 30.10142
# Shear Modulus (GPa) = 49.87568 19.46975 34.67272
#
# Velocity S-wave (km/s) = 5.02611 3.14028 4.19065
# Velocity P-wave (km/s) = 6.94973 5.38744 6.21785
#
# Compressibility (1/GPa) = 0.03465262
#
# Stress axis : x y z
#
# Youngs Moduli (GPa) = 89.38919 79.11313 58.96057
#
# Poissons Ratio (x) = 0.04101 0.23477
# Poissons Ratio (y) = 0.04634 -0.08447
# Poissons Ratio (z) = 0.35593 -0.11334
#
# Static dielectric constant tensor:
#      x y z
#    x 1.740670 0.000000 0.009690 
#    y 0.000000 1.710720 0.000000 
#    z 0.009690 0.000000 1.665990 
# 
# From -- ./inp_files/51385.got.cif
#   From: 2010.05.17/outbox.cif.g08.bks.cpg/sg12_26_cif.got.tgz:51385.got - 2010.06.03 13:09:07.
