data_PCOD9215939
_publ_section_title
;
Structure prediction by ZEFSAII (Michael W. Deem and Ramdas Pophale) SiO2 
 PCOD9215939
Probable space group: C 2/M
;
_chemical_formula_sum "Si O2"
_cell_formula_units_Z 56
_cell_length_a 29.723713
_cell_length_b 9.109769
_cell_length_c 21.669973
_cell_angle_alpha 90.000000
_cell_angle_beta 151.728194
_cell_angle_gamma 90.000000
_cell_volume 2779.270499
_symmetry_space_group_name_H-M "C 2/M"
_symmetry_group_IT_number 12
_symmetry_cell_setting 'monoclinic'
loop_
_space_group_symop_operation_xyz
x,y,z
-x,y,-z
-x,-y,-z
x,-y,z
1/2+x,1/2+y,z
1/2-x,1/2+y,-z
1/2-x,1/2-y,-z
1/2+x,1/2-y,z
loop_
_atom_site_type_symbol
_atom_site_label
_atom_site_fract_x
_atom_site_fract_y
_atom_site_fract_z
Si Si1 0.818433 0.668422 0.775462
Si Si2 0.172334 0.832609 0.094529
Si Si3 0.480696 0.176505 0.404678
Si Si4 0.225132 0.324439 0.904622
Si Si5 0.885024 0.829790 0.530867
Si Si6 0.052872 0.831996 0.159920
Si Si7 0.351480 0.826519 0.613660
O O1 0.851176 0.500000 0.818344
O O2 0.786897 0.726040 0.804270
O O3 0.726545 0.676129 0.620746
O O4 0.899266 0.772174 0.844514
O O5 0.197920 0.789367 0.055816
O O6 0.208785 0.000000 0.147372
O O7 0.060235 0.832993 0.971995
O O8 0.500000 0.213634 0.500000
O O9 0.376435 0.212791 0.250270
O O10 0.556015 0.259685 0.453208
O O11 0.492110 0.000000 0.413167
O O12 0.225812 0.500000 0.915326
O O13 0.250000 0.250000 0.000000
O O14 0.899029 0.737639 0.609693
O O15 0.910861 0.000000 0.571519
O O16 0.088241 0.722283 0.255018
O O17 0.085877 0.000000 0.210175
O O18 0.250000 0.750000 0.500000
O O19 0.340268 0.000000 0.596310
#
# Coordination Sequence:
#
# PCOD9215939 Si02
#       7
#     8   8   8   8   8   8   8
#     4  11  23  39  61  92 127 164 205 254 311 371
#     4  10  23  42  64  89 122 164 209 254 311 377
#     4  10  22  42  68  96 126 164 216 272 326 384
#     4  10  23  43  65  93 126 166 211 266 328 385
#     4  11  24  40  62  92 127 165 208 258 317 377
#     4  11  23  39  62  91 125 166 208 253 308 371
#     4  12  24  40  62  90 125 165 208 257 310 371
#
# _framework density 20.149172
#
# number of rings (size 3 to 8) (size 9 to 14) (size 15 to 20)
#    0.000    1.286    1.429    3.857    2.000    7.143 
#    0.000    0.000    0.000    0.000    0.000    0.000 
#    0.000    0.000    0.000    0.000    0.000    0.000 
#
# Total GULP energy -156480.760709 kJ/mol
# GULP energy per Si atom -5588.598597 kJ/mol
# Density = 2.010331 g / cm^3
# Si number density = 20.149172 Si / 1000 Ang^3
#
#
#
# Elastic Constant Matrix: (Units=GPa)
#
#
# Indices 1 2 3 4 5 6 
#
# 1 161.2170 69.5408 41.0648 0.0000 -20.6968 0.0000
# 2 69.5408 101.7746 33.6184 0.0000 -7.9513 0.0000
# 3 41.0648 33.6184 71.0917 0.0000 -15.9636 0.0000
# 4 0.0000 0.0000 0.0000 20.9708 0.0000 -8.5251
# 5 -20.6968 -7.9513 -15.9636 0.0000 36.5009 0.0000
# 6 0.0000 0.0000 0.0000 -8.5251 0.0000 36.3477
#
#
#
# Elastic Compliance Matrix: (Units=1/GPa)
#
#
# Indices 1 2 3 4 5 6 
#
# 1 0.009578 -0.005575 -0.002162 0.000000 0.003271 0.000000
# 2 -0.005575 0.014890 -0.004217 0.000000 -0.001762 0.000000
# 3 -0.002162 -0.004217 0.018660 0.000000 0.006017 0.000000
# 4 0.000000 0.000000 0.000000 0.052711 0.000000 0.012363
# 5 0.003271 -0.001762 0.006017 0.000000 0.031499 0.000000
# 6 0.000000 0.000000 0.000000 0.012363 0.000000 0.030412
#
#
# Mechanical properties :
#
#
# Convention : Reuss Voigt Hill
#
# Bulk Modulus (GPa) = 52.02487 69.17015 60.59751
# Shear Modulus (GPa) = 26.58667 31.42117 29.00392
#
# Velocity S-wave (km/s) = 3.63642 3.95324 3.79814
# Velocity P-wave (km/s) = 6.59601 7.43243 7.02668
#
# Compressibility (1/GPa) = 0.01922158
#
# Stress axis : x y z
#
# Youngs Moduli (GPa) = 104.40425 67.15861 53.59027
#
# Poissons Ratio (x) = 0.37440 0.11585
# Poissons Ratio (y) = 0.58205 0.22597
# Poissons Ratio (z) = 0.22570 0.28319
#
# Static dielectric constant tensor:
#      x y z
#    x 1.705090 0.000000 0.002740 
#    y 0.000000 1.689950 0.000000 
#    z 0.002740 0.000000 1.728870 
# 
# From -- ./inp_files/238366.got.cif
#   From: 2010.05.17/outbox.cif.g08.bks.cpg/sg12_120_cif.got.tgz:238366.got - 2010.06.03 13:09:07.
