data_PCOD9215457
_publ_section_title
;
Structure prediction by ZEFSAII (Michael W. Deem and Ramdas Pophale) SiO2 
 PCOD9215457
Probable space group: C 2/M
;
_chemical_formula_sum "Si O2"
_cell_formula_units_Z 48
_cell_length_a 14.081776
_cell_length_b 16.518924
_cell_length_c 17.466586
_cell_angle_alpha 90.000000
_cell_angle_beta 36.273993
_cell_angle_gamma 90.000000
_cell_volume 2403.865147
_symmetry_space_group_name_H-M "C 2/M"
_symmetry_group_IT_number 12
_symmetry_cell_setting 'monoclinic'
loop_
_space_group_symop_operation_xyz
x,y,z
-x,y,-z
-x,-y,-z
x,-y,z
1/2+x,1/2+y,z
1/2-x,1/2+y,-z
1/2-x,1/2-y,-z
1/2+x,1/2-y,z
loop_
_atom_site_type_symbol
_atom_site_label
_atom_site_fract_x
_atom_site_fract_y
_atom_site_fract_z
Si Si1 0.622071 0.403361 0.250043
Si Si2 0.764429 0.156479 0.513299
Si Si3 0.154679 0.401512 0.750071
Si Si4 0.471287 0.096620 0.603824
Si Si5 0.209093 0.656472 0.013194
Si Si6 0.321069 0.403380 0.103820
O O1 0.616435 0.500000 0.250020
O O2 0.442836 0.371630 0.377583
O O3 0.733656 0.382085 0.249967
O O4 0.697726 0.371606 0.122591
O O5 0.750000 0.250000 0.500000
O O6 0.728598 0.135716 0.624821
O O7 0.627761 0.111527 0.553056
O O8 0.143509 0.500000 0.750038
O O9 0.978081 0.364326 0.875386
O O10 0.500000 0.130267 0.500000
O O11 0.314359 0.129741 0.750002
O O12 0.448290 0.000000 0.611677
O O13 0.250000 0.750000 0.000000
O O14 0.266144 0.611524 0.053039
O O15 0.328361 0.500000 0.111673
O O16 0.500000 0.369734 0.000000
#
# Coordination Sequence:
#
# PCOD9215457 Si02
#       6
#     8   8   8   8   8   8
#     4  11  25  42  69 101 129 173 228 275 320 392
#     4  12  25  43  64 100 135 170 213 269 340 391
#     4  11  23  46  73  95 129 177 224 271 326 390
#     4  10  22  41  66  93 125 170 217 262 315 382
#     4  12  25  43  64 100 135 170 213 269 340 391
#     4  10  22  41  66  93 125 170 217 262 315 382
#
# _framework density 19.967842999999998
#
# number of rings (size 3 to 8) (size 9 to 14) (size 15 to 20)
#    0.000    1.000    1.667    5.000    2.333    5.333 
#    0.000    0.000    0.000    0.000    0.000    0.000 
#    0.000    0.000    0.000    0.000    0.000    0.000 
#
# Total GULP energy -134227.661395 kJ/mol
# GULP energy per Si atom -5592.819225 kJ/mol
# Density = 1.992240 g / cm^3
# Si number density = 19.967843 Si / 1000 Ang^3
#
#
#
# Elastic Constant Matrix: (Units=GPa)
#
#
# Indices 1 2 3 4 5 6 
#
# 1 166.3653 34.0824 132.6296 -0.0002 2.7254 -0.0002
# 2 34.0824 53.6338 48.5204 0.0001 0.5972 0.0002
# 3 132.6296 48.5204 259.7913 -0.0004 0.8766 -0.0011
# 4 -0.0002 0.0001 -0.0004 -7.8653 0.0035 1.0599
# 5 2.7254 0.5972 0.8766 0.0035 57.7327 0.0001
# 6 -0.0002 0.0002 -0.0011 1.0599 0.0001 -45.1651
#
#
#
# Elastic Compliance Matrix: (Units=1/GPa)
#
#
# Indices 1 2 3 4 5 6 
#
# 1 0.010349 -0.002158 -0.004879 0.000000 -0.000392 0.000000
# 2 -0.002158 0.022887 -0.003172 0.000001 -0.000087 0.000000
# 3 -0.004879 -0.003172 0.006932 0.000000 0.000158 0.000000
# 4 0.000000 0.000001 0.000000 -0.127544 0.000008 -0.002993
# 5 -0.000392 -0.000087 0.000158 0.000008 0.017338 0.000000
# 6 0.000000 0.000000 0.000000 -0.002993 0.000000 -0.022211
#
#
# Mechanical properties :
#
#
# Convention : Reuss Voigt Hill
#
# Bulk Modulus (GPa) = 50.63528 101.13947 75.88737
# Shear Modulus (GPa) = -76.63311 18.57766 -29.02773
#
# Velocity S-wave (km/s) = -6.20174 3.05352 -3.81691
# Velocity P-wave (km/s) = 5.08612 7.94941 4.31998
#
# Compressibility (1/GPa) = 0.01974908
#
# Stress axis : x y z
#
# Youngs Moduli (GPa) = 96.62654 43.69208 144.25641
#
# Poissons Ratio (x) = 0.09430 0.70384
# Poissons Ratio (y) = 0.20854 0.45765
# Poissons Ratio (z) = 0.47145 0.13861
#
# Static dielectric constant tensor:
#      x y z
#    x 1.676630 0.000000 0.001590 
#    y 0.000000 1.690260 -0.000010 
#    z 0.001590 -0.000010 1.734670 
# 
# From -- ./inp_files/271581.got.cif
#   From: 2010.05.17/outbox.cif.g08.bks.cpg/sg12_136_cif.got.tgz:271581.got - 2010.06.03 13:09:07.
