data_PCOD9215906
_publ_section_title
;
Structure prediction by ZEFSAII (Michael W. Deem and Ramdas Pophale) SiO2 
 PCOD9215906
Probable space group: C 2/M
;
_chemical_formula_sum "Si O2"
_cell_formula_units_Z 28
_cell_length_a 13.595381
_cell_length_b 12.434575
_cell_length_c 7.378203
_cell_angle_alpha 90.000000
_cell_angle_beta 64.149302
_cell_angle_gamma 90.000000
_cell_volume 1122.491999
_symmetry_space_group_name_H-M "C 2/M"
_symmetry_group_IT_number 12
_symmetry_cell_setting 'monoclinic'
loop_
_space_group_symop_operation_xyz
x,y,z
-x,y,-z
-x,-y,-z
x,-y,z
1/2+x,1/2+y,z
1/2-x,1/2+y,-z
1/2-x,1/2-y,-z
1/2+x,1/2-y,z
loop_
_atom_site_type_symbol
_atom_site_label
_atom_site_fract_x
_atom_site_fract_y
_atom_site_fract_z
Si Si1 0.431668 0.000000 0.796382
Si Si2 0.376485 0.628815 0.027000
Si Si3 0.000000 0.685432 0.500000
Si Si4 0.802787 0.205221 0.685440
Si Si5 0.322164 0.000000 0.259614
O O1 0.428324 0.892415 0.683434
O O2 0.556851 0.000000 0.760638
O O3 0.346113 0.000000 0.024865
O O4 0.356959 0.500000 0.065693
O O5 0.357570 0.661812 0.830404
O O6 0.500000 0.650742 0.000000
O O7 0.288355 0.705503 0.196770
O O8 0.905986 0.755498 0.486227
O O9 0.743869 0.105257 0.640461
#
# Coordination Sequence:
#
# PCOD9215906 Si02
#       5
#     4   8   4   8   4
#     4  10  24  44  70  98 128 178 231 269 322 396
#     4  10  22  42  67  98 130 181 225 270 321 406
#     4  11  26  43  64 102 142 169 213 282 344 382
#     4  11  24  41  67  97 138 171 218 277 330 392
#     4  11  24  45  71  96 129 180 232 264 318 406
#
# _framework density 24.944500999999999
#
# number of rings (size 3 to 8) (size 9 to 14) (size 15 to 20)
#    0.000    1.429    1.429    3.429   12.000    1.714 
#    0.000    0.000    0.000    0.000    0.000    0.000 
#    0.000    0.000    0.000    0.000    0.000    0.000 
#
# Total GULP energy -78394.996807 kJ/mol
# GULP energy per Si atom -5599.642629 kJ/mol
# Density = 2.488773 g / cm^3
# Si number density = 24.944501 Si / 1000 Ang^3
#
#
#
# Elastic Constant Matrix: (Units=GPa)
#
#
# Indices 1 2 3 4 5 6 
#
# 1 183.9178 70.7917 18.6604 0.0000 -23.2041 0.0000
# 2 70.7917 163.3442 33.7743 0.0000 -35.9391 0.0000
# 3 18.6604 33.7743 29.5862 0.0000 -1.8481 0.0000
# 4 0.0000 0.0000 0.0000 56.7973 0.0000 8.4167
# 5 -23.2041 -35.9391 -1.8481 0.0000 43.9853 0.0000
# 6 0.0000 0.0000 0.0000 8.4167 0.0000 49.3142
#
#
#
# Elastic Compliance Matrix: (Units=1/GPa)
#
#
# Indices 1 2 3 4 5 6 
#
# 1 0.006650 -0.002189 -0.001592 0.000000 0.001652 0.000000
# 2 -0.002189 0.010852 -0.010554 0.000000 0.007269 0.000000
# 3 -0.001592 -0.010554 0.046382 0.000000 -0.007514 0.000000
# 4 0.000000 0.000000 0.000000 0.018063 0.000000 -0.003083
# 5 0.001652 0.007269 -0.007514 0.000000 0.029230 0.000000
# 6 0.000000 0.000000 0.000000 -0.003083 0.000000 0.020804
#
#
# Mechanical properties :
#
#
# Convention : Reuss Voigt Hill
#
# Bulk Modulus (GPa) = 28.39738 69.25565 48.82652
# Shear Modulus (GPa) = 29.00419 46.92747 37.96583
#
# Velocity S-wave (km/s) = 3.41361 4.34207 3.90553
# Velocity P-wave (km/s) = 5.19095 7.27752 6.32093
#
# Compressibility (1/GPa) = 0.03521452
#
# Stress axis : x y z
#
# Youngs Moduli (GPa) = 150.37887 92.14656 21.56024
#
# Poissons Ratio (x) = 0.20174 0.03432
# Poissons Ratio (y) = 0.32923 0.22754
# Poissons Ratio (z) = 0.23936 0.97248
#
# Static dielectric constant tensor:
#      x y z
#    x 1.971220 0.000000 0.078880 
#    y 0.000000 1.989830 0.000000 
#    z 0.078880 0.000000 1.947630 
# 
# From -- ./inp_files/56310.got.cif
#   From: 2010.05.17/outbox.cif.g08.bks.cpg/sg12_29_cif.got.tgz:56310.got - 2010.06.03 13:09:07.
