data_PCOD9215350
_publ_section_title
;
Structure prediction by ZEFSAII (Michael W. Deem and Ramdas Pophale) SiO2 
 PCOD9215350
Probable space group: C 2/M
;
_chemical_formula_sum "Si O2"
_cell_formula_units_Z 56
_cell_length_a 18.020181
_cell_length_b 12.589482
_cell_length_c 20.324914
_cell_angle_alpha 90.000000
_cell_angle_beta 37.186491
_cell_angle_gamma 90.000000
_cell_volume 2786.944361
_symmetry_space_group_name_H-M "C 2/M"
_symmetry_group_IT_number 12
_symmetry_cell_setting 'monoclinic'
loop_
_space_group_symop_operation_xyz
x,y,z
-x,y,-z
-x,-y,-z
x,-y,z
1/2+x,1/2+y,z
1/2-x,1/2+y,-z
1/2-x,1/2-y,-z
1/2+x,1/2-y,z
loop_
_atom_site_type_symbol
_atom_site_label
_atom_site_fract_x
_atom_site_fract_y
_atom_site_fract_z
Si Si1 0.361331 0.687752 0.585893
Si Si2 0.652702 0.120997 0.637002
Si Si3 0.819237 0.262619 0.752437
Si Si4 0.080201 0.625552 0.545620
Si Si5 0.263703 0.625157 0.920942
Si Si6 0.591113 0.383612 0.874157
Si Si7 0.539216 0.246655 0.141044
O O1 0.500000 0.647469 0.500000
O O2 0.277658 0.632237 0.590486
O O3 0.304558 0.689318 0.698220
O O4 0.628408 0.809157 0.448817
O O5 0.666204 0.139077 0.549247
O O6 0.550210 0.197156 0.741015
O O7 0.607467 0.000000 0.675533
O O8 0.953728 0.315168 0.654784
O O9 0.788805 0.195009 0.838153
O O10 0.722473 0.356077 0.811119
O O11 0.064462 0.500000 0.544098
O O12 0.266389 0.500000 0.906458
O O13 0.372307 0.661552 0.893170
O O14 0.133885 0.660508 0.044323
O O15 0.591261 0.500000 0.842678
O O16 0.545470 0.296518 0.855239
O O17 0.500000 0.383108 0.000000
#
# Coordination Sequence:
#
# PCOD9215350 Si02
#       7
#     8   8   8   8   8   8   8
#     4  10  23  40  64  87 124 160 206 263 309 370
#     4  11  22  40  66  92 124 165 207 255 315 373
#     4  11  21  40  61  90 126 157 203 263 304 375
#     4  10  22  41  65  90 119 163 211 263 318 365
#     4  11  24  41  64  94 129 168 206 251 309 372
#     4  11  22  37  60  91 124 162 204 258 313 358
#     4  11  22  43  64  91 129 164 213 253 298 378
#
# _framework density 20.093692000000001
#
# number of rings (size 3 to 8) (size 9 to 14) (size 15 to 20)
#    0.000    1.286    4.286    1.714    0.000    4.000 
#    0.000    2.857    0.000    0.000    0.000    0.000 
#    0.000    0.000    0.000    0.000    0.000    0.000 
#
# Total GULP energy -156352.797422 kJ/mol
# GULP energy per Si atom -5584.028479 kJ/mol
# Density = 2.004796 g / cm^3
# Si number density = 20.093692 Si / 1000 Ang^3
#
#
#
# Elastic Constant Matrix: (Units=GPa)
#
#
# Indices 1 2 3 4 5 6 
#
# 1 90.9374 4.6804 5.4864 0.0000 -5.2101 0.0000
# 2 4.6804 71.1835 -4.5136 0.0000 -2.8932 0.0000
# 3 5.4864 -4.5136 37.5286 0.0000 0.3673 0.0000
# 4 0.0000 0.0000 0.0000 12.3563 0.0000 -2.6745
# 5 -5.2101 -2.8932 0.3673 0.0000 32.8422 0.0000
# 6 0.0000 0.0000 0.0000 -2.6745 0.0000 29.4299
#
#
#
# Elastic Compliance Matrix: (Units=1/GPa)
#
#
# Indices 1 2 3 4 5 6 
#
# 1 0.011242 -0.000780 -0.001754 0.000000 0.001734 0.000000
# 2 -0.000780 0.014260 0.001818 0.000000 0.001112 0.000000
# 3 -0.001754 0.001818 0.027126 0.000000 -0.000421 0.000000
# 4 0.000000 0.000000 0.000000 0.082554 0.000000 0.007502
# 5 0.001734 0.001112 -0.000421 0.000000 0.030826 0.000000
# 6 0.000000 0.000000 0.000000 0.007502 0.000000 0.034661
#
#
# Mechanical properties :
#
#
# Convention : Reuss Voigt Hill
#
# Bulk Modulus (GPa) = 19.53297 23.43955 21.48626
# Shear Modulus (GPa) = 22.81374 27.85876 25.33625
#
# Velocity S-wave (km/s) = 3.37318 3.72754 3.55478
# Velocity P-wave (km/s) = 4.99131 5.49695 5.25022
#
# Compressibility (1/GPa) = 0.05119549
#
# Stress axis : x y z
#
# Youngs Moduli (GPa) = 88.95275 70.12634 36.86558
#
# Poissons Ratio (x) = 0.05469 0.06467
# Poissons Ratio (y) = 0.06938 -0.06703
# Poissons Ratio (z) = 0.15605 -0.12750
#
# Static dielectric constant tensor:
#      x y z
#    x 1.709400 0.000000 -0.007920 
#    y 0.000000 1.687700 0.000000 
#    z -0.007920 0.000000 1.714730 
# 
# From -- ./inp_files/343014.got.cif
#   From: 2010.05.17/outbox.cif.g08.bks.cpg/sg12_172_cif.got.tgz:343014.got - 2010.06.03 13:09:07.
