data_PCOD9215190
_publ_section_title
;
Structure prediction by ZEFSAII (Michael W. Deem and Ramdas Pophale) SiO2 
 PCOD9215190
Probable space group: C 2/M
;
_chemical_formula_sum "Si O2"
_cell_formula_units_Z 56
_cell_length_a 9.779080
_cell_length_b 29.181237
_cell_length_c 22.856972
_cell_angle_alpha 90.000000
_cell_angle_beta 27.065421
_cell_angle_gamma 90.000000
_cell_volume 2967.829933
_symmetry_space_group_name_H-M "C 2/M"
_symmetry_group_IT_number 12
_symmetry_cell_setting 'monoclinic'
loop_
_space_group_symop_operation_xyz
x,y,z
-x,y,-z
-x,-y,-z
x,-y,z
1/2+x,1/2+y,z
1/2-x,1/2+y,-z
1/2-x,1/2-y,-z
1/2+x,1/2-y,z
loop_
_atom_site_type_symbol
_atom_site_label
_atom_site_fract_x
_atom_site_fract_y
_atom_site_fract_z
Si Si1 0.489238 0.000000 0.207912
Si Si2 0.862180 0.830386 0.224092
Si Si3 0.223231 0.595255 0.742073
Si Si4 0.196302 0.404451 0.983801
Si Si5 0.039343 0.000000 0.080525
Si Si6 0.908913 0.765477 0.646891
Si Si7 0.648261 0.658488 0.638178
Si Si8 0.804815 0.343219 0.354847
O O1 0.286610 0.044429 0.278388
O O2 0.703089 0.000000 0.182983
O O3 0.726384 0.000000 0.063356
O O4 0.814520 0.775715 0.250945
O O5 0.909128 0.848537 0.271830
O O6 0.551197 0.842705 0.311013
O O7 0.114270 0.857187 0.091452
O O8 0.544185 0.615077 0.639799
O O9 0.100315 0.626689 0.736595
O O10 0.012586 0.597635 0.879324
O O11 0.391615 0.451610 0.913666
O O12 0.000000 0.407673 0.000000
O O13 0.774707 0.793708 0.643145
O O14 0.250000 0.750000 0.500000
O O15 0.958670 0.800185 0.681927
O O16 0.000000 0.669026 0.500000
O O17 0.500000 0.361247 0.500000
#
# Coordination Sequence:
#
# PCOD9215190 Si02
#       8
#     4   8   8   8   4   8   8   8
#     4   9  18  38  64  92 121 161 211 249 310 380
#     4  12  22  34  61  91 122 158 207 264 310 360
#     4  10  22  41  63  88 130 166 198 261 319 371
#     4  11  22  40  62  93 129 161 206 259 319 379
#     4   9  19  36  66  92 115 163 214 257 294 373
#     4  11  21  37  61  88 118 161 213 261 301 357
#     4  11  21  37  60  88 122 163 214 256 310 362
#     4  11  22  38  61  93 121 161 215 254 306 369
#
# _framework density 18.869005999999999
#
# number of rings (size 3 to 8) (size 9 to 14) (size 15 to 20)
#    0.000    1.286    4.286    2.786    0.000    1.714 
#    0.000    3.571    0.000    1.714    0.000    0.000 
#    0.000    0.000    0.000    0.000    0.000    0.000 
#
# Total GULP energy -156138.954122 kJ/mol
# GULP energy per Si atom -5576.391219 kJ/mol
# Density = 1.882606 g / cm^3
# Si number density = 18.869006 Si / 1000 Ang^3
#
#
#
# Elastic Constant Matrix: (Units=GPa)
#
#
# Indices 1 2 3 4 5 6 
#
# 1 127.5287 42.8507 14.9666 0.0007 -7.8951 -0.0002
# 2 42.8507 122.6749 22.3044 -0.0027 -11.7869 -0.0068
# 3 14.9666 22.3044 22.3658 -0.0216 7.3343 -0.0226
# 4 0.0007 -0.0027 -0.0216 4.8548 0.0102 -26.3701
# 5 -7.8951 -11.7869 7.3343 0.0102 27.7620 0.0085
# 6 -0.0002 -0.0068 -0.0226 -26.3701 0.0085 0.3205
#
#
#
# Elastic Compliance Matrix: (Units=1/GPa)
#
#
# Indices 1 2 3 4 5 6 
#
# 1 0.009331 -0.001983 -0.005323 0.000006 0.003218 0.000007
# 2 -0.001983 0.012043 -0.013330 0.000011 0.008071 0.000015
# 3 -0.005323 -0.013330 0.069981 -0.000066 -0.025661 -0.000078
# 4 0.000006 0.000011 -0.000066 -0.000462 0.000036 -0.038007
# 5 0.003218 0.008071 -0.025661 0.000036 0.047142 0.000045
# 6 0.000007 0.000015 -0.000078 -0.038007 0.000045 -0.006997
#
#
# Mechanical properties :
#
#
# Convention : Reuss Voigt Hill
#
# Bulk Modulus (GPa) = 19.96590 48.09032 34.02811
# Shear Modulus (GPa) = 26.45441 19.41730 22.93585
#
# Velocity S-wave (km/s) = 3.74840 3.21137 3.49023
# Velocity P-wave (km/s) = 5.41648 6.26836 5.85792
#
# Compressibility (1/GPa) = 0.05008539
#
# Stress axis : x y z
#
# Youngs Moduli (GPa) = 107.16502 83.03387 14.28954
#
# Poissons Ratio (x) = 0.16462 0.07606
# Poissons Ratio (y) = 0.21246 0.19048
# Poissons Ratio (z) = 0.57039 1.10686
#
# Static dielectric constant tensor:
#      x y z
#    x 1.646190 0.000000 0.015640 
#    y 0.000000 1.691720 0.000000 
#    z 0.015640 0.000000 1.652990 
# 
# From -- ./inp_files/303039.got.cif
#   From: 2010.05.17/outbox.cif.g08.bks.cpg/sg12_152_cif.got.tgz:303039.got - 2010.06.03 13:09:07.
