data_PCOD9215043
_publ_section_title
;
Structure prediction by ZEFSAII (Michael W. Deem and Ramdas Pophale) SiO2 
 PCOD9215043
Probable space group: C 2/M
;
_chemical_formula_sum "Si O2"
_cell_formula_units_Z 52
_cell_length_a 15.343578
_cell_length_b 15.936070
_cell_length_c 17.435509
_cell_angle_alpha 90.000000
_cell_angle_beta 147.222326
_cell_angle_gamma 90.000000
_cell_volume 2308.050035
_symmetry_space_group_name_H-M "C 2/M"
_symmetry_group_IT_number 12
_symmetry_cell_setting 'monoclinic'
loop_
_space_group_symop_operation_xyz
x,y,z
-x,y,-z
-x,-y,-z
x,-y,z
1/2+x,1/2+y,z
1/2-x,1/2+y,-z
1/2-x,1/2-y,-z
1/2+x,1/2-y,z
loop_
_atom_site_type_symbol
_atom_site_label
_atom_site_fract_x
_atom_site_fract_y
_atom_site_fract_z
Si Si1 0.797050 0.856085 0.917606
Si Si2 0.174095 0.127249 0.232042
Si Si3 0.243793 0.500000 0.569357
Si Si4 0.830311 0.159795 0.538963
Si Si5 0.572826 0.091975 0.888667
Si Si6 0.697436 0.662314 0.819784
Si Si7 0.754564 0.317665 0.689652
O O1 0.778007 0.896794 0.819499
O O2 0.671446 0.892399 0.884483
O O3 0.763559 0.756667 0.883186
O O4 0.979093 0.868466 0.082615
O O5 0.232750 0.070861 0.344473
O O6 0.250030 0.218310 0.302083
O O7 0.240020 0.577063 0.502564
O O8 0.750000 0.250000 0.500000
O O9 0.847692 0.156957 0.459590
O O10 0.011322 0.158208 0.705542
O O11 0.435538 0.159669 0.799209
O O12 0.499032 0.000000 0.834666
O O13 0.698489 0.101718 0.050774
O O14 0.718970 0.642902 0.745901
#
# Coordination Sequence:
#
# PCOD9215043 Si02
#       7
#     8   8   4   8   8   8   8
#     4  10  22  40  70 103 142 179 232 292 361 419
#     4  10  22  42  71 102 137 182 232 292 352 425
#     4  12  26  43  71 103 138 186 237 286 358 425
#     4  12  26  46  73 103 144 188 240 293 356 431
#     4  12  26  41  69 107 147 184 238 295 352 423
#     4  11  24  45  73 101 138 191 241 286 356 424
#     4  11  24  48  69  98 142 192 236 291 351 418
#
# _framework density 22.529841999999999
#
# number of rings (size 3 to 8) (size 9 to 14) (size 15 to 20)
#    0.000    0.923    3.077    3.231    6.462    1.846 
#    0.000    0.769    0.000    8.308    0.000    0.000 
#    0.000    0.000    0.000    0.000    0.000    0.000 
#
# Total GULP energy -144972.239652 kJ/mol
# GULP energy per Si atom -5575.855371 kJ/mol
# Density = 2.247856 g / cm^3
# Si number density = 22.529842 Si / 1000 Ang^3
#
#
#
# Elastic Constant Matrix: (Units=GPa)
#
#
# Indices 1 2 3 4 5 6 
#
# 1 96.5325 27.5307 16.1920 0.0004 -23.7285 0.0005
# 2 27.5307 92.8780 2.4375 -0.0004 -28.7788 0.0002
# 3 16.1920 2.4375 51.1383 -0.0001 -15.2771 0.0004
# 4 0.0004 -0.0004 -0.0001 7.1216 -0.0018 -17.5666
# 5 -23.7285 -28.7788 -15.2771 -0.0018 39.2445 -0.0001
# 6 0.0005 0.0002 0.0004 -17.5666 -0.0001 18.5799
#
#
#
# Elastic Compliance Matrix: (Units=1/GPa)
#
#
# Indices 1 2 3 4 5 6 
#
# 1 0.012621 -0.002067 -0.002343 0.000000 0.005203 0.000000
# 2 -0.002067 0.014609 0.003152 -0.000003 0.010690 -0.000003
# 3 -0.002343 0.003152 0.023100 -0.000002 0.009887 -0.000002
# 4 0.000000 -0.000003 -0.000002 -0.105407 -0.000007 -0.099659
# 5 0.005203 0.010690 0.009887 -0.000007 0.040315 -0.000007
# 6 0.000000 -0.000003 -0.000002 -0.099659 -0.000007 -0.040402
#
#
# Mechanical properties :
#
#
# Convention : Reuss Voigt Hill
#
# Bulk Modulus (GPa) = 20.91509 36.98548 28.95028
# Shear Modulus (GPa) = -136.20736 25.94845 -55.12946
#
# Velocity S-wave (km/s) = -7.78381 3.39741 -4.95203
# Velocity P-wave (km/s) = 8.45459 5.64284 4.45188
#
# Compressibility (1/GPa) = 0.04781237
#
# Stress axis : x y z
#
# Youngs Moduli (GPa) = 79.23467 68.44927 43.28969
#
# Poissons Ratio (x) = 0.14152 0.10144
# Poissons Ratio (y) = 0.16382 -0.13644
# Poissons Ratio (z) = 0.18568 -0.21574
#
# Static dielectric constant tensor:
#      x y z
#    x 1.831780 0.000000 -0.005370 
#    y 0.000000 1.769020 0.000000 
#    z -0.005370 0.000000 1.857400 
# 
# From -- ./inp_files/270767.got.cif
#   From: 2010.05.17/outbox.cif.g08.bks.cpg/sg12_136_cif.got.tgz:270767.got - 2010.06.03 13:09:07.
