data_PCOD9215519
_publ_section_title
;
Structure prediction by ZEFSAII (Michael W. Deem and Ramdas Pophale) SiO2 
 PCOD9215519
Probable space group: C 2/M
;
_chemical_formula_sum "Si O2"
_cell_formula_units_Z 40
_cell_length_a 15.588168
_cell_length_b 22.749985
_cell_length_c 8.665440
_cell_angle_alpha 90.000000
_cell_angle_beta 36.241146
_cell_angle_gamma 90.000000
_cell_volume 1816.729352
_symmetry_space_group_name_H-M "C 2/M"
_symmetry_group_IT_number 12
_symmetry_cell_setting 'monoclinic'
loop_
_space_group_symop_operation_xyz
x,y,z
-x,y,-z
-x,-y,-z
x,-y,z
1/2+x,1/2+y,z
1/2-x,1/2+y,-z
1/2-x,1/2-y,-z
1/2+x,1/2-y,z
loop_
_atom_site_type_symbol
_atom_site_label
_atom_site_fract_x
_atom_site_fract_y
_atom_site_fract_z
Si Si1 0.532086 0.000000 0.637099
Si Si2 0.091028 0.380291 0.212023
Si Si3 0.866680 0.285156 0.089982
Si Si4 0.347986 0.500000 0.320848
Si Si5 0.831006 0.158891 0.067193
Si Si6 0.334197 0.370324 0.415323
O O1 0.500000 0.000000 0.500000
O O2 0.456630 0.940104 0.802618
O O3 0.703083 0.000000 0.424000
O O4 0.067499 0.325031 0.138689
O O5 0.000000 0.374490 0.500000
O O6 0.253446 0.376388 0.043160
O O7 0.789527 0.227762 0.133193
O O8 0.232383 0.328977 0.665542
O O9 0.000000 0.262846 0.000000
O O10 0.336935 0.440434 0.436550
O O11 0.500000 0.500000 0.000000
O O12 0.002561 0.152233 0.799578
O O13 0.794187 0.135334 0.291693
#
# Coordination Sequence:
#
# PCOD9215519 Si02
#       6
#     4   8   8   4   8   8
#     4  10  22  41  67  92 132 173 227 273 323 398
#     4  11  25  41  67  95 131 174 224 270 338 388
#     4  12  24  42  66  97 137 173 222 280 328 402
#     4  12  22  41  69 102 133 174 225 272 328 408
#     4  11  23  42  64  97 132 180 216 276 329 404
#     4  11  24  40  70  97 134 175 225 269 339 388
#
# _framework density 22.017589000000001
#
# number of rings (size 3 to 8) (size 9 to 14) (size 15 to 20)
#    0.000    0.800    4.000    6.000    2.800    1.600 
#    0.000    2.000    0.000    2.400    0.000    0.000 
#    0.000    0.000    0.000    0.000    0.000    0.000 
#
# Total GULP energy -111801.872932 kJ/mol
# GULP energy per Si atom -5590.093647 kJ/mol
# Density = 2.196748 g / cm^3
# Si number density = 22.017589 Si / 1000 Ang^3
#
#
#
# Elastic Constant Matrix: (Units=GPa)
#
#
# Indices 1 2 3 4 5 6 
#
# 1 58.3332 11.3984 20.9965 -0.0001 -29.5480 -0.0004
# 2 11.3984 168.6252 46.5835 0.0000 -5.5986 -0.0002
# 3 20.9965 46.5835 76.2085 -0.0001 -15.6784 -0.0002
# 4 -0.0001 0.0000 -0.0001 24.0581 0.0000 -15.6624
# 5 -29.5480 -5.5986 -15.6784 0.0000 29.4761 0.0001
# 6 -0.0004 -0.0002 -0.0002 -15.6624 0.0001 -64.5117
#
#
#
# Elastic Compliance Matrix: (Units=1/GPa)
#
#
# Indices 1 2 3 4 5 6 
#
# 1 0.035384 -0.000607 -0.002363 0.000000 0.034098 0.000000
# 2 -0.000607 0.007177 -0.004564 0.000000 -0.001673 0.000000
# 3 -0.002363 -0.004564 0.017850 0.000000 0.006259 0.000000
# 4 0.000000 0.000000 0.000000 0.035893 0.000000 -0.008714
# 5 0.034098 -0.001673 0.006259 0.000000 0.071119 0.000000
# 6 0.000000 0.000000 0.000000 -0.008714 0.000000 -0.013385
#
#
# Mechanical properties :
#
#
# Convention : Reuss Voigt Hill
#
# Bulk Modulus (GPa) = 22.05360 51.23599 36.64480
# Shear Modulus (GPa) = 27.14165 12.75040 19.94602
#
# Velocity S-wave (km/s) = 3.51483 2.40906 3.01310
# Velocity P-wave (km/s) = 5.14880 5.57307 5.36513
#
# Compressibility (1/GPa) = 0.04534406
#
# Stress axis : x y z
#
# Youngs Moduli (GPa) = 28.26128 139.34293 56.02189
#
# Poissons Ratio (x) = 0.08458 0.13236
# Poissons Ratio (y) = 0.01715 0.25567
# Poissons Ratio (z) = 0.06677 0.63592
#
# Static dielectric constant tensor:
#      x y z
#    x 1.832170 0.000000 -0.050180 
#    y 0.000000 1.857860 0.000000 
#    z -0.050180 0.000000 1.835270 
# 
# From -- ./inp_files/159418.got.cif
#   From: 2010.05.17/outbox.cif.g08.bks.cpg/sg12_80_cif.got.tgz:159418.got - 2010.06.03 13:09:07.
