data_PCOD9215529
_publ_section_title
;
Structure prediction by ZEFSAII (Michael W. Deem and Ramdas Pophale) SiO2 
 PCOD9215529
Probable space group: C 2/M
;
_chemical_formula_sum "Si O2"
_cell_formula_units_Z 56
_cell_length_a 19.390366
_cell_length_b 16.519478
_cell_length_c 10.085248
_cell_angle_alpha 90.000000
_cell_angle_beta 119.903007
_cell_angle_gamma 90.000000
_cell_volume 2800.420033
_symmetry_space_group_name_H-M "C 2/M"
_symmetry_group_IT_number 12
_symmetry_cell_setting 'monoclinic'
loop_
_space_group_symop_operation_xyz
x,y,z
-x,y,-z
-x,-y,-z
x,-y,z
1/2+x,1/2+y,z
1/2-x,1/2+y,-z
1/2-x,1/2-y,-z
1/2+x,1/2-y,z
loop_
_atom_site_type_symbol
_atom_site_label
_atom_site_fract_x
_atom_site_fract_y
_atom_site_fract_z
Si Si1 0.746346 0.364385 0.722874
Si Si2 0.350542 0.093202 0.573521
Si Si3 0.740004 0.325413 0.250713
Si Si4 0.186977 0.406437 0.934004
Si Si5 0.568659 0.598073 0.466393
Si Si6 0.487900 0.901242 0.140638
Si Si7 0.428568 0.402055 0.834997
O O1 0.799813 0.404815 0.660475
O O2 0.768644 0.270391 0.750395
O O3 0.764549 0.402320 0.882674
O O4 0.654736 0.373005 0.595637
O O5 0.303756 0.145262 0.421222
O O6 0.438209 0.123698 0.696906
O O7 0.355754 0.000000 0.532040
O O8 0.655734 0.366626 0.201378
O O9 0.772092 0.353452 0.139161
O O10 0.183303 0.500000 0.885313
O O11 0.097616 0.377956 0.883715
O O12 0.500000 0.626283 0.500000
O O13 0.569780 0.500000 0.470656
O O14 0.554712 0.622288 0.300761
O O15 0.489393 0.000000 0.138408
O O16 0.500000 0.873821 0.000000
O O17 0.423101 0.500000 0.834165
O O18 0.500000 0.376844 0.000000
#
# Coordination Sequence:
#
# PCOD9215529 Si02
#       7
#     8   8   8   8   8   8   8
#     4  12  24  42  63  95 129 169 211 258 323 378
#     4  11  21  40  69  92 122 170 215 254 303 377
#     4  12  26  42  59  98 135 164 205 262 332 378
#     4  11  23  42  68  93 123 166 213 259 307 377
#     4  10  22  41  67  95 121 164 223 266 302 370
#     4   9  18  36  63  96 118 150 212 260 299 363
#     4  10  22  42  66  92 126 168 214 262 313 376
#
# _framework density 19.997
#
# number of rings (size 3 to 8) (size 9 to 14) (size 15 to 20)
#    0.000    1.286    2.857    3.429    2.000    0.571 
#    5.143    2.143    0.000    0.000    0.000    0.000 
#    0.000    0.000    0.000    0.000    0.000    0.000 
#
# Total GULP energy -156600.622323 kJ/mol
# GULP energy per Si atom -5592.879369 kJ/mol
# Density = 1.995149 g / cm^3
# Si number density = 19.997000 Si / 1000 Ang^3
#
#
#
# Elastic Constant Matrix: (Units=GPa)
#
#
# Indices 1 2 3 4 5 6 
#
# 1 128.6774 8.2553 71.8661 0.0000 7.6359 0.0000
# 2 8.2553 38.4712 7.4897 0.0000 1.4603 0.0000
# 3 71.8661 7.4897 129.7119 0.0000 11.6477 0.0000
# 4 0.0000 0.0000 0.0000 14.5648 0.0000 -12.6787
# 5 7.6359 1.4603 11.6477 0.0000 39.4156 0.0000
# 6 0.0000 0.0000 0.0000 -12.6787 0.0000 -13.8104
#
#
#
# Elastic Compliance Matrix: (Units=1/GPa)
#
#
# Indices 1 2 3 4 5 6 
#
# 1 0.011314 -0.001214 -0.006169 0.000000 -0.000324 0.000000
# 2 -0.001214 0.026431 -0.000808 0.000000 -0.000505 0.000000
# 3 -0.006169 -0.000808 0.011366 0.000000 -0.002134 0.000000
# 4 0.000000 0.000000 0.000000 0.038161 0.000000 -0.035034
# 5 -0.000324 -0.000505 -0.002134 0.000000 0.026083 0.000000
# 6 0.000000 0.000000 0.000000 -0.035034 0.000000 -0.040246
#
#
# Mechanical properties :
#
#
# Convention : Reuss Voigt Hill
#
# Bulk Modulus (GPa) = 30.55582 52.45363 41.50472
# Shear Modulus (GPa) = 49.80051 21.98396 35.89223
#
# Velocity S-wave (km/s) = 4.99580 3.31926 4.24120
# Velocity P-wave (km/s) = 6.97071 6.40138 6.69210
#
# Compressibility (1/GPa) = 0.03272699
#
# Stress axis : x y z
#
# Youngs Moduli (GPa) = 88.38593 37.83501 87.98423
#
# Poissons Ratio (x) = 0.04595 0.54280
# Poissons Ratio (y) = 0.10734 0.07108
# Poissons Ratio (z) = 0.54528 0.03057
#
# Static dielectric constant tensor:
#      x y z
#    x 1.670570 0.000000 0.004620 
#    y 0.000000 1.694530 0.000000 
#    z 0.004620 0.000000 1.684390 
# 
# From -- ./inp_files/75977.got.cif
#   From: 2010.05.17/outbox.cif.g08.bks.cpg/sg12_38_cif.got.tgz:75977.got - 2010.06.03 13:09:07.
