data_PCOD9215705
_publ_section_title
;
Structure prediction by ZEFSAII (Michael W. Deem and Ramdas Pophale) SiO2 
 PCOD9215705
Probable space group: C 2/M
;
_chemical_formula_sum "Si O2"
_cell_formula_units_Z 48
_cell_length_a 18.484693
_cell_length_b 14.281369
_cell_length_c 17.167977
_cell_angle_alpha 90.000000
_cell_angle_beta 30.826365
_cell_angle_gamma 90.000000
_cell_volume 2322.429766
_symmetry_space_group_name_H-M "C 2/M"
_symmetry_group_IT_number 12
_symmetry_cell_setting 'monoclinic'
loop_
_space_group_symop_operation_xyz
x,y,z
-x,y,-z
-x,-y,-z
x,-y,z
1/2+x,1/2+y,z
1/2-x,1/2+y,-z
1/2-x,1/2-y,-z
1/2+x,1/2-y,z
loop_
_atom_site_type_symbol
_atom_site_label
_atom_site_fract_x
_atom_site_fract_y
_atom_site_fract_z
Si Si1 0.488224 0.104115 0.222578
Si Si2 0.305007 0.844391 0.832019
Si Si3 0.019045 0.798763 0.844190
Si Si4 0.672796 0.608717 0.555316
Si Si5 0.770843 0.393265 0.689070
Si Si6 0.536145 0.272716 0.551150
O O1 0.613797 0.113843 0.169053
O O2 0.487597 0.186919 0.160173
O O3 0.341587 0.114723 0.405534
O O4 0.489819 0.000000 0.186813
O O5 0.309859 0.896311 0.744202
O O6 0.393453 0.750366 0.730180
O O7 0.141450 0.831635 0.001863
O O8 0.093651 0.838734 0.697656
O O9 0.120015 0.841671 0.817349
O O10 0.632384 0.500000 0.592126
O O11 0.631241 0.659822 0.514162
O O12 0.767733 0.500000 0.661363
O O13 0.881055 0.324515 0.544137
O O14 0.500000 0.312901 0.500000
#
# Coordination Sequence:
#
# PCOD9215705 Si02
#       6
#     8   8   8   8   8   8
#     4  11  23  40  65  91 124 167 210 252 304 372
#     4  11  24  40  63  94 133 160 201 256 317 367
#     4  12  23  42  62  95 131 163 202 260 315 365
#     4  11  23  41  65  91 122 167 214 255 307 371
#     4  11  24  42  66  92 126 168 207 253 311 375
#     4  10  22  42  63  91 125 165 210 257 307 369
#
# _framework density 20.668009000000001
#
# number of rings (size 3 to 8) (size 9 to 14) (size 15 to 20)
#    0.000    1.000    3.333    3.500    0.000    8.667 
#    0.000    0.000    0.000    3.000    0.000    0.000 
#    0.000    0.000    0.000    0.000    0.000    0.000 
#
# Total GULP energy -134135.554973 kJ/mol
# GULP energy per Si atom -5588.981457 kJ/mol
# Density = 2.062097 g / cm^3
# Si number density = 20.668009 Si / 1000 Ang^3
#
#
#
# Elastic Constant Matrix: (Units=GPa)
#
#
# Indices 1 2 3 4 5 6 
#
# 1 83.2567 32.6412 7.7016 0.0000 -25.2951 0.0000
# 2 32.6412 114.4297 9.4413 0.0000 -7.1445 0.0000
# 3 7.7016 9.4413 80.8378 0.0001 -36.7031 -0.0001
# 4 0.0000 0.0000 0.0001 8.8681 0.0000 2.2189
# 5 -25.2951 -7.1445 -36.7031 0.0000 34.3383 0.0000
# 6 0.0000 0.0000 -0.0001 2.2189 0.0000 7.1172
#
#
#
# Elastic Compliance Matrix: (Units=1/GPa)
#
#
# Indices 1 2 3 4 5 6 
#
# 1 0.020583 -0.005146 0.009789 0.000000 0.024555 0.000000
# 2 -0.005146 0.010147 -0.002832 0.000000 -0.004706 0.000000
# 3 0.009789 -0.002832 0.028706 0.000000 0.037305 0.000000
# 4 0.000000 0.000000 0.000000 0.122304 0.000000 -0.038131
# 5 0.024555 -0.004706 0.037305 0.000000 0.086105 0.000000
# 6 0.000000 0.000000 0.000000 -0.038131 0.000000 0.152393
#
#
# Mechanical properties :
#
#
# Convention : Reuss Voigt Hill
#
# Bulk Modulus (GPa) = 15.85835 42.01026 28.93431
# Shear Modulus (GPa) = 11.42504 25.31406 18.36955
#
# Velocity S-wave (km/s) = 2.35370 3.50350 2.98449
# Velocity P-wave (km/s) = 3.88279 6.06106 5.08982
#
# Compressibility (1/GPa) = 0.06305826
#
# Stress axis : x y z
#
# Youngs Moduli (GPa) = 48.58325 98.55454 34.83576
#
# Poissons Ratio (x) = 0.50716 -0.34099
# Poissons Ratio (y) = 0.25001 0.09864
# Poissons Ratio (z) = -0.47556 0.27906
#
# Static dielectric constant tensor:
#      x y z
#    x 1.776010 0.000000 -0.007940 
#    y 0.000000 1.738030 0.000000 
#    z -0.007940 0.000000 1.729770 
# 
# From -- ./inp_files/278041.got.cif
#   From: 2010.05.17/outbox.cif.g08.bks.cpg/sg12_140_cif.got.tgz:278041.got - 2010.06.03 13:09:07.
