data_PCOD9215820
_publ_section_title
;
Structure prediction by ZEFSAII (Michael W. Deem and Ramdas Pophale) SiO2 
 PCOD9215820
Probable space group: C 2/M
;
_chemical_formula_sum "Si O2"
_cell_formula_units_Z 64
_cell_length_a 31.136446
_cell_length_b 16.251773
_cell_length_c 9.125867
_cell_angle_alpha 90.000000
_cell_angle_beta 47.285761
_cell_angle_gamma 90.000000
_cell_volume 3392.979026
_symmetry_space_group_name_H-M "C 2/M"
_symmetry_group_IT_number 12
_symmetry_cell_setting 'monoclinic'
loop_
_space_group_symop_operation_xyz
x,y,z
-x,y,-z
-x,-y,-z
x,-y,z
1/2+x,1/2+y,z
1/2-x,1/2+y,-z
1/2-x,1/2-y,-z
1/2+x,1/2-y,z
loop_
_atom_site_type_symbol
_atom_site_label
_atom_site_fract_x
_atom_site_fract_y
_atom_site_fract_z
Si Si1 0.462405 0.405624 0.234649
Si Si2 0.671505 0.594475 0.423526
Si Si3 0.695661 0.305897 0.076033
Si Si4 0.380760 0.817612 0.924151
Si Si5 0.283409 0.095507 0.688354
Si Si6 0.773444 0.338508 0.392904
Si Si7 0.597476 0.902926 0.418102
Si Si8 0.995166 0.741593 0.336349
O O1 0.471195 0.500000 0.274461
O O2 0.393387 0.398332 0.361429
O O3 0.478205 0.327586 0.299790
O O4 0.500000 0.399978 0.000000
O O5 0.682400 0.500000 0.359228
O O6 0.674936 0.646516 0.267151
O O7 0.720772 0.622384 0.422549
O O8 0.644109 0.254442 0.122965
O O9 0.750000 0.250000 0.000000
O O10 0.725563 0.362006 0.884095
O O11 0.394012 0.890100 0.776798
O O12 0.440523 0.788665 0.860680
O O13 0.329530 0.834771 0.157518
O O14 0.289236 0.113558 0.503812
O O15 0.341794 0.120368 0.641741
O O16 0.277066 0.000000 0.730156
O O17 0.750000 0.250000 0.500000
O O18 0.549593 0.835266 0.578807
O O19 0.584213 0.000000 0.478203
O O20 0.000000 0.754833 0.500000
#
# Coordination Sequence:
#
# PCOD9215820 Si02
#       8
#     8   8   8   8   8   8   8   8
#     4  10  24  43  66  92 124 166 209 255 312 375
#     4  11  23  40  63  90 122 162 205 254 310 369
#     4  12  20  39  63  89 120 159 206 253 307 367
#     4  11  23  38  62  94 120 165 209 253 311 372
#     4  11  23  38  59  90 126 163 203 256 313 367
#     4  12  24  38  60  90 127 162 203 254 313 370
#     4  10  22  42  66  91 126 168 212 259 306 367
#     4  10  23  40  64  94 124 162 213 257 311 363
#
# _framework density 18.862480000000001
#
# number of rings (size 3 to 8) (size 9 to 14) (size 15 to 20)
#    0.000    1.125    3.750    2.250    3.500    4.500 
#    0.000    1.250    0.000    1.875    0.000    0.000 
#    0.000    0.000    0.000    0.000    0.000    0.000 
#
# Total GULP energy -178670.178383 kJ/mol
# GULP energy per Si atom -5583.443074 kJ/mol
# Density = 1.881955 g / cm^3
# Si number density = 18.862480 Si / 1000 Ang^3
#
#
#
# Elastic Constant Matrix: (Units=GPa)
#
#
# Indices 1 2 3 4 5 6 
#
# 1 58.5012 41.3403 28.7794 0.0000 -14.1253 0.0000
# 2 41.3403 102.1054 42.5354 0.0000 -14.7319 0.0000
# 3 28.7794 42.5354 105.3985 0.0000 -13.0965 0.0000
# 4 0.0000 0.0000 0.0000 -14.6154 0.0000 -33.5108
# 5 -14.1253 -14.7319 -13.0965 0.0000 29.6743 0.0000
# 6 0.0000 0.0000 0.0000 -33.5108 0.0000 0.0972
#
#
#
# Elastic Compliance Matrix: (Units=1/GPa)
#
#
# Indices 1 2 3 4 5 6 
#
# 1 0.026112 -0.008359 -0.002886 0.000000 0.007006 0.000000
# 2 -0.008359 0.014907 -0.003500 0.000000 0.001877 0.000000
# 3 -0.002886 -0.003500 0.011958 0.000000 0.002166 0.000000
# 4 0.000000 0.000000 0.000000 -0.000086 0.000000 -0.029803
# 5 0.007006 0.001877 0.002166 0.000000 0.038922 0.000000
# 6 0.000000 0.000000 0.000000 -0.029803 0.000000 0.012998
#
#
# Mechanical properties :
#
#
# Convention : Reuss Voigt Hill
#
# Bulk Modulus (GPa) = 42.57863 54.59058 48.58460
# Shear Modulus (GPa) = 35.17897 13.25455 24.21676
#
# Velocity S-wave (km/s) = 4.32328 2.65371 3.58698
# Velocity P-wave (km/s) = 6.89515 6.19627 6.55503
#
# Compressibility (1/GPa) = 0.02348596
#
# Stress axis : x y z
#
# Youngs Moduli (GPa) = 38.29638 67.08157 83.62896
#
# Poissons Ratio (x) = 0.56075 0.24135
# Poissons Ratio (y) = 0.32013 0.29273
# Poissons Ratio (z) = 0.11052 0.23481
#
# Static dielectric constant tensor:
#      x y z
#    x 1.627560 0.000000 -0.031830 
#    y 0.000000 1.684170 0.000000 
#    z -0.031830 0.000000 1.631520 
# 
# From -- ./inp_files/111940.got.cif
#   From: 2010.05.17/outbox.cif.g08.bks.cpg/sg12_56_cif.got.tgz:111940.got - 2010.06.03 13:09:07.
