data_PCOD9215596
_publ_section_title
;
Structure prediction by ZEFSAII (Michael W. Deem and Ramdas Pophale) SiO2 
 PCOD9215596
Probable space group: C 2/M
;
_chemical_formula_sum "Si O2"
_cell_formula_units_Z 48
_cell_length_a 12.959761
_cell_length_b 16.713655
_cell_length_c 14.486815
_cell_angle_alpha 90.000000
_cell_angle_beta 39.744355
_cell_angle_gamma 90.000000
_cell_volume 2006.268292
_symmetry_space_group_name_H-M "C 2/M"
_symmetry_group_IT_number 12
_symmetry_cell_setting 'monoclinic'
loop_
_space_group_symop_operation_xyz
x,y,z
-x,y,-z
-x,-y,-z
x,-y,z
1/2+x,1/2+y,z
1/2-x,1/2+y,-z
1/2-x,1/2-y,-z
1/2+x,1/2-y,z
loop_
_atom_site_type_symbol
_atom_site_label
_atom_site_fract_x
_atom_site_fract_y
_atom_site_fract_z
Si Si1 0.452204 0.825217 0.244036
Si Si2 0.694330 0.088971 0.491852
Si Si3 0.281604 0.405494 0.071780
Si Si4 0.844106 0.156014 0.663076
Si Si5 0.067770 0.912290 0.219318
Si Si6 0.790994 0.820949 0.258786
O O1 0.387747 0.842043 0.391703
O O2 0.630155 0.862054 0.125273
O O3 0.322051 0.872799 0.270369
O O4 0.424086 0.734724 0.224973
O O5 0.706084 0.110409 0.376794
O O6 0.885344 0.089021 0.381342
O O7 0.628231 0.000000 0.555265
O O8 0.251469 0.500000 0.112625
O O9 0.322638 0.356647 0.135897
O O10 0.421234 0.404118 0.898209
O O11 0.838492 0.143649 0.776212
O O12 0.840719 0.251181 0.657963
O O13 0.000000 0.124740 0.500000
O O14 0.137049 0.000000 0.189877
#
# Coordination Sequence:
#
# PCOD9215596 Si02
#       6
#     8   8   8   8   8   8
#     4  10  24  41  68  98 132 171 220 275 324 390
#     4  11  22  41  68  98 127 172 223 271 325 391
#     4  11  25  46  66  96 137 177 216 271 333 393
#     4  10  22  41  68  97 130 170 220 273 328 391
#     4  10  23  42  66  93 133 173 216 270 329 391
#     4  10  25  40  67  95 134 174 219 272 329 389
#
# _framework density 23.925014999999998
#
# number of rings (size 3 to 8) (size 9 to 14) (size 15 to 20)
#    1.000    0.667    1.667    1.500    4.667    3.667 
#    3.000    5.833    0.000    0.000    0.000    0.000 
#    0.000    0.000    0.000    0.000    0.000    0.000 
#
# Total GULP energy -133723.133293 kJ/mol
# GULP energy per Si atom -5571.797221 kJ/mol
# Density = 2.387056 g / cm^3
# Si number density = 23.925015 Si / 1000 Ang^3
#
#
#
# Elastic Constant Matrix: (Units=GPa)
#
#
# Indices 1 2 3 4 5 6 
#
# 1 83.2087 30.9999 15.9960 0.0001 14.5987 0.0000
# 2 30.9999 105.2686 19.5484 0.0002 -7.1068 -0.0001
# 3 15.9960 19.5484 68.5940 0.0004 4.2522 -0.0005
# 4 0.0001 0.0002 0.0004 35.5146 -0.0003 20.1086
# 5 14.5987 -7.1068 4.2522 -0.0003 30.3051 0.0001
# 6 0.0000 -0.0001 -0.0005 20.1086 0.0001 38.9419
#
#
#
# Elastic Compliance Matrix: (Units=1/GPa)
#
#
# Indices 1 2 3 4 5 6 
#
# 1 0.015638 -0.004851 -0.001742 0.000000 -0.008426 0.000000
# 2 -0.004851 0.011772 -0.002562 0.000000 0.005457 0.000000
# 3 -0.001742 -0.002562 0.015838 0.000000 -0.001984 0.000000
# 4 0.000000 0.000000 0.000000 0.039791 0.000001 -0.020547
# 5 -0.008426 0.005457 -0.001984 0.000001 0.038615 0.000000
# 6 0.000000 0.000000 0.000000 -0.020547 0.000000 0.036289
#
#
# Mechanical properties :
#
#
# Convention : Reuss Voigt Hill
#
# Bulk Modulus (GPa) = 40.09797 43.35108 41.72452
# Shear Modulus (GPa) = 27.09048 33.65412 30.37230
#
# Velocity S-wave (km/s) = 3.36863 3.75460 3.56684
# Velocity P-wave (km/s) = 5.65035 6.07906 5.86862
#
# Compressibility (1/GPa) = 0.02493892
#
# Stress axis : x y z
#
# Youngs Moduli (GPa) = 63.94511 84.94660 63.13965
#
# Poissons Ratio (x) = 0.41204 0.11000
# Poissons Ratio (y) = 0.31017 0.16176
# Poissons Ratio (z) = 0.11140 0.21763
#
# Static dielectric constant tensor:
#      x y z
#    x 2.054240 0.000000 -0.011930 
#    y 0.000000 1.910480 0.000000 
#    z -0.011930 0.000000 1.888800 
# 
# From -- ./inp_files/216250.got.cif
#   From: 2010.05.17/outbox.cif.g08.bks.cpg/sg12_109_cif.got.tgz:216250.got - 2010.06.03 13:09:07.
