data_PCOD9215456
_publ_section_title
;
Structure prediction by ZEFSAII (Michael W. Deem and Ramdas Pophale) SiO2 
 PCOD9215456
Probable space group: C 2/M
;
_chemical_formula_sum "Si O2"
_cell_formula_units_Z 32
_cell_length_a 17.407290
_cell_length_b 19.879231
_cell_length_c 10.332012
_cell_angle_alpha 90.000000
_cell_angle_beta 27.046488
_cell_angle_gamma 90.000000
_cell_volume 1625.748229
_symmetry_space_group_name_H-M "C 2/M"
_symmetry_group_IT_number 12
_symmetry_cell_setting 'monoclinic'
loop_
_space_group_symop_operation_xyz
x,y,z
-x,y,-z
-x,-y,-z
x,-y,z
1/2+x,1/2+y,z
1/2-x,1/2+y,-z
1/2-x,1/2-y,-z
1/2+x,1/2-y,z
loop_
_atom_site_type_symbol
_atom_site_label
_atom_site_fract_x
_atom_site_fract_y
_atom_site_fract_z
Si Si1 0.800146 0.782668 0.791830
Si Si2 0.182767 0.926092 0.293750
Si Si3 0.700874 0.698747 0.688478
Si Si4 0.829078 0.577592 0.339850
O O1 0.727324 0.858361 0.889217
O O2 0.754919 0.735272 0.739554
O O3 0.000000 0.790681 0.500000
O O4 0.750000 0.750000 0.000000
O O5 0.181534 0.917247 0.451424
O O6 0.000000 0.928892 0.500000
O O7 0.262809 0.000000 0.150696
O O8 0.750000 0.750000 0.500000
O O9 0.791726 0.629638 0.509767
O O10 0.500000 0.688232 0.000000
O O11 0.836928 0.500000 0.370664
O O12 0.000000 0.592112 0.000000
#
# Coordination Sequence:
#
# PCOD9215456 Si02
#       4
#     8   8   8   8
#     4  11  24  39  61  91 124 160 202 256 309 366
#     4   9  19  37  62  86 118 160 205 244 302 372
#     4  12  24  40  64  91 126 164 208 258 309 366
#     4  10  22  41  66  93 123 163 209 257 315 377
#
# _framework density 19.683243999999998
#
# number of rings (size 3 to 8) (size 9 to 14) (size 15 to 20)
#    0.000    1.500    2.500    2.250    7.000    0.500 
#    0.000    1.250    0.000    1.500    0.000    0.000 
#    0.000    0.000    0.000    0.000    0.000    0.000 
#
# Total GULP energy -89231.594756 kJ/mol
# GULP energy per Si atom -5576.974672 kJ/mol
# Density = 1.963844 g / cm^3
# Si number density = 19.683244 Si / 1000 Ang^3
#
#
#
# Elastic Constant Matrix: (Units=GPa)
#
#
# Indices 1 2 3 4 5 6 
#
# 1 118.6545 56.9916 27.1311 0.0021 15.7449 0.0013
# 2 56.9916 216.2097 75.8375 0.0009 32.5535 -0.0007
# 3 27.1311 75.8375 101.7967 -0.0011 12.8577 -0.0018
# 4 0.0021 0.0009 -0.0011 20.7255 -0.0023 8.0939
# 5 15.7449 32.5535 12.8577 -0.0023 41.1144 0.0003
# 6 0.0013 -0.0007 -0.0018 8.0939 0.0003 31.1385
#
#
#
# Elastic Compliance Matrix: (Units=1/GPa)
#
#
# Indices 1 2 3 4 5 6 
#
# 1 0.009844 -0.001992 -0.000898 -0.000001 -0.001912 0.000000
# 2 -0.001992 0.007236 -0.004407 -0.000001 -0.003589 0.000000
# 3 -0.000898 -0.004407 0.013391 0.000001 -0.000355 0.000001
# 4 -0.000001 -0.000001 0.000001 0.053701 0.000004 -0.013958
# 5 -0.001912 -0.003589 -0.000355 0.000004 0.028007 -0.000001
# 6 0.000000 0.000000 0.000001 -0.013958 -0.000001 0.035743
#
#
# Mechanical properties :
#
#
# Convention : Reuss Voigt Hill
#
# Bulk Modulus (GPa) = 62.98465 84.06457 73.52461
# Shear Modulus (GPa) = 29.79621 37.04239 33.41930
#
# Velocity S-wave (km/s) = 3.89496 4.34282 4.12497
# Velocity P-wave (km/s) = 7.23161 8.24307 7.75385
#
# Compressibility (1/GPa) = 0.01587688
#
# Stress axis : x y z
#
# Youngs Moduli (GPa) = 101.58899 138.19416 74.67890
#
# Poissons Ratio (x) = 0.27526 0.06708
# Poissons Ratio (y) = 0.20235 0.32909
# Poissons Ratio (z) = 0.09125 0.60899
#
# Static dielectric constant tensor:
#      x y z
#    x 1.751940 0.000000 -0.056590 
#    y 0.000000 1.744130 0.000000 
#    z -0.056590 0.000000 1.648620 
# 
# From -- ./inp_files/38357.got.cif
#   From: 2010.05.17/outbox.cif.g08.bks.cpg/sg12_20_cif.got.tgz:38357.got - 2010.06.03 13:09:07.
