data_PCOD9215404
_publ_section_title
;
Structure prediction by ZEFSAII (Michael W. Deem and Ramdas Pophale) SiO2 
 PCOD9215404
Probable space group: C 2/M
;
_chemical_formula_sum "Si O2"
_cell_formula_units_Z 56
_cell_length_a 23.661620
_cell_length_b 16.424260
_cell_length_c 18.300315
_cell_angle_alpha 90.000000
_cell_angle_beta 21.938397
_cell_angle_gamma 90.000000
_cell_volume 2657.092989
_symmetry_space_group_name_H-M "C 2/M"
_symmetry_group_IT_number 12
_symmetry_cell_setting 'monoclinic'
loop_
_space_group_symop_operation_xyz
x,y,z
-x,y,-z
-x,-y,-z
x,-y,z
1/2+x,1/2+y,z
1/2-x,1/2+y,-z
1/2-x,1/2-y,-z
1/2+x,1/2-y,z
loop_
_atom_site_type_symbol
_atom_site_label
_atom_site_fract_x
_atom_site_fract_y
_atom_site_fract_z
Si Si1 0.427535 0.092785 0.899774
Si Si2 0.605870 0.140340 0.816330
Si Si3 0.103073 0.904725 0.623836
Si Si4 0.223100 0.154608 0.024773
Si Si5 0.719732 0.906714 0.449523
Si Si6 0.665884 0.095827 0.263444
Si Si7 0.668420 0.687151 0.813742
O O1 0.490696 0.152989 0.886246
O O2 0.559446 0.093677 0.681206
O O3 0.420261 0.000000 0.937490
O O4 0.278105 0.115256 0.034988
O O5 0.755080 0.102751 0.601462
O O6 0.658509 0.219546 0.798836
O O7 0.500000 0.092487 0.000000
O O8 0.162287 0.873969 0.631491
O O9 0.953535 0.860829 0.777072
O O10 0.067975 0.000000 0.674339
O O11 0.250000 0.250000 0.000000
O O12 0.314885 0.117261 0.845369
O O13 0.719930 0.855223 0.377058
O O14 0.759065 0.000000 0.385098
O O15 0.500000 0.104761 0.500000
O O16 0.775522 0.158636 0.174743
O O17 0.708495 0.000000 0.222040
O O18 0.500000 0.653914 0.000000
#
# Coordination Sequence:
#
# PCOD9215404 Si02
#       7
#     8   8   8   8   8   8   8
#     4  10  22  42  66  91 124 171 221 269 326 400
#     4  10  24  41  66  95 129 167 225 284 333 394
#     4  10  22  41  65  94 130 173 221 277 333 401
#     4  12  27  40  67 101 135 178 218 278 337 400
#     4   9  19  36  62  91 125 166 215 263 323 400
#     4  11  25  45  69  96 137 183 221 268 333 411
#     4  11  23  36  61  95 132 165 209 272 332 393
#
# _framework density 21.075664
#
# number of rings (size 3 to 8) (size 9 to 14) (size 15 to 20)
#    0.000    1.571    0.000    4.714   10.000    6.857 
#    0.000    0.714    0.000    1.714    0.000    0.000 
#    0.000    0.000    0.000    0.000    0.000    0.000 
#
# Total GULP energy -156265.570056 kJ/mol
# GULP energy per Si atom -5580.913216 kJ/mol
# Density = 2.102769 g / cm^3
# Si number density = 21.075664 Si / 1000 Ang^3
#
#
#
# Elastic Constant Matrix: (Units=GPa)
#
#
# Indices 1 2 3 4 5 6 
#
# 1 113.0594 29.6498 17.7418 -0.0014 -12.3072 0.0007
# 2 29.6498 66.2573 -1.7986 0.0003 7.1812 -0.0002
# 3 17.7418 -1.7986 65.7502 -0.0017 6.5567 0.0010
# 4 -0.0014 0.0003 -0.0017 23.4249 0.0007 1.8858
# 5 -12.3072 7.1812 6.5567 0.0007 35.4053 -0.0003
# 6 0.0007 -0.0002 0.0010 1.8858 -0.0003 32.7509
#
#
#
# Elastic Compliance Matrix: (Units=1/GPa)
#
#
# Indices 1 2 3 4 5 6 
#
# 1 0.011681 -0.005984 -0.003914 0.000000 0.005999 0.000000
# 2 -0.005984 0.018533 0.002755 0.000000 -0.006349 0.000000
# 3 -0.003914 0.002755 0.016843 0.000001 -0.005038 -0.000001
# 4 0.000000 0.000000 0.000001 0.042888 -0.000001 -0.002469
# 5 0.005999 -0.006349 -0.005038 -0.000001 0.032551 0.000000
# 6 0.000000 0.000000 -0.000001 -0.002469 0.000000 0.030676
#
#
# Mechanical properties :
#
#
# Convention : Reuss Voigt Hill
#
# Bulk Modulus (GPa) = 30.51407 37.36140 33.93773
# Shear Modulus (GPa) = 28.02967 31.61448 29.82208
#
# Velocity S-wave (km/s) = 3.65081 3.87725 3.76573
# Velocity P-wave (km/s) = 5.68164 6.14897 5.91992
#
# Compressibility (1/GPa) = 0.03277177
#
# Stress axis : x y z
#
# Youngs Moduli (GPa) = 85.60617 53.95676 59.37176
#
# Poissons Ratio (x) = 0.32287 0.23238
# Poissons Ratio (y) = 0.51225 -0.16356
# Poissons Ratio (z) = 0.33506 -0.14864
#
# Static dielectric constant tensor:
#      x y z
#    x 1.780740 0.000000 -0.000660 
#    y 0.000000 1.773100 0.000000 
#    z -0.000660 0.000000 1.782780 
# 
# From -- ./inp_files/234646.got.cif
#   From: 2010.05.17/outbox.cif.g08.bks.cpg/sg12_118_cif.got.tgz:234646.got - 2010.06.03 13:09:07.
