data_PCOD9215082
_publ_section_title
;
Structure prediction by ZEFSAII (Michael W. Deem and Ramdas Pophale) SiO2 
 PCOD9215082
Probable space group: C 2/M
;
_chemical_formula_sum "Si O2"
_cell_formula_units_Z 50
_cell_length_a 21.113441
_cell_length_b 7.629990
_cell_length_c 16.963525
_cell_angle_alpha 90.000000
_cell_angle_beta 120.340924
_cell_angle_gamma 90.000000
_cell_volume 2358.454397
_symmetry_space_group_name_H-M "C 2/M"
_symmetry_group_IT_number 12
_symmetry_cell_setting 'monoclinic'
loop_
_space_group_symop_operation_xyz
x,y,z
-x,y,-z
-x,-y,-z
x,-y,z
1/2+x,1/2+y,z
1/2-x,1/2+y,-z
1/2-x,1/2-y,-z
1/2+x,1/2-y,z
loop_
_atom_site_type_symbol
_atom_site_label
_atom_site_fract_x
_atom_site_fract_y
_atom_site_fract_z
Si Si1 0.248399 0.705976 0.230227
Si Si2 0.584083 0.297037 0.115979
Si Si3 0.000000 0.500000 0.000000
Si Si4 0.311780 0.710903 0.103524
Si Si5 0.383254 0.211094 0.415960
Si Si6 0.475429 0.705091 0.183085
Si Si7 0.485073 0.212087 0.616456
O O1 0.236581 0.500000 0.212034
O O2 0.169079 0.788346 0.191654
O O3 0.286157 0.775534 0.173541
O O4 0.304069 0.731352 0.337316
O O5 0.568840 0.500000 0.086753
O O6 0.533525 0.225659 0.156245
O O7 0.563565 0.157210 0.036563
O O8 0.318686 0.500000 0.113639
O O9 0.392935 0.779916 0.132873
O O10 0.250000 0.750000 0.000000
O O11 0.414984 0.268516 0.520457
O O12 0.443178 0.268276 0.388233
O O13 0.384279 0.000000 0.416894
O O14 0.468959 0.500000 0.159753
O O15 0.508374 0.722537 0.291105
O O16 0.485369 0.000000 0.619152
#
# Coordination Sequence:
#
# PCOD9215082 Si02
#       7
#     8   8   2   8   8   8   8
#     4  11  22  40  61  90 124 164 208 259 310 378
#     4  11  26  44  67  92 128 168 212 262 314 373
#     4  12  26  48  68  94 120 172 222 254 312 386
#     4  10  23  38  57  85 119 153 201 255 309 370
#     4   9  18  34  57  91 125 162 207 255 316 377
#     4  10  22  41  60  88 122 160 205 258 314 375
#     4   9  18  33  59  90 124 162 206 256 315 378
#
# _framework density 21.200324999999999
#
# number of rings (size 3 to 8) (size 9 to 14) (size 15 to 20)
#    0.000    1.920    2.400    1.680    3.360    2.560 
#    0.000    2.400    0.000    0.000    0.000    0.000 
#    0.000    0.000    0.000    0.000    0.000    0.000 
#
# Total GULP energy -139379.628755 kJ/mol
# GULP energy per Si atom -5575.185150 kJ/mol
# Density = 2.115207 g / cm^3
# Si number density = 21.200325 Si / 1000 Ang^3
#
#
#
# Elastic Constant Matrix: (Units=GPa)
#
#
# Indices 1 2 3 4 5 6 
#
# 1 129.7953 13.2335 68.3969 0.0000 21.7443 0.0000
# 2 13.2335 82.1125 3.3153 0.0000 8.7239 0.0000
# 3 68.3969 3.3153 135.4726 0.0000 32.2795 0.0000
# 4 0.0000 0.0000 0.0000 33.1600 0.0000 14.0674
# 5 21.7443 8.7239 32.2795 0.0000 39.3188 0.0000
# 6 0.0000 0.0000 0.0000 14.0674 0.0000 9.1692
#
#
#
# Elastic Compliance Matrix: (Units=1/GPa)
#
#
# Indices 1 2 3 4 5 6 
#
# 1 0.010750 -0.001369 -0.005034 0.000000 -0.001508 0.000000
# 2 -0.001369 0.012668 0.001082 0.000000 -0.002942 0.000000
# 3 -0.005034 0.001082 0.011550 0.000000 -0.006938 0.000000
# 4 0.000000 0.000000 0.000000 0.086372 0.000000 -0.132512
# 5 -0.001508 -0.002942 -0.006938 0.000000 0.032616 0.000000
# 6 0.000000 0.000000 0.000000 -0.132512 0.000000 0.312359
#
#
# Mechanical properties :
#
#
# Convention : Reuss Voigt Hill
#
# Bulk Modulus (GPa) = 41.10981 57.47466 49.29224
# Shear Modulus (GPa) = 10.30789 33.82525 22.06657
#
# Velocity S-wave (km/s) = 2.20742 3.99871 3.22974
# Velocity P-wave (km/s) = 5.09216 6.96338 6.09995
#
# Compressibility (1/GPa) = 0.02432509
#
# Stress axis : x y z
#
# Youngs Moduli (GPa) = 93.02706 78.93957 86.58003
#
# Poissons Ratio (x) = 0.10806 0.43588
# Poissons Ratio (y) = 0.12735 -0.09369
# Poissons Ratio (z) = 0.46833 -0.08542
#
# Static dielectric constant tensor:
#      x y z
#    x 1.784410 0.000000 -0.015430 
#    y 0.000000 1.846740 0.000000 
#    z -0.015430 0.000000 1.790660 
# 
# From -- ./inp_files/275758.got.cif
#   From: 2010.05.17/outbox.cif.g08.bks.cpg/sg12_138_cif.got.tgz:275758.got - 2010.06.03 13:09:07.
