data_PCOD9215341
_publ_section_title
;
Structure prediction by ZEFSAII (Michael W. Deem and Ramdas Pophale) SiO2 
 PCOD9215341
Probable space group: C 2/M
;
_chemical_formula_sum "Si O2"
_cell_formula_units_Z 64
_cell_length_a 15.958020
_cell_length_b 25.629020
_cell_length_c 11.683141
_cell_angle_alpha 90.000000
_cell_angle_beta 39.881863
_cell_angle_gamma 90.000000
_cell_volume 3063.858546
_symmetry_space_group_name_H-M "C 2/M"
_symmetry_group_IT_number 12
_symmetry_cell_setting 'monoclinic'
loop_
_space_group_symop_operation_xyz
x,y,z
-x,y,-z
-x,-y,-z
x,-y,z
1/2+x,1/2+y,z
1/2-x,1/2+y,-z
1/2-x,1/2-y,-z
1/2+x,1/2-y,z
loop_
_atom_site_type_symbol
_atom_site_label
_atom_site_fract_x
_atom_site_fract_y
_atom_site_fract_z
Si Si1 0.760181 0.089057 0.865972
Si Si2 0.172745 0.058599 0.950383
Si Si3 0.921766 0.879829 0.263639
Si Si4 0.556597 0.315721 0.315327
Si Si5 0.990370 0.366630 0.134833
Si Si6 0.197167 0.639073 0.321221
Si Si7 0.259557 0.559948 0.612054
Si Si8 0.946472 0.692078 0.708949
O O1 0.795229 0.060830 0.947400
O O2 0.808582 0.067561 0.692288
O O3 0.814514 0.148157 0.822974
O O4 0.604151 0.090150 0.020529
O O5 0.049387 0.096972 0.069161
O O6 0.140974 0.000000 0.950280
O O7 0.287820 0.081057 0.748180
O O8 0.965274 0.836726 0.309726
O O9 0.815966 0.857813 0.285687
O O10 0.863654 0.925955 0.404966
O O11 0.500000 0.326604 0.500000
O O12 0.561268 0.253681 0.298725
O O13 0.854162 0.397044 0.289156
O O14 0.028537 0.324545 0.188344
O O15 0.000000 0.341914 0.000000
O O16 0.070174 0.661377 0.520738
O O17 0.184721 0.671173 0.215443
O O18 0.215942 0.500000 0.646282
#
# Coordination Sequence:
#
# PCOD9215341 Si02
#       8
#     8   8   8   8   8   8   8   8
#     4  10  22  41  64  97 133 163 219 269 325 396
#     4  11  24  42  67  93 130 175 217 272 331 386
#     4  11  24  42  64  98 131 167 224 271 320 402
#     4  11  22  42  69  95 129 176 212 271 336 382
#     4  10  22  43  64  95 134 163 215 276 317 391
#     4  11  23  43  65  89 134 170 218 268 318 390
#     4  11  22  38  67  96 131 172 213 272 335 386
#     4  11  23  46  67  95 128 175 218 272 327 386
#
# _framework density 20.888693
#
# number of rings (size 3 to 8) (size 9 to 14) (size 15 to 20)
#    0.000    1.250    5.000    1.125    0.000    5.250 
#    4.500    3.125    0.000    0.000    0.000    0.000 
#    0.000    0.000    0.000    0.000    0.000    0.000 
#
# Total GULP energy -178346.625289 kJ/mol
# GULP energy per Si atom -5573.332040 kJ/mol
# Density = 2.084115 g / cm^3
# Si number density = 20.888693 Si / 1000 Ang^3
#
#
#
# Elastic Constant Matrix: (Units=GPa)
#
#
# Indices 1 2 3 4 5 6 
#
# 1 147.9471 34.4040 13.7291 -0.0001 14.2258 0.0000
# 2 34.4040 105.0444 29.5813 0.0000 1.4162 0.0000
# 3 13.7291 29.5813 55.1228 -0.0002 12.9890 0.0000
# 4 -0.0001 0.0000 -0.0002 169.4577 0.0001 2.8343
# 5 14.2258 1.4162 12.9890 0.0001 23.2059 0.0000
# 6 0.0000 0.0000 0.0000 2.8343 0.0000 10.9342
#
#
#
# Elastic Compliance Matrix: (Units=1/GPa)
#
#
# Indices 1 2 3 4 5 6 
#
# 1 0.007799 -0.002676 0.000670 0.000000 -0.004993 0.000000
# 2 -0.002676 0.012329 -0.007095 0.000000 0.004859 0.000000
# 3 0.000670 -0.007095 0.025085 0.000000 -0.014018 0.000000
# 4 0.000000 0.000000 0.000000 0.005927 0.000000 -0.001536
# 5 -0.004993 0.004859 -0.014018 0.000000 0.053703 0.000000
# 6 0.000000 0.000000 0.000000 -0.001536 0.000000 0.091855
#
#
# Mechanical properties :
#
#
# Convention : Reuss Voigt Hill
#
# Bulk Modulus (GPa) = 37.02051 51.50477 44.26264
# Shear Modulus (GPa) = 22.33116 56.07954 39.20535
#
# Velocity S-wave (km/s) = 3.27319 5.18701 4.33699
# Velocity P-wave (km/s) = 5.66094 7.78356 6.80551
#
# Compressibility (1/GPa) = 0.02701205
#
# Stress axis : x y z
#
# Youngs Moduli (GPa) = 128.21626 81.11283 39.86452
#
# Poissons Ratio (x) = 0.21704 -0.02671
# Poissons Ratio (y) = 0.34308 0.28282
# Poissons Ratio (z) = -0.08589 0.57546
#
# Static dielectric constant tensor:
#      x y z
#    x 1.635480 0.000000 -0.025130 
#    y 0.000000 1.700970 0.000000 
#    z -0.025130 0.000000 1.805380 
# 
# From -- ./inp_files/149759.got.cif
#   From: 2010.05.17/outbox.cif.g08.bks.cpg/sg12_75_cif.got.tgz:149759.got - 2010.06.03 13:09:07.
