data_PCOD9215225
_publ_section_title
;
Structure prediction by ZEFSAII (Michael W. Deem and Ramdas Pophale) SiO2 
 PCOD9215225
Probable space group: C 2/M
;
_chemical_formula_sum "Si O2"
_cell_formula_units_Z 56
_cell_length_a 20.346533
_cell_length_b 18.165721
_cell_length_c 9.442618
_cell_angle_alpha 90.000000
_cell_angle_beta 48.289872
_cell_angle_gamma 90.000000
_cell_volume 2605.417119
_symmetry_space_group_name_H-M "C 2/M"
_symmetry_group_IT_number 12
_symmetry_cell_setting 'monoclinic'
loop_
_space_group_symop_operation_xyz
x,y,z
-x,y,-z
-x,-y,-z
x,-y,z
1/2+x,1/2+y,z
1/2-x,1/2+y,-z
1/2-x,1/2-y,-z
1/2+x,1/2-y,z
loop_
_atom_site_type_symbol
_atom_site_label
_atom_site_fract_x
_atom_site_fract_y
_atom_site_fract_z
Si Si1 0.459089 0.577531 0.405891
Si Si2 0.678137 0.181376 0.088946
Si Si3 0.124032 0.412557 0.440018
Si Si4 0.502400 0.844244 0.166415
Si Si5 0.751315 0.661680 0.513066
Si Si6 0.751361 0.918282 0.760438
Si Si7 0.056964 0.191711 0.780200
O O1 0.500000 0.578498 0.500000
O O2 0.480678 0.500000 0.302075
O O3 0.355037 0.580115 0.582578
O O4 0.490238 0.646986 0.274705
O O5 0.635003 0.145627 0.293086
O O6 0.595517 0.187678 0.094994
O O7 0.750000 0.250000 0.000000
O O8 0.734760 0.117396 0.934592
O O9 0.131321 0.500000 0.391626
O O10 0.201020 0.384124 0.434014
O O11 0.035860 0.402010 0.664091
O O12 0.433997 0.776124 0.277686
O O13 0.500000 0.864874 0.000000
O O14 0.750000 0.750000 0.500000
O O15 0.785229 0.630225 0.315198
O O16 0.646813 0.649259 0.680070
O O17 0.713939 0.000000 0.807218
O O18 0.000000 0.193828 0.000000
#
# Coordination Sequence:
#
# PCOD9215225 Si02
#       7
#     8   8   8   8   8   8   8
#     4   9  20  37  60  89 126 172 218 272 338 411
#     4  12  28  43  71 105 140 187 238 296 358 418
#     4  12  27  46  73 109 148 187 236 300 364 424
#     4  11  26  47  72 102 138 188 240 294 354 428
#     4  11  21  42  69  98 135 178 235 293 345 421
#     4  10  22  41  63  91 130 180 226 274 345 419
#     4  10  23  38  66  94 132 171 230 288 340 417
#
# _framework density 21.493680000000001
#
# number of rings (size 3 to 8) (size 9 to 14) (size 15 to 20)
#    0.000    1.286    1.429    3.000   10.000    2.857 
#    0.000    1.429    0.000    0.000    0.000    0.000 
#    0.000    0.000    0.000    0.000    0.000    0.000 
#
# Total GULP energy -155891.173525 kJ/mol
# GULP energy per Si atom -5567.541912 kJ/mol
# Density = 2.144476 g / cm^3
# Si number density = 21.493680 Si / 1000 Ang^3
#
#
#
# Elastic Constant Matrix: (Units=GPa)
#
#
# Indices 1 2 3 4 5 6 
#
# 1 101.3292 18.0345 16.3052 0.0000 1.1253 0.0000
# 2 18.0345 119.5504 50.4259 0.0000 10.8852 0.0000
# 3 16.3052 50.4259 77.4258 0.0000 21.7697 0.0000
# 4 0.0000 0.0000 0.0000 57.5415 0.0000 9.4859
# 5 1.1253 10.8852 21.7697 0.0000 32.1886 0.0000
# 6 0.0000 0.0000 0.0000 9.4859 0.0000 18.0716
#
#
#
# Elastic Compliance Matrix: (Units=1/GPa)
#
#
# Indices 1 2 3 4 5 6 
#
# 1 0.010323 -0.000835 -0.001986 0.000000 0.001264 0.000000
# 2 -0.000835 0.011656 -0.007798 0.000000 0.001362 0.000000
# 3 -0.001986 -0.007798 0.021796 0.000000 -0.012035 0.000000
# 4 0.000000 0.000000 0.000000 0.019025 0.000000 -0.009986
# 5 0.001264 0.001362 -0.012035 0.000000 0.038702 0.000000
# 6 0.000000 0.000000 0.000000 -0.009986 0.000000 0.060577
#
#
# Mechanical properties :
#
#
# Convention : Reuss Voigt Hill
#
# Bulk Modulus (GPa) = 44.37035 51.98183 48.17609
# Shear Modulus (GPa) = 26.20141 35.79632 30.99886
#
# Velocity S-wave (km/s) = 3.49525 4.08540 3.80179
# Velocity P-wave (km/s) = 6.08089 6.81845 6.46020
#
# Compressibility (1/GPa) = 0.02253757
#
# Stress axis : x y z
#
# Youngs Moduli (GPa) = 96.87215 85.79320 45.87897
#
# Poissons Ratio (x) = 0.07162 0.09110
# Poissons Ratio (y) = 0.08087 0.35778
# Poissons Ratio (z) = 0.19236 0.66904
#
# Static dielectric constant tensor:
#      x y z
#    x 1.811790 0.000000 -0.006470 
#    y 0.000000 1.895210 0.000000 
#    z -0.006470 0.000000 1.785860 
# 
# From -- ./inp_files/89513.got.cif
#   From: 2010.05.17/outbox.cif.g08.bks.cpg/sg12_45_cif.got.tgz:89513.got - 2010.06.03 13:09:07.
