data_PCOD9215762
_publ_section_title
;
Structure prediction by ZEFSAII (Michael W. Deem and Ramdas Pophale) SiO2 
 PCOD9215762
Probable space group: C 2/M
;
_chemical_formula_sum "Si O2"
_cell_formula_units_Z 48
_cell_length_a 24.607683
_cell_length_b 12.060999
_cell_length_c 20.310010
_cell_angle_alpha 90.000000
_cell_angle_beta 157.716408
_cell_angle_gamma 90.000000
_cell_volume 2285.716581
_symmetry_space_group_name_H-M "C 2/M"
_symmetry_group_IT_number 12
_symmetry_cell_setting 'monoclinic'
loop_
_space_group_symop_operation_xyz
x,y,z
-x,y,-z
-x,-y,-z
x,-y,z
1/2+x,1/2+y,z
1/2-x,1/2+y,-z
1/2-x,1/2-y,-z
1/2+x,1/2-y,z
loop_
_atom_site_type_symbol
_atom_site_label
_atom_site_fract_x
_atom_site_fract_y
_atom_site_fract_z
Si Si1 0.646860 0.128539 0.432827
Si Si2 0.053340 0.500000 0.485588
Si Si3 0.189962 0.766717 0.100000
Si Si4 0.354287 0.500000 0.878266
Si Si5 0.445669 0.227289 0.300809
Si Si6 0.135457 0.701439 0.274691
Si Si7 0.674344 0.628268 0.630243
O O1 0.511600 0.206122 0.302359
O O2 0.781664 0.181204 0.622771
O O3 0.672417 0.138842 0.383771
O O4 0.623195 0.000000 0.422058
O O5 0.223882 0.500000 0.680637
O O6 0.000000 0.500000 0.500000
O O7 0.993906 0.612292 0.388588
O O8 0.279661 0.761354 0.132700
O O9 0.284281 0.703080 0.260842
O O10 0.164389 0.891116 0.097752
O O11 0.033952 0.713297 0.920371
O O12 0.500000 0.500000 0.000000
O O13 0.534587 0.324301 0.436336
O O14 0.199852 0.644321 0.282541
O O15 0.658486 0.500000 0.630376
#
# Coordination Sequence:
#
# PCOD9215762 Si02
#       7
#     8   4   8   4   8   8   8
#     4  10  22  42  65  84 118 167 209 253 306 366
#     4  12  18  38  60  92 130 162 191 249 309 373
#     4  12  24  38  61  95 127 158 201 257 314 365
#     4  12  24  34  60  96 132 156 198 255 310 361
#     4  11  22  38  63  92 124 164 204 246 308 373
#     4  10  24  41  62  92 119 160 211 259 303 366
#     4  11  23  41  63  89 127 166 204 250 308 375
#
# _framework density 20.999980000000001
#
# number of rings (size 3 to 8) (size 9 to 14) (size 15 to 20)
#    0.000    1.000    4.167    2.500    3.500    4.000 
#    0.000    0.000    0.000    0.000    0.000    0.000 
#    0.000    0.000    0.000    0.000    0.000    0.000 
#
# Total GULP energy -134138.728070 kJ/mol
# GULP energy per Si atom -5589.113670 kJ/mol
# Density = 2.095218 g / cm^3
# Si number density = 20.999980 Si / 1000 Ang^3
#
#
#
# Elastic Constant Matrix: (Units=GPa)
#
#
# Indices 1 2 3 4 5 6 
#
# 1 75.8212 -6.5611 5.3569 0.0000 28.1660 0.0000
# 2 -6.5611 101.6058 2.1473 0.0000 3.1251 0.0000
# 3 5.3569 2.1473 79.9995 -0.0001 38.7777 -0.0001
# 4 0.0000 0.0000 -0.0001 2.9116 0.0000 -2.9396
# 5 28.1660 3.1251 38.7777 0.0000 43.5264 0.0000
# 6 0.0000 0.0000 -0.0001 -2.9396 0.0000 11.6026
#
#
#
# Elastic Compliance Matrix: (Units=1/GPa)
#
#
# Indices 1 2 3 4 5 6 
#
# 1 0.020725 0.001811 0.009025 0.000000 -0.021581 0.000000
# 2 0.001811 0.010023 0.000927 0.000000 -0.002718 0.000000
# 3 0.009025 0.000927 0.025933 0.000001 -0.029010 0.000000
# 4 0.000000 0.000000 0.000001 0.461496 0.000000 0.116924
# 5 -0.021581 -0.002718 -0.029010 0.000000 0.062980 0.000000
# 6 0.000000 0.000000 0.000000 0.116924 0.000000 0.115811
#
#
# Mechanical properties :
#
#
# Convention : Reuss Voigt Hill
#
# Bulk Modulus (GPa) = 12.46784 28.81253 20.64018
# Shear Modulus (GPa) = 7.14105 28.70703 17.92404
#
# Velocity S-wave (km/s) = 1.84605 3.70131 2.92469
# Velocity P-wave (km/s) = 3.23941 5.65830 4.61032
#
# Compressibility (1/GPa) = 0.08020636
#
# Stress axis : x y z
#
# Youngs Moduli (GPa) = 48.25076 99.77133 38.56144
#
# Poissons Ratio (x) = -0.18072 -0.34800
# Poissons Ratio (y) = -0.08740 -0.03574
# Poissons Ratio (z) = -0.43544 -0.09248
#
# Static dielectric constant tensor:
#      x y z
#    x 1.817840 0.000000 0.047100 
#    y 0.000000 1.759100 0.000000 
#    z 0.047100 0.000000 1.753450 
# 
# From -- ./inp_files/351952.got.cif
#   From: 2010.05.17/outbox.cif.g08.bks.cpg/sg12_176_cif.got.tgz:351952.got - 2010.06.03 13:09:07.
