data_PCOD9215462
_publ_section_title
;
Structure prediction by ZEFSAII (Michael W. Deem and Ramdas Pophale) SiO2 
 PCOD9215462
Probable space group: C 2/M
;
_chemical_formula_sum "Si O2"
_cell_formula_units_Z 48
_cell_length_a 9.252712
_cell_length_b 22.150775
_cell_length_c 13.053635
_cell_angle_alpha 90.000000
_cell_angle_beta 109.386112
_cell_angle_gamma 90.000000
_cell_volume 2523.717370
_symmetry_space_group_name_H-M "C 2/M"
_symmetry_group_IT_number 12
_symmetry_cell_setting 'monoclinic'
loop_
_space_group_symop_operation_xyz
x,y,z
-x,y,-z
-x,-y,-z
x,-y,z
1/2+x,1/2+y,z
1/2-x,1/2+y,-z
1/2-x,1/2-y,-z
1/2+x,1/2-y,z
loop_
_atom_site_type_symbol
_atom_site_label
_atom_site_fract_x
_atom_site_fract_y
_atom_site_fract_z
Si Si1 0.619384 0.500000 0.183805
Si Si2 0.967169 0.660652 0.751961
Si Si3 0.283411 0.626659 0.723640
Si Si4 0.464877 0.712925 0.113144
Si Si5 0.667438 0.129017 0.077843
Si Si6 0.667491 0.812714 0.494239
Si Si7 0.726031 0.500000 0.980959
O O1 0.656275 0.559268 0.255711
O O2 0.444917 0.500000 0.105075
O O3 0.716674 0.500000 0.101514
O O4 0.864515 0.625226 0.809308
O O5 0.862902 0.664019 0.626583
O O6 0.126584 0.631960 0.752105
O O7 0.015192 0.725130 0.816349
O O8 0.407976 0.668959 0.807850
O O9 0.252155 0.647596 0.600040
O O10 0.300366 0.678385 0.085931
O O11 0.500000 0.719375 0.000000
O O12 0.702289 0.063418 0.038701
O O13 0.500000 0.148487 0.000000
O O14 0.500000 0.801338 0.500000
O O15 0.750000 0.750000 0.500000
#
# Coordination Sequence:
#
# PCOD9215462 Si02
#       7
#     4   8   8   8   8   8   4
#     4  11  22  42  68  91 127 172 221 261 312 392
#     4  11  24  40  62  97 128 166 213 269 323 381
#     4  11  23  42  65  94 128 171 220 257 319 383
#     4  12  23  38  63  93 133 170 209 261 322 393
#     4  12  25  40  62  96 133 167 214 266 321 381
#     4  10  22  41  66  94 125 170 217 263 321 375
#     4  11  23  42  67  91 126 178 215 261 320 384
#
# _framework density 19.019563000000002
#
# number of rings (size 3 to 8) (size 9 to 14) (size 15 to 20)
#    0.000    0.833    3.333    4.750    2.333    2.667 
#    0.000    4.583    0.000    1.000    0.000    0.000 
#    0.000    0.000    0.000    0.000    0.000    0.000 
#
# Total GULP energy -134032.202043 kJ/mol
# GULP energy per Si atom -5584.675085 kJ/mol
# Density = 1.897627 g / cm^3
# Si number density = 19.019563 Si / 1000 Ang^3
#
#
#
# Elastic Constant Matrix: (Units=GPa)
#
#
# Indices 1 2 3 4 5 6 
#
# 1 60.1327 10.3534 52.0622 0.0000 7.0990 0.0000
# 2 10.3534 93.3380 43.1862 0.0000 12.4969 0.0000
# 3 52.0622 43.1862 156.9109 0.0000 -0.7125 0.0000
# 4 0.0000 0.0000 0.0000 -14.9560 0.0000 25.5101
# 5 7.0990 12.4969 -0.7125 0.0000 32.2141 0.0000
# 6 0.0000 0.0000 0.0000 25.5101 0.0000 9.9444
#
#
#
# Elastic Compliance Matrix: (Units=1/GPa)
#
#
# Indices 1 2 3 4 5 6 
#
# 1 0.024648 0.002214 -0.008817 0.000000 -0.006485 0.000000
# 2 0.002214 0.013279 -0.004415 0.000000 -0.005737 0.000000
# 3 -0.008817 -0.004415 0.010531 0.000000 0.003889 0.000000
# 4 0.000000 0.000000 0.000000 -0.012438 0.000000 0.031908
# 5 -0.006485 -0.005737 0.003889 0.000000 0.034783 0.000000
# 6 0.000000 0.000000 0.000000 0.031908 0.000000 0.018707
#
#
# Mechanical properties :
#
#
# Convention : Reuss Voigt Hill
#
# Bulk Modulus (GPa) = 37.84796 57.95392 47.90094
# Shear Modulus (GPa) = 41.54422 19.09250 30.31836
#
# Velocity S-wave (km/s) = 4.67871 3.17177 3.99690
# Velocity P-wave (km/s) = 7.00926 6.62951 6.82203
#
# Compressibility (1/GPa) = 0.02642151
#
# Stress axis : x y z
#
# Youngs Moduli (GPa) = 40.57163 75.30551 94.95537
#
# Poissons Ratio (x) = -0.16670 0.83719
# Poissons Ratio (y) = -0.08981 0.41926
# Poissons Ratio (z) = 0.35771 0.33250
#
# Static dielectric constant tensor:
#      x y z
#    x 1.657280 0.000000 -0.016360 
#    y 0.000000 1.646420 0.000000 
#    z -0.016360 0.000000 1.789890 
# 
# From -- ./inp_files/122613.got.cif
#   From: 2010.05.17/outbox.cif.g08.bks.cpg/sg12_62_cif.got.tgz:122613.got - 2010.06.03 13:09:07.
