data_PCOD9215199
_publ_section_title
;
Structure prediction by ZEFSAII (Michael W. Deem and Ramdas Pophale) SiO2 
 PCOD9215199
Probable space group: C 2/M
;
_chemical_formula_sum "Si O2"
_cell_formula_units_Z 56
_cell_length_a 9.072416
_cell_length_b 18.575582
_cell_length_c 27.145123
_cell_angle_alpha 90.000000
_cell_angle_beta 39.968303
_cell_angle_gamma 90.000000
_cell_volume 2938.584650
_symmetry_space_group_name_H-M "C 2/M"
_symmetry_group_IT_number 12
_symmetry_cell_setting 'monoclinic'
loop_
_space_group_symop_operation_xyz
x,y,z
-x,y,-z
-x,-y,-z
x,-y,z
1/2+x,1/2+y,z
1/2-x,1/2+y,-z
1/2-x,1/2-y,-z
1/2+x,1/2-y,z
loop_
_atom_site_type_symbol
_atom_site_label
_atom_site_fract_x
_atom_site_fract_y
_atom_site_fract_z
Si Si1 0.262840 0.785652 0.944044
Si Si2 0.935775 0.581481 0.159029
Si Si3 0.983732 0.415616 0.744852
Si Si4 0.619319 0.658247 0.421151
Si Si5 0.239062 0.813396 0.574306
Si Si6 0.492476 0.662738 0.731741
Si Si7 0.340898 0.295807 0.208864
O O1 0.399255 0.860220 0.907435
O O2 0.406085 0.731140 0.872061
O O3 0.250000 0.750000 0.000000
O O4 0.000000 0.799281 0.000000
O O5 0.000928 0.500000 0.131544
O O6 0.946287 0.592580 0.215711
O O7 0.677224 0.599354 0.208910
O O8 0.940910 0.500000 0.746667
O O9 0.188474 0.386885 0.657181
O O10 0.762995 0.365193 0.791763
O O11 0.500000 0.623294 0.500000
O O12 0.736520 0.730950 0.412622
O O13 0.421408 0.679797 0.432465
O O14 0.500000 0.837848 0.500000
O O15 0.126732 0.856172 0.648096
O O16 0.653671 0.687647 0.734666
O O17 0.326471 0.729789 0.761078
#
# Coordination Sequence:
#
# PCOD9215199 Si02
#       7
#     8   8   8   8   8   8   8
#     4  11  22  39  63  95 121 150 194 247 309 368
#     4  10  22  41  63  89 123 163 203 245 299 366
#     4  11  23  40  61  86 122 169 214 252 300 362
#     4  11  22  36  58  88 125 159 205 264 314 356
#     4  11  21  33  57  93 120 157 201 259 315 349
#     4  11  20  36  63  87 119 160 207 253 304 356
#     4  11  22  37  62  90 119 155 202 256 299 367
#
# _framework density 19.056794
#
# number of rings (size 3 to 8) (size 9 to 14) (size 15 to 20)
#    0.000    1.143    2.857    6.857    2.000    1.143 
#    0.000    0.714    0.000    2.571    0.000    0.000 
#    0.000    0.000    0.000    0.000    0.000    0.000 
#
# Total GULP energy -156372.258004 kJ/mol
# GULP energy per Si atom -5584.723500 kJ/mol
# Density = 1.901342 g / cm^3
# Si number density = 19.056794 Si / 1000 Ang^3
#
#
#
# Elastic Constant Matrix: (Units=GPa)
#
#
# Indices 1 2 3 4 5 6 
#
# 1 64.7104 27.0956 -3.5290 -0.0116 6.4922 -0.0015
# 2 27.0956 101.7662 44.1193 -0.0107 -6.8681 -0.0007
# 3 -3.5290 44.1193 95.3276 -0.0182 -5.0057 -0.0022
# 4 -0.0116 -0.0107 -0.0182 21.0096 0.0119 2.0876
# 5 6.4922 -6.8681 -5.0057 0.0119 34.7131 0.0007
# 6 -0.0015 -0.0007 -0.0022 2.0876 0.0007 19.4691
#
#
#
# Elastic Compliance Matrix: (Units=1/GPa)
#
#
# Indices 1 2 3 4 5 6 
#
# 1 0.019011 -0.006960 0.003694 0.000013 -0.004400 0.000000
# 2 -0.006960 0.014933 -0.006998 -0.000004 0.003247 0.000000
# 3 0.003694 -0.006998 0.013862 0.000010 -0.000077 0.000000
# 4 0.000013 -0.000004 0.000010 0.048110 -0.000018 -0.005159
# 5 -0.004400 0.003247 -0.000077 -0.000018 0.030262 0.000001
# 6 0.000000 0.000000 0.000000 -0.005159 0.000001 0.051917
#
#
# Mechanical properties :
#
#
# Convention : Reuss Voigt Hill
#
# Bulk Modulus (GPa) = 36.66170 44.13068 40.39619
# Shear Modulus (GPa) = 24.07150 27.97957 26.02554
#
# Velocity S-wave (km/s) = 3.55793 3.83589 3.69952
# Velocity P-wave (km/s) = 6.01318 6.54420 6.28430
#
# Compressibility (1/GPa) = 0.02727642
#
# Stress axis : x y z
#
# Youngs Moduli (GPa) = 52.60206 66.96695 72.14070
#
# Poissons Ratio (x) = 0.46609 -0.26649
# Poissons Ratio (y) = 0.36611 0.50486
# Poissons Ratio (z) = -0.19431 0.46865
#
# Static dielectric constant tensor:
#      x y z
#    x 1.655790 0.000000 0.010960 
#    y 0.000000 1.665040 0.000000 
#    z 0.010960 0.000000 1.702100 
# 
# From -- ./inp_files/300908.got.cif
#   From: 2010.05.17/outbox.cif.g08.bks.cpg/sg12_151_cif.got.tgz:300908.got - 2010.06.03 13:09:07.
