data_PCOD9215157
_publ_section_title
;
Structure prediction by ZEFSAII (Michael W. Deem and Ramdas Pophale) SiO2 
 PCOD9215157
Probable space group: C 2/M
;
_chemical_formula_sum "Si O2"
_cell_formula_units_Z 24
_cell_length_a 10.662301
_cell_length_b 20.402059
_cell_length_c 5.113438
_cell_angle_alpha 90.000000
_cell_angle_beta 90.224756
_cell_angle_gamma 90.000000
_cell_volume 1112.332409
_symmetry_space_group_name_H-M "C 2/M"
_symmetry_group_IT_number 12
_symmetry_cell_setting 'monoclinic'
loop_
_space_group_symop_operation_xyz
x,y,z
-x,y,-z
-x,-y,-z
x,-y,z
1/2+x,1/2+y,z
1/2-x,1/2+y,-z
1/2-x,1/2-y,-z
1/2+x,1/2-y,z
loop_
_atom_site_type_symbol
_atom_site_label
_atom_site_fract_x
_atom_site_fract_y
_atom_site_fract_z
Si Si1 0.779066 0.322448 0.592070
Si Si2 0.377672 0.427598 0.172688
Si Si3 0.368655 0.884517 0.080032
O O1 0.750000 0.250000 0.500000
O O2 0.655640 0.368012 0.633802
O O3 0.849340 0.324880 0.871457
O O4 0.860038 0.359087 0.372665
O O5 0.386599 0.500000 0.295264
O O6 0.745920 0.426724 0.013342
O O7 0.500000 0.415940 0.000000
O O8 0.500000 0.915994 0.000000
#
# Coordination Sequence:
#
# PCOD9215157 Si02
#       3
#     8   8   8
#     4  10  22  41  64  93 127 170 213 266 319 376
#     4   9  22  42  65  94 130 173 215 259 321 387
#     4  10  22  41  62  94 125 165 211 267 319 377
#
# _framework density 21.576286
#
# number of rings (size 3 to 8) (size 9 to 14) (size 15 to 20)
#    2.000    0.333    0.000    2.000    0.000    4.667 
#    6.000    5.000    0.000    0.000    0.000    0.000 
#    0.000    0.000    0.000    0.000    0.000    0.000 
#
# Total GULP energy -66828.735655 kJ/mol
# GULP energy per Si atom -5569.061305 kJ/mol
# Density = 2.152718 g / cm^3
# Si number density = 21.576286 Si / 1000 Ang^3
#
#
#
# Elastic Constant Matrix: (Units=GPa)
#
#
# Indices 1 2 3 4 5 6 
#
# 1 193.8845 57.0735 21.6623 0.0000 -7.5609 0.0000
# 2 57.0735 136.3789 18.6850 0.0000 -20.0408 0.0000
# 3 21.6623 18.6850 62.1938 0.0000 -7.9666 0.0000
# 4 0.0000 0.0000 0.0000 18.5068 0.0000 -13.6883
# 5 -7.5609 -20.0408 -7.9666 0.0000 36.1502 0.0000
# 6 0.0000 0.0000 0.0000 -13.6883 0.0000 16.6379
#
#
#
# Elastic Compliance Matrix: (Units=1/GPa)
#
#
# Indices 1 2 3 4 5 6 
#
# 1 0.006000 -0.002371 -0.001426 0.000000 -0.000373 0.000000
# 2 -0.002371 0.009140 -0.001373 0.000000 0.004269 0.000000
# 3 -0.001426 -0.001373 0.017342 0.000000 0.002762 0.000000
# 4 0.000000 0.000000 0.000000 0.138023 0.000000 0.113554
# 5 -0.000373 0.004269 0.002762 0.000000 0.030559 0.000000
# 6 0.000000 0.000000 0.000000 0.113554 0.000000 0.153527
#
#
# Mechanical properties :
#
#
# Convention : Reuss Voigt Hill
#
# Bulk Modulus (GPa) = 45.16151 65.25541 55.20846
# Shear Modulus (GPa) = 13.42964 33.92807 23.67886
#
# Velocity S-wave (km/s) = 2.49755 3.96974 3.31637
# Velocity P-wave (km/s) = 5.41235 7.16390 6.34882
#
# Compressibility (1/GPa) = 0.02214275
#
# Stress axis : x y z
#
# Youngs Moduli (GPa) = 166.65949 109.40873 57.66429
#
# Poissons Ratio (x) = 0.25937 0.08220
# Poissons Ratio (y) = 0.39509 0.07920
# Poissons Ratio (z) = 0.23758 0.15027
#
# Static dielectric constant tensor:
#      x y z
#    x 1.797600 0.000000 0.039230 
#    y 0.000000 1.783200 0.000000 
#    z 0.039230 0.000000 1.812330 
# 
# From -- ./inp_files/5849.got.cif
#   From: 2010.05.17/outbox.cif.g08.bks.cpg/sg12_3_cif.got.tgz:5849.got - 2010.06.03 13:09:07.
