data_PCOD9215466
_publ_section_title
;
Structure prediction by ZEFSAII (Michael W. Deem and Ramdas Pophale) SiO2 
 PCOD9215466
Probable space group: C 2/M
;
_chemical_formula_sum "Si O2"
_cell_formula_units_Z 48
_cell_length_a 13.581697
_cell_length_b 10.937871
_cell_length_c 15.499597
_cell_angle_alpha 90.000000
_cell_angle_beta 95.514557
_cell_angle_gamma 90.000000
_cell_volume 2291.883721
_symmetry_space_group_name_H-M "C 2/M"
_symmetry_group_IT_number 12
_symmetry_cell_setting 'monoclinic'
loop_
_space_group_symop_operation_xyz
x,y,z
-x,y,-z
-x,-y,-z
x,-y,z
1/2+x,1/2+y,z
1/2-x,1/2+y,-z
1/2-x,1/2-y,-z
1/2+x,1/2-y,z
loop_
_atom_site_type_symbol
_atom_site_label
_atom_site_fract_x
_atom_site_fract_y
_atom_site_fract_z
Si Si1 0.401389 0.289547 0.450396
Si Si2 0.725242 0.219039 0.859774
Si Si3 0.571458 0.359441 0.735753
Si Si4 0.684265 0.133846 0.419205
Si Si5 0.155211 0.135767 0.289171
Si Si6 0.887412 0.359626 0.983426
O O1 0.500000 0.345992 0.500000
O O2 0.417778 0.279275 0.349943
O O3 0.619985 0.166199 0.497938
O O4 0.299878 0.363003 0.453721
O O5 0.648437 0.316030 0.813234
O O6 0.768903 0.144908 0.783201
O O7 0.665618 0.146944 0.927959
O O8 0.818120 0.283562 0.913688
O O9 0.592670 0.500000 0.712706
O O10 0.457472 0.353383 0.754103
O O11 0.671041 0.248442 0.353257
O O12 0.659441 0.000000 0.381422
O O13 0.163612 0.000000 0.330958
O O14 0.892196 0.500000 0.954175
O O15 0.000000 0.313069 0.000000
#
# Coordination Sequence:
#
# PCOD9215466 Si02
#       6
#     8   8   8   8   8   8
#     4  11  23  43  62  93 126 175 218 269 314 378
#     4  11  22  41  65  95 125 165 212 261 312 380
#     4  11  23  40  63  93 127 173 221 263 318 381
#     4  11  25  43  64  93 126 168 223 271 323 376
#     4  11  24  42  64  94 131 168 213 267 322 378
#     4  10  22  41  66  94 128 163 202 255 323 387
#
# _framework density 20.943470999999999
#
# number of rings (size 3 to 8) (size 9 to 14) (size 15 to 20)
#    0.000    1.167    3.333    2.500    0.000    5.667 
#    0.000    1.667    0.000    8.000    0.000    0.000 
#    0.000    0.000    0.000    0.000    0.000    0.000 
#
# Total GULP energy -134020.976855 kJ/mol
# GULP energy per Si atom -5584.207369 kJ/mol
# Density = 2.089580 g / cm^3
# Si number density = 20.943471 Si / 1000 Ang^3
#
#
#
# Elastic Constant Matrix: (Units=GPa)
#
#
# Indices 1 2 3 4 5 6 
#
# 1 127.2663 40.9488 25.2607 0.0000 19.6965 0.0000
# 2 40.9488 123.9748 38.8262 0.0000 9.3563 0.0000
# 3 25.2607 38.8262 71.7134 0.0000 11.8018 0.0000
# 4 0.0000 0.0000 0.0000 11.9450 0.0000 0.0847
# 5 19.6965 9.3563 11.8018 0.0000 39.1204 0.0000
# 6 0.0000 0.0000 0.0000 0.0847 0.0000 11.7452
#
#
#
# Elastic Compliance Matrix: (Units=1/GPa)
#
#
# Indices 1 2 3 4 5 6 
#
# 1 0.009499 -0.002407 -0.001421 0.000000 -0.003778 0.000000
# 2 -0.002407 0.010346 -0.004783 0.000000 0.000181 0.000000
# 3 -0.001421 -0.004783 0.017602 0.000000 -0.003451 0.000000
# 4 0.000000 0.000000 0.000000 0.083722 0.000000 -0.000604
# 5 -0.003778 0.000181 -0.003451 0.000000 0.028462 0.000000
# 6 0.000000 0.000000 0.000000 -0.000604 0.000000 0.085146
#
#
# Mechanical properties :
#
#
# Convention : Reuss Voigt Hill
#
# Bulk Modulus (GPa) = 49.44486 59.22511 54.33499
# Shear Modulus (GPa) = 19.32442 27.09002 23.20722
#
# Velocity S-wave (km/s) = 3.04088 3.60040 3.33241
# Velocity P-wave (km/s) = 5.99911 6.75454 6.38800
#
# Compressibility (1/GPa) = 0.02022455
#
# Stress axis : x y z
#
# Youngs Moduli (GPa) = 105.27574 96.65955 56.81074
#
# Poissons Ratio (x) = 0.23270 0.08072
# Poissons Ratio (y) = 0.25344 0.27172
# Poissons Ratio (z) = 0.14958 0.46232
#
# Static dielectric constant tensor:
#      x y z
#    x 1.761000 0.000000 -0.009960 
#    y 0.000000 1.772470 0.000000 
#    z -0.009960 0.000000 1.743910 
# 
# From -- ./inp_files/261789.got.cif
#   From: 2010.05.17/outbox.cif.g08.bks.cpg/sg12_131_cif.got.tgz:261789.got - 2010.06.03 13:09:07.
