data_PCOD9215884
_publ_section_title
;
Structure prediction by ZEFSAII (Michael W. Deem and Ramdas Pophale) SiO2 
 PCOD9215884
Probable space group: C 2/M
;
_chemical_formula_sum "Si O2"
_cell_formula_units_Z 42
_cell_length_a 14.463934
_cell_length_b 11.347134
_cell_length_c 10.817613
_cell_angle_alpha 90.000000
_cell_angle_beta 81.490165
_cell_angle_gamma 90.000000
_cell_volume 1755.885390
_symmetry_space_group_name_H-M "C 2/M"
_symmetry_group_IT_number 12
_symmetry_cell_setting 'monoclinic'
loop_
_space_group_symop_operation_xyz
x,y,z
-x,y,-z
-x,-y,-z
x,-y,z
1/2+x,1/2+y,z
1/2-x,1/2+y,-z
1/2-x,1/2-y,-z
1/2+x,1/2-y,z
loop_
_atom_site_type_symbol
_atom_site_label
_atom_site_fract_x
_atom_site_fract_y
_atom_site_fract_z
Si Si1 0.780184 0.130427 0.130997
Si Si2 0.873778 0.629206 0.465269
Si Si3 0.159636 0.873450 0.412415
Si Si4 0.000000 0.500000 0.000000
Si Si5 0.933404 0.297598 0.194743
Si Si6 0.870909 0.808261 0.855237
O O1 0.838836 0.223100 0.198654
O O2 0.674944 0.177449 0.141510
O O3 0.783998 0.000000 0.182003
O O4 0.826550 0.135086 0.985920
O O5 0.891237 0.500000 0.519977
O O6 0.886576 0.749819 0.538547
O O7 0.765096 0.628421 0.443852
O O8 0.933699 0.643898 0.328953
O O9 0.158064 0.871352 0.264496
O O10 0.118159 0.000000 0.462576
O O11 0.944046 0.396740 0.089519
O O12 0.018640 0.206681 0.161320
#
# Coordination Sequence:
#
# PCOD9215884 Si02
#       6
#     8   8   8   2   8   8
#     4  11  25  42  65 101 141 175 218 280 345 407
#     4  10  22  42  67  94 131 170 223 279 336 392
#     4  10  22  43  68  95 128 177 224 276 335 404
#     4  12  24  44  70  98 144 170 234 270 348 406
#     4  12  24  43  69 100 132 181 218 280 337 406
#     4  11  24  41  66 101 129 178 228 272 337 407
#
# _framework density 23.919557999999999
#
# number of rings (size 3 to 8) (size 9 to 14) (size 15 to 20)
#    0.000    1.143    4.762    0.571    1.333    4.571 
#    0.000    1.905    0.000    0.000    0.000    0.000 
#    0.000    0.000    0.000    0.000    0.000    0.000 
#
# Total GULP energy -117243.106934 kJ/mol
# GULP energy per Si atom -5583.005092 kJ/mol
# Density = 2.386512 g / cm^3
# Si number density = 23.919558 Si / 1000 Ang^3
#
#
#
# Elastic Constant Matrix: (Units=GPa)
#
#
# Indices 1 2 3 4 5 6 
#
# 1 69.1773 0.1934 -3.6161 0.0000 6.7798 0.0000
# 2 0.1934 193.3350 42.6561 0.0000 4.4833 0.0000
# 3 -3.6161 42.6561 49.8999 0.0000 -7.9607 0.0000
# 4 0.0000 0.0000 0.0000 6.5910 0.0000 2.4805
# 5 6.7798 4.4833 -7.9607 0.0000 25.8942 0.0000
# 6 0.0000 0.0000 0.0000 2.4805 0.0000 -1.6560
#
#
#
# Elastic Compliance Matrix: (Units=1/GPa)
#
#
# Indices 1 2 3 4 5 6 
#
# 1 0.014847 -0.000043 0.000519 0.000000 -0.003720 0.000000
# 2 -0.000043 0.006592 -0.006119 0.000000 -0.003011 0.000000
# 3 0.000519 -0.006119 0.026768 0.000000 0.009153 0.000000
# 4 0.000000 0.000000 0.000000 0.097026 0.000000 0.145334
# 5 -0.003720 -0.003011 0.009153 0.000000 0.042928 0.000000
# 6 0.000000 0.000000 0.000000 0.145334 0.000000 -0.386174
#
#
# Mechanical properties :
#
#
# Convention : Reuss Voigt Hill
#
# Bulk Modulus (GPa) = 27.08338 43.43101 35.25720
# Shear Modulus (GPa) = -28.66658 24.37778 -2.14440
#
# Velocity S-wave (km/s) = -3.46563 3.19589 -0.94787
# Velocity P-wave (km/s) = 2.16029 5.64046 3.68429
#
# Compressibility (1/GPa) = 0.03692301
#
# Stress axis : x y z
#
# Youngs Moduli (GPa) = 67.35145 151.69336 37.35735
#
# Poissons Ratio (x) = 0.00655 -0.01940
# Poissons Ratio (y) = 0.00291 0.22858
# Poissons Ratio (z) = -0.03498 0.92818
#
# Static dielectric constant tensor:
#      x y z
#    x 1.859190 0.000000 0.028660 
#    y 0.000000 1.904540 0.000000 
#    z 0.028660 0.000000 1.903640 
# 
# From -- ./inp_files/140970.got.cif
#   From: 2010.05.17/outbox.cif.g08.bks.cpg/sg12_71_cif.got.tgz:140970.got - 2010.06.03 13:09:07.
