data_PCOD9215581
_publ_section_title
;
Structure prediction by ZEFSAII (Michael W. Deem and Ramdas Pophale) SiO2 
 PCOD9215581
Probable space group: C 2/M
;
_chemical_formula_sum "Si O2"
_cell_formula_units_Z 58
_cell_length_a 11.471476
_cell_length_b 19.057411
_cell_length_c 21.354696
_cell_angle_alpha 90.000000
_cell_angle_beta 139.245707
_cell_angle_gamma 90.000000
_cell_volume 3047.668495
_symmetry_space_group_name_H-M "C 2/M"
_symmetry_group_IT_number 12
_symmetry_cell_setting 'monoclinic'
loop_
_space_group_symop_operation_xyz
x,y,z
-x,y,-z
-x,-y,-z
x,-y,z
1/2+x,1/2+y,z
1/2-x,1/2+y,-z
1/2-x,1/2-y,-z
1/2+x,1/2-y,z
loop_
_atom_site_type_symbol
_atom_site_label
_atom_site_fract_x
_atom_site_fract_y
_atom_site_fract_z
Si Si1 0.477182 0.363532 0.078194
Si Si2 0.687766 0.918510 0.452818
Si Si3 0.500000 0.500000 0.000000
Si Si4 0.976202 0.823354 0.766732
Si Si5 0.460956 0.647368 0.348160
Si Si6 0.300738 0.818742 0.131484
Si Si7 0.626697 0.082324 0.280186
Si Si8 0.054479 0.705772 0.593291
O O1 0.473600 0.366422 0.150994
O O2 0.654353 0.322122 0.127185
O O3 0.489235 0.438248 0.049491
O O4 0.308853 0.324951 0.977656
O O5 0.678091 0.909238 0.374022
O O6 0.552059 0.863315 0.428532
O O7 0.883851 0.898928 0.557297
O O8 0.645631 0.000000 0.449723
O O9 0.764933 0.808733 0.680698
O O10 0.026989 0.857712 0.721506
O O11 0.080596 0.749990 0.814941
O O12 0.271465 0.622685 0.297638
O O13 0.491278 0.728187 0.381261
O O14 0.431663 0.885106 0.190956
O O15 0.627092 0.000000 0.265518
O O16 0.000000 0.723640 0.500000
#
# Coordination Sequence:
#
# PCOD9215581 Si02
#       8
#     8   8   2   8   8   8   8   8
#     4  10  23  43  69  95 124 164 216 263 320 377
#     4  11  24  43  63  90 127 176 220 263 314 379
#     4   8  20  44  68  96 120 160 210 264 316 376
#     4  12  23  42  64  96 128 166 208 268 326 369
#     4  12  24  40  64  92 134 170 217 259 319 385
#     4  10  22  41  68  93 123 159 215 270 312 382
#     4  11  23  40  65  92 126 171 216 262 319 384
#     4  12  24  42  65  95 129 172 219 270 320 373
#
# _framework density 19.030942
#
# number of rings (size 3 to 8) (size 9 to 14) (size 15 to 20)
#    0.000    1.103    2.759    4.966    3.862    1.379 
#    3.724    0.000    0.000    0.828    0.000    0.000 
#    0.000    0.000    0.000    0.000    0.000    0.000 
#
# Total GULP energy -161914.503619 kJ/mol
# GULP energy per Si atom -5583.258745 kJ/mol
# Density = 1.898763 g / cm^3
# Si number density = 19.030942 Si / 1000 Ang^3
#
#
#
# Elastic Constant Matrix: (Units=GPa)
#
#
# Indices 1 2 3 4 5 6 
#
# 1 78.0296 19.7620 58.1816 0.0000 -19.5772 0.0000
# 2 19.7620 59.9920 16.9769 0.0000 -10.6076 0.0000
# 3 58.1816 16.9769 115.0573 0.0000 -9.2610 0.0000
# 4 0.0000 0.0000 0.0000 4.3898 0.0000 -0.3614
# 5 -19.5772 -10.6076 -9.2610 0.0000 41.3305 0.0000
# 6 0.0000 0.0000 0.0000 -0.3614 0.0000 11.3047
#
#
#
# Elastic Compliance Matrix: (Units=1/GPa)
#
#
# Indices 1 2 3 4 5 6 
#
# 1 0.023782 -0.003343 -0.010892 0.000000 0.007966 0.000000
# 2 -0.003343 0.018526 -0.000802 0.000000 0.002991 0.000000
# 3 -0.010892 -0.000802 0.014140 0.000000 -0.002196 0.000000
# 4 0.000000 0.000000 0.000000 0.228401 0.000000 0.007302
# 5 0.007966 0.002991 -0.002196 0.000000 0.028244 0.000000
# 6 0.000000 0.000000 0.000000 0.007302 0.000000 0.088692
#
#
# Mechanical properties :
#
#
# Convention : Reuss Voigt Hill
#
# Bulk Modulus (GPa) = 37.91500 49.21333 43.56417
# Shear Modulus (GPa) = 11.34683 21.94890 16.64787
#
# Velocity S-wave (km/s) = 2.44443 3.39975 2.96087
# Velocity P-wave (km/s) = 5.28517 6.42860 5.88472
#
# Compressibility (1/GPa) = 0.02637478
#
# Stress axis : x y z
#
# Youngs Moduli (GPa) = 42.04817 53.97775 70.71901
#
# Poissons Ratio (x) = 0.18047 0.77024
# Poissons Ratio (y) = 0.14058 0.05673
# Poissons Ratio (z) = 0.45797 0.04330
#
# Static dielectric constant tensor:
#      x y z
#    x 1.646080 0.000000 0.002010 
#    y 0.000000 1.638930 0.000000 
#    z 0.002010 0.000000 1.656300 
# 
# From -- ./inp_files/306408.got.cif
#   From: 2010.05.17/outbox.cif.g08.bks.cpg/sg12_154_cif.got.tgz:306408.got - 2010.06.03 13:09:07.
