data_PCOD9215285
_publ_section_title
;
Structure prediction by ZEFSAII (Michael W. Deem and Ramdas Pophale) SiO2 
 PCOD9215285
Probable space group: C 2/M
;
_chemical_formula_sum "Si O2"
_cell_formula_units_Z 56
_cell_length_a 18.124759
_cell_length_b 8.767195
_cell_length_c 18.854498
_cell_angle_alpha 90.000000
_cell_angle_beta 76.413295
_cell_angle_gamma 90.000000
_cell_volume 2912.199263
_symmetry_space_group_name_H-M "C 2/M"
_symmetry_group_IT_number 12
_symmetry_cell_setting 'monoclinic'
loop_
_space_group_symop_operation_xyz
x,y,z
-x,y,-z
-x,-y,-z
x,-y,z
1/2+x,1/2+y,z
1/2-x,1/2+y,-z
1/2-x,1/2-y,-z
1/2+x,1/2-y,z
loop_
_atom_site_type_symbol
_atom_site_label
_atom_site_fract_x
_atom_site_fract_y
_atom_site_fract_z
Si Si1 0.557474 0.182758 0.923399
Si Si2 0.087102 0.817518 0.500876
Si Si3 0.269410 0.182710 0.072385
Si Si4 0.796150 0.317626 0.639139
Si Si5 0.013251 0.818409 0.782566
Si Si6 0.348242 0.182240 0.788223
Si Si7 0.131163 0.682359 0.643180
O O1 0.643512 0.217187 0.926916
O O2 0.535452 0.268656 0.856840
O O3 0.551763 0.000000 0.912120
O O4 0.500000 0.221224 0.000000
O O5 0.142836 0.750477 0.428953
O O6 0.106915 0.744272 0.571841
O O7 0.000000 0.785133 0.500000
O O8 0.096775 0.000000 0.502875
O O9 0.213303 0.253409 0.143095
O O10 0.260606 0.000000 0.073055
O O11 0.250000 0.250000 0.000000
O O12 0.791494 0.500000 0.630785
O O13 0.821763 0.286354 0.713912
O O14 0.714534 0.244608 0.642611
O O15 0.072111 0.743287 0.714654
O O16 0.929172 0.758409 0.784657
O O17 0.016264 0.000000 0.774679
O O18 0.354918 0.000000 0.795658
O O19 0.131449 0.500000 0.642987
#
# Coordination Sequence:
#
# PCOD9215285 Si02
#       7
#     8   8   8   8   8   8   8
#     4  10  22  41  64  91 125 164 205 250 304 365
#     4  11  24  42  65  93 126 163 205 254 306 363
#     4  11  23  39  63  93 126 164 206 254 306 364
#     4  11  24  42  65  93 125 162 206 254 305 363
#     4  12  25  41  64  93 125 160 204 256 308 366
#     4  11  24  42  64  90 124 164 206 254 307 365
#     4  12  25  42  65  91 125 165 205 252 306 365
#
# _framework density 19.229452999999999
#
# number of rings (size 3 to 8) (size 9 to 14) (size 15 to 20)
#    0.000    0.857    0.000    7.286    0.000   10.571 
#    0.000    0.000    0.000    0.000    0.000    0.000 
#    0.000    0.000    0.000    0.000    0.000    0.000 
#
# Total GULP energy -156793.166696 kJ/mol
# GULP energy per Si atom -5599.755953 kJ/mol
# Density = 1.918569 g / cm^3
# Si number density = 19.229453 Si / 1000 Ang^3
#
#
#
# Elastic Constant Matrix: (Units=GPa)
#
#
# Indices 1 2 3 4 5 6 
#
# 1 197.1902 117.3229 125.5929 0.0000 -3.2267 0.0000
# 2 117.3229 131.7953 107.2348 0.0000 9.6142 0.0000
# 3 125.5929 107.2348 202.6133 0.0000 -10.2065 0.0000
# 4 0.0000 0.0000 0.0000 37.8026 0.0000 -12.9953
# 5 -3.2267 9.6142 -10.2065 0.0000 42.7860 0.0000
# 6 0.0000 0.0000 0.0000 -12.9953 0.0000 39.3430
#
#
#
# Elastic Compliance Matrix: (Units=1/GPa)
#
#
# Indices 1 2 3 4 5 6 
#
# 1 0.011961 -0.008537 -0.002787 0.000000 0.002155 0.000000
# 2 -0.008537 0.020439 -0.005860 0.000000 -0.006634 0.000000
# 3 -0.002787 -0.005860 0.009940 0.000000 0.003478 0.000000
# 4 0.000000 0.000000 0.000000 0.029842 0.000000 0.009857
# 5 0.002155 -0.006634 0.003478 0.000000 0.025855 0.000000
# 6 0.000000 0.000000 0.000000 0.009857 0.000000 0.028673
#
#
# Mechanical properties :
#
#
# Convention : Reuss Voigt Hill
#
# Bulk Modulus (GPa) = 125.44902 136.87776 131.16339
# Shear Modulus (GPa) = 30.53703 36.08286 33.30994
#
# Velocity S-wave (km/s) = 3.98934 4.33649 4.16653
# Velocity P-wave (km/s) = 9.30588 9.81882 9.56579
#
# Compressibility (1/GPa) = 0.00797137
#
# Stress axis : x y z
#
# Youngs Moduli (GPa) = 83.60428 48.92652 100.60386
#
# Poissons Ratio (x) = 0.41768 0.28043
# Poissons Ratio (y) = 0.71372 0.58953
# Poissons Ratio (z) = 0.23305 0.28671
#
# Static dielectric constant tensor:
#      x y z
#    x 1.631700 0.000000 0.002020 
#    y 0.000000 1.644250 0.000000 
#    z 0.002020 0.000000 1.624500 
# 
# From -- ./inp_files/275304.got.cif
#   From: 2010.05.17/outbox.cif.g08.bks.cpg/sg12_138_cif.got.tgz:275304.got - 2010.06.03 13:09:07.
