data_PCOD9215913
_publ_section_title
;
Structure prediction by ZEFSAII (Michael W. Deem and Ramdas Pophale) SiO2 
 PCOD9215913
Probable space group: C 2/M
;
_chemical_formula_sum "Si O2"
_cell_formula_units_Z 44
_cell_length_a 7.769067
_cell_length_b 24.457811
_cell_length_c 16.238723
_cell_angle_alpha 90.000000
_cell_angle_beta 138.343759
_cell_angle_gamma 90.000000
_cell_volume 2050.868520
_symmetry_space_group_name_H-M "C 2/M"
_symmetry_group_IT_number 12
_symmetry_cell_setting 'monoclinic'
loop_
_space_group_symop_operation_xyz
x,y,z
-x,y,-z
-x,-y,-z
x,-y,z
1/2+x,1/2+y,z
1/2-x,1/2+y,-z
1/2-x,1/2-y,-z
1/2+x,1/2-y,z
loop_
_atom_site_type_symbol
_atom_site_label
_atom_site_fract_x
_atom_site_fract_y
_atom_site_fract_z
Si Si1 0.744277 0.375738 0.534501
Si Si2 0.500000 0.344749 0.000000
Si Si3 0.593278 0.500000 0.278112
Si Si4 0.994503 0.301891 0.741942
Si Si5 0.287513 0.000000 0.521449
Si Si6 0.970309 0.819023 0.296442
Si Si7 0.694171 0.603244 0.903907
O O1 0.500000 0.355078 0.500000
O O2 0.755500 0.440545 0.549623
O O3 0.680846 0.356436 0.419559
O O4 0.980559 0.345343 0.662149
O O5 0.723426 0.307047 0.118056
O O6 0.376835 0.382399 0.027671
O O7 0.576335 0.500000 0.371504
O O8 0.465852 0.552242 0.189661
O O9 0.904005 0.500000 0.384163
O O10 0.934785 0.242335 0.684628
O O11 0.785887 0.316165 0.737828
O O12 0.887963 0.845595 0.181538
O O13 0.000000 0.593131 0.000000
#
# Coordination Sequence:
#
# PCOD9215913 Si02
#       7
#     8   4   4   8   4   8   8
#     4  10  22  42  68 101 136 178 229 284 341 400
#     4  12  26  43  70 102 138 181 230 272 340 416
#     4  11  25  43  68  99 131 179 226 285 343 402
#     4  11  24  41  65 103 138 184 226 280 340 405
#     4  11  21  42  68 100 132 172 230 281 343 404
#     4  11  23  43  68  97 140 180 230 285 336 400
#     4  12  25  47  70  99 141 180 228 281 337 408
#
# _framework density 21.454325000000001
#
# number of rings (size 3 to 8) (size 9 to 14) (size 15 to 20)
#    0.000    0.909    3.636    3.273    1.273    1.818 
#    0.000    0.909    0.000    0.000    0.000    0.000 
#    0.000    0.000    0.000    0.000    0.000    0.000 
#
# Total GULP energy -122944.073082 kJ/mol
# GULP energy per Si atom -5588.366958 kJ/mol
# Density = 2.140549 g / cm^3
# Si number density = 21.454325 Si / 1000 Ang^3
#
#
#
# Elastic Constant Matrix: (Units=GPa)
#
#
# Indices 1 2 3 4 5 6 
#
# 1 89.7887 12.8281 31.9413 0.0000 -5.0678 0.0000
# 2 12.8281 125.2770 38.4525 0.0000 -8.0600 0.0000
# 3 31.9413 38.4525 105.6165 0.0000 -8.7813 0.0000
# 4 0.0000 0.0000 0.0000 63.4655 0.0000 -11.9282
# 5 -5.0678 -8.0600 -8.7813 0.0000 24.4618 0.0000
# 6 0.0000 0.0000 0.0000 -11.9282 0.0000 22.3035
#
#
#
# Elastic Compliance Matrix: (Units=1/GPa)
#
#
# Indices 1 2 3 4 5 6 
#
# 1 0.012519 -0.000080 -0.003652 0.000000 0.001256 0.000000
# 2 -0.000080 0.009068 -0.003124 0.000000 0.001850 0.000000
# 3 -0.003652 -0.003124 0.011917 0.000000 0.002492 0.000000
# 4 0.000000 0.000000 0.000000 0.017517 0.000000 0.009369
# 5 0.001256 0.001850 0.002492 0.000000 0.042644 0.000000
# 6 0.000000 0.000000 0.000000 0.009369 0.000000 0.049846
#
#
# Mechanical properties :
#
#
# Convention : Reuss Voigt Hill
#
# Bulk Modulus (GPa) = 50.52455 54.12510 52.32483
# Shear Modulus (GPa) = 30.52088 37.87684 34.19886
#
# Velocity S-wave (km/s) = 3.77583 4.20630 3.99686
# Velocity P-wave (km/s) = 6.52764 6.99096 6.76327
#
# Compressibility (1/GPa) = 0.01979236
#
# Stress axis : x y z
#
# Youngs Moduli (GPa) = 79.87912 110.27468 83.91202
#
# Poissons Ratio (x) = 0.00882 0.30649
# Poissons Ratio (y) = 0.00639 0.26210
# Poissons Ratio (z) = 0.29176 0.34445
#
# Static dielectric constant tensor:
#      x y z
#    x 1.844830 0.000000 -0.015350 
#    y 0.000000 1.737890 0.000000 
#    z -0.015350 0.000000 1.774030 
# 
# From -- ./inp_files/259321.got.cif
#   From: 2010.05.17/outbox.cif.g08.bks.cpg/sg12_130_cif.got.tgz:259321.got - 2010.06.03 13:09:07.
