data_PCOD9215952
_publ_section_title
;
Structure prediction by ZEFSAII (Michael W. Deem and Ramdas Pophale) SiO2 
 PCOD9215952
Probable space group: C 2/M
;
_chemical_formula_sum "Si O2"
_cell_formula_units_Z 50
_cell_length_a 22.692523
_cell_length_b 14.573312
_cell_length_c 9.265185
_cell_angle_alpha 90.000000
_cell_angle_beta 123.843691
_cell_angle_gamma 90.000000
_cell_volume 2544.873306
_symmetry_space_group_name_H-M "C 2/M"
_symmetry_group_IT_number 12
_symmetry_cell_setting 'monoclinic'
loop_
_space_group_symop_operation_xyz
x,y,z
-x,y,-z
-x,-y,-z
x,-y,z
1/2+x,1/2+y,z
1/2-x,1/2+y,-z
1/2-x,1/2-y,-z
1/2+x,1/2-y,z
loop_
_atom_site_type_symbol
_atom_site_label
_atom_site_fract_x
_atom_site_fract_y
_atom_site_fract_z
Si Si1 0.500000 0.000000 0.000000
Si Si2 0.176270 0.269415 0.203132
Si Si3 0.310208 0.609295 0.306316
Si Si4 0.536793 0.832694 0.843129
Si Si5 0.722751 0.605906 0.064859
Si Si6 0.101229 0.243009 0.400464
Si Si7 0.888008 0.605956 0.339360
O O1 0.503813 0.080613 0.880232
O O2 0.240136 0.341717 0.274132
O O3 0.199758 0.176035 0.156423
O O4 0.153219 0.253042 0.335575
O O5 0.107811 0.306966 0.025582
O O6 0.306131 0.500000 0.316795
O O7 0.376491 0.654190 0.478252
O O8 0.310592 0.630918 0.135611
O O9 0.479597 0.750996 0.762567
O O10 0.559209 0.859158 0.711869
O O11 0.704890 0.500000 0.074222
O O12 0.808000 0.611053 0.166682
O O13 0.110498 0.329487 0.519808
O O14 0.902405 0.500000 0.394620
#
# Coordination Sequence:
#
# PCOD9215952 Si02
#       7
#     2   8   8   8   8   8   8
#     4  12  24  44  66 100 134 184 214 268 342 402
#     4  12  23  43  66  96 131 173 218 272 329 396
#     4  11  24  42  67  92 129 174 224 269 323 388
#     4  12  25  42  67  94 139 172 221 265 330 404
#     4  10  22  42  68  98 126 170 222 272 333 392
#     4  12  26  41  59 103 134 173 213 270 334 392
#     4  11  23  39  65  96 133 169 212 270 333 396
#
# _framework density 19.647344
#
# number of rings (size 3 to 8) (size 9 to 14) (size 15 to 20)
#    0.000    0.640    5.600    2.400    2.240    1.920 
#    0.000    0.800    0.000    5.760    0.000    0.000 
#    0.000    0.000    0.000    0.000    0.000    0.000 
#
# Total GULP energy -139583.953661 kJ/mol
# GULP energy per Si atom -5583.358146 kJ/mol
# Density = 1.960263 g / cm^3
# Si number density = 19.647344 Si / 1000 Ang^3
#
#
#
# Elastic Constant Matrix: (Units=GPa)
#
#
# Indices 1 2 3 4 5 6 
#
# 1 88.4964 51.1189 41.8371 0.0000 -28.5937 0.0000
# 2 51.1189 95.3352 41.8138 0.0000 -19.3082 0.0000
# 3 41.8371 41.8138 84.2329 0.0000 -13.6826 0.0000
# 4 0.0000 0.0000 0.0000 33.1810 0.0000 -5.4826
# 5 -28.5937 -19.3082 -13.6826 0.0000 53.2482 0.0000
# 6 0.0000 0.0000 0.0000 -5.4826 0.0000 3.8544
#
#
#
# Elastic Compliance Matrix: (Units=1/GPa)
#
#
# Indices 1 2 3 4 5 6 
#
# 1 0.020136 -0.007041 -0.005389 0.000000 0.006875 0.000000
# 2 -0.007041 0.016446 -0.004500 0.000000 0.001026 0.000000
# 3 -0.005389 -0.004500 0.016746 0.000000 -0.000223 0.000000
# 4 0.000000 0.000000 0.000000 0.039397 0.000000 0.056038
# 5 0.006875 0.001026 -0.000223 0.000000 0.022787 0.000000
# 6 0.000000 0.000000 0.000000 0.056038 0.000000 0.339150
#
#
# Mechanical properties :
#
#
# Convention : Reuss Voigt Hill
#
# Bulk Modulus (GPa) = 51.36680 59.73380 55.55030
# Shear Modulus (GPa) = 10.10075 26.94303 18.52189
#
# Velocity S-wave (km/s) = 2.26984 3.70717 3.07370
# Velocity P-wave (km/s) = 5.75072 6.98521 6.39781
#
# Compressibility (1/GPa) = 0.01946783
#
# Stress axis : x y z
#
# Youngs Moduli (GPa) = 49.66182 60.80398 59.71411
#
# Poissons Ratio (x) = 0.42811 0.32182
# Poissons Ratio (y) = 0.34966 0.26873
# Poissons Ratio (z) = 0.26765 0.27363
#
# Static dielectric constant tensor:
#      x y z
#    x 1.688190 0.000000 0.029100 
#    y 0.000000 1.651420 0.000000 
#    z 0.029100 0.000000 1.723660 
# 
# From -- ./inp_files/96546.got.cif
#   From: 2010.05.17/outbox.cif.g08.bks.cpg/sg12_49_cif.got.tgz:96546.got - 2010.06.03 13:09:07.
