data_PCOD9215620
_publ_section_title
;
Structure prediction by ZEFSAII (Michael W. Deem and Ramdas Pophale) SiO2 
 PCOD9215620
Probable space group: C 2/M
;
_chemical_formula_sum "Si O2"
_cell_formula_units_Z 44
_cell_length_a 29.093587
_cell_length_b 12.891541
_cell_length_c 5.550395
_cell_angle_alpha 90.000000
_cell_angle_beta 91.625473
_cell_angle_gamma 90.000000
_cell_volume 2080.899955
_symmetry_space_group_name_H-M "C 2/M"
_symmetry_group_IT_number 12
_symmetry_cell_setting 'monoclinic'
loop_
_space_group_symop_operation_xyz
x,y,z
-x,y,-z
-x,-y,-z
x,-y,z
1/2+x,1/2+y,z
1/2-x,1/2+y,-z
1/2-x,1/2-y,-z
1/2+x,1/2-y,z
loop_
_atom_site_type_symbol
_atom_site_label
_atom_site_fract_x
_atom_site_fract_y
_atom_site_fract_z
Si Si1 0.320776 0.000000 0.727178
Si Si2 0.120625 0.500000 0.769885
Si Si3 0.000000 0.184643 0.500000
Si Si4 0.146779 0.884361 0.615464
Si Si5 0.417992 0.386685 0.791167
Si Si6 0.747680 0.685126 0.747542
Si Si7 0.424349 0.778835 0.180344
O O1 0.350406 0.000000 0.480063
O O2 0.288302 0.898805 0.736442
O O3 0.349061 0.000000 0.981142
O O4 0.090231 0.396449 0.787703
O O5 0.040999 0.116716 0.396772
O O6 0.026664 0.255330 0.694737
O O7 0.133198 0.883330 0.330500
O O8 0.198049 0.868649 0.713140
O O9 0.115715 0.791258 0.705903
O O10 0.132290 0.000000 0.687766
O O11 0.423877 0.500000 0.913182
O O12 0.425181 0.277620 0.923865
O O13 0.750000 0.750000 0.500000
O O14 0.750000 0.750000 0.000000
#
# Coordination Sequence:
#
# PCOD9215620 Si02
#       7
#     4   4   4   8   8   8   8
#     4  12  26  52  68 110 141 197 240 296 358 416
#     4  12  30  47  77  97 150 196 252 293 354 416
#     4  10  23  41  70 102 142 177 235 292 370 430
#     4  10  22  42  66 101 136 181 229 292 356 427
#     4  10  22  41  69 104 142 181 227 292 367 440
#     4  12  26  44  72 103 143 185 236 297 353 422
#     4  11  24  44  68 102 137 189 236 297 354 431
#
# _framework density 21.144694999999999
#
# number of rings (size 3 to 8) (size 9 to 14) (size 15 to 20)
#    0.000    1.091    0.909    4.636   10.182    3.273 
#    0.000    1.818    0.000    0.000    0.000    0.000 
#    0.000    0.000    0.000    0.000    0.000    0.000 
#
# Total GULP energy -122601.870526 kJ/mol
# GULP energy per Si atom -5572.812297 kJ/mol
# Density = 2.109657 g / cm^3
# Si number density = 21.144695 Si / 1000 Ang^3
#
#
#
# Elastic Constant Matrix: (Units=GPa)
#
#
# Indices 1 2 3 4 5 6 
#
# 1 88.7965 44.4078 55.3321 0.0000 26.1680 0.0000
# 2 44.4078 176.4446 56.2990 0.0000 1.0423 0.0000
# 3 55.3321 56.2990 127.9330 0.0000 6.3896 0.0000
# 4 0.0000 0.0000 0.0000 24.0350 0.0000 -5.8328
# 5 26.1680 1.0423 6.3896 0.0000 38.1006 0.0000
# 6 0.0000 0.0000 0.0000 -5.8328 0.0000 29.4441
#
#
#
# Elastic Compliance Matrix: (Units=1/GPa)
#
#
# Indices 1 2 3 4 5 6 
#
# 1 0.021091 -0.002943 -0.007167 0.000000 -0.013203 0.000000
# 2 -0.002943 0.007008 -0.001918 0.000000 0.002151 0.000000
# 3 -0.007167 -0.001918 0.011609 0.000000 0.003028 0.000000
# 4 0.000000 0.000000 0.000000 0.043707 0.000000 0.008658
# 5 -0.013203 0.002151 0.003028 0.000000 0.034748 0.000000
# 6 0.000000 0.000000 0.000000 0.008658 0.000000 0.035678
#
#
# Mechanical properties :
#
#
# Convention : Reuss Voigt Hill
#
# Bulk Modulus (GPa) = 63.89726 78.36133 71.12930
# Shear Modulus (GPa) = 27.30531 34.12494 30.71513
#
# Velocity S-wave (km/s) = 3.59744 4.02167 3.81545
# Velocity P-wave (km/s) = 6.89493 7.66193 7.28853
#
# Compressibility (1/GPa) = 0.01565012
#
# Stress axis : x y z
#
# Youngs Moduli (GPa) = 47.41441 142.70153 86.13688
#
# Poissons Ratio (x) = 0.42000 0.61736
# Poissons Ratio (y) = 0.13955 0.16524
# Poissons Ratio (z) = 0.33983 0.27374
#
# Static dielectric constant tensor:
#      x y z
#    x 1.754390 0.000000 -0.021270 
#    y 0.000000 1.796100 0.000000 
#    z -0.021270 0.000000 1.928150 
# 
# From -- ./inp_files/30915.got.cif
#   From: 2010.05.17/outbox.cif.g08.bks.cpg/sg12_16_cif.got.tgz:30915.got - 2010.06.03 13:09:07.
