data_PCOD9215252
_publ_section_title
;
Structure prediction by ZEFSAII (Michael W. Deem and Ramdas Pophale) SiO2 
 PCOD9215252
Probable space group: C 2/M
;
_chemical_formula_sum "Si O2"
_cell_formula_units_Z 40
_cell_length_a 13.916288
_cell_length_b 29.319995
_cell_length_c 9.266524
_cell_angle_alpha 90.000000
_cell_angle_beta 31.877984
_cell_angle_gamma 90.000000
_cell_volume 1996.780164
_symmetry_space_group_name_H-M "C 2/M"
_symmetry_group_IT_number 12
_symmetry_cell_setting 'monoclinic'
loop_
_space_group_symop_operation_xyz
x,y,z
-x,y,-z
-x,-y,-z
x,-y,z
1/2+x,1/2+y,z
1/2-x,1/2+y,-z
1/2-x,1/2-y,-z
1/2+x,1/2-y,z
loop_
_atom_site_type_symbol
_atom_site_label
_atom_site_fract_x
_atom_site_fract_y
_atom_site_fract_z
Si Si1 0.714378 0.628110 0.746793
Si Si2 0.029192 0.606765 0.132498
Si Si3 0.184451 0.549705 0.171210
Si Si4 0.670781 0.278075 0.887971
Si Si5 0.325027 0.314994 0.798367
O O1 0.725919 0.593042 0.865230
O O2 0.834890 0.609952 0.461605
O O3 0.500000 0.633556 0.000000
O O4 0.786829 0.679437 0.679885
O O5 0.132017 0.564421 0.076871
O O6 0.154238 0.650887 0.009608
O O7 0.000000 0.603172 0.000000
O O8 0.276363 0.500000 0.060877
O O9 0.000000 0.546045 0.500000
O O10 0.622745 0.297474 0.108366
O O11 0.500000 0.270253 0.000000
O O12 0.774022 0.230844 0.776277
O O13 0.500000 0.337225 0.500000
#
# Coordination Sequence:
#
# PCOD9215252 Si02
#       5
#     8   8   8   8   8
#     4  10  22  41  64  88 119 163 204 248 296 364
#     4  11  24  39  62  91 125 158 201 252 307 355
#     4   9  19  39  64  90 120 157 201 248 303 367
#     4  10  23  40  60  87 120 165 205 242 293 359
#     4  11  25  38  60  91 127 160 201 253 302 354
#
# _framework density 20.032250000000001
#
# number of rings (size 3 to 8) (size 9 to 14) (size 15 to 20)
#    0.000    1.800    2.000    0.600   11.200    1.600 
#    0.000    0.000    0.000    4.200    0.000    0.000 
#    0.000    0.000    0.000    0.000    0.000    0.000 
#
# Total GULP energy -111485.515628 kJ/mol
# GULP energy per Si atom -5574.275781 kJ/mol
# Density = 1.998666 g / cm^3
# Si number density = 20.032250 Si / 1000 Ang^3
#
#
#
# Elastic Constant Matrix: (Units=GPa)
#
#
# Indices 1 2 3 4 5 6 
#
# 1 132.6276 34.2205 33.7321 0.0000 21.2580 0.0000
# 2 34.2205 104.7246 -1.7787 0.0000 0.7263 0.0000
# 3 33.7321 -1.7787 76.0194 0.0000 3.5853 0.0000
# 4 0.0000 0.0000 0.0000 -2.1070 0.0000 -4.2008
# 5 21.2580 0.7263 3.5853 0.0000 28.5067 0.0000
# 6 0.0000 0.0000 0.0000 -4.2008 0.0000 4.2478
#
#
#
# Elastic Compliance Matrix: (Units=1/GPa)
#
#
# Indices 1 2 3 4 5 6 
#
# 1 0.010791 -0.003552 -0.004523 0.000000 -0.007388 0.000000
# 2 -0.003552 0.010724 0.001725 0.000000 0.002158 0.000000
# 3 -0.004523 0.001725 0.015135 0.000000 0.001425 0.000000
# 4 0.000000 0.000000 0.000000 -0.159708 0.000000 -0.157942
# 5 -0.007388 0.002158 0.001425 0.000000 0.040354 0.000000
# 6 0.000000 0.000000 0.000000 -0.157942 0.000000 0.079220
#
#
# Mechanical properties :
#
#
# Convention : Reuss Voigt Hill
#
# Bulk Modulus (GPa) = 41.75319 49.52437 45.63878
# Shear Modulus (GPa) = 290.73538 22.60935 156.67237
#
# Velocity S-wave (km/s) = 12.06021 3.36318 8.85324
# Velocity P-wave (km/s) = 14.65674 6.31326 11.28444
#
# Compressibility (1/GPa) = 0.02395027
#
# Stress axis : x y z
#
# Youngs Moduli (GPa) = 92.67230 93.25104 66.07382
#
# Poissons Ratio (x) = 0.33119 0.29884
# Poissons Ratio (y) = 0.32914 -0.11398
# Poissons Ratio (z) = 0.41914 -0.16087
#
# Static dielectric constant tensor:
#      x y z
#    x 1.731500 0.000000 0.007640 
#    y 0.000000 1.771500 0.000000 
#    z 0.007640 0.000000 1.699780 
# 
# From -- ./inp_files/41904.got.cif
#   From: 2010.05.17/outbox.cif.g08.bks.cpg/sg12_21_cif.got.tgz:41904.got - 2010.06.03 13:09:07.
