data_PCOD9215651
_publ_section_title
;
Structure prediction by ZEFSAII (Michael W. Deem and Ramdas Pophale) SiO2 
 PCOD9215651
Probable space group: C 2/M
;
_chemical_formula_sum "Si O2"
_cell_formula_units_Z 40
_cell_length_a 27.794366
_cell_length_b 10.969749
_cell_length_c 5.224027
_cell_angle_alpha 90.000000
_cell_angle_beta 79.948481
_cell_angle_gamma 90.000000
_cell_volume 1568.343891
_symmetry_space_group_name_H-M "C 2/M"
_symmetry_group_IT_number 12
_symmetry_cell_setting 'monoclinic'
loop_
_space_group_symop_operation_xyz
x,y,z
-x,y,-z
-x,-y,-z
x,-y,z
1/2+x,1/2+y,z
1/2-x,1/2+y,-z
1/2-x,1/2-y,-z
1/2+x,1/2-y,z
loop_
_atom_site_type_symbol
_atom_site_label
_atom_site_fract_x
_atom_site_fract_y
_atom_site_fract_z
Si Si1 0.045578 0.868561 0.150096
Si Si2 0.870169 0.204464 0.287226
Si Si3 0.239989 0.000000 0.805229
Si Si4 0.675354 0.500000 0.363545
Si Si5 0.920660 0.364057 0.604238
Si Si6 0.181157 0.630375 0.991776
O O1 0.047542 0.746684 0.315946
O O2 0.043902 0.000000 0.289553
O O3 0.095032 0.866741 0.936959
O O4 0.000000 0.862838 0.000000
O O5 0.855977 0.119741 0.538381
O O6 0.902267 0.320158 0.345017
O O7 0.822124 0.256935 0.194798
O O8 0.217127 0.000000 0.546561
O O9 0.198033 0.000000 0.062425
O O10 0.275565 0.114265 0.843947
O O11 0.941493 0.500000 0.587847
O O12 0.870223 0.366707 0.812385
O O13 0.183648 0.500000 0.844134
#
# Coordination Sequence:
#
# PCOD9215651 Si02
#       6
#     8   8   4   4   8   8
#     4  10  23  44  69  99 136 176 229 289 359 430
#     4  11  23  39  67  95 135 181 227 292 355 423
#     4  10  26  44  64 100 139 185 244 298 350 420
#     4  12  28  40  65 103 141 182 243 298 354 420
#     4  10  22  41  71  95 134 183 230 284 352 427
#     4   8  20  41  63  88 129 176 228 278 349 407
#
# _framework density 25.504608999999999
#
# number of rings (size 3 to 8) (size 9 to 14) (size 15 to 20)
#    0.600    1.400    1.000    0.600    9.800    3.600 
#    0.000    3.000    0.000    0.000    0.000    0.000 
#    0.000    0.000    0.000    0.000    0.000    0.000 
#
# Total GULP energy -111895.029651 kJ/mol
# GULP energy per Si atom -5594.751483 kJ/mol
# Density = 2.544656 g / cm^3
# Si number density = 25.504609 Si / 1000 Ang^3
#
#
#
# Elastic Constant Matrix: (Units=GPa)
#
#
# Indices 1 2 3 4 5 6 
#
# 1 114.6908 53.6337 27.7830 0.0000 9.8378 0.0000
# 2 53.6337 206.5062 33.7393 0.0000 23.0468 0.0000
# 3 27.7830 33.7393 69.2953 0.0000 -2.9036 0.0000
# 4 0.0000 0.0000 0.0000 13.1088 0.0000 9.3509
# 5 9.8378 23.0468 -2.9036 0.0000 51.9278 0.0000
# 6 0.0000 0.0000 0.0000 9.3509 0.0000 -17.7199
#
#
#
# Elastic Compliance Matrix: (Units=1/GPa)
#
#
# Indices 1 2 3 4 5 6 
#
# 1 0.010595 -0.002072 -0.003292 0.000000 -0.001272 0.000000
# 2 -0.002072 0.006006 -0.002194 0.000000 -0.002396 0.000000
# 3 -0.003292 -0.002194 0.016926 0.000000 0.002544 0.000000
# 4 0.000000 0.000000 0.000000 0.055422 0.000000 0.029247
# 5 -0.001272 -0.002396 0.002544 0.000000 0.020704 0.000000
# 6 0.000000 0.000000 0.000000 0.029247 0.000000 -0.041000
#
#
# Mechanical properties :
#
#
# Convention : Reuss Voigt Hill
#
# Bulk Modulus (GPa) = 54.31736 68.97827 61.64781
# Shear Modulus (GPa) = 55.61337 27.81910 41.71623
#
# Velocity S-wave (km/s) = 4.67467 3.30623 4.04869
# Velocity P-wave (km/s) = 7.10493 6.45593 6.78819
#
# Compressibility (1/GPa) = 0.01841032
#
# Stress axis : x y z
#
# Youngs Moduli (GPa) = 94.38805 166.48769 59.08092
#
# Poissons Ratio (x) = 0.34493 0.19451
# Poissons Ratio (y) = 0.19555 0.12964
# Poissons Ratio (z) = 0.31075 0.36531
#
# Static dielectric constant tensor:
#      x y z
#    x 2.003790 0.000000 0.045770 
#    y 0.000000 2.028240 0.000000 
#    z 0.045770 0.000000 1.995220 
# 
# From -- ./inp_files/30644.got.cif
#   From: 2010.05.17/outbox.cif.g08.bks.cpg/sg12_16_cif.got.tgz:30644.got - 2010.06.03 13:09:07.
