data_PCOD9215962
_publ_section_title
;
Structure prediction by ZEFSAII (Michael W. Deem and Ramdas Pophale) SiO2 
 PCOD9215962
Probable space group: C 2/M
;
_chemical_formula_sum "Si O2"
_cell_formula_units_Z 24
_cell_length_a 9.660506
_cell_length_b 10.979390
_cell_length_c 10.991066
_cell_angle_alpha 90.000000
_cell_angle_beta 131.050874
_cell_angle_gamma 90.000000
_cell_volume 879.148525
_symmetry_space_group_name_H-M "C 2/M"
_symmetry_group_IT_number 12
_symmetry_cell_setting 'monoclinic'
loop_
_space_group_symop_operation_xyz
x,y,z
-x,y,-z
-x,-y,-z
x,-y,z
1/2+x,1/2+y,z
1/2-x,1/2+y,-z
1/2-x,1/2-y,-z
1/2+x,1/2-y,z
loop_
_atom_site_type_symbol
_atom_site_label
_atom_site_fract_x
_atom_site_fract_y
_atom_site_fract_z
Si Si1 0.094761 0.232866 0.187624
Si Si2 0.539153 0.000000 0.163154
Si Si3 0.596839 0.644246 0.426965
Si Si4 0.784365 0.000000 0.835496
O O1 0.138576 0.372709 0.243652
O O2 0.978753 0.177907 0.235091
O O3 0.242474 0.124829 0.254203
O O4 0.000000 0.240280 0.000000
O O5 0.353268 0.000000 0.132621
O O6 0.500000 0.000000 0.000000
O O7 0.500000 0.660893 0.500000
O O8 0.643970 0.500000 0.442560
O O9 0.750000 0.750000 0.500000
O O10 0.000000 0.000000 0.000000
#
# Coordination Sequence:
#
# PCOD9215962 Si02
#       4
#     8   4   8   4
#     4  10  23  44  71 102 137 180 232 287 342 411
#     4  10  24  42  64 107 140 180 231 283 356 406
#     4  11  27  49  70 102 141 185 233 286 355 421
#     4  10  22  42  68  98 140 180 227 292 340 404
#
# _framework density 27.299142
#
# number of rings (size 3 to 8) (size 9 to 14) (size 15 to 20)
#    0.000    1.667    1.667    0.000    7.000   12.667 
#    0.000    0.000    0.000    0.000    0.000    0.000 
#    0.000    0.000    0.000    0.000    0.000    0.000 
#
# Total GULP energy -67011.465680 kJ/mol
# GULP energy per Si atom -5584.288807 kJ/mol
# Density = 2.723701 g / cm^3
# Si number density = 27.299142 Si / 1000 Ang^3
#
#
#
# Elastic Constant Matrix: (Units=GPa)
#
#
# Indices 1 2 3 4 5 6 
#
# 1 200.3314 102.6324 77.6304 0.0000 -45.4832 0.0000
# 2 102.6324 369.5396 89.2888 0.0000 -30.6488 0.0000
# 3 77.6304 89.2888 127.3048 0.0000 -46.5604 0.0000
# 4 0.0000 0.0000 0.0000 63.5808 0.0000 -13.3313
# 5 -45.4832 -30.6488 -46.5604 0.0000 62.5002 0.0000
# 6 0.0000 0.0000 0.0000 -13.3313 0.0000 48.3955
#
#
#
# Elastic Compliance Matrix: (Units=1/GPa)
#
#
# Indices 1 2 3 4 5 6 
#
# 1 0.007207 -0.001149 -0.002579 0.000000 0.002759 0.000000
# 2 -0.001149 0.003443 -0.001927 0.000000 -0.000584 0.000000
# 3 -0.002579 -0.001927 0.013398 0.000000 0.007159 0.000000
# 4 0.000000 0.000000 0.000000 0.016692 0.000000 0.004598
# 5 0.002759 -0.000584 0.007159 0.000000 0.023055 0.000000
# 6 0.000000 0.000000 0.000000 0.004598 0.000000 0.021930
#
#
# Mechanical properties :
#
#
# Convention : Reuss Voigt Hill
#
# Bulk Modulus (GPa) = 78.52080 137.36433 107.94257
# Shear Modulus (GPa) = 49.36794 63.40357 56.38576
#
# Velocity S-wave (km/s) = 4.25715 4.82451 4.54968
# Velocity P-wave (km/s) = 7.27942 9.02563 8.19914
#
# Compressibility (1/GPa) = 0.01273548
#
# Stress axis : x y z
#
# Youngs Moduli (GPa) = 138.76305 290.48527 74.63841
#
# Poissons Ratio (x) = 0.33390 0.19250
# Poissons Ratio (y) = 0.15950 0.14384
# Poissons Ratio (z) = 0.35789 0.55982
#
# Static dielectric constant tensor:
#      x y z
#    x 2.109260 0.000000 0.002410 
#    y 0.000000 2.135260 0.000000 
#    z 0.002410 0.000000 2.501960 
# 
# From -- ./inp_files/116933.got.cif
#   From: 2010.05.17/outbox.cif.g08.bks.cpg/sg12_59_cif.got.tgz:116933.got - 2010.06.03 13:09:07.
