data_PCOD9215513
_publ_section_title
;
Structure prediction by ZEFSAII (Michael W. Deem and Ramdas Pophale) SiO2 
 PCOD9215513
Probable space group: C 2/M
;
_chemical_formula_sum "Si O2"
_cell_formula_units_Z 40
_cell_length_a 30.846769
_cell_length_b 12.058483
_cell_length_c 5.020226
_cell_angle_alpha 90.000000
_cell_angle_beta 108.401995
_cell_angle_gamma 90.000000
_cell_volume 1771.862685
_symmetry_space_group_name_H-M "C 2/M"
_symmetry_group_IT_number 12
_symmetry_cell_setting 'monoclinic'
loop_
_space_group_symop_operation_xyz
x,y,z
-x,y,-z
-x,-y,-z
x,-y,z
1/2+x,1/2+y,z
1/2-x,1/2+y,-z
1/2-x,1/2-y,-z
1/2+x,1/2-y,z
loop_
_atom_site_type_symbol
_atom_site_label
_atom_site_fract_x
_atom_site_fract_y
_atom_site_fract_z
Si Si1 0.544175 0.120024 0.273170
Si Si2 0.142308 0.170658 0.717710
Si Si3 0.137616 0.311221 0.206116
Si Si4 0.288968 0.000000 0.567086
Si Si5 0.222770 0.000000 0.939416
Si Si6 0.562929 0.500000 0.752296
Si Si7 0.000000 0.811980 0.500000
O O1 0.589139 0.135469 0.184528
O O2 0.535895 0.227188 0.438857
O O3 0.547251 0.000000 0.420921
O O4 0.500000 0.118031 0.000000
O O5 0.140314 0.203456 0.403616
O O6 0.100147 0.094425 0.724960
O O7 0.140978 0.277892 0.904975
O O8 0.188931 0.104966 0.864436
O O9 0.178090 0.393644 0.362145
O O10 0.255186 0.000000 0.254709
O O11 0.256300 0.000000 0.756521
O O12 0.525416 0.399774 0.742628
#
# Coordination Sequence:
#
# PCOD9215513 Si02
#       7
#     8   8   8   4   4   4   4
#     4  11  24  43  67 103 142 191 239 288 347 421
#     4  11  25  46  71 102 143 184 228 291 360 423
#     4  12  25  46  71 103 143 186 233 293 356 412
#     4  12  26  46  71 106 137 180 243 296 349 426
#     4  11  26  47  71 108 137 182 236 292 359 431
#     4  10  22  41  67 102 139 179 235 289 340 421
#     4  11  21  44  66 102 137 187 234 288 348 407
#
# _framework density 22.575111
#
# number of rings (size 3 to 8) (size 9 to 14) (size 15 to 20)
#    0.000    0.800    3.000    3.900    0.000    7.200 
#    3.600    2.000    0.000    0.000    0.000    0.000 
#    0.000    0.000    0.000    0.000    0.000    0.000 
#
# Total GULP energy -111375.885049 kJ/mol
# GULP energy per Si atom -5568.794252 kJ/mol
# Density = 2.252373 g / cm^3
# Si number density = 22.575111 Si / 1000 Ang^3
#
#
#
# Elastic Constant Matrix: (Units=GPa)
#
#
# Indices 1 2 3 4 5 6 
#
# 1 162.3647 47.5658 26.2693 0.0000 2.5575 0.0000
# 2 47.5658 135.6962 13.7062 0.0000 9.3716 0.0000
# 3 26.2693 13.7062 61.3941 0.0000 -6.1768 0.0000
# 4 0.0000 0.0000 0.0000 28.7257 0.0000 10.1336
# 5 2.5575 9.3716 -6.1768 0.0000 31.6462 0.0000
# 6 0.0000 0.0000 0.0000 10.1336 0.0000 51.3601
#
#
#
# Elastic Compliance Matrix: (Units=1/GPa)
#
#
# Indices 1 2 3 4 5 6 
#
# 1 0.007251 -0.002244 -0.002646 0.000000 -0.000438 0.000000
# 2 -0.002244 0.008452 -0.001183 0.000000 -0.002553 0.000000
# 3 -0.002646 -0.001183 0.018097 0.000000 0.004096 0.000000
# 4 0.000000 0.000000 0.000000 0.037416 0.000000 -0.007382
# 5 -0.000438 -0.002553 0.004096 0.000000 0.033190 0.000000
# 6 0.000000 0.000000 0.000000 -0.007382 0.000000 0.020927
#
#
# Mechanical properties :
#
#
# Convention : Reuss Voigt Hill
#
# Bulk Modulus (GPa) = 46.18298 59.39306 52.78802
# Shear Modulus (GPa) = 34.55467 40.47397 37.51432
#
# Velocity S-wave (km/s) = 3.91660 4.23881 4.08089
# Velocity P-wave (km/s) = 6.39960 7.09386 6.75566
#
# Compressibility (1/GPa) = 0.02165300
#
# Stress axis : x y z
#
# Youngs Moduli (GPa) = 137.90375 118.31591 55.25900
#
# Poissons Ratio (x) = 0.26555 0.14620
# Poissons Ratio (y) = 0.30951 0.06539
# Poissons Ratio (z) = 0.36486 0.14001
#
# Static dielectric constant tensor:
#      x y z
#    x 1.791410 0.000000 0.005410 
#    y 0.000000 1.855920 0.000000 
#    z 0.005410 0.000000 1.832410 
# 
# From -- ./inp_files/30955.got.cif
#   From: 2010.05.17/outbox.cif.g08.bks.cpg/sg12_16_cif.got.tgz:30955.got - 2010.06.03 13:09:07.
