data_PCOD9215188
_publ_section_title
;
Structure prediction by ZEFSAII (Michael W. Deem and Ramdas Pophale) SiO2 
 PCOD9215188
Probable space group: C 2/M
;
_chemical_formula_sum "Si O2"
_cell_formula_units_Z 56
_cell_length_a 27.474717
_cell_length_b 8.410312
_cell_length_c 12.997848
_cell_angle_alpha 90.000000
_cell_angle_beta 67.934612
_cell_angle_gamma 90.000000
_cell_volume 2783.441331
_symmetry_space_group_name_H-M "C 2/M"
_symmetry_group_IT_number 12
_symmetry_cell_setting 'monoclinic'
loop_
_space_group_symop_operation_xyz
x,y,z
-x,y,-z
-x,-y,-z
x,-y,z
1/2+x,1/2+y,z
1/2-x,1/2+y,-z
1/2-x,1/2-y,-z
1/2+x,1/2-y,z
loop_
_atom_site_type_symbol
_atom_site_label
_atom_site_fract_x
_atom_site_fract_y
_atom_site_fract_z
Si Si1 0.108901 0.692032 0.508118
Si Si2 0.655500 0.309458 0.838013
Si Si3 0.114749 0.308484 0.275245
Si Si4 0.462141 0.693755 0.121723
Si Si5 0.697712 0.190636 0.596849
Si Si6 0.809067 0.690509 0.967797
Si Si7 0.498264 0.690711 0.319417
O O1 0.107528 0.500000 0.511681
O O2 0.129451 0.742751 0.379416
O O3 0.147480 0.746439 0.568858
O O4 0.049980 0.753719 0.571709
O O5 0.655764 0.500000 0.841986
O O6 0.597057 0.253802 0.853137
O O7 0.693073 0.254070 0.716239
O O8 0.670410 0.245404 0.937655
O O9 0.116868 0.500000 0.271847
O O10 0.153084 0.249641 0.154453
O O11 0.054881 0.257492 0.303521
O O12 0.462019 0.500000 0.122191
O O13 0.483185 0.744575 0.215819
O O14 0.500000 0.746538 0.000000
O O15 0.750000 0.250000 0.500000
O O16 0.697173 0.000000 0.598859
O O17 0.809212 0.500000 0.964357
O O18 0.750000 0.750000 0.000000
O O19 0.500753 0.500000 0.319786
#
# Coordination Sequence:
#
# PCOD9215188 Si02
#       7
#     8   8   8   8   8   8   8
#     4  10  22  41  63  88 125 168 205 249 313 377
#     4  11  22  41  66  91 128 167 204 256 316 375
#     4  10  23  42  62  87 124 169 208 251 310 375
#     4   9  18  33  56  86 121 160 200 246 303 362
#     4  11  24  41  65  95 126 164 213 263 316 376
#     4  11  25  44  66  93 124 163 214 264 314 374
#     4  11  21  36  60  93 126 159 206 257 306 366
#
# _framework density 20.118979
#
# number of rings (size 3 to 8) (size 9 to 14) (size 15 to 20)
#    0.000    1.571    1.429    3.000    2.000    5.143 
#    0.000    0.000    0.000    3.429    0.000    0.000 
#    0.000    0.000    0.000    0.000    0.000    0.000 
#
# Total GULP energy -156529.954886 kJ/mol
# GULP energy per Si atom -5590.355532 kJ/mol
# Density = 2.007319 g / cm^3
# Si number density = 20.118979 Si / 1000 Ang^3
#
#
#
# Elastic Constant Matrix: (Units=GPa)
#
#
# Indices 1 2 3 4 5 6 
#
# 1 59.4762 4.2767 36.5069 0.0000 -3.3370 0.0000
# 2 4.2767 26.2240 20.4549 0.0000 1.9228 0.0000
# 3 36.5069 20.4549 177.3245 0.0000 -3.3155 0.0000
# 4 0.0000 0.0000 0.0000 26.7800 0.0000 -0.1973
# 5 -3.3370 1.9228 -3.3155 0.0000 41.4711 0.0000
# 6 0.0000 0.0000 0.0000 -0.1973 0.0000 29.7194
#
#
#
# Elastic Compliance Matrix: (Units=1/GPa)
#
#
# Indices 1 2 3 4 5 6 
#
# 1 0.019309 -0.000174 -0.003932 0.000000 0.001247 0.000000
# 2 -0.000174 0.042131 -0.004868 0.000000 -0.002357 0.000000
# 3 -0.003932 -0.004868 0.007019 0.000000 0.000471 0.000000
# 4 0.000000 0.000000 0.000000 0.037343 0.000000 0.000248
# 5 0.001247 -0.002357 0.000471 0.000000 0.024360 0.000000
# 6 0.000000 0.000000 0.000000 0.000248 0.000000 0.033650
#
#
# Mechanical properties :
#
#
# Convention : Reuss Voigt Hill
#
# Bulk Modulus (GPa) = 19.79714 42.83352 31.31533
# Shear Modulus (GPa) = 25.17642 33.04652 29.11147
#
# Velocity S-wave (km/s) = 3.54132 4.05724 3.80803
# Velocity P-wave (km/s) = 5.15584 6.57910 5.91047
#
# Compressibility (1/GPa) = 0.05051236
#
# Stress axis : x y z
#
# Youngs Moduli (GPa) = 51.78820 23.73525 142.46527
#
# Poissons Ratio (x) = 0.00412 0.56017
# Poissons Ratio (y) = 0.00899 0.69356
# Poissons Ratio (z) = 0.20363 0.11555
#
# Static dielectric constant tensor:
#      x y z
#    x 1.680030 0.000000 0.009750 
#    y 0.000000 1.689620 0.000000 
#    z 0.009750 0.000000 1.710370 
# 
# From -- ./inp_files/180767.got.cif
#   From: 2010.05.17/outbox.cif.g08.bks.cpg/sg12_91_cif.got.tgz:180767.got - 2010.06.03 13:09:07.
