data_PCOD9215068
_publ_section_title
;
Structure prediction by ZEFSAII (Michael W. Deem and Ramdas Pophale) SiO2 
 PCOD9215068
Probable space group: C 2/M
;
_chemical_formula_sum "Si O2"
_cell_formula_units_Z 60
_cell_length_a 21.590117
_cell_length_b 22.404211
_cell_length_c 6.608199
_cell_angle_alpha 90.000000
_cell_angle_beta 85.461810
_cell_angle_gamma 90.000000
_cell_volume 3186.427422
_symmetry_space_group_name_H-M "C 2/M"
_symmetry_group_IT_number 12
_symmetry_cell_setting 'monoclinic'
loop_
_space_group_symop_operation_xyz
x,y,z
-x,y,-z
-x,-y,-z
x,-y,z
1/2+x,1/2+y,z
1/2-x,1/2+y,-z
1/2-x,1/2-y,-z
1/2+x,1/2-y,z
loop_
_atom_site_type_symbol
_atom_site_label
_atom_site_fract_x
_atom_site_fract_y
_atom_site_fract_z
Si Si1 0.674373 0.381352 0.747037
Si Si2 0.885538 0.652359 0.296354
Si Si3 0.430633 0.635441 0.552351
Si Si4 0.228460 0.571325 0.579758
Si Si5 0.580787 0.230243 0.327494
Si Si6 0.821116 0.753146 0.042028
Si Si7 0.156747 0.933588 0.161004
Si Si8 0.000000 0.672354 0.000000
O O1 0.617559 0.384641 0.606306
O O2 0.738742 0.393489 0.613425
O O3 0.670150 0.317377 0.856695
O O4 0.667011 0.430037 0.921590
O O5 0.838623 0.598233 0.351918
O O6 0.909517 0.680422 0.502381
O O7 0.844958 0.703449 0.193798
O O8 0.943118 0.638903 0.128679
O O9 0.500000 0.612877 0.500000
O O10 0.432774 0.707008 0.562383
O O11 0.398249 0.610651 0.762340
O O12 0.226032 0.500000 0.543604
O O13 0.277897 0.582164 0.748702
O O14 0.529491 0.211519 0.174185
O O15 0.640994 0.242204 0.173856
O O16 0.750000 0.750000 0.000000
O O17 0.140167 0.000000 0.234836
#
# Coordination Sequence:
#
# PCOD9215068 Si02
#       8
#     8   8   8   8   8   8   8   4
#     4  11  21  38  58  88 119 155 198 247 303 351
#     4  11  22  39  62  90 125 157 197 249 303 361
#     4  11  23  36  58  84 117 159 204 247 297 353
#     4  10  23  41  64  89 119 159 201 246 302 361
#     4  11  22  38  59  90 124 159 194 247 304 359
#     4  11  22  33  58  93 122 152 193 243 304 363
#     4  10  22  41  59  82 120 160 203 250 294 350
#     4  10  24  40  61  88 125 162 200 240 308 366
#
# _framework density 18.829865000000002
#
# number of rings (size 3 to 8) (size 9 to 14) (size 15 to 20)
#    0.000    1.333    2.667    3.200    3.733    3.467 
#    0.000    1.000    0.000    1.600    0.000    0.000 
#    0.000    0.000    0.000    0.000    0.000    0.000 
#
# Total GULP energy -167430.162997 kJ/mol
# GULP energy per Si atom -5581.005433 kJ/mol
# Density = 1.878701 g / cm^3
# Si number density = 18.829865 Si / 1000 Ang^3
#
#
#
# Elastic Constant Matrix: (Units=GPa)
#
#
# Indices 1 2 3 4 5 6 
#
# 1 126.7337 24.6686 40.9257 0.0000 -21.4533 0.0000
# 2 24.6686 54.1237 17.2831 0.0000 -12.9710 0.0000
# 3 40.9257 17.2831 98.1001 0.0000 -9.7315 0.0000
# 4 0.0000 0.0000 0.0000 19.9680 0.0000 -3.2564
# 5 -21.4533 -12.9710 -9.7315 0.0000 29.2693 0.0000
# 6 0.0000 0.0000 0.0000 -3.2564 0.0000 12.2567
#
#
#
# Elastic Compliance Matrix: (Units=1/GPa)
#
#
# Indices 1 2 3 4 5 6 
#
# 1 0.010353 -0.002342 -0.003368 0.000000 0.005431 0.000000
# 2 -0.002342 0.021988 -0.002172 0.000000 0.007306 0.000000
# 3 -0.003368 -0.002172 0.012038 0.000000 0.000571 0.000000
# 4 0.000000 0.000000 0.000000 0.052348 0.000000 0.013908
# 5 0.005431 0.007306 0.000571 0.000000 0.041574 0.000000
# 6 0.000000 0.000000 0.000000 0.013908 0.000000 0.085283
#
#
# Mechanical properties :
#
#
# Convention : Reuss Voigt Hill
#
# Bulk Modulus (GPa) = 34.94593 49.41248 42.17920
# Shear Modulus (GPa) = 20.08947 25.37082 22.73015
#
# Velocity S-wave (km/s) = 3.26988 3.67464 3.47815
# Velocity P-wave (km/s) = 5.73195 6.65601 6.21119
#
# Compressibility (1/GPa) = 0.02861564
#
# Stress axis : x y z
#
# Youngs Moduli (GPa) = 96.58723 45.47942 83.06993
#
# Poissons Ratio (x) = 0.10651 0.27977
# Poissons Ratio (y) = 0.22619 0.18044
# Poissons Ratio (z) = 0.32530 0.09879
#
# Static dielectric constant tensor:
#      x y z
#    x 1.658770 0.000000 -0.015890 
#    y 0.000000 1.637470 0.000000 
#    z -0.015890 0.000000 1.747170 
# 
# From -- ./inp_files/21889.got.cif
#   From: 2010.05.17/outbox.cif.g08.bks.cpg/sg12_11_cif.got.tgz:21889.got - 2010.06.03 13:09:07.
