data_PCOD9215098
_publ_section_title
;
Structure prediction by ZEFSAII (Michael W. Deem and Ramdas Pophale) SiO2 
 PCOD9215098
Probable space group: C 2/M
;
_chemical_formula_sum "Si O2"
_cell_formula_units_Z 48
_cell_length_a 15.502756
_cell_length_b 8.562700
_cell_length_c 30.282942
_cell_angle_alpha 90.000000
_cell_angle_beta 139.946337
_cell_angle_gamma 90.000000
_cell_volume 2586.839578
_symmetry_space_group_name_H-M "C 2/M"
_symmetry_group_IT_number 12
_symmetry_cell_setting 'monoclinic'
loop_
_space_group_symop_operation_xyz
x,y,z
-x,y,-z
-x,-y,-z
x,-y,z
1/2+x,1/2+y,z
1/2-x,1/2+y,-z
1/2-x,1/2-y,-z
1/2+x,1/2-y,z
loop_
_atom_site_type_symbol
_atom_site_label
_atom_site_fract_x
_atom_site_fract_y
_atom_site_fract_z
Si Si1 0.889616 0.186441 0.574496
Si Si2 0.585972 0.309831 0.076332
Si Si3 0.888020 0.187601 0.074965
Si Si4 0.414929 0.187443 0.422833
Si Si5 0.377314 0.812215 0.668464
Si Si6 0.885724 0.688916 0.172717
O O1 0.750000 0.250000 0.500000
O O2 0.902505 0.247862 0.629317
O O3 0.008685 0.245029 0.589604
O O4 0.885132 0.000000 0.572802
O O5 0.586398 0.500000 0.075960
O O6 0.508910 0.261196 0.090253
O O7 0.739304 0.258582 0.132211
O O8 0.500000 0.259282 0.000000
O O9 0.905197 0.248704 0.131070
O O10 0.883208 0.000000 0.073175
O O11 0.750000 0.250000 0.000000
O O12 0.500000 0.230308 0.500000
O O13 0.265465 0.250948 0.370324
O O14 0.412252 0.000000 0.418884
O O15 0.495959 0.763297 0.748021
O O16 0.373745 0.000000 0.665189
O O17 0.884447 0.500000 0.170469
#
# Coordination Sequence:
#
# PCOD9215098 Si02
#       6
#     8   8   8   8   8   8
#     4  12  24  40  65  94 125 161 207 256 308 369
#     4   9  17  34  60  84 114 157 199 237 291 358
#     4  11  21  35  60  89 117 157 204 251 301 356
#     4  11  23  40  65  93 122 162 209 256 306 367
#     4  11  24  41  63  92 128 165 202 254 316 373
#     4  10  22  41  61  87 122 158 198 247 302 362
#
# _framework density 18.555461999999999
#
# number of rings (size 3 to 8) (size 9 to 14) (size 15 to 20)
#    0.000    1.333    3.333    3.000    0.000    3.333 
#    0.000    4.167    0.000    0.000    0.000    0.000 
#    0.000    0.000    0.000    0.000    0.000    0.000 
#
# Total GULP energy -134157.716397 kJ/mol
# GULP energy per Si atom -5589.904850 kJ/mol
# Density = 1.851323 g / cm^3
# Si number density = 18.555462 Si / 1000 Ang^3
#
#
#
# Elastic Constant Matrix: (Units=GPa)
#
#
# Indices 1 2 3 4 5 6 
#
# 1 226.6300 45.9197 126.6062 0.0000 -0.6031 0.0000
# 2 45.9197 51.8157 52.1888 0.0000 0.3101 0.0000
# 3 126.6062 52.1888 198.9347 0.0000 0.1503 0.0000
# 4 0.0000 0.0000 0.0000 21.2403 0.0000 -7.0211
# 5 -0.6031 0.3101 0.1503 0.0000 35.2866 0.0000
# 6 0.0000 0.0000 0.0000 -7.0211 0.0000 32.1112
#
#
#
# Elastic Compliance Matrix: (Units=1/GPa)
#
#
# Indices 1 2 3 4 5 6 
#
# 1 0.007052 -0.002351 -0.003871 0.000000 0.000158 0.000000
# 2 -0.002351 0.027015 -0.005591 0.000000 -0.000254 0.000000
# 3 -0.003871 -0.005591 0.008957 0.000000 -0.000055 0.000000
# 4 0.000000 0.000000 0.000000 0.050748 0.000000 0.011096
# 5 0.000158 -0.000254 -0.000055 0.000000 0.028345 0.000000
# 6 0.000000 0.000000 0.000000 0.011096 0.000000 0.033568
#
#
# Mechanical properties :
#
#
# Convention : Reuss Voigt Hill
#
# Bulk Modulus (GPa) = 51.55151 102.97886 77.26519
# Shear Modulus (GPa) = 26.91389 34.57201 30.74295
#
# Velocity S-wave (km/s) = 3.81262 4.32113 4.07481
# Velocity P-wave (km/s) = 6.87198 8.97299 7.99183
#
# Compressibility (1/GPa) = 0.01939807
#
# Stress axis : x y z
#
# Youngs Moduli (GPa) = 141.80308 37.01604 111.64132
#
# Poissons Ratio (x) = 0.08704 0.43220
# Poissons Ratio (y) = 0.33343 0.62414
# Poissons Ratio (z) = 0.54897 0.20694
#
# Static dielectric constant tensor:
#      x y z
#    x 1.617010 0.000000 0.005640 
#    y 0.000000 1.632750 0.000000 
#    z 0.005640 0.000000 1.609880 
# 
# From -- ./inp_files/360308.got.cif
#   From: 2010.05.17/outbox.cif.g08.bks.cpg/sg12_181_cif.got.tgz:360308.got - 2010.06.03 13:09:07.
