data_PCOD9215228
_publ_section_title
;
Structure prediction by ZEFSAII (Michael W. Deem and Ramdas Pophale) SiO2 
 PCOD9215228
Probable space group: C 2/M
;
_chemical_formula_sum "Si O2"
_cell_formula_units_Z 52
_cell_length_a 11.462781
_cell_length_b 24.346012
_cell_length_c 12.058886
_cell_angle_alpha 90.000000
_cell_angle_beta 131.308982
_cell_angle_gamma 90.000000
_cell_volume 2527.888130
_symmetry_space_group_name_H-M "C 2/M"
_symmetry_group_IT_number 12
_symmetry_cell_setting 'monoclinic'
loop_
_space_group_symop_operation_xyz
x,y,z
-x,y,-z
-x,-y,-z
x,-y,z
1/2+x,1/2+y,z
1/2-x,1/2+y,-z
1/2-x,1/2-y,-z
1/2+x,1/2-y,z
loop_
_atom_site_type_symbol
_atom_site_label
_atom_site_fract_x
_atom_site_fract_y
_atom_site_fract_z
Si Si1 0.296202 0.108413 0.044724
Si Si2 0.841962 0.608679 0.706073
Si Si3 0.829434 0.620162 0.433597
Si Si4 0.823857 0.817976 0.843461
Si Si5 0.588755 0.500000 0.936076
Si Si6 0.683414 0.500000 0.608233
Si Si7 0.768806 0.000000 0.620909
Si Si8 0.686537 0.806373 0.134132
O O1 0.478949 0.096544 0.150807
O O2 0.273426 0.139344 0.145866
O O3 0.251188 0.153414 0.922885
O O4 0.193047 0.053956 0.984019
O O5 0.822836 0.617711 0.562712
O O6 0.747378 0.556962 0.694266
O O7 0.787896 0.663125 0.734536
O O8 0.702607 0.660369 0.297955
O O9 0.801427 0.556739 0.377898
O O10 0.000000 0.637576 0.500000
O O11 0.762262 0.756641 0.828349
O O12 0.000000 0.821399 0.000000
O O13 0.450307 0.500000 0.761358
O O14 0.500000 0.500000 0.000000
O O15 0.500000 0.500000 0.500000
O O16 0.746367 0.500000 0.521126
O O17 0.500000 0.803730 0.000000
#
# Coordination Sequence:
#
# PCOD9215228 Si02
#       8
#     8   8   8   8   4   4   4   8
#     4  11  21  39  65  92 128 164 206 257 310 375
#     4  10  22  41  63  92 122 164 214 250 314 375
#     4  11  21  39  66  89 128 162 206 260 310 372
#     4  11  22  40  64  92 126 165 209 261 310 359
#     4  12  25  36  62 100 127 157 207 261 311 369
#     4  10  23  40  63  83 125 164 198 258 317 374
#     4  10  23  38  57  92 124 163 198 249 320 371
#     4   9  22  40  62  89 123 167 210 255 306 369
#
# _framework density 20.570530999999999
#
# number of rings (size 3 to 8) (size 9 to 14) (size 15 to 20)
#    0.000    1.538    1.538    3.462    2.154    0.615 
#    0.000    3.077    0.000    0.000    0.000    0.000 
#    0.000    0.000    0.000    0.000    0.000    0.000 
#
# Total GULP energy -145179.172833 kJ/mol
# GULP energy per Si atom -5583.814340 kJ/mol
# Density = 2.052371 g / cm^3
# Si number density = 20.570531 Si / 1000 Ang^3
#
#
#
# Elastic Constant Matrix: (Units=GPa)
#
#
# Indices 1 2 3 4 5 6 
#
# 1 26.9703 5.4663 0.1372 0.0000 8.3504 0.0000
# 2 5.4663 126.2036 39.3117 0.0000 4.9488 0.0000
# 3 0.1372 39.3117 81.5578 0.0000 -0.5725 0.0000
# 4 0.0000 0.0000 0.0000 27.4843 0.0000 3.2448
# 5 8.3504 4.9488 -0.5725 0.0000 35.4798 0.0000
# 6 0.0000 0.0000 0.0000 3.2448 0.0000 10.6637
#
#
#
# Elastic Compliance Matrix: (Units=1/GPa)
#
#
# Indices 1 2 3 4 5 6 
#
# 1 0.040256 -0.001577 0.000627 0.000000 -0.009245 0.000000
# 2 -0.001577 0.009453 -0.004561 0.000000 -0.001021 0.000000
# 3 0.000627 -0.004561 0.014464 0.000000 0.000722 0.000000
# 4 0.000000 0.000000 0.000000 0.037740 0.000000 -0.011484
# 5 -0.009245 -0.001021 0.000722 0.000000 0.030515 0.000000
# 6 0.000000 0.000000 0.000000 -0.011484 0.000000 0.097270
#
#
# Mechanical properties :
#
#
# Convention : Reuss Voigt Hill
#
# Bulk Modulus (GPa) = 18.81376 36.06246 27.43811
# Shear Modulus (GPa) = 19.34720 27.38001 23.36360
#
# Velocity S-wave (km/s) = 3.07013 3.65229 3.37379
# Velocity P-wave (km/s) = 4.66192 5.94599 5.34267
#
# Compressibility (1/GPa) = 0.05315258
#
# Stress axis : x y z
#
# Youngs Moduli (GPa) = 24.84078 105.78997 69.13899
#
# Poissons Ratio (x) = 0.16678 -0.04337
# Poissons Ratio (y) = 0.03916 0.31533
# Poissons Ratio (z) = -0.01558 0.48249
#
# Static dielectric constant tensor:
#      x y z
#    x 1.743670 0.000000 -0.019170 
#    y 0.000000 1.732940 0.000000 
#    z -0.019170 0.000000 1.812580 
# 
# From -- ./inp_files/136067.got.cif
#   From: 2010.05.17/outbox.cif.g08.bks.cpg/sg12_69_cif.got.tgz:136067.got - 2010.06.03 13:09:07.
