data_PCOD9215414
_publ_section_title
;
Structure prediction by ZEFSAII (Michael W. Deem and Ramdas Pophale) SiO2 
 PCOD9215414
Probable space group: C 2/M
;
_chemical_formula_sum "Si O2"
_cell_formula_units_Z 64
_cell_length_a 23.395364
_cell_length_b 18.843800
_cell_length_c 14.394146
_cell_angle_alpha 90.000000
_cell_angle_beta 150.140821
_cell_angle_gamma 90.000000
_cell_volume 3159.367451
_symmetry_space_group_name_H-M "C 2/M"
_symmetry_group_IT_number 12
_symmetry_cell_setting 'monoclinic'
loop_
_space_group_symop_operation_xyz
x,y,z
-x,y,-z
-x,-y,-z
x,-y,z
1/2+x,1/2+y,z
1/2-x,1/2+y,-z
1/2-x,1/2-y,-z
1/2+x,1/2-y,z
loop_
_atom_site_type_symbol
_atom_site_label
_atom_site_fract_x
_atom_site_fract_y
_atom_site_fract_z
Si Si1 0.376352 0.583253 0.630865
Si Si2 0.210644 0.358953 0.916838
Si Si3 0.727185 0.692802 0.647035
Si Si4 0.745702 0.154905 0.617075
Si Si5 0.868027 0.213849 0.287598
Si Si6 0.145406 0.082377 0.054540
Si Si7 0.990266 0.420173 0.700640
Si Si8 0.908007 0.423721 0.951007
O O1 0.349837 0.500000 0.574872
O O2 0.360656 0.637589 0.523554
O O3 0.291696 0.613149 0.591642
O O4 0.508887 0.587051 0.847430
O O5 0.151530 0.286226 0.797283
O O6 0.284747 0.391795 0.937605
O O7 0.102692 0.405336 0.797782
O O8 0.297040 0.342780 0.124968
O O9 0.752742 0.760267 0.618857
O O10 0.687953 0.722495 0.690590
O O11 0.833818 0.643407 0.820673
O O12 0.820985 0.129108 0.809919
O O13 0.615077 0.133421 0.457531
O O14 0.000000 0.197444 0.500000
O O15 0.174095 0.000000 0.113212
O O16 0.947785 0.500000 0.622864
O O17 0.031864 0.415061 0.865472
O O18 0.843823 0.500000 0.864106
O O19 0.000000 0.428932 0.000000
#
# Coordination Sequence:
#
# PCOD9215414 Si02
#       8
#     8   8   8   8   8   8   8   8
#     4  11  25  45  68  95 132 175 221 275 334 401
#     4  11  23  42  65  97 135 175 229 274 328 397
#     4  12  23  42  66  98 128 168 221 268 334 400
#     4  12  25  42  66 100 133 174 222 278 337 399
#     4  11  23  42  65  96 138 177 216 276 336 389
#     4  11  24  43  65  93 132 178 223 273 330 394
#     4  11  23  41  67  96 133 177 224 276 331 396
#     4  10  22  41  65  95 132 170 214 271 332 396
#
# _framework density 20.25722
#
# number of rings (size 3 to 8) (size 9 to 14) (size 15 to 20)
#    0.000    0.875    2.500    4.875    0.000    5.000 
#    0.000    1.250    0.000    3.000    0.000    0.000 
#    0.000    0.000    0.000    0.000    0.000    0.000 
#
# Total GULP energy -178774.642659 kJ/mol
# GULP energy per Si atom -5586.707583 kJ/mol
# Density = 2.021111 g / cm^3
# Si number density = 20.257220 Si / 1000 Ang^3
#
#
#
# Elastic Constant Matrix: (Units=GPa)
#
#
# Indices 1 2 3 4 5 6 
#
# 1 50.0058 -12.7901 -0.0957 0.0000 -5.3980 0.0000
# 2 -12.7901 132.8357 51.1801 0.0000 9.3008 0.0000
# 3 -0.0957 51.1801 104.7133 0.0000 6.0116 0.0000
# 4 0.0000 0.0000 0.0000 34.5698 0.0000 4.9573
# 5 -5.3980 9.3008 6.0116 0.0000 40.1090 0.0000
# 6 0.0000 0.0000 0.0000 4.9573 0.0000 36.2668
#
#
#
# Elastic Compliance Matrix: (Units=1/GPa)
#
#
# Indices 1 2 3 4 5 6 
#
# 1 0.020854 0.002320 -0.001256 0.000000 0.002457 0.000000
# 2 0.002320 0.009621 -0.004630 0.000000 -0.001225 0.000000
# 3 -0.001256 -0.004630 0.011862 0.000000 -0.000873 0.000000
# 4 0.000000 0.000000 0.000000 0.029505 0.000000 -0.004033
# 5 0.002457 -0.001225 -0.000873 0.000000 0.025678 0.000000
# 6 0.000000 0.000000 0.000000 -0.004033 0.000000 0.028125
#
#
# Mechanical properties :
#
#
# Convention : Reuss Voigt Hill
#
# Bulk Modulus (GPa) = 28.40536 40.46039 34.43287
# Shear Modulus (GPa) = 34.59933 38.80649 36.70291
#
# Velocity S-wave (km/s) = 4.13728 4.38160 4.26119
# Velocity P-wave (km/s) = 6.07252 6.75386 6.42223
#
# Compressibility (1/GPa) = 0.03520463
#
# Stress axis : x y z
#
# Youngs Moduli (GPa) = 47.95282 103.93816 84.30387
#
# Poissons Ratio (x) = -0.24111 0.10587
# Poissons Ratio (y) = -0.11124 0.39033
# Poissons Ratio (z) = 0.06022 0.48123
#
# Static dielectric constant tensor:
#      x y z
#    x 1.690240 0.000000 -0.001180 
#    y 0.000000 1.559620 0.000000 
#    z -0.001180 0.000000 1.719830 
# 
# From -- ./inp_files/241542.got.cif
#   From: 2010.05.17/outbox.cif.g08.bks.cpg/sg12_121_cif.got.tgz:241542.got - 2010.06.03 13:09:07.
