data_PCOD9215826
_publ_section_title
;
Structure prediction by ZEFSAII (Michael W. Deem and Ramdas Pophale) SiO2 
 PCOD9215826
Probable space group: C 2/M
;
_chemical_formula_sum "Si O2"
_cell_formula_units_Z 54
_cell_length_a 11.196288
_cell_length_b 30.784299
_cell_length_c 13.373152
_cell_angle_alpha 90.000000
_cell_angle_beta 34.185038
_cell_angle_gamma 90.000000
_cell_volume 2589.828038
_symmetry_space_group_name_H-M "C 2/M"
_symmetry_group_IT_number 12
_symmetry_cell_setting 'monoclinic'
loop_
_space_group_symop_operation_xyz
x,y,z
-x,y,-z
-x,-y,-z
x,-y,z
1/2+x,1/2+y,z
1/2-x,1/2+y,-z
1/2-x,1/2-y,-z
1/2+x,1/2-y,z
loop_
_atom_site_type_symbol
_atom_site_label
_atom_site_fract_x
_atom_site_fract_y
_atom_site_fract_z
Si Si1 0.969565 0.115259 0.338544
Si Si2 0.149455 0.571702 0.711475
Si Si3 0.733021 0.741213 0.391283
Si Si4 0.752841 0.167000 0.308998
Si Si5 0.500000 0.391199 0.000000
Si Si6 0.837202 0.339064 0.197106
Si Si7 0.000000 0.000000 0.500000
Si Si8 0.177629 0.950376 0.052401
O O1 0.778527 0.091815 0.528925
O O2 0.868105 0.141572 0.318180
O O3 0.105667 0.148929 0.311295
O O4 0.123021 0.077731 0.188509
O O5 0.090093 0.613919 0.816516
O O6 0.316201 0.537915 0.640824
O O7 0.924536 0.549202 0.851545
O O8 0.500000 0.738697 0.500000
O O9 0.750000 0.750000 0.500000
O O10 0.829062 0.783285 0.268121
O O11 0.834732 0.695690 0.287995
O O12 0.500000 0.166290 0.500000
O O13 0.815698 0.141327 0.165364
O O14 0.564187 0.423251 0.044126
O O15 0.000000 0.323254 0.000000
O O16 0.101744 0.000000 0.116591
#
# Coordination Sequence:
#
# PCOD9215826 Si02
#       8
#     8   8   8   8   4   8   2   8
#     4  11  23  42  65  93 130 177 219 277 339 410
#     4  12  23  41  63  92 134 170 215 271 340 401
#     4  11  24  44  70 100 136 183 229 287 345 417
#     4  10  22  42  66  92 127 170 225 276 336 402
#     4  10  23  42  62  94 128 176 220 285 344 396
#     4  12  24  42  66 101 138 178 223 282 348 414
#     4  12  24  36  66  94 126 176 210 272 328 410
#     4  11  24  40  64  94 131 174 229 281 340 411
#
# _framework density 20.850805999999999
#
# number of rings (size 3 to 8) (size 9 to 14) (size 15 to 20)
#    0.000    0.889    3.704    3.778    2.074    1.185 
#    0.000    3.333    0.000    4.889    0.000    0.000 
#    0.000    0.000    0.000    0.000    0.000    0.000 
#
# Total GULP energy -150423.839486 kJ/mol
# GULP energy per Si atom -5571.253314 kJ/mol
# Density = 2.080335 g / cm^3
# Si number density = 20.850806 Si / 1000 Ang^3
#
#
#
# Elastic Constant Matrix: (Units=GPa)
#
#
# Indices 1 2 3 4 5 6 
#
# 1 58.8400 38.6498 5.4981 0.0000 10.4346 0.0000
# 2 38.6498 165.0298 27.8802 0.0000 10.5165 0.0000
# 3 5.4981 27.8802 84.3204 0.0000 4.8221 0.0000
# 4 0.0000 0.0000 0.0000 21.9101 0.0000 -9.9800
# 5 10.4346 10.5165 4.8221 0.0000 27.2100 0.0000
# 6 0.0000 0.0000 0.0000 -9.9800 0.0000 33.8391
#
#
#
# Elastic Compliance Matrix: (Units=1/GPa)
#
#
# Indices 1 2 3 4 5 6 
#
# 1 0.021121 -0.004626 0.000519 0.000000 -0.006404 0.000000
# 2 -0.004626 0.007555 -0.002153 0.000000 -0.000765 0.000000
# 3 0.000519 -0.002153 0.012629 0.000000 -0.001605 0.000000
# 4 0.000000 0.000000 0.000000 0.052724 0.000000 0.015550
# 5 -0.006404 -0.000765 -0.001605 0.000000 0.039787 0.000000
# 6 0.000000 0.000000 0.000000 0.015550 0.000000 0.034138
#
#
# Mechanical properties :
#
#
# Convention : Reuss Voigt Hill
#
# Bulk Modulus (GPa) = 34.74005 50.24959 42.49482
# Shear Modulus (GPa) = 26.30615 32.33597 29.32106
#
# Velocity S-wave (km/s) = 3.55581 3.94232 3.75404
# Velocity P-wave (km/s) = 5.79273 6.69884 6.26220
#
# Compressibility (1/GPa) = 0.02878522
#
# Stress axis : x y z
#
# Youngs Moduli (GPa) = 47.34603 132.35650 79.18096
#
# Poissons Ratio (x) = 0.61229 -0.04106
# Poissons Ratio (y) = 0.21903 0.17046
# Poissons Ratio (z) = -0.02455 0.28493
#
# Static dielectric constant tensor:
#      x y z
#    x 1.795080 0.000000 -0.029560 
#    y 0.000000 1.751130 0.000000 
#    z -0.029560 0.000000 1.894890 
# 
# From -- ./inp_files/210026.got.cif
#   From: 2010.05.17/outbox.cif.g08.bks.cpg/sg12_106_cif.got.tgz:210026.got - 2010.06.03 13:09:07.
