data_PCOD9215162
_publ_section_title
;
Structure prediction by ZEFSAII (Michael W. Deem and Ramdas Pophale) SiO2 
 PCOD9215162
Probable space group: C 2/M
;
_chemical_formula_sum "Si O2"
_cell_formula_units_Z 48
_cell_length_a 18.342828
_cell_length_b 23.101862
_cell_length_c 9.306136
_cell_angle_alpha 90.000000
_cell_angle_beta 35.960108
_cell_angle_gamma 90.000000
_cell_volume 2315.713723
_symmetry_space_group_name_H-M "C 2/M"
_symmetry_group_IT_number 12
_symmetry_cell_setting 'monoclinic'
loop_
_space_group_symop_operation_xyz
x,y,z
-x,y,-z
-x,-y,-z
x,-y,z
1/2+x,1/2+y,z
1/2-x,1/2+y,-z
1/2-x,1/2-y,-z
1/2+x,1/2-y,z
loop_
_atom_site_type_symbol
_atom_site_label
_atom_site_fract_x
_atom_site_fract_y
_atom_site_fract_z
Si Si1 0.859738 0.899512 0.532569
Si Si2 0.299160 0.735082 0.578603
Si Si3 0.912699 0.248418 0.841617
Si Si4 0.617350 0.614902 0.167160
Si Si5 0.879156 0.630080 0.776507
Si Si6 0.399316 0.065822 0.046300
O O1 0.823670 0.833311 0.558297
O O2 0.872495 0.907260 0.685157
O O3 0.002481 0.910293 0.260773
O O4 0.741194 0.934254 0.668305
O O5 0.250000 0.750000 0.500000
O O6 0.440090 0.760744 0.365560
O O7 0.186421 0.750979 0.868386
O O8 0.907322 0.184090 0.784617
O O9 0.870721 0.300402 0.805374
O O10 0.756769 0.607667 0.891120
O O11 0.891701 0.605451 0.917579
O O12 0.000000 0.613144 0.500000
O O13 0.433104 0.000000 0.953142
O O14 0.500000 0.087450 0.000000
#
# Coordination Sequence:
#
# PCOD9215162 Si02
#       6
#     8   8   8   8   8   8
#     4   9  19  35  56  77 111 145 191 241 277 344
#     4  11  22  32  49  78 117 157 191 233 282 343
#     4  11  21  33  53  80 118 159 193 227 285 355
#     4   9  18  34  52  80 114 146 186 229 286 344
#     4  11  22  34  59  87 115 153 195 243 290 347
#     4  10  22  41  63  83 110 150 196 250 302 344
#
# _framework density 20.727948999999999
#
# number of rings (size 3 to 8) (size 9 to 14) (size 15 to 20)
#    0.000    1.833    3.333    2.000    7.000    0.333 
#    0.000    6.667    0.000    0.000    0.000    2.333 
#    0.000    0.000    0.000    0.000    0.000    0.000 
#
# Total GULP energy -133719.807195 kJ/mol
# GULP energy per Si atom -5571.658633 kJ/mol
# Density = 2.068077 g / cm^3
# Si number density = 20.727949 Si / 1000 Ang^3
#
#
#
# Elastic Constant Matrix: (Units=GPa)
#
#
# Indices 1 2 3 4 5 6 
#
# 1 88.7166 2.6970 65.6885 0.0000 -38.8270 0.0000
# 2 2.6970 19.7451 2.5830 0.0000 -4.1854 0.0000
# 3 65.6885 2.5830 184.8283 0.0001 -41.2790 -0.0001
# 4 0.0000 0.0000 0.0001 17.9026 -0.0001 -11.8003
# 5 -38.8270 -4.1854 -41.2790 -0.0001 40.7486 0.0001
# 6 0.0000 0.0000 -0.0001 -11.8003 0.0001 20.1900
#
#
#
# Elastic Compliance Matrix: (Units=1/GPa)
#
#
# Indices 1 2 3 4 5 6 
#
# 1 0.021362 0.001091 -0.003924 0.000000 0.016491 0.000000
# 2 0.001091 0.051880 0.000400 0.000000 0.006774 0.000000
# 3 -0.003924 0.000400 0.007720 0.000000 0.004123 0.000000
# 4 0.000000 0.000000 0.000000 0.090861 0.000000 0.053105
# 5 0.016491 0.006774 0.004123 0.000000 0.045126 0.000000
# 6 0.000000 0.000000 0.000000 0.053105 0.000000 0.080567
#
#
# Mechanical properties :
#
#
# Convention : Reuss Voigt Hill
#
# Bulk Modulus (GPa) = 13.14131 48.35857 30.74994
# Shear Modulus (GPa) = 15.25563 30.58968 22.92266
#
# Velocity S-wave (km/s) = 2.71586 3.84574 3.32909
# Velocity P-wave (km/s) = 4.02346 6.56509 5.44466
#
# Compressibility (1/GPa) = 0.07609590
#
# Stress axis : x y z
#
# Youngs Moduli (GPa) = 46.81298 19.27527 129.52957
#
# Poissons Ratio (x) = -0.02103 0.50829
# Poissons Ratio (y) = -0.05108 -0.05181
# Poissons Ratio (z) = 0.18370 -0.00771
#
# Static dielectric constant tensor:
#      x y z
#    x 1.734120 0.000000 -0.038400 
#    y 0.000000 1.740850 0.000000 
#    z -0.038400 0.000000 1.885620 
# 
# From -- ./inp_files/170109.got.cif
#   From: 2010.05.17/outbox.cif.g08.bks.cpg/sg12_86_cif.got.tgz:170109.got - 2010.06.03 13:09:07.
