data_PCOD9215566
_publ_section_title
;
Structure prediction by ZEFSAII (Michael W. Deem and Ramdas Pophale) SiO2 
 PCOD9215566
Probable space group: C 2/M
;
_chemical_formula_sum "Si O2"
_cell_formula_units_Z 64
_cell_length_a 17.609374
_cell_length_b 28.441908
_cell_length_c 9.324158
_cell_angle_alpha 90.000000
_cell_angle_beta 40.832247
_cell_angle_gamma 90.000000
_cell_volume 3053.430963
_symmetry_space_group_name_H-M "C 2/M"
_symmetry_group_IT_number 12
_symmetry_cell_setting 'monoclinic'
loop_
_space_group_symop_operation_xyz
x,y,z
-x,y,-z
-x,-y,-z
x,-y,z
1/2+x,1/2+y,z
1/2-x,1/2+y,-z
1/2-x,1/2-y,-z
1/2+x,1/2-y,z
loop_
_atom_site_type_symbol
_atom_site_label
_atom_site_fract_x
_atom_site_fract_y
_atom_site_fract_z
Si Si1 0.998224 0.723028 0.154173
Si Si2 0.738905 0.555190 0.360444
Si Si3 0.097558 0.188057 0.563285
Si Si4 0.241162 0.299677 0.934580
Si Si5 0.692679 0.144047 0.561325
Si Si6 0.987766 0.907797 0.688916
Si Si7 0.261495 0.055206 0.988054
Si Si8 0.866592 0.366415 0.682818
O O1 0.951362 0.760364 0.335820
O O2 0.915072 0.678449 0.257060
O O3 0.124746 0.704515 0.008294
O O4 0.000000 0.749476 0.000000
O O5 0.765169 0.500000 0.348649
O O6 0.806275 0.594195 0.357246
O O7 0.601334 0.564907 0.584994
O O8 0.761058 0.565989 0.159769
O O9 0.196193 0.172788 0.537056
O O10 0.002971 0.146777 0.707346
O O11 0.156425 0.188120 0.321747
O O12 0.215504 0.337020 0.093955
O O13 0.250000 0.250000 0.000000
O O14 0.685026 0.135370 0.402326
O O15 0.862722 0.929070 0.900470
O O16 0.000000 0.911692 0.500000
O O17 0.272498 0.000000 0.959056
O O18 0.360938 0.082287 0.761190
O O19 0.000000 0.348557 0.500000
#
# Coordination Sequence:
#
# PCOD9215566 Si02
#       8
#     8   8   8   8   8   8   8   8
#     4  12  26  42  68  95 133 178 221 272 331 393
#     4   9  19  39  69  99 128 169 217 273 340 406
#     4  11  25  42  65 100 133 178 219 266 333 402
#     4  12  27  43  68  94 132 174 227 280 325 395
#     4  11  23  43  63  91 134 170 221 270 332 397
#     4   9  18  36  66  99 132 162 212 266 325 389
#     4  10  22  41  68 100 132 169 218 278 338 398
#     4  12  26  44  66  92 129 174 224 278 334 391
#
# _framework density 20.960028000000001
#
# number of rings (size 3 to 8) (size 9 to 14) (size 15 to 20)
#    0.000    1.250    2.500    3.750    5.250    2.250 
#    0.000    1.875    0.000    5.625    0.000    0.000 
#    0.000    0.000    0.000    0.000    0.000    0.000 
#
# Total GULP energy -178868.798727 kJ/mol
# GULP energy per Si atom -5589.649960 kJ/mol
# Density = 2.091232 g / cm^3
# Si number density = 20.960028 Si / 1000 Ang^3
#
#
#
# Elastic Constant Matrix: (Units=GPa)
#
#
# Indices 1 2 3 4 5 6 
#
# 1 62.2459 25.5060 19.5541 0.0000 23.1643 0.0000
# 2 25.5060 106.8851 36.7096 0.0000 13.8547 0.0000
# 3 19.5541 36.7096 81.6543 0.0000 18.0844 0.0000
# 4 0.0000 0.0000 0.0000 34.9234 0.0000 2.4364
# 5 23.1643 13.8547 18.0844 0.0000 23.9387 0.0000
# 6 0.0000 0.0000 0.0000 2.4364 0.0000 14.5295
#
#
#
# Elastic Compliance Matrix: (Units=1/GPa)
#
#
# Indices 1 2 3 4 5 6 
#
# 1 0.026090 -0.003324 0.000495 0.000000 -0.023696 0.000000
# 2 -0.003324 0.011693 -0.004413 0.000000 -0.000217 0.000000
# 3 0.000495 -0.004413 0.016396 0.000000 -0.010311 0.000000
# 4 0.000000 0.000000 0.000000 0.028973 0.000000 -0.004858
# 5 -0.023696 -0.000217 -0.010311 0.000000 0.072618 0.000000
# 6 0.000000 0.000000 0.000000 -0.004858 0.000000 0.069640
#
#
# Mechanical properties :
#
#
# Convention : Reuss Voigt Hill
#
# Bulk Modulus (GPa) = 25.19253 46.03608 35.61430
# Shear Modulus (GPa) = 19.75304 25.94603 22.84954
#
# Velocity S-wave (km/s) = 3.07321 3.52217 3.30532
# Velocity P-wave (km/s) = 4.96369 6.20905 5.62097
#
# Compressibility (1/GPa) = 0.03969430
#
# Stress axis : x y z
#
# Youngs Moduli (GPa) = 38.32824 85.52304 60.99169
#
# Poissons Ratio (x) = 0.28430 -0.03017
# Poissons Ratio (y) = 0.12741 0.26913
# Poissons Ratio (z) = -0.01896 0.37738
#
# Static dielectric constant tensor:
#      x y z
#    x 1.727050 0.000000 0.021060 
#    y 0.000000 1.824620 0.000000 
#    z 0.021060 0.000000 1.758670 
# 
# From -- ./inp_files/80719.got.cif
#   From: 2010.05.17/outbox.cif.g08.bks.cpg/sg12_41_cif.got.tgz:80719.got - 2010.06.03 13:09:07.
