data_PCOD9215846
_publ_section_title
;
Structure prediction by ZEFSAII (Michael W. Deem and Ramdas Pophale) SiO2 
 PCOD9215846
Probable space group: C 2/M
;
_chemical_formula_sum "Si O2"
_cell_formula_units_Z 28
_cell_length_a 10.897602
_cell_length_b 9.850148
_cell_length_c 15.640068
_cell_angle_alpha 90.000000
_cell_angle_beta 54.476811
_cell_angle_gamma 90.000000
_cell_volume 1366.384541
_symmetry_space_group_name_H-M "C 2/M"
_symmetry_group_IT_number 12
_symmetry_cell_setting 'monoclinic'
loop_
_space_group_symop_operation_xyz
x,y,z
-x,y,-z
-x,-y,-z
x,-y,z
1/2+x,1/2+y,z
1/2-x,1/2+y,-z
1/2-x,1/2-y,-z
1/2+x,1/2-y,z
loop_
_atom_site_type_symbol
_atom_site_label
_atom_site_fract_x
_atom_site_fract_y
_atom_site_fract_z
Si Si1 0.125889 0.208301 0.793236
Si Si2 0.319027 0.500000 0.090866
Si Si3 0.173455 0.661328 0.455463
Si Si4 0.401022 0.000000 0.125978
Si Si5 0.859969 0.000000 0.891308
O O1 0.226365 0.184814 0.669601
O O2 0.086326 0.362811 0.826663
O O3 0.207941 0.133068 0.840705
O O4 0.969312 0.128657 0.848015
O O5 0.500000 0.500000 0.000000
O O6 0.258801 0.500000 0.018931
O O7 0.175752 0.500000 0.476449
O O8 0.250000 0.750000 0.500000
O O9 0.000000 0.696857 0.500000
O O10 0.232991 0.000000 0.156360
O O11 0.500000 0.000000 0.000000
#
# Coordination Sequence:
#
# PCOD9215846 Si02
#       5
#     8   4   8   4   4
#     4  10  22  42  66  95 133 173 218 274 341 392
#     4   8  16  38  65  86 125 173 205 260 334 388
#     4  11  26  47  72 103 135 177 233 284 340 408
#     4  12  26  40  63 106 129 169 234 264 325 417
#     4  10  22  44  67  87 136 178 209 282 338 392
#
# _framework density 20.492035000000001
#
# number of rings (size 3 to 8) (size 9 to 14) (size 15 to 20)
#    0.000    2.000    2.857    2.571    6.000    5.143 
#    0.000    1.429    0.000    0.000    0.000    0.000 
#    0.000    0.000    0.000    0.000    0.000    0.000 
#
# Total GULP energy -78164.412844 kJ/mol
# GULP energy per Si atom -5583.172346 kJ/mol
# Density = 2.044539 g / cm^3
# Si number density = 20.492035 Si / 1000 Ang^3
#
#
#
# Elastic Constant Matrix: (Units=GPa)
#
#
# Indices 1 2 3 4 5 6 
#
# 1 104.9613 67.1231 37.4713 0.0000 8.4213 0.0000
# 2 67.1231 189.0438 49.3938 0.0000 5.3423 0.0000
# 3 37.4713 49.3938 139.5527 0.0000 10.6441 0.0000
# 4 0.0000 0.0000 0.0000 40.0090 0.0000 13.2186
# 5 8.4213 5.3423 10.6441 0.0000 13.7133 0.0000
# 6 0.0000 0.0000 0.0000 13.2186 0.0000 38.1869
#
#
#
# Elastic Compliance Matrix: (Units=1/GPa)
#
#
# Indices 1 2 3 4 5 6 
#
# 1 0.013158 -0.004083 -0.001693 0.000000 -0.005176 0.000000
# 2 -0.004083 0.007103 -0.001486 0.000000 0.000894 0.000000
# 3 -0.001693 -0.001486 0.008528 0.000000 -0.005000 0.000000
# 4 0.000000 0.000000 0.000000 0.028222 0.000000 -0.009769
# 5 -0.005176 0.000894 -0.005000 0.000000 0.079633 0.000000
# 6 0.000000 0.000000 0.000000 -0.009769 0.000000 0.029569
#
#
# Mechanical properties :
#
#
# Convention : Reuss Voigt Hill
#
# Bulk Modulus (GPa) = 70.10563 82.39270 76.24916
# Shear Modulus (GPa) = 26.95542 37.01983 31.98762
#
# Velocity S-wave (km/s) = 3.63079 4.25496 3.95521
# Velocity P-wave (km/s) = 7.20155 8.02708 7.62550
#
# Compressibility (1/GPa) = 0.01426419
#
# Stress axis : x y z
#
# Youngs Moduli (GPa) = 75.99703 140.79353 117.26635
#
# Poissons Ratio (x) = 0.57493 0.19854
# Poissons Ratio (y) = 0.31033 0.17422
# Poissons Ratio (z) = 0.12867 0.20917
#
# Static dielectric constant tensor:
#      x y z
#    x 1.814400 0.000000 0.026460 
#    y 0.000000 1.710860 0.000000 
#    z 0.026460 0.000000 1.711380 
# 
# From -- ./inp_files/202036.got.cif
#   From: 2010.05.17/outbox.cif.g08.bks.cpg/sg12_102_cif.got.tgz:202036.got - 2010.06.03 13:09:07.
