data_PCOD9215319
_publ_section_title
;
Structure prediction by ZEFSAII (Michael W. Deem and Ramdas Pophale) SiO2 
 PCOD9215319
Probable space group: C 2/M
;
_chemical_formula_sum "Si O2"
_cell_formula_units_Z 36
_cell_length_a 10.893140
_cell_length_b 18.969150
_cell_length_c 8.457938
_cell_angle_alpha 90.000000
_cell_angle_beta 99.330131
_cell_angle_gamma 90.000000
_cell_volume 1724.573279
_symmetry_space_group_name_H-M "C 2/M"
_symmetry_group_IT_number 12
_symmetry_cell_setting 'monoclinic'
loop_
_space_group_symop_operation_xyz
x,y,z
-x,y,-z
-x,-y,-z
x,-y,z
1/2+x,1/2+y,z
1/2-x,1/2+y,-z
1/2-x,1/2-y,-z
1/2+x,1/2-y,z
loop_
_atom_site_type_symbol
_atom_site_label
_atom_site_fract_x
_atom_site_fract_y
_atom_site_fract_z
Si Si1 0.059008 0.170645 0.175406
Si Si2 0.270131 0.426264 0.631534
Si Si3 0.000000 0.613013 0.500000
Si Si4 0.157127 0.083637 0.715464
Si Si5 0.083431 0.661606 0.170579
O O1 0.189057 0.135992 0.247852
O O2 0.085575 0.253421 0.166293
O O3 0.956919 0.136488 0.271711
O O4 0.000000 0.146230 0.000000
O O5 0.313774 0.500000 0.711651
O O6 0.328574 0.418267 0.470764
O O7 0.124655 0.427169 0.569719
O O8 0.031595 0.649785 0.338520
O O9 0.284256 0.120321 0.807851
O O10 0.144057 0.000000 0.761761
O O11 0.000000 0.639382 0.000000
#
# Coordination Sequence:
#
# PCOD9215319 Si02
#       5
#     8   8   4   8   8
#     4  11  25  39  64  97 131 166 214 265 324 383
#     4  10  22  41  64  93 130 166 213 270 317 383
#     4  10  23  40  68  94 123 176 218 256 327 390
#     4  10  23  43  65  93 128 170 218 263 324 384
#     4  10  25  42  65  96 133 169 215 269 318 384
#
# _framework density 20.874728999999999
#
# number of rings (size 3 to 8) (size 9 to 14) (size 15 to 20)
#    0.000    1.778    0.000    1.667    9.333    8.444 
#    0.000    0.000    0.000    0.000    0.000    0.000 
#    0.000    0.000    0.000    0.000    0.000    0.000 
#
# Total GULP energy -100220.063850 kJ/mol
# GULP energy per Si atom -5567.781325 kJ/mol
# Density = 2.082722 g / cm^3
# Si number density = 20.874729 Si / 1000 Ang^3
#
#
#
# Elastic Constant Matrix: (Units=GPa)
#
#
# Indices 1 2 3 4 5 6 
#
# 1 72.6831 24.2259 17.9324 0.0000 21.2895 0.0000
# 2 24.2259 86.1172 33.8916 0.0000 26.4301 0.0000
# 3 17.9324 33.8916 94.3482 0.0000 31.6531 0.0000
# 4 0.0000 0.0000 0.0000 -1.1709 0.0000 -24.7471
# 5 21.2895 26.4301 31.6531 0.0000 30.4765 0.0000
# 6 0.0000 0.0000 0.0000 -24.7471 0.0000 11.6094
#
#
#
# Elastic Compliance Matrix: (Units=1/GPa)
#
#
# Indices 1 2 3 4 5 6 
#
# 1 0.017571 -0.001743 0.001377 0.000000 -0.012193 0.000000
# 2 -0.001743 0.016167 -0.001812 0.000000 -0.010921 0.000000
# 3 0.001377 -0.001812 0.016551 0.000000 -0.016580 0.000000
# 4 0.000000 0.000000 0.000000 -0.018545 0.000000 -0.039531
# 5 -0.012193 -0.010921 -0.016580 0.000000 0.068021 0.000000
# 6 0.000000 0.000000 0.000000 -0.039531 0.000000 0.001870
#
#
# Mechanical properties :
#
#
# Convention : Reuss Voigt Hill
#
# Bulk Modulus (GPa) = 21.77083 45.02757 33.39920
# Shear Modulus (GPa) = 41.21923 19.98958 30.60440
#
# Velocity S-wave (km/s) = 4.44847 3.09786 3.83312
# Velocity P-wave (km/s) = 6.06935 5.86625 5.96867
#
# Compressibility (1/GPa) = 0.04593302
#
# Stress axis : x y z
#
# Youngs Moduli (GPa) = 56.91215 61.85293 60.41994
#
# Poissons Ratio (x) = 0.10779 -0.08320
# Poissons Ratio (y) = 0.09918 0.10951
# Poissons Ratio (z) = -0.07837 0.11211
#
# Static dielectric constant tensor:
#      x y z
#    x 1.809820 0.000000 -0.047730 
#    y 0.000000 1.789480 0.000000 
#    z -0.047730 0.000000 1.781910 
# 
# From -- ./inp_files/46662.got.cif
#   From: 2010.05.17/outbox.cif.g08.bks.cpg/sg12_24_cif.got.tgz:46662.got - 2010.06.03 13:09:07.
