data_PCOD9215993
_publ_section_title
;
Structure prediction by ZEFSAII (Michael W. Deem and Ramdas Pophale) SiO2 
 PCOD9215993
Probable space group: C 2/M
;
_chemical_formula_sum "Si O2"
_cell_formula_units_Z 36
_cell_length_a 15.340384
_cell_length_b 19.625792
_cell_length_c 8.366381
_cell_angle_alpha 90.000000
_cell_angle_beta 37.738662
_cell_angle_gamma 90.000000
_cell_volume 1541.684933
_symmetry_space_group_name_H-M "C 2/M"
_symmetry_group_IT_number 12
_symmetry_cell_setting 'monoclinic'
loop_
_space_group_symop_operation_xyz
x,y,z
-x,y,-z
-x,-y,-z
x,-y,z
1/2+x,1/2+y,z
1/2-x,1/2+y,-z
1/2-x,1/2-y,-z
1/2+x,1/2-y,z
loop_
_atom_site_type_symbol
_atom_site_label
_atom_site_fract_x
_atom_site_fract_y
_atom_site_fract_z
Si Si1 0.272246 0.075156 0.415881
Si Si2 0.807292 0.076896 0.114806
Si Si3 0.500000 0.143291 0.500000
Si Si4 0.444131 0.791503 0.252451
Si Si5 0.944936 0.158530 0.407559
O O1 0.178921 0.074227 0.713213
O O2 0.377977 0.136468 0.296907
O O3 0.170167 0.098170 0.421257
O O4 0.333535 0.000000 0.305338
O O5 0.644044 0.099698 0.317891
O O6 0.832346 0.000000 0.017050
O O7 0.917736 0.131123 0.886098
O O8 0.472811 0.185758 0.704420
O O9 0.370966 0.723325 0.429819
O O10 0.500000 0.765903 0.000000
O O11 0.000000 0.177234 0.500000
#
# Coordination Sequence:
#
# PCOD9215993 Si02
#       5
#     8   8   4   8   8
#     4  10  23  44  67  98 134 176 229 278 339 404
#     4  10  22  42  69  96 135 181 223 280 339 401
#     4  10  23  44  66 100 135 174 234 274 331 410
#     4  11  24  44  69  97 136 182 225 280 332 402
#     4  12  25  41  66 102 141 177 225 281 334 404
#
# _framework density 23.351073
#
# number of rings (size 3 to 8) (size 9 to 14) (size 15 to 20)
#    0.000    1.333    1.111    3.667    3.111    7.556 
#    0.000    0.000    0.000    0.000    0.000    0.000 
#    0.000    0.000    0.000    0.000    0.000    0.000 
#
# Total GULP energy -100332.283198 kJ/mol
# GULP energy per Si atom -5574.015733 kJ/mol
# Density = 2.329793 g / cm^3
# Si number density = 23.351073 Si / 1000 Ang^3
#
#
#
# Elastic Constant Matrix: (Units=GPa)
#
#
# Indices 1 2 3 4 5 6 
#
# 1 119.7023 43.9840 23.6182 0.0001 11.2896 0.0000
# 2 43.9840 145.9317 24.6754 0.0001 -0.3222 0.0000
# 3 23.6182 24.6754 35.0457 0.0004 9.1342 -0.0001
# 4 0.0001 0.0001 0.0004 22.7415 -0.0001 5.5892
# 5 11.2896 -0.3222 9.1342 -0.0001 32.5181 0.0000
# 6 0.0000 0.0000 -0.0001 5.5892 0.0000 25.3178
#
#
#
# Elastic Compliance Matrix: (Units=1/GPa)
#
#
# Indices 1 2 3 4 5 6 
#
# 1 0.010361 -0.002325 -0.004750 0.000000 -0.002286 0.000000
# 2 -0.002325 0.008393 -0.004936 0.000000 0.002277 0.000000
# 3 -0.004750 -0.004936 0.037542 -0.000001 -0.008945 0.000000
# 4 0.000000 0.000000 -0.000001 0.046495 0.000000 -0.010264
# 5 -0.002286 0.002277 -0.008945 0.000000 0.034081 0.000000
# 6 0.000000 0.000000 0.000000 -0.010264 0.000000 0.041764
#
#
# Mechanical properties :
#
#
# Convention : Reuss Voigt Hill
#
# Bulk Modulus (GPa) = 30.98413 53.91499 42.44956
# Shear Modulus (GPa) = 23.42844 30.00895 26.71869
#
# Velocity S-wave (km/s) = 3.17095 3.58875 3.38630
# Velocity P-wave (km/s) = 5.16761 6.34910 5.78858
#
# Compressibility (1/GPa) = 0.03227459
#
# Stress axis : x y z
#
# Youngs Moduli (GPa) = 96.51517 119.14896 26.63671
#
# Poissons Ratio (x) = 0.27699 0.12652
# Poissons Ratio (y) = 0.22437 0.13148
# Poissons Ratio (z) = 0.45844 0.58813
#
# Static dielectric constant tensor:
#      x y z
#    x 1.871610 0.000000 -0.025490 
#    y 0.000000 1.886140 0.000000 
#    z -0.025490 0.000000 1.923790 
# 
# From -- ./inp_files/64010.got.cif
#   From: 2010.05.17/outbox.cif.g08.bks.cpg/sg12_33_cif.got.tgz:64010.got - 2010.06.03 13:09:07.
