data_PCOD9215848
_publ_section_title
;
Structure prediction by ZEFSAII (Michael W. Deem and Ramdas Pophale) SiO2 
 PCOD9215848
Probable space group: C 2/M
;
_chemical_formula_sum "Si O2"
_cell_formula_units_Z 28
_cell_length_a 8.411915
_cell_length_b 17.551458
_cell_length_c 8.269130
_cell_angle_alpha 90.000000
_cell_angle_beta 66.292296
_cell_angle_gamma 90.000000
_cell_volume 1117.835065
_symmetry_space_group_name_H-M "C 2/M"
_symmetry_group_IT_number 12
_symmetry_cell_setting 'monoclinic'
loop_
_space_group_symop_operation_xyz
x,y,z
-x,y,-z
-x,-y,-z
x,-y,z
1/2+x,1/2+y,z
1/2-x,1/2+y,-z
1/2-x,1/2-y,-z
1/2+x,1/2-y,z
loop_
_atom_site_type_symbol
_atom_site_label
_atom_site_fract_x
_atom_site_fract_y
_atom_site_fract_z
Si Si1 0.142096 0.830878 0.717128
Si Si2 0.500000 0.235674 0.500000
Si Si3 0.415539 0.000000 0.282176
Si Si4 0.711362 0.500000 0.692062
Si Si5 0.250000 0.250000 0.000000
Si Si6 0.000000 0.376331 0.000000
O O1 0.330834 0.817224 0.557095
O O2 0.000524 0.790885 0.657403
O O3 0.156907 0.779321 0.867720
O O4 0.113482 0.919943 0.759036
O O5 0.275266 0.000000 0.480275
O O6 0.610327 0.000000 0.277609
O O7 0.402575 0.072222 0.171660
O O8 0.143934 0.329651 0.035127
#
# Coordination Sequence:
#
# PCOD9215848 Si02
#       6
#     8   4   4   4   4   4
#     4  11  24  42  68  98 135 173 222 273 332 395
#     4  10  24  42  68 100 130 174 222 274 326 394
#     4  10  22  42  66  96 129 175 223 270 322 406
#     4  11  22  41  68  95 130 177 222 272 327 397
#     4  12  24  40  66 102 132 176 212 280 324 400
#     4  11  24  42  68  99 134 172 220 273 336 386
#
# _framework density 25.048418000000002
#
# number of rings (size 3 to 8) (size 9 to 14) (size 15 to 20)
#    0.000    1.143    2.857    3.429    8.000    0.571 
#    0.000    0.000    0.000    6.000    0.000    0.000 
#    0.000    0.000    0.000    0.000    0.000    0.000 
#
# Total GULP energy -78022.160767 kJ/mol
# GULP energy per Si atom -5573.011483 kJ/mol
# Density = 2.499141 g / cm^3
# Si number density = 25.048418 Si / 1000 Ang^3
#
#
#
# Elastic Constant Matrix: (Units=GPa)
#
#
# Indices 1 2 3 4 5 6 
#
# 1 71.1004 27.4886 17.4377 0.0000 12.6352 0.0000
# 2 27.4886 140.2375 16.9210 0.0000 3.0057 0.0000
# 3 17.4377 16.9210 80.0762 0.0000 35.9610 0.0000
# 4 0.0000 0.0000 0.0000 3.8964 0.0000 55.9486
# 5 12.6352 3.0057 35.9610 0.0000 50.7352 0.0000
# 6 0.0000 0.0000 0.0000 55.9486 0.0000 -219.8512
#
#
#
# Elastic Compliance Matrix: (Units=1/GPa)
#
#
# Indices 1 2 3 4 5 6 
#
# 1 0.016066 -0.002886 -0.001714 0.000000 -0.002615 0.000000
# 2 -0.002886 0.007869 -0.001684 0.000000 0.001446 0.000000
# 3 -0.001714 -0.001684 0.019042 0.000000 -0.012970 0.000000
# 4 0.000000 0.000000 0.000000 0.055144 0.000000 0.014033
# 5 -0.002615 0.001446 -0.012970 0.000000 0.029469 0.000000
# 6 0.000000 0.000000 0.000000 0.014033 0.000000 -0.000977
#
#
# Mechanical properties :
#
#
# Convention : Reuss Voigt Hill
#
# Bulk Modulus (GPa) = 32.88606 46.12320 39.50463
# Shear Modulus (GPa) = 33.48608 -17.73947 7.87331
#
# Velocity S-wave (km/s) = 3.66027 -2.66410 1.77484
# Velocity P-wave (km/s) = 5.56964 2.99839 4.47276
#
# Compressibility (1/GPa) = 0.03040802
#
# Stress axis : x y z
#
# Youngs Moduli (GPa) = 62.24471 127.08666 52.51585
#
# Poissons Ratio (x) = 0.36680 0.09003
# Poissons Ratio (y) = 0.17965 0.08841
# Poissons Ratio (z) = 0.10671 0.21396
#
# Static dielectric constant tensor:
#      x y z
#    x 2.022330 0.000000 -0.142540 
#    y 0.000000 1.934180 0.000000 
#    z -0.142540 0.000000 2.132600 
# 
# From -- ./inp_files/36707.got.cif
#   From: 2010.05.17/outbox.cif.g08.bks.cpg/sg12_19_cif.got.tgz:36707.got - 2010.06.03 13:09:07.
