data_PCOD9215429
_publ_section_title
;
Structure prediction by ZEFSAII (Michael W. Deem and Ramdas Pophale) SiO2 
 PCOD9215429
Probable space group: C 2/M
;
_chemical_formula_sum "Si O2"
_cell_formula_units_Z 40
_cell_length_a 15.564268
_cell_length_b 21.878553
_cell_length_c 9.180005
_cell_angle_alpha 90.000000
_cell_angle_beta 37.833461
_cell_angle_gamma 90.000000
_cell_volume 1917.395102
_symmetry_space_group_name_H-M "C 2/M"
_symmetry_group_IT_number 12
_symmetry_cell_setting 'monoclinic'
loop_
_space_group_symop_operation_xyz
x,y,z
-x,y,-z
-x,-y,-z
x,-y,z
1/2+x,1/2+y,z
1/2-x,1/2+y,-z
1/2-x,1/2-y,-z
1/2+x,1/2-y,z
loop_
_atom_site_type_symbol
_atom_site_label
_atom_site_fract_x
_atom_site_fract_y
_atom_site_fract_z
Si Si1 0.532198 0.500000 0.628097
Si Si2 0.357282 0.817760 0.609915
Si Si3 0.067287 0.121650 0.068105
Si Si4 0.130537 0.632675 0.719322
Si Si5 0.105354 0.179758 0.478608
Si Si6 0.356291 0.000000 0.287900
O O1 0.500000 0.500000 0.500000
O O2 0.466814 0.560294 0.794394
O O3 0.702000 0.500000 0.420731
O O4 0.500000 0.836207 0.500000
O O5 0.367060 0.823791 0.422093
O O6 0.343228 0.744744 0.650919
O O7 0.227876 0.858068 0.838311
O O8 0.988662 0.178775 0.250154
O O9 0.000000 0.112418 0.000000
O O10 0.262158 0.641182 0.649363
O O11 0.135559 0.564721 0.643959
O O12 0.000000 0.640570 0.000000
O O13 0.000000 0.152912 0.500000
O O14 0.500000 0.000000 0.000000
#
# Coordination Sequence:
#
# PCOD9215429 Si02
#       6
#     4   8   8   8   8   4
#     4  12  25  45  73 104 135 185 237 288 349 416
#     4  11  27  43  65 102 139 185 230 290 352 408
#     4  12  25  44  70 100 142 181 236 291 349 414
#     4  11  24  42  68  95 139 177 231 286 350 413
#     4  11  25  42  68 100 134 183 236 280 345 418
#     4  10  22  41  65  98 129 169 225 282 339 405
#
# _framework density 20.861636000000001
#
# number of rings (size 3 to 8) (size 9 to 14) (size 15 to 20)
#    0.000    0.800    4.000    1.500    5.600    4.000 
#    0.000    1.000    0.000    0.000    0.000    0.000 
#    0.000    0.000    0.000    0.000    0.000    0.000 
#
# Total GULP energy -111587.908321 kJ/mol
# GULP energy per Si atom -5579.395416 kJ/mol
# Density = 2.081415 g / cm^3
# Si number density = 20.861636 Si / 1000 Ang^3
#
#
#
# Elastic Constant Matrix: (Units=GPa)
#
#
# Indices 1 2 3 4 5 6 
#
# 1 106.4623 35.0894 58.7316 0.0000 -6.3861 -0.0001
# 2 35.0894 87.5604 40.0153 0.0000 -14.5322 0.0000
# 3 58.7316 40.0153 133.8494 0.0000 -27.5452 -0.0002
# 4 0.0000 0.0000 0.0000 13.6520 0.0000 -28.7924
# 5 -6.3861 -14.5322 -27.5452 0.0000 39.2570 0.0001
# 6 -0.0001 0.0000 -0.0002 -28.7924 0.0001 -94.5913
#
#
#
# Elastic Compliance Matrix: (Units=1/GPa)
#
#
# Indices 1 2 3 4 5 6 
#
# 1 0.013320 -0.003329 -0.005443 0.000000 -0.002885 0.000000
# 2 -0.003329 0.014270 -0.002138 0.000000 0.003240 0.000000
# 3 -0.005443 -0.002138 0.011867 0.000000 0.006650 0.000000
# 4 0.000000 0.000000 0.000000 0.044611 0.000000 -0.013579
# 5 -0.002885 0.003240 0.006650 0.000000 0.030869 0.000000
# 6 0.000000 0.000000 0.000000 -0.013579 0.000000 -0.006439
#
#
# Mechanical properties :
#
#
# Convention : Reuss Voigt Hill
#
# Bulk Modulus (GPa) = 56.70299 66.17163 61.43731
# Shear Modulus (GPa) = 36.71110 4.59926 20.65518
#
# Velocity S-wave (km/s) = 4.19948 1.48642 3.15000
# Velocity P-wave (km/s) = 7.12416 5.89356 6.53788
#
# Compressibility (1/GPa) = 0.01763575
#
# Stress axis : x y z
#
# Youngs Moduli (GPa) = 75.07524 70.07745 84.26609
#
# Poissons Ratio (x) = 0.23330 0.45866
# Poissons Ratio (y) = 0.24994 0.18020
# Poissons Ratio (z) = 0.40864 0.14985
#
# Static dielectric constant tensor:
#      x y z
#    x 1.573010 0.000000 -0.025800 
#    y 0.000000 1.769000 0.000000 
#    z -0.025800 0.000000 1.768670 
# 
# From -- ./inp_files/65121.got.cif
#   From: 2010.05.17/outbox.cif.g08.bks.cpg/sg12_33_cif.got.tgz:65121.got - 2010.06.03 13:09:07.
