data_PCOD9215556
_publ_section_title
;
Structure prediction by ZEFSAII (Michael W. Deem and Ramdas Pophale) SiO2 
 PCOD9215556
Probable space group: C 2/M
;
_chemical_formula_sum "Si O2"
_cell_formula_units_Z 50
_cell_length_a 19.188118
_cell_length_b 8.062942
_cell_length_c 22.882307
_cell_angle_alpha 90.000000
_cell_angle_beta 143.293221
_cell_angle_gamma 90.000000
_cell_volume 2116.038261
_symmetry_space_group_name_H-M "C 2/M"
_symmetry_group_IT_number 12
_symmetry_cell_setting 'monoclinic'
loop_
_space_group_symop_operation_xyz
x,y,z
-x,y,-z
-x,-y,-z
x,-y,z
1/2+x,1/2+y,z
1/2-x,1/2+y,-z
1/2-x,1/2-y,-z
1/2+x,1/2-y,z
loop_
_atom_site_type_symbol
_atom_site_label
_atom_site_fract_x
_atom_site_fract_y
_atom_site_fract_z
Si Si1 0.369103 0.810539 0.666973
Si Si2 0.279257 0.813838 0.265366
Si Si3 0.365615 0.816641 0.456858
Si Si4 0.719265 0.698468 0.044770
Si Si5 0.572049 0.313693 0.733246
Si Si6 0.460213 0.298722 0.854708
Si Si7 0.000000 0.000000 0.500000
O O1 0.249872 0.707666 0.581512
O O2 0.461235 0.794480 0.676608
O O3 0.437682 0.757549 0.772716
O O4 0.334064 0.000000 0.651658
O O5 0.313713 0.824877 0.356041
O O6 0.373232 0.711956 0.293271
O O7 0.148760 0.742339 0.179191
O O8 0.276965 0.000000 0.238526
O O9 0.440650 0.649561 0.501492
O O10 0.420572 0.000000 0.505749
O O11 0.724106 0.500000 0.053748
O O12 0.817062 0.774596 0.151516
O O13 0.750000 0.750000 0.000000
O O14 0.585394 0.752761 0.963277
O O15 0.533101 0.500000 0.717155
O O16 0.456214 0.500000 0.851274
#
# Coordination Sequence:
#
# PCOD9215556 Si02
#       7
#     8   8   8   8   8   8   2
#     4  11  20  35  59  88 116 156 207 250 294 359
#     4   9  20  39  59  85 117 159 201 248 306 358
#     4  10  22  41  67  99 130 156 195 248 295 359
#     4  11  21  34  52  79 113 155 206 263 311 352
#     4  12  24  35  54  82 119 163 209 253 306 359
#     4   9  19  35  56  77 114 154 201 261 311 352
#     4  12  22  40  72 106 124 158 198 232 308 366
#
# _framework density 23.629062999999999
#
# number of rings (size 3 to 8) (size 9 to 14) (size 15 to 20)
#    0.000    1.600    2.400    4.560    1.120    1.920 
#    0.000    3.200    0.000    0.960    0.000    0.000 
#    0.000    0.000    0.000    0.000    0.000    0.000 
#
# Total GULP energy -139527.783626 kJ/mol
# GULP energy per Si atom -5581.111345 kJ/mol
# Density = 2.357528 g / cm^3
# Si number density = 23.629063 Si / 1000 Ang^3
#
#
#
# Elastic Constant Matrix: (Units=GPa)
#
#
# Indices 1 2 3 4 5 6 
#
# 1 100.3550 10.2217 39.5867 0.0000 36.2234 0.0000
# 2 10.2217 107.2826 25.2480 0.0000 14.3611 0.0000
# 3 39.5867 25.2480 79.5956 0.0000 24.0021 0.0000
# 4 0.0000 0.0000 0.0000 18.3229 0.0000 12.0831
# 5 36.2234 14.3611 24.0021 0.0000 35.5056 0.0000
# 6 0.0000 0.0000 0.0000 12.0831 0.0000 25.2735
#
#
#
# Elastic Compliance Matrix: (Units=1/GPa)
#
#
# Indices 1 2 3 4 5 6 
#
# 1 0.016914 0.001408 -0.004375 0.000000 -0.014867 0.000000
# 2 0.001408 0.010357 -0.002875 0.000000 -0.003682 0.000000
# 3 -0.004375 -0.002875 0.017528 0.000000 -0.006222 0.000000
# 4 0.000000 0.000000 0.000000 0.079707 0.000000 -0.038107
# 5 -0.014867 -0.003682 -0.006222 0.000000 0.049028 0.000000
# 6 0.000000 0.000000 0.000000 -0.038107 0.000000 0.057786
#
#
# Mechanical properties :
#
#
# Convention : Reuss Voigt Hill
#
# Bulk Modulus (GPa) = 30.19919 48.59401 39.39660
# Shear Modulus (GPa) = 19.68187 29.96551 24.82369
#
# Velocity S-wave (km/s) = 2.88922 3.56499 3.24475
# Velocity P-wave (km/s) = 4.89269 6.12826 5.54500
#
# Compressibility (1/GPa) = 0.03311347
#
# Stress axis : x y z
#
# Youngs Moduli (GPa) = 59.12432 96.55726 57.05163
#
# Poissons Ratio (x) = -0.13599 0.24962
# Poissons Ratio (y) = -0.08327 0.16404
# Poissons Ratio (z) = 0.25869 0.27763
#
# Static dielectric constant tensor:
#      x y z
#    x 1.902750 0.000000 -0.045470 
#    y 0.000000 1.828520 0.000000 
#    z -0.045470 0.000000 1.988170 
# 
# From -- ./inp_files/362798.got.cif
#   From: 2010.05.17/outbox.cif.g08.bks.cpg/sg12_182_cif.got.tgz:362798.got - 2010.06.03 13:09:07.
