data_PCOD9215847
_publ_section_title
;
Structure prediction by ZEFSAII (Michael W. Deem and Ramdas Pophale) SiO2 
 PCOD9215847
Probable space group: C 2/M
;
_chemical_formula_sum "Si O2"
_cell_formula_units_Z 32
_cell_length_a 14.532137
_cell_length_b 10.582908
_cell_length_c 22.827348
_cell_angle_alpha 90.000000
_cell_angle_beta 24.312528
_cell_angle_gamma 90.000000
_cell_volume 1445.390547
_symmetry_space_group_name_H-M "C 2/M"
_symmetry_group_IT_number 12
_symmetry_cell_setting 'monoclinic'
loop_
_space_group_symop_operation_xyz
x,y,z
-x,y,-z
-x,-y,-z
x,-y,z
1/2+x,1/2+y,z
1/2-x,1/2+y,-z
1/2-x,1/2-y,-z
1/2+x,1/2-y,z
loop_
_atom_site_type_symbol
_atom_site_label
_atom_site_fract_x
_atom_site_fract_y
_atom_site_fract_z
Si Si1 0.536690 0.134930 0.619476
Si Si2 0.194509 0.204669 0.431163
Si Si3 0.432816 0.854339 0.876194
Si Si4 0.794311 0.640571 0.163007
O O1 0.745249 0.132145 0.543565
O O2 0.612000 0.165853 0.509411
O O3 0.379488 0.246186 0.734212
O O4 0.420738 0.000000 0.688922
O O5 0.419599 0.197575 0.263000
O O6 0.000000 0.158720 0.500000
O O7 0.599951 0.863912 0.833942
O O8 0.353563 0.000000 0.910384
O O9 0.250000 0.750000 0.000000
O O10 0.703692 0.500000 0.200862
O O11 0.000000 0.665336 0.000000
#
# Coordination Sequence:
#
# PCOD9215847 Si02
#       4
#     8   8   8   8
#     4  11  25  42  69 105 135 174 229 289 340 392
#     4  11  24  46  68 101 139 181 226 277 343 413
#     4  11  24  42  68  99 133 182 227 277 338 404
#     4  10  22  42  66  95 137 184 225 273 342 412
#
# _framework density 22.139346
#
# number of rings (size 3 to 8) (size 9 to 14) (size 15 to 20)
#    0.000    1.250    2.500    2.250    0.000   10.000 
#    0.000    0.000    0.000    0.000    0.000    0.000 
#    0.000    0.000    0.000    0.000    0.000    0.000 
#
# Total GULP energy -89244.830259 kJ/mol
# GULP energy per Si atom -5577.801891 kJ/mol
# Density = 2.208896 g / cm^3
# Si number density = 22.139346 Si / 1000 Ang^3
#
#
#
# Elastic Constant Matrix: (Units=GPa)
#
#
# Indices 1 2 3 4 5 6 
#
# 1 109.7097 32.0962 31.7511 0.0029 13.9280 -0.0022
# 2 32.0962 203.7919 105.0414 0.0009 -6.0726 0.0016
# 3 31.7511 105.0414 152.0942 -0.0073 28.0961 0.0010
# 4 0.0029 0.0009 -0.0073 15.8390 -0.0008 -2.2517
# 5 13.9280 -6.0726 28.0961 -0.0008 42.3075 0.0040
# 6 -0.0022 0.0016 0.0010 -2.2517 0.0040 6.7407
#
#
#
# Elastic Compliance Matrix: (Units=1/GPa)
#
#
# Indices 1 2 3 4 5 6 
#
# 1 0.010084 -0.001392 -0.000563 -0.000001 -0.003146 0.000005
# 2 -0.001392 0.008983 -0.007108 -0.000004 0.006468 -0.000007
# 3 -0.000563 -0.007108 0.013399 0.000007 -0.009733 0.000008
# 4 -0.000001 -0.000004 0.000007 0.066283 -0.000006 0.022142
# 5 -0.003146 0.006468 -0.009733 -0.000006 0.032064 -0.000022
# 6 0.000005 -0.000007 0.000008 0.022142 -0.000022 0.155750
#
#
# Mechanical properties :
#
#
# Convention : Reuss Voigt Hill
#
# Bulk Modulus (GPa) = 69.72924 89.26369 79.49646
# Shear Modulus (GPa) = 16.15672 32.75791 24.45731
#
# Velocity S-wave (km/s) = 2.70436 3.85076 3.32731
# Velocity P-wave (km/s) = 6.42771 7.75743 7.12366
#
# Compressibility (1/GPa) = 0.01434119
#
# Stress axis : x y z
#
# Youngs Moduli (GPa) = 99.16271 111.32680 74.63063
#
# Poissons Ratio (x) = 0.15496 0.04200
# Poissons Ratio (y) = 0.13803 0.53047
# Poissons Ratio (z) = 0.05581 0.79130
#
# Static dielectric constant tensor:
#      x y z
#    x 1.826480 0.000000 -0.007310 
#    y 0.000000 1.920090 0.000000 
#    z -0.007310 0.000000 1.856870 
# 
# From -- ./inp_files/338389.got.cif
#   From: 2010.05.17/outbox.cif.g08.bks.cpg/sg12_170_cif.got.tgz:338389.got - 2010.06.03 13:09:07.
