data_PCOD9215778
_publ_section_title
;
Structure prediction by ZEFSAII (Michael W. Deem and Ramdas Pophale) SiO2 
 PCOD9215778
Probable space group: C 2/M
;
_chemical_formula_sum "Si O2"
_cell_formula_units_Z 48
_cell_length_a 21.934785
_cell_length_b 22.463551
_cell_length_c 14.184876
_cell_angle_alpha 90.000000
_cell_angle_beta 18.530146
_cell_angle_gamma 90.000000
_cell_volume 2221.243178
_symmetry_space_group_name_H-M "C 2/M"
_symmetry_group_IT_number 12
_symmetry_cell_setting 'monoclinic'
loop_
_space_group_symop_operation_xyz
x,y,z
-x,y,-z
-x,-y,-z
x,-y,z
1/2+x,1/2+y,z
1/2-x,1/2+y,-z
1/2-x,1/2-y,-z
1/2+x,1/2-y,z
loop_
_atom_site_type_symbol
_atom_site_label
_atom_site_fract_x
_atom_site_fract_y
_atom_site_fract_z
Si Si1 0.359172 0.342332 0.115377
Si Si2 0.052730 0.623533 0.704071
Si Si3 0.855843 0.931962 0.396336
Si Si4 0.414465 0.320917 0.721267
Si Si5 0.326970 0.569572 0.653963
Si Si6 0.421936 0.757339 0.878718
O O1 0.162807 0.371137 0.442581
O O2 0.500000 0.331921 0.000000
O O3 0.470230 0.388634 0.885593
O O4 0.330790 0.282732 0.095035
O O5 0.189625 0.583512 0.567128
O O6 0.053836 0.693205 0.734086
O O7 0.841610 0.597247 0.034790
O O8 0.773782 0.925100 0.621754
O O9 0.919490 0.000000 0.292824
O O10 0.500000 0.294340 0.500000
O O11 0.482325 0.389231 0.622189
O O12 0.497316 0.290553 0.693121
O O13 0.197194 0.300845 0.019577
O O14 0.356125 0.500000 0.631848
#
# Coordination Sequence:
#
# PCOD9215778 Si02
#       6
#     8   8   8   8   8   8
#     4  10  23  40  64  97 133 174 212 265 329 394
#     4  11  23  37  63  98 129 167 213 268 326 381
#     4  10  22  42  65  91 130 176 219 266 324 388
#     4  11  22  42  66  91 123 175 217 268 324 379
#     4  11  23  42  67  96 130 172 225 272 321 381
#     4  11  23  41  64  94 132 168 221 264 329 393
#
# _framework density 21.609521000000001
#
# number of rings (size 3 to 8) (size 9 to 14) (size 15 to 20)
#    0.000    1.333    3.333    2.000    0.000    9.333 
#    0.000    0.000    0.000    0.000    0.000    3.500 
#    0.000    0.000    0.000    0.000    0.000    0.000 
#
# Total GULP energy -133605.359875 kJ/mol
# GULP energy per Si atom -5566.889995 kJ/mol
# Density = 2.156034 g / cm^3
# Si number density = 21.609521 Si / 1000 Ang^3
#
#
#
# Elastic Constant Matrix: (Units=GPa)
#
#
# Indices 1 2 3 4 5 6 
#
# 1 53.5648 25.8247 26.1676 0.0435 26.0371 -0.0539
# 2 25.8247 145.8214 55.5538 0.0001 10.7573 -0.0157
# 3 26.1676 55.5538 115.2245 -0.0123 12.7926 -0.0436
# 4 0.0435 0.0001 -0.0123 30.8341 -0.0348 7.6798
# 5 26.0371 10.7573 12.7926 -0.0348 29.0711 0.0769
# 6 -0.0539 -0.0157 -0.0436 7.6798 0.0769 31.8080
#
#
#
# Elastic Compliance Matrix: (Units=1/GPa)
#
#
# Indices 1 2 3 4 5 6 
#
# 1 0.036327 -0.002878 -0.003541 -0.000126 -0.029913 0.000158
# 2 -0.002878 0.008683 -0.003640 0.000006 0.000966 -0.000009
# 3 -0.003541 -0.003640 0.011288 0.000007 -0.000448 0.000007
# 4 -0.000126 0.000006 0.000007 0.034507 0.000170 -0.008332
# 5 -0.029913 0.000966 -0.000448 0.000170 0.061030 -0.000240
# 6 0.000158 -0.000009 0.000007 -0.008332 -0.000240 0.033451
#
#
# Mechanical properties :
#
#
# Convention : Reuss Voigt Hill
#
# Bulk Modulus (GPa) = 27.63997 58.85589 43.24793
# Shear Modulus (GPa) = 22.99227 32.14692 27.56960
#
# Velocity S-wave (km/s) = 3.26542 3.86116 3.57572
# Velocity P-wave (km/s) = 5.19959 6.86828 6.09135
#
# Compressibility (1/GPa) = 0.03617948
#
# Stress axis : x y z
#
# Youngs Moduli (GPa) = 27.52773 115.17024 88.59156
#
# Poissons Ratio (x) = 0.33141 0.31374
# Poissons Ratio (y) = 0.07921 0.32248
# Poissons Ratio (z) = 0.09749 0.41923
#
# Static dielectric constant tensor:
#      x y z
#    x 1.928250 -0.000020 -0.110950 
#    y -0.000020 1.815110 0.000030 
#    z -0.110950 0.000030 1.890540 
# 
# From -- ./inp_files/241836.got.cif
#   From: 2010.05.17/outbox.cif.g08.bks.cpg/sg12_121_cif.got.tgz:241836.got - 2010.06.03 13:09:07.
