data_PCOD9215063
_publ_section_title
;
Structure prediction by ZEFSAII (Michael W. Deem and Ramdas Pophale) SiO2 
 PCOD9215063
Probable space group: C 2/M
;
_chemical_formula_sum "Si O2"
_cell_formula_units_Z 44
_cell_length_a 11.128638
_cell_length_b 29.460639
_cell_length_c 6.515729
_cell_angle_alpha 90.000000
_cell_angle_beta 108.871472
_cell_angle_gamma 90.000000
_cell_volume 2021.396398
_symmetry_space_group_name_H-M "C 2/M"
_symmetry_group_IT_number 12
_symmetry_cell_setting 'monoclinic'
loop_
_space_group_symop_operation_xyz
x,y,z
-x,y,-z
-x,-y,-z
x,-y,z
1/2+x,1/2+y,z
1/2-x,1/2+y,-z
1/2-x,1/2-y,-z
1/2+x,1/2-y,z
loop_
_atom_site_type_symbol
_atom_site_label
_atom_site_fract_x
_atom_site_fract_y
_atom_site_fract_z
Si Si1 0.500000 0.244594 0.500000
Si Si2 0.336961 0.833053 0.603336
Si Si3 0.831127 0.793848 0.124028
Si Si4 0.627800 0.446607 0.444445
Si Si5 0.205881 0.880698 0.153039
Si Si6 0.867578 0.582840 0.863253
O O1 0.602283 0.211013 0.461253
O O2 0.459220 0.274236 0.285344
O O3 0.236777 0.815503 0.714274
O O4 0.288589 0.860031 0.381427
O O5 0.414106 0.870824 0.773732
O O6 0.750000 0.750000 0.000000
O O7 0.850923 0.835456 0.981606
O O8 0.500000 0.434475 0.500000
O O9 0.623935 0.500000 0.397163
O O10 0.624836 0.417373 0.233965
O O11 0.757821 0.437643 0.650464
O O12 0.289776 0.904886 0.025424
O O13 0.000000 0.558447 0.000000
#
# Coordination Sequence:
#
# PCOD9215063 Si02
#       6
#     4   8   8   8   8   8
#     4  12  22  38  64  86 132 188 228 286 332 398
#     4  10  22  41  58  89 132 177 229 277 336 410
#     4  11  24  41  58  94 133 180 235 281 336 409
#     4  10  24  48  73 102 137 177 231 290 356 436
#     4  10  22  46  66  96 138 180 228 288 354 408
#     4  10  22  41  70 102 135 177 226 282 347 419
#
# _framework density 21.767132
#
# number of rings (size 3 to 8) (size 9 to 14) (size 15 to 20)
#    0.000    1.636    1.818    1.636    2.545    4.000 
#   18.000    2.727    0.000    0.000    0.000    0.000 
#    0.000    0.000    0.000    0.000    0.000    0.000 
#
# Total GULP energy -122693.867504 kJ/mol
# GULP energy per Si atom -5576.993977 kJ/mol
# Density = 2.171759 g / cm^3
# Si number density = 21.767132 Si / 1000 Ang^3
#
#
#
# Elastic Constant Matrix: (Units=GPa)
#
#
# Indices 1 2 3 4 5 6 
#
# 1 64.6905 42.4337 32.2982 0.0000 -6.6727 0.0000
# 2 42.4337 110.7920 62.5573 0.0000 -16.4388 0.0000
# 3 32.2982 62.5573 131.9499 0.0000 -18.2180 0.0000
# 4 0.0000 0.0000 0.0000 20.9188 0.0000 -22.4935
# 5 -6.6727 -16.4388 -18.2180 0.0000 37.9303 0.0000
# 6 0.0000 0.0000 0.0000 -22.4935 0.0000 18.4636
#
#
#
# Elastic Compliance Matrix: (Units=1/GPa)
#
#
# Indices 1 2 3 4 5 6 
#
# 1 0.020958 -0.007029 -0.001831 0.000000 -0.000239 0.000000
# 2 -0.007029 0.014949 -0.004973 0.000000 0.002854 0.000000
# 3 -0.001831 -0.004973 0.010756 0.000000 0.002689 0.000000
# 4 0.000000 0.000000 0.000000 -0.154224 0.000000 -0.187884
# 5 -0.000239 0.002854 0.002689 0.000000 0.028850 0.000000
# 6 0.000000 0.000000 0.000000 -0.187884 0.000000 -0.174731
#
#
# Mechanical properties :
#
#
# Convention : Reuss Voigt Hill
#
# Bulk Modulus (GPa) = 52.63620 64.66787 58.65203
# Shear Modulus (GPa) = -22.78490 26.80542 2.01026
#
# Velocity S-wave (km/s) = -3.23887 3.51303 0.96205
# Velocity P-wave (km/s) = 3.20108 6.79916 5.31392
#
# Compressibility (1/GPa) = 0.01899833
#
# Stress axis : x y z
#
# Youngs Moduli (GPa) = 47.71420 66.89265 92.97458
#
# Poissons Ratio (x) = 0.47017 0.17020
# Poissons Ratio (y) = 0.33537 0.46236
# Poissons Ratio (z) = 0.08735 0.33265
#
# Static dielectric constant tensor:
#      x y z
#    x 1.804600 0.000000 0.075230 
#    y 0.000000 1.904750 0.000000 
#    z 0.075230 0.000000 1.786780 
# 
# From -- ./inp_files/8473.got.cif
#   From: 2010.05.17/outbox.cif.g08.bks.cpg/sg12_5_cif.got.tgz:8473.got - 2010.06.03 13:09:07.
