data_PCOD9215790
_publ_section_title
;
Structure prediction by ZEFSAII (Michael W. Deem and Ramdas Pophale) SiO2 
 PCOD9215790
Probable space group: C 2/M
;
_chemical_formula_sum "Si O2"
_cell_formula_units_Z 56
_cell_length_a 11.837938
_cell_length_b 14.432049
_cell_length_c 17.477091
_cell_angle_alpha 90.000000
_cell_angle_beta 62.708513
_cell_angle_gamma 90.000000
_cell_volume 2653.513084
_symmetry_space_group_name_H-M "C 2/M"
_symmetry_group_IT_number 12
_symmetry_cell_setting 'monoclinic'
loop_
_space_group_symop_operation_xyz
x,y,z
-x,y,-z
-x,-y,-z
x,-y,z
1/2+x,1/2+y,z
1/2-x,1/2+y,-z
1/2-x,1/2-y,-z
1/2+x,1/2-y,z
loop_
_atom_site_type_symbol
_atom_site_label
_atom_site_fract_x
_atom_site_fract_y
_atom_site_fract_z
Si Si1 0.458658 0.699675 0.721991
Si Si2 0.301101 0.388676 0.062695
Si Si3 0.285482 0.689802 0.413606
Si Si4 0.047901 0.605164 0.221868
Si Si5 0.232750 0.349152 0.702324
Si Si6 0.491329 0.612769 0.875750
Si Si7 0.152841 0.500000 0.469413
Si Si8 0.153427 0.000000 0.442887
O O1 0.565017 0.663699 0.629759
O O2 0.450911 0.811403 0.717777
O O3 0.320432 0.661389 0.747796
O O4 0.495270 0.664879 0.794680
O O5 0.311875 0.500000 0.056277
O O6 0.388740 0.361650 0.107788
O O7 0.155343 0.368815 0.126807
O O8 0.367604 0.357960 0.963815
O O9 0.250000 0.750000 0.500000
O O10 0.279703 0.754191 0.340701
O O11 0.201823 0.599281 0.424465
O O12 0.073100 0.500000 0.241997
O O13 0.904660 0.610158 0.236068
O O14 0.307124 0.412918 0.619904
O O15 0.491915 0.500000 0.864586
O O16 0.238617 0.500000 0.522595
O O17 0.000000 0.500000 0.500000
O O18 0.000000 0.000000 0.500000
#
# Coordination Sequence:
#
# PCOD9215790 Si02
#       8
#     8   8   8   8   8   8   4   4
#     4  11  26  40  67  98 133 176 227 275 328 415
#     4   8  17  38  67  93 132 177 217 276 338 399
#     4  11  26  47  66  96 135 174 225 279 348 407
#     4  10  22  42  65  93 131 175 220 270 339 389
#     4  11  25  43  65  96 135 172 223 275 337 411
#     4   9  19  38  65 101 133 171 224 275 335 399
#     4  12  28  46  76 106 127 169 243 293 338 396
#     4  12  24  44  74  92 134 192 219 271 365 427
#
# _framework density 21.104098
#
# number of rings (size 3 to 8) (size 9 to 14) (size 15 to 20)
#    0.000    1.714    2.143    1.714    8.000    0.571 
#    1.286    0.714    0.000    2.571    0.000    0.000 
#    0.000    0.000    0.000    0.000    0.000    0.000 
#
# Total GULP energy -156077.734349 kJ/mol
# GULP energy per Si atom -5574.204798 kJ/mol
# Density = 2.105606 g / cm^3
# Si number density = 21.104098 Si / 1000 Ang^3
#
#
#
# Elastic Constant Matrix: (Units=GPa)
#
#
# Indices 1 2 3 4 5 6 
#
# 1 107.9836 32.1807 69.7999 0.0000 -32.8986 0.0000
# 2 32.1807 101.2736 30.0996 0.0000 -12.1402 0.0000
# 3 69.7999 30.0996 111.1442 0.0000 -25.6432 0.0000
# 4 0.0000 0.0000 0.0000 29.1891 0.0000 -10.7866
# 5 -32.8986 -12.1402 -25.6432 0.0000 46.9924 0.0000
# 6 0.0000 0.0000 0.0000 -10.7866 0.0000 81.5727
#
#
#
# Elastic Compliance Matrix: (Units=1/GPa)
#
#
# Indices 1 2 3 4 5 6 
#
# 1 0.017877 -0.002156 -0.009020 0.000000 0.007037 0.000000
# 2 -0.002156 0.011075 -0.001525 0.000000 0.000519 0.000000
# 3 -0.009020 -0.001525 0.015475 0.000000 0.001736 0.000000
# 4 0.000000 0.000000 0.000000 0.036020 0.000000 0.004763
# 5 0.007037 0.000519 0.001736 0.000000 0.027288 0.000000
# 6 0.000000 0.000000 0.000000 0.004763 0.000000 0.012889
#
#
# Mechanical properties :
#
#
# Convention : Reuss Voigt Hill
#
# Bulk Modulus (GPa) = 52.56228 64.95129 58.75679
# Shear Modulus (GPa) = 32.81517 44.10557 38.46037
#
# Velocity S-wave (km/s) = 3.94752 4.57651 4.27360
# Velocity P-wave (km/s) = 6.76295 7.66612 7.22865
#
# Compressibility (1/GPa) = 0.01902505
#
# Stress axis : x y z
#
# Youngs Moduli (GPa) = 55.93649 90.29323 64.61851
#
# Poissons Ratio (x) = 0.19471 0.58284
# Poissons Ratio (y) = 0.12062 0.09856
# Poissons Ratio (z) = 0.50453 0.13772
#
# Static dielectric constant tensor:
#      x y z
#    x 1.828930 0.000000 -0.036840 
#    y 0.000000 1.801360 0.000000 
#    z -0.036840 0.000000 1.751010 
# 
# From -- ./inp_files/263290.got.cif
#   From: 2010.05.17/outbox.cif.g08.bks.cpg/sg12_132_cif.got.tgz:263290.got - 2010.06.03 13:09:07.
