data_PCOD9215870
_publ_section_title
;
Structure prediction by ZEFSAII (Michael W. Deem and Ramdas Pophale) SiO2 
 PCOD9215870
Probable space group: C 2/M
;
_chemical_formula_sum "Si O2"
_cell_formula_units_Z 56
_cell_length_a 11.308613
_cell_length_b 17.810722
_cell_length_c 16.596788
_cell_angle_alpha 90.000000
_cell_angle_beta 126.442532
_cell_angle_gamma 90.000000
_cell_volume 2689.153700
_symmetry_space_group_name_H-M "C 2/M"
_symmetry_group_IT_number 12
_symmetry_cell_setting 'monoclinic'
loop_
_space_group_symop_operation_xyz
x,y,z
-x,y,-z
-x,-y,-z
x,-y,z
1/2+x,1/2+y,z
1/2-x,1/2+y,-z
1/2-x,1/2-y,-z
1/2+x,1/2-y,z
loop_
_atom_site_type_symbol
_atom_site_label
_atom_site_fract_x
_atom_site_fract_y
_atom_site_fract_z
Si Si1 0.414173 0.917477 0.595542
Si Si2 0.832898 0.143340 0.403843
Si Si3 0.714167 0.138624 0.766160
Si Si4 0.235441 0.314540 0.590752
Si Si5 0.534223 0.590861 0.698740
Si Si6 0.534808 0.418242 0.887361
Si Si7 0.844867 0.781390 0.964840
O O1 0.274146 0.914659 0.596931
O O2 0.556904 0.900362 0.707386
O O3 0.382377 0.855014 0.514530
O O4 0.429321 0.000000 0.564346
O O5 0.775112 0.224259 0.413361
O O6 0.846259 0.125634 0.314062
O O7 0.000000 0.135067 0.500000
O O8 0.712189 0.170209 0.675291
O O9 0.745421 0.200814 0.846776
O O10 0.858196 0.086406 0.824327
O O11 0.388026 0.357122 0.630310
O O12 0.509850 0.500000 0.673524
O O13 0.572353 0.597206 0.808898
O O14 0.589046 0.500000 0.930604
O O15 0.601016 0.358835 0.974028
O O16 0.750000 0.750000 0.000000
O O17 0.000000 0.742891 0.000000
#
# Coordination Sequence:
#
# PCOD9215870 Si02
#       7
#     8   8   8   8   8   8   8
#     4  12  25  40  61  92 136 178 220 273 332 390
#     4  12  25  39  63  89 131 177 227 267 327 394
#     4  10  23  39  64  95 126 163 221 269 330 390
#     4  11  24  40  63  90 129 173 219 271 324 385
#     4  10  22  42  67  92 125 173 225 267 325 400
#     4   9  20  41  67  93 123 165 213 271 330 395
#     4  10  23  43  69 100 130 169 216 275 341 405
#
# _framework density 20.824394999999999
#
# number of rings (size 3 to 8) (size 9 to 14) (size 15 to 20)
#    0.000    1.429    1.429    3.000    4.000    8.286 
#    0.000    0.000    0.000    0.429    0.000    0.000 
#    0.000    0.000    0.000    0.000    0.000    0.000 
#
# Total GULP energy -156194.535961 kJ/mol
# GULP energy per Si atom -5578.376284 kJ/mol
# Density = 2.077700 g / cm^3
# Si number density = 20.824395 Si / 1000 Ang^3
#
#
#
# Elastic Constant Matrix: (Units=GPa)
#
#
# Indices 1 2 3 4 5 6 
#
# 1 135.8633 48.5007 46.9805 0.0000 -27.6872 0.0000
# 2 48.5007 90.2472 33.5371 0.0000 5.7370 0.0000
# 3 46.9805 33.5371 87.3997 0.0000 -8.1646 0.0000
# 4 0.0000 0.0000 0.0000 17.0494 0.0000 -6.7588
# 5 -27.6872 5.7370 -8.1646 0.0000 24.2581 0.0000
# 6 0.0000 0.0000 0.0000 -6.7588 0.0000 9.6421
#
#
#
# Elastic Compliance Matrix: (Units=1/GPa)
#
#
# Indices 1 2 3 4 5 6 
#
# 1 0.014998 -0.007956 -0.003339 0.000000 0.017875 0.000000
# 2 -0.007956 0.017728 -0.003888 0.000000 -0.014581 0.000000
# 3 -0.003339 -0.003888 0.014928 0.000000 0.002133 0.000000
# 4 0.000000 0.000000 0.000000 0.081224 0.000000 0.056936
# 5 0.017875 -0.014581 0.002133 0.000000 0.065792 0.000000
# 6 0.000000 0.000000 0.000000 0.056936 0.000000 0.143623
#
#
# Mechanical properties :
#
#
# Convention : Reuss Voigt Hill
#
# Bulk Modulus (GPa) = 57.84569 63.50522 60.67546
# Shear Modulus (GPa) = 13.35394 22.48937 17.92166
#
# Velocity S-wave (km/s) = 2.53507 3.28983 2.93680
# Velocity P-wave (km/s) = 6.03381 6.70764 6.37963
#
# Compressibility (1/GPa) = 0.01728737
#
# Stress axis : x y z
#
# Youngs Moduli (GPa) = 66.67655 56.40776 66.98839
#
# Poissons Ratio (x) = 0.44875 0.22369
# Poissons Ratio (y) = 0.53045 0.26048
# Poissons Ratio (z) = 0.22265 0.21934
#
# Static dielectric constant tensor:
#      x y z
#    x 1.816440 0.000000 -0.010490 
#    y 0.000000 1.776080 0.000000 
#    z -0.010490 0.000000 1.740450 
# 
# From -- ./inp_files/264290.got.cif
#   From: 2010.05.17/outbox.cif.g08.bks.cpg/sg12_133_cif.got.tgz:264290.got - 2010.06.03 13:09:07.
