data_PCOD9215563
_publ_section_title
;
Structure prediction by ZEFSAII (Michael W. Deem and Ramdas Pophale) SiO2 
 PCOD9215563
Probable space group: C 2/M
;
_chemical_formula_sum "Si O2"
_cell_formula_units_Z 48
_cell_length_a 13.691450
_cell_length_b 30.646319
_cell_length_c 8.924222
_cell_angle_alpha 90.000000
_cell_angle_beta 39.523927
_cell_angle_gamma 90.000000
_cell_volume 2383.024850
_symmetry_space_group_name_H-M "C 2/M"
_symmetry_group_IT_number 12
_symmetry_cell_setting 'monoclinic'
loop_
_space_group_symop_operation_xyz
x,y,z
-x,y,-z
-x,-y,-z
x,-y,z
1/2+x,1/2+y,z
1/2-x,1/2+y,-z
1/2-x,1/2-y,-z
1/2+x,1/2-y,z
loop_
_atom_site_type_symbol
_atom_site_label
_atom_site_fract_x
_atom_site_fract_y
_atom_site_fract_z
Si Si1 0.187542 0.182282 0.465874
Si Si2 0.357915 0.119900 0.059126
Si Si3 0.366843 0.826032 0.778670
Si Si4 0.146846 0.950526 0.218361
Si Si5 0.021626 0.736854 0.795818
Si Si6 0.938416 0.123883 0.914726
O O1 0.234419 0.156970 0.258201
O O2 0.084234 0.225525 0.611739
O O3 0.346687 0.199529 0.348623
O O4 0.086525 0.146586 0.668012
O O5 0.282674 0.072678 0.149087
O O6 0.500000 0.122777 0.000000
O O7 0.408346 0.132627 0.833303
O O8 0.500000 0.819164 0.500000
O O9 0.379089 0.785267 0.879424
O O10 0.199326 0.839718 0.913900
O O11 0.000000 0.950906 0.500000
O O12 0.179809 0.000000 0.132362
O O13 0.114895 0.916617 0.122360
O O14 0.000000 0.749501 0.000000
O O15 0.000000 0.108435 0.000000
#
# Coordination Sequence:
#
# PCOD9215563 Si02
#       6
#     8   8   8   8   8   8
#     4  11  21  39  64  91 124 167 221 254 317 371
#     4  11  21  42  69  89 131 171 206 259 327 381
#     4  11  23  40  58  92 126 172 215 260 313 371
#     4  10  22  41  68 100 125 157 209 269 321 389
#     4  11  22  40  61  88 132 168 216 272 306 369
#     4  11  24  40  66  89 128 171 210 262 320 382
#
# _framework density 20.142467
#
# number of rings (size 3 to 8) (size 9 to 14) (size 15 to 20)
#    0.000    1.167    5.000    1.500    0.000    2.667 
#    6.000    0.000    0.000    8.000    0.000    0.000 
#    0.000    0.000    0.000    0.000    0.000    0.000 
#
# Total GULP energy -133756.175663 kJ/mol
# GULP energy per Si atom -5573.173986 kJ/mol
# Density = 2.009662 g / cm^3
# Si number density = 20.142467 Si / 1000 Ang^3
#
#
#
# Elastic Constant Matrix: (Units=GPa)
#
#
# Indices 1 2 3 4 5 6 
#
# 1 71.4581 29.7146 26.9809 0.0000 5.5321 0.0000
# 2 29.7146 128.5858 28.7028 0.0000 -3.5371 0.0000
# 3 26.9809 28.7028 78.9068 0.0000 4.1104 0.0000
# 4 0.0000 0.0000 0.0000 813.4081 0.0000 -178.7519
# 5 5.5321 -3.5371 4.1104 0.0000 19.1708 0.0000
# 6 0.0000 0.0000 0.0000 -178.7519 0.0000 59.6405
#
#
#
# Elastic Compliance Matrix: (Units=1/GPa)
#
#
# Indices 1 2 3 4 5 6 
#
# 1 0.017373 -0.003123 -0.004564 0.000000 -0.004611 0.000000
# 2 -0.003123 0.009122 -0.002412 0.000000 0.003101 0.000000
# 3 -0.004564 -0.002412 0.015236 0.000000 -0.002395 0.000000
# 4 0.000000 0.000000 0.000000 0.003602 0.000000 0.010794
# 5 -0.004611 0.003101 -0.002395 0.000000 0.054579 0.000000
# 6 0.000000 0.000000 0.000000 0.010794 0.000000 0.049119
#
#
# Mechanical properties :
#
#
# Convention : Reuss Voigt Hill
#
# Bulk Modulus (GPa) = 46.44005 49.97191 48.20598
# Shear Modulus (GPa) = 28.34349 191.34735 109.84542
#
# Velocity S-wave (km/s) = 3.75527 9.75721 7.39274
# Velocity P-wave (km/s) = 6.47368 12.32074 9.84148
#
# Compressibility (1/GPa) = 0.02153314
#
# Stress axis : x y z
#
# Youngs Moduli (GPa) = 57.56030 109.62201 65.63386
#
# Poissons Ratio (x) = 0.34232 0.29958
# Poissons Ratio (y) = 0.17974 0.15831
# Poissons Ratio (z) = 0.26273 0.26442
#
# Static dielectric constant tensor:
#      x y z
#    x 1.759810 0.000000 0.017730 
#    y 0.000000 1.719670 0.000000 
#    z 0.017730 0.000000 1.754180 
# 
# From -- ./inp_files/68024.got.cif
#   From: 2010.05.17/outbox.cif.g08.bks.cpg/sg12_35_cif.got.tgz:68024.got - 2010.06.03 13:09:07.
