data_PCOD9215987
_publ_section_title
;
Structure prediction by ZEFSAII (Michael W. Deem and Ramdas Pophale) SiO2 
 PCOD9215987
Probable space group: C 2/M
;
_chemical_formula_sum "Si O2"
_cell_formula_units_Z 32
_cell_length_a 14.186628
_cell_length_b 11.187568
_cell_length_c 9.843753
_cell_angle_alpha 90.000000
_cell_angle_beta 61.690018
_cell_angle_gamma 90.000000
_cell_volume 1375.476004
_symmetry_space_group_name_H-M "C 2/M"
_symmetry_group_IT_number 12
_symmetry_cell_setting 'monoclinic'
loop_
_space_group_symop_operation_xyz
x,y,z
-x,y,-z
-x,-y,-z
x,-y,z
1/2+x,1/2+y,z
1/2-x,1/2+y,-z
1/2-x,1/2-y,-z
1/2+x,1/2-y,z
loop_
_atom_site_type_symbol
_atom_site_label
_atom_site_fract_x
_atom_site_fract_y
_atom_site_fract_z
Si Si1 0.486328 0.131282 0.763728
Si Si2 0.385476 0.303240 0.021478
Si Si3 0.409048 0.373860 0.717452
Si Si4 0.277903 0.200634 0.334072
O O1 0.472994 0.248362 0.676559
O O2 0.609247 0.133837 0.727134
O O3 0.458847 0.000000 0.729445
O O4 0.412770 0.170839 0.942120
O O5 0.303342 0.299927 0.200228
O O6 0.500000 0.348226 0.000000
O O7 0.354661 0.369595 0.904749
O O8 0.470246 0.500000 0.669603
O O9 0.320919 0.369127 0.661771
O O10 0.250000 0.250000 0.500000
#
# Coordination Sequence:
#
# PCOD9215987 Si02
#       4
#     8   8   8   8
#     4   9  21  43  70  94 126 174 227 269 317 391
#     4   8  19  40  66  93 126 175 223 268 322 391
#     4  10  22  42  69  95 129 175 224 273 329 390
#     4  11  22  41  64  99 135 172 218 278 336 393
#
# _framework density 23.264672999999998
#
# number of rings (size 3 to 8) (size 9 to 14) (size 15 to 20)
#    1.500    1.000    0.000    1.500    0.000    7.000 
#    0.000   11.250    0.000    0.000    0.000    0.000 
#    0.000    0.000    0.000    0.000    0.000    0.000 
#
# Total GULP energy -89085.052804 kJ/mol
# GULP energy per Si atom -5567.815800 kJ/mol
# Density = 2.321172 g / cm^3
# Si number density = 23.264673 Si / 1000 Ang^3
#
#
#
# Elastic Constant Matrix: (Units=GPa)
#
#
# Indices 1 2 3 4 5 6 
#
# 1 92.3572 51.1705 10.6506 0.0000 23.6899 0.0000
# 2 51.1705 183.7938 29.3946 0.0000 15.0534 0.0000
# 3 10.6506 29.3946 163.8286 0.0000 15.4594 0.0000
# 4 0.0000 0.0000 0.0000 -18.1435 0.0000 -10.7068
# 5 23.6899 15.0534 15.4594 0.0000 31.1766 0.0000
# 6 0.0000 0.0000 0.0000 -10.7068 0.0000 -2.6071
#
#
#
# Elastic Compliance Matrix: (Units=1/GPa)
#
#
# Indices 1 2 3 4 5 6 
#
# 1 0.015343 -0.003528 0.000603 0.000000 -0.010254 0.000000
# 2 -0.003528 0.006577 -0.000948 0.000000 -0.000024 0.000000
# 3 0.000603 -0.000948 0.006541 0.000000 -0.003244 0.000000
# 4 0.000000 0.000000 0.000000 0.038721 0.000000 -0.159014
# 5 -0.010254 -0.000024 -0.003244 0.000000 0.041487 0.000000
# 6 0.000000 0.000000 0.000000 -0.159014 0.000000 0.269463
#
#
# Mechanical properties :
#
#
# Convention : Reuss Voigt Hill
#
# Bulk Modulus (GPa) = 48.27674 69.15680 58.71677
# Shear Modulus (GPa) = 12.72966 25.33610 19.03288
#
# Velocity S-wave (km/s) = 2.34170 3.30364 2.86335
# Velocity P-wave (km/s) = 5.30165 6.65903 6.01873
#
# Compressibility (1/GPa) = 0.02071391
#
# Stress axis : x y z
#
# Youngs Moduli (GPa) = 65.17623 152.04791 152.88211
#
# Poissons Ratio (x) = 0.53647 -0.09222
# Poissons Ratio (y) = 0.22996 0.14499
# Poissons Ratio (z) = -0.03931 0.14420
#
# Static dielectric constant tensor:
#      x y z
#    x 1.881920 0.000000 -0.007650 
#    y 0.000000 1.958760 0.000000 
#    z -0.007650 0.000000 1.901910 
# 
# From -- ./inp_files/56790.got.cif
#   From: 2010.05.17/outbox.cif.g08.bks.cpg/sg12_29_cif.got.tgz:56790.got - 2010.06.03 13:09:07.
