data_PCOD9215292
_publ_section_title
;
Structure prediction by ZEFSAII (Michael W. Deem and Ramdas Pophale) SiO2 
 PCOD9215292
Probable space group: C 2/M
;
_chemical_formula_sum "Si O2"
_cell_formula_units_Z 42
_cell_length_a 15.408404
_cell_length_b 26.046068
_cell_length_c 6.971337
_cell_angle_alpha 90.000000
_cell_angle_beta 129.635288
_cell_angle_gamma 90.000000
_cell_volume 2154.639392
_symmetry_space_group_name_H-M "C 2/M"
_symmetry_group_IT_number 12
_symmetry_cell_setting 'monoclinic'
loop_
_space_group_symop_operation_xyz
x,y,z
-x,y,-z
-x,-y,-z
x,-y,z
1/2+x,1/2+y,z
1/2-x,1/2+y,-z
1/2-x,1/2-y,-z
1/2+x,1/2-y,z
loop_
_atom_site_type_symbol
_atom_site_label
_atom_site_fract_x
_atom_site_fract_y
_atom_site_fract_z
Si Si1 0.690196 0.767218 0.719170
Si Si2 0.623562 0.057615 0.082518
Si Si3 0.000000 0.000000 0.000000
Si Si4 0.303779 0.583380 0.653994
Si Si5 0.125971 0.380652 0.717969
Si Si6 0.112317 0.803837 0.285136
O O1 0.627097 0.819959 0.680893
O O2 0.789093 0.781604 0.710282
O O3 0.615978 0.725998 0.494407
O O4 0.750000 0.750000 0.000000
O O5 0.719344 0.060671 0.377273
O O6 0.624001 0.000000 0.996183
O O7 0.500000 0.065742 0.000000
O O8 0.648758 0.101846 0.965680
O O9 0.901585 0.955475 0.845676
O O10 0.222807 0.596495 0.719196
O O11 0.358810 0.636088 0.652728
O O12 0.000000 0.400938 0.500000
O O13 0.000000 0.797481 0.000000
#
# Coordination Sequence:
#
# PCOD9215292 Si02
#       6
#     8   8   2   8   8   8
#     4  10  23  41  62  95 130 172 223 274 336 401
#     4  11  23  40  66  97 132 171 219 280 342 396
#     4  12  24  44  74  92 140 190 216 262 340 408
#     4  11  23  45  66  98 136 175 226 274 332 407
#     4  11  24  41  66 102 130 167 227 286 339 391
#     4  10  22  41  64  91 132 178 218 272 332 399
#
# _framework density 19.492820999999999
#
# number of rings (size 3 to 8) (size 9 to 14) (size 15 to 20)
#    0.000    1.333    3.810    1.143    4.000    0.381 
#    0.000    1.905    0.000    0.000    0.000    0.000 
#    0.000    0.000    0.000    0.000    0.000    0.000 
#
# Total GULP energy -116943.076179 kJ/mol
# GULP energy per Si atom -5568.717913 kJ/mol
# Density = 1.944845 g / cm^3
# Si number density = 19.492821 Si / 1000 Ang^3
#
#
#
# Elastic Constant Matrix: (Units=GPa)
#
#
# Indices 1 2 3 4 5 6 
#
# 1 86.3698 70.7558 59.2681 0.0000 19.6531 0.0000
# 2 70.7558 143.8471 65.8849 0.0000 1.7580 0.0000
# 3 59.2681 65.8849 115.0438 0.0000 15.8931 0.0000
# 4 0.0000 0.0000 0.0000 21.2529 0.0000 13.0817
# 5 19.6531 1.7580 15.8931 0.0000 41.9131 0.0000
# 6 0.0000 0.0000 0.0000 13.0817 0.0000 16.0758
#
#
#
# Elastic Compliance Matrix: (Units=1/GPa)
#
#
# Indices 1 2 3 4 5 6 
#
# 1 0.026277 -0.009766 -0.006647 0.000000 -0.009391 0.000000
# 2 -0.009766 0.013175 -0.003240 0.000000 0.005255 0.000000
# 3 -0.006647 -0.003240 0.014271 0.000000 -0.002159 0.000000
# 4 0.000000 0.000000 0.000000 0.094271 0.000000 -0.076713
# 5 -0.009391 0.005255 -0.002159 0.000000 0.028860 0.000000
# 6 0.000000 0.000000 0.000000 -0.076713 0.000000 0.124631
#
#
# Mechanical properties :
#
#
# Convention : Reuss Voigt Hill
#
# Bulk Modulus (GPa) = 69.36535 81.89758 75.63146
# Shear Modulus (GPa) = 14.46772 25.80515 20.13643
#
# Velocity S-wave (km/s) = 2.72730 3.64239 3.21755
# Velocity P-wave (km/s) = 6.75129 7.73271 7.25861
#
# Compressibility (1/GPa) = 0.01441642
#
# Stress axis : x y z
#
# Youngs Moduli (GPa) = 38.05676 75.89944 70.07385
#
# Poissons Ratio (x) = 0.74121 0.46578
# Poissons Ratio (y) = 0.37165 0.22706
# Poissons Ratio (z) = 0.25296 0.24594
#
# Static dielectric constant tensor:
#      x y z
#    x 1.663870 0.000000 -0.011950 
#    y 0.000000 1.695940 0.000000 
#    z -0.011950 0.000000 1.712430 
# 
# From -- ./inp_files/12303.got.cif
#   From: 2010.05.17/outbox.cif.g08.bks.cpg/sg12_7_cif.got.tgz:12303.got - 2010.06.03 13:09:07.
