data_PCOD9215236
_publ_section_title
;
Structure prediction by ZEFSAII (Michael W. Deem and Ramdas Pophale) SiO2 
 PCOD9215236
Probable space group: C 2/M
;
_chemical_formula_sum "Si O2"
_cell_formula_units_Z 42
_cell_length_a 26.462872
_cell_length_b 11.865312
_cell_length_c 6.546148
_cell_angle_alpha 90.000000
_cell_angle_beta 96.680620
_cell_angle_gamma 90.000000
_cell_volume 2041.470303
_symmetry_space_group_name_H-M "C 2/M"
_symmetry_group_IT_number 12
_symmetry_cell_setting 'monoclinic'
loop_
_space_group_symop_operation_xyz
x,y,z
-x,y,-z
-x,-y,-z
x,-y,z
1/2+x,1/2+y,z
1/2-x,1/2+y,-z
1/2-x,1/2-y,-z
1/2+x,1/2-y,z
loop_
_atom_site_type_symbol
_atom_site_label
_atom_site_fract_x
_atom_site_fract_y
_atom_site_fract_z
Si Si1 0.758909 0.127222 0.614159
Si Si2 0.080009 0.298939 0.547491
Si Si3 0.670881 0.872398 0.889863
Si Si4 0.000000 0.500000 0.500000
Si Si5 0.864887 0.191434 0.809849
Si Si6 0.044254 0.127700 0.866234
O O1 0.750000 0.250000 0.500000
O O2 0.724958 0.135547 0.802965
O O3 0.818617 0.123680 0.690792
O O4 0.745446 0.000000 0.517792
O O5 0.128464 0.342251 0.700481
O O6 0.043214 0.401841 0.485654
O O7 0.100843 0.242128 0.353503
O O8 0.051520 0.209188 0.678914
O O9 0.662769 0.000000 0.955203
O O10 0.662304 0.789522 0.072877
O O11 0.902943 0.129844 0.982737
O O12 0.032128 0.000000 0.798092
O O13 0.000000 0.167155 0.000000
#
# Coordination Sequence:
#
# PCOD9215236 Si02
#       6
#     8   8   8   2   8   8
#     4  11  23  42  67  99 138 177 226 279 342 411
#     4  11  23  41  64  98 131 171 221 272 334 402
#     4  10  22  41  63  95 136 172 216 275 333 402
#     4  12  24  40  68  96 136 174 224 270 336 406
#     4  11  23  41  67  97 127 177 226 273 340 404
#     4  10  23  44  64  91 129 168 220 281 333 397
#
# _framework density 20.573405999999999
#
# number of rings (size 3 to 8) (size 9 to 14) (size 15 to 20)
#    0.000    1.333    2.857    2.286    1.333    2.286 
#    0.000    5.714    0.000    0.000    0.000    0.000 
#    0.000    0.000    0.000    0.000    0.000    0.000 
#
# Total GULP energy -116986.211415 kJ/mol
# GULP energy per Si atom -5570.771972 kJ/mol
# Density = 2.052658 g / cm^3
# Si number density = 20.573406 Si / 1000 Ang^3
#
#
#
# Elastic Constant Matrix: (Units=GPa)
#
#
# Indices 1 2 3 4 5 6 
#
# 1 98.9014 33.7183 22.2364 0.0000 -21.8900 0.0000
# 2 33.7183 149.8836 53.4444 0.0000 -28.3206 0.0000
# 3 22.2364 53.4444 49.9503 0.0000 -21.2948 0.0000
# 4 0.0000 0.0000 0.0000 6.2093 0.0000 -3.5767
# 5 -21.8900 -28.3206 -21.2948 0.0000 35.1266 0.0000
# 6 0.0000 0.0000 0.0000 -3.5767 0.0000 43.7103
#
#
#
# Elastic Compliance Matrix: (Units=1/GPa)
#
#
# Indices 1 2 3 4 5 6 
#
# 1 0.012120 -0.000965 -0.001988 0.000000 0.005569 0.000000
# 2 -0.000965 0.011003 -0.010542 0.000000 0.001879 0.000000
# 3 -0.001988 -0.010542 0.037803 0.000000 0.013179 0.000000
# 4 0.000000 0.000000 0.000000 0.169015 0.000000 0.013830
# 5 0.005569 0.001879 0.013179 0.000000 0.041443 0.000000
# 6 0.000000 0.000000 0.000000 0.013830 0.000000 0.024010
#
#
# Mechanical properties :
#
#
# Convention : Reuss Voigt Hill
#
# Bulk Modulus (GPa) = 29.46876 57.50372 43.48624
# Shear Modulus (GPa) = 14.98368 29.63165 22.30767
#
# Velocity S-wave (km/s) = 2.70164 3.79923 3.29644
# Velocity P-wave (km/s) = 4.90781 6.87435 5.97258
#
# Compressibility (1/GPa) = 0.03393424
#
# Stress axis : x y z
#
# Youngs Moduli (GPa) = 82.50940 90.88463 26.45303
#
# Poissons Ratio (x) = 0.08772 0.05260
# Poissons Ratio (y) = 0.07964 0.27887
# Poissons Ratio (z) = 0.16407 0.95811
#
# Static dielectric constant tensor:
#      x y z
#    x 1.714260 0.000000 0.038820 
#    y 0.000000 1.741190 0.000000 
#    z 0.038820 0.000000 1.732050 
# 
# From -- ./inp_files/30877.got.cif
#   From: 2010.05.17/outbox.cif.g08.bks.cpg/sg12_16_cif.got.tgz:30877.got - 2010.06.03 13:09:07.
