data_PCOD9215469
_publ_section_title
;
Structure prediction by ZEFSAII (Michael W. Deem and Ramdas Pophale) SiO2 
 PCOD9215469
Probable space group: C 2/M
;
_chemical_formula_sum "Si O2"
_cell_formula_units_Z 56
_cell_length_a 17.343084
_cell_length_b 8.353461
_cell_length_c 16.629253
_cell_angle_alpha 90.000000
_cell_angle_beta 77.678538
_cell_angle_gamma 90.000000
_cell_volume 2353.666023
_symmetry_space_group_name_H-M "C 2/M"
_symmetry_group_IT_number 12
_symmetry_cell_setting 'monoclinic'
loop_
_space_group_symop_operation_xyz
x,y,z
-x,y,-z
-x,-y,-z
x,-y,z
1/2+x,1/2+y,z
1/2-x,1/2+y,-z
1/2-x,1/2-y,-z
1/2+x,1/2-y,z
loop_
_atom_site_type_symbol
_atom_site_label
_atom_site_fract_x
_atom_site_fract_y
_atom_site_fract_z
Si Si1 0.727379 0.680542 0.716291
Si Si2 0.725575 0.818745 0.884065
Si Si3 0.899367 0.804388 0.835514
Si Si4 0.048424 0.817983 0.906611
Si Si5 0.165781 0.185222 0.450275
Si Si6 0.562422 0.817021 0.350032
Si Si7 0.877552 0.679235 0.370621
O O1 0.741549 0.500000 0.740635
O O2 0.737839 0.804231 0.785248
O O3 0.778370 0.730540 0.627872
O O4 0.641164 0.701042 0.697607
O O5 0.813033 0.754120 0.893117
O O6 0.636375 0.747868 0.908093
O O7 0.721001 0.000000 0.914177
O O8 0.903818 0.742171 0.742839
O O9 0.981071 0.747755 0.860674
O O10 0.898980 0.000000 0.837201
O O11 0.062912 0.000000 0.876294
O O12 0.000000 0.819428 0.000000
O O13 0.084707 0.205520 0.419469
O O14 0.161148 0.273454 0.535976
O O15 0.183924 0.000000 0.459155
O O16 0.469540 0.820306 0.363655
O O17 0.588834 0.000000 0.360390
O O18 0.852506 0.500000 0.352399
#
# Coordination Sequence:
#
# PCOD9215469 Si02
#       7
#     8   8   8   8   8   8   8
#     4  12  24  40  62  88 120 161 212 264 318 381
#     4  11  23  41  66  97 131 171 216 267 323 383
#     4  10  22  41  66  94 130 173 215 263 322 385
#     4  10  23  44  69 100 136 173 214 261 316 384
#     4  12  24  39  59  85 120 162 209 264 323 382
#     4  11  23  39  61  88 119 159 211 265 316 380
#     4  11  24  40  58  85 122 163 210 267 326 381
#
# _framework density 23.792670000000001
#
# number of rings (size 3 to 8) (size 9 to 14) (size 15 to 20)
#    0.000    1.000    1.429    5.571    0.000    8.286 
#    0.000    0.000    0.000    0.000    0.000    0.000 
#    0.000    0.000    0.000    0.000    0.000    0.000 
#
# Total GULP energy -156269.181681 kJ/mol
# GULP energy per Si atom -5581.042203 kJ/mol
# Density = 2.373852 g / cm^3
# Si number density = 23.792670 Si / 1000 Ang^3
#
#
#
# Elastic Constant Matrix: (Units=GPa)
#
#
# Indices 1 2 3 4 5 6 
#
# 1 134.3153 16.5426 16.1380 0.0000 -27.2283 0.0000
# 2 16.5426 68.9523 -4.7840 0.0000 -10.4570 0.0000
# 3 16.1380 -4.7840 42.9824 0.0000 -14.2510 0.0000
# 4 0.0000 0.0000 0.0000 16.3325 0.0000 -5.8051
# 5 -27.2283 -10.4570 -14.2510 0.0000 47.3025 0.0000
# 6 0.0000 0.0000 0.0000 -5.8051 0.0000 34.1302
#
#
#
# Elastic Compliance Matrix: (Units=1/GPa)
#
#
# Indices 1 2 3 4 5 6 
#
# 1 0.008715 -0.001629 -0.002121 0.000000 0.004017 0.000000
# 2 -0.001629 0.015686 0.003551 0.000000 0.003600 0.000000
# 3 -0.002121 0.003551 0.027011 0.000000 0.007701 0.000000
# 4 0.000000 0.000000 0.000000 0.065167 0.000000 0.011084
# 5 0.004017 0.003600 0.007701 0.000000 0.026569 0.000000
# 6 0.000000 0.000000 0.000000 0.011084 0.000000 0.031185
#
#
# Mechanical properties :
#
#
# Convention : Reuss Voigt Hill
#
# Bulk Modulus (GPa) = 19.60288 33.56033 26.58161
# Shear Modulus (GPa) = 26.07758 34.10994 30.09376
#
# Velocity S-wave (km/s) = 3.31423 3.79044 3.56031
# Velocity P-wave (km/s) = 4.78565 5.76997 5.30071
#
# Compressibility (1/GPa) = 0.05101290
#
# Stress axis : x y z
#
# Youngs Moduli (GPa) = 114.74391 63.75167 37.02262
#
# Poissons Ratio (x) = 0.10384 0.07854
# Poissons Ratio (y) = 0.18689 -0.13147
# Poissons Ratio (z) = 0.24342 -0.22638
#
# Static dielectric constant tensor:
#      x y z
#    x 2.135300 0.000000 -0.047810 
#    y 0.000000 1.886730 0.000000 
#    z -0.047810 0.000000 1.854520 
# 
# From -- ./inp_files/275117.got.cif
#   From: 2010.05.17/outbox.cif.g08.bks.cpg/sg12_138_cif.got.tgz:275117.got - 2010.06.03 13:09:07.
