data_PCOD9215678
_publ_section_title
;
Structure prediction by ZEFSAII (Michael W. Deem and Ramdas Pophale) SiO2 
 PCOD9215678
Probable space group: C 2/M
;
_chemical_formula_sum "Si O2"
_cell_formula_units_Z 50
_cell_length_a 8.743693
_cell_length_b 17.170668
_cell_length_c 18.664334
_cell_angle_alpha 90.000000
_cell_angle_beta 112.669795
_cell_angle_gamma 90.000000
_cell_volume 2585.678930
_symmetry_space_group_name_H-M "C 2/M"
_symmetry_group_IT_number 12
_symmetry_cell_setting 'monoclinic'
loop_
_space_group_symop_operation_xyz
x,y,z
-x,y,-z
-x,-y,-z
x,-y,z
1/2+x,1/2+y,z
1/2-x,1/2+y,-z
1/2-x,1/2-y,-z
1/2+x,1/2-y,z
loop_
_atom_site_type_symbol
_atom_site_label
_atom_site_fract_x
_atom_site_fract_y
_atom_site_fract_z
Si Si1 0.160121 0.793003 0.575943
Si Si2 0.500000 0.000000 0.000000
Si Si3 0.073481 0.589331 0.434095
Si Si4 0.052715 0.816841 0.326543
Si Si5 0.148004 0.280490 0.821105
Si Si6 0.566097 0.163234 0.085511
Si Si7 0.737630 0.911671 0.729121
O O1 0.274508 0.855820 0.557728
O O2 0.280707 0.720520 0.610790
O O3 0.000000 0.774214 0.500000
O O4 0.086796 0.823034 0.638197
O O5 0.572076 0.071307 0.066349
O O6 0.129437 0.500000 0.441207
O O7 0.000000 0.601437 0.500000
O O8 0.929164 0.599296 0.348528
O O9 0.109528 0.894259 0.296380
O O10 0.989180 0.755483 0.256356
O O11 0.266742 0.208626 0.863492
O O12 0.239325 0.347661 0.791946
O O13 0.062885 0.319665 0.874273
O O14 0.500000 0.201469 0.000000
O O15 0.740403 0.000000 0.756356
#
# Coordination Sequence:
#
# PCOD9215678 Si02
#       7
#     8   2   8   8   8   8   8
#     4  12  23  37  63  91 129 174 230 280 331 389
#     4   8  24  44  68 110 130 160 218 250 322 400
#     4  10  22  42  62  87 129 177 225 282 343 391
#     4  12  23  41  60  95 131 171 230 271 330 390
#     4  12  21  43  69  92 135 180 208 267 322 393
#     4  10  23  43  69 100 132 169 210 256 322 394
#     4  11  24  41  63  93 132 177 223 276 336 391
#
# _framework density 19.337281999999998
#
# number of rings (size 3 to 8) (size 9 to 14) (size 15 to 20)
#    0.480    0.480    4.800    1.920    1.120    2.240 
#    1.440    0.000    0.000    1.440    0.000    0.000 
#    0.000    0.000    0.000    0.000    0.000    0.000 
#
# Total GULP energy -139340.992814 kJ/mol
# GULP energy per Si atom -5573.639713 kJ/mol
# Density = 1.929327 g / cm^3
# Si number density = 19.337282 Si / 1000 Ang^3
#
#
#
# Elastic Constant Matrix: (Units=GPa)
#
#
# Indices 1 2 3 4 5 6 
#
# 1 75.1146 41.6350 19.0080 0.0000 -14.2523 0.0000
# 2 41.6350 147.5490 41.0716 0.0000 4.5019 0.0000
# 3 19.0080 41.0716 81.9524 0.0000 -16.6223 0.0000
# 4 0.0000 0.0000 0.0000 30.8037 0.0000 -7.4289
# 5 -14.2523 4.5019 -16.6223 0.0000 20.3379 0.0000
# 6 0.0000 0.0000 0.0000 -7.4289 0.0000 20.6744
#
#
#
# Elastic Compliance Matrix: (Units=1/GPa)
#
#
# Indices 1 2 3 4 5 6 
#
# 1 0.019721 -0.006723 0.002278 0.000000 0.017169 0.000000
# 2 -0.006723 0.010820 -0.006359 0.000000 -0.012303 0.000000
# 3 0.002278 -0.006359 0.018544 0.000000 0.018160 0.000000
# 4 0.000000 0.000000 0.000000 0.035544 0.000000 0.012772
# 5 0.017169 -0.012303 0.018160 0.000000 0.078766 0.000000
# 6 0.000000 0.000000 0.000000 0.012772 0.000000 0.052958
#
#
# Mechanical properties :
#
#
# Convention : Reuss Voigt Hill
#
# Bulk Modulus (GPa) = 36.39411 56.44947 46.42179
# Shear Modulus (GPa) = 20.23318 27.88997 24.06158
#
# Velocity S-wave (km/s) = 3.23821 3.80187 3.53131
# Velocity P-wave (km/s) = 5.73087 6.96618 6.37850
#
# Compressibility (1/GPa) = 0.02747697
#
# Stress axis : x y z
#
# Youngs Moduli (GPa) = 50.70853 92.42389 53.92594
#
# Poissons Ratio (x) = 0.62132 -0.12282
# Poissons Ratio (y) = 0.34089 0.34289
# Poissons Ratio (z) = -0.11549 0.58769
#
# Static dielectric constant tensor:
#      x y z
#    x 1.688200 0.000000 -0.001770 
#    y 0.000000 1.671360 0.000000 
#    z -0.001770 0.000000 1.697410 
# 
# From -- ./inp_files/256683.got.cif
#   From: 2010.05.17/outbox.cif.g08.bks.cpg/sg12_129_cif.got.tgz:256683.got - 2010.06.03 13:09:07.
