data_PCOD9215318
_publ_section_title
;
Structure prediction by ZEFSAII (Michael W. Deem and Ramdas Pophale) SiO2 
 PCOD9215318
Probable space group: C 2/M
;
_chemical_formula_sum "Si O2"
_cell_formula_units_Z 56
_cell_length_a 26.581199
_cell_length_b 8.918231
_cell_length_c 11.914129
_cell_angle_alpha 90.000000
_cell_angle_beta 104.287280
_cell_angle_gamma 90.000000
_cell_volume 2736.975907
_symmetry_space_group_name_H-M "C 2/M"
_symmetry_group_IT_number 12
_symmetry_cell_setting 'monoclinic'
loop_
_space_group_symop_operation_xyz
x,y,z
-x,y,-z
-x,-y,-z
x,-y,z
1/2+x,1/2+y,z
1/2-x,1/2+y,-z
1/2-x,1/2-y,-z
1/2+x,1/2-y,z
loop_
_atom_site_type_symbol
_atom_site_label
_atom_site_fract_x
_atom_site_fract_y
_atom_site_fract_z
Si Si1 0.838573 0.325789 0.815622
Si Si2 0.638025 0.321393 0.942607
Si Si3 0.928526 0.178698 0.715804
Si Si4 0.061327 0.822969 0.536372
Si Si5 0.735337 0.325597 0.609123
Si Si6 0.024516 0.324154 0.888829
Si Si7 0.149774 0.677352 0.716137
O O1 0.852783 0.500000 0.842205
O O2 0.883664 0.248452 0.767584
O O3 0.785515 0.319262 0.717059
O O4 0.834402 0.243670 0.932105
O O5 0.639366 0.500000 0.942839
O O6 0.578654 0.262971 0.915891
O O7 0.661052 0.256275 0.840540
O O8 0.918326 0.205346 0.578572
O O9 0.982787 0.252856 0.781733
O O10 0.931600 0.000000 0.734986
O O11 0.092746 0.726379 0.642756
O O12 0.000000 0.793014 0.500000
O O13 0.068404 0.000000 0.566477
O O14 0.721006 0.500000 0.584359
O O15 0.750000 0.250000 0.500000
O O16 0.689093 0.238947 0.644545
O O17 0.033038 0.500000 0.869038
O O18 0.000000 0.312479 0.000000
O O19 0.153406 0.500000 0.729255
#
# Coordination Sequence:
#
# PCOD9215318 Si02
#       7
#     8   8   8   8   8   8   8
#     4  11  24  42  64  93 127 165 212 266 320 378
#     4  12  25  42  66  94 129 170 216 266 321 385
#     4  11  22  36  61  94 128 169 215 265 319 379
#     4  10  22  41  64  93 129 169 215 264 316 378
#     4  11  25  46  72  99 130 167 213 266 320 379
#     4  11  22  37  60  91 131 172 212 263 316 375
#     4  12  26  44  68  96 131 172 213 262 323 384
#
# _framework density 20.460538
#
# number of rings (size 3 to 8) (size 9 to 14) (size 15 to 20)
#    0.000    0.857    1.429    6.000    0.000    8.286 
#    0.000    0.000    0.000    0.000    0.000    0.000 
#    0.000    0.000    0.000    0.000    0.000    0.000 
#
# Total GULP energy -156824.247890 kJ/mol
# GULP energy per Si atom -5600.865996 kJ/mol
# Density = 2.041397 g / cm^3
# Si number density = 20.460538 Si / 1000 Ang^3
#
#
#
# Elastic Constant Matrix: (Units=GPa)
#
#
# Indices 1 2 3 4 5 6 
#
# 1 51.9268 30.3352 30.8754 0.0000 -17.2967 0.0000
# 2 30.3352 167.5537 82.2555 0.0000 -12.1405 0.0000
# 3 30.8754 82.2555 111.5532 0.0000 -17.6002 0.0000
# 4 0.0000 0.0000 0.0000 32.6015 0.0000 -4.3611
# 5 -17.2967 -12.1405 -17.6002 0.0000 33.8624 0.0000
# 6 0.0000 0.0000 0.0000 -4.3611 0.0000 29.3269
#
#
#
# Elastic Compliance Matrix: (Units=1/GPa)
#
#
# Indices 1 2 3 4 5 6 
#
# 1 0.026434 -0.001955 -0.004200 0.000000 0.010619 0.000000
# 2 -0.001955 0.009501 -0.006628 0.000000 -0.001037 0.000000
# 3 -0.004200 -0.006628 0.015578 0.000000 0.003575 0.000000
# 4 0.000000 0.000000 0.000000 0.031296 0.000000 0.004654
# 5 0.010619 -0.001037 0.003575 0.000000 0.036442 0.000000
# 6 0.000000 0.000000 0.000000 0.004654 0.000000 0.034791
#
#
# Mechanical properties :
#
#
# Convention : Reuss Voigt Hill
#
# Bulk Modulus (GPa) = 38.53887 68.66290 53.60088
# Shear Modulus (GPa) = 26.55961 31.66266 29.11114
#
# Velocity S-wave (km/s) = 3.60681 3.93809 3.77609
# Velocity P-wave (km/s) = 6.01847 7.36951 6.72799
#
# Compressibility (1/GPa) = 0.02594783
#
# Stress axis : x y z
#
# Youngs Moduli (GPa) = 37.83022 105.25270 64.19196
#
# Poissons Ratio (x) = 0.20574 0.26958
# Poissons Ratio (y) = 0.07395 0.42548
# Poissons Ratio (z) = 0.15887 0.69765
#
# Static dielectric constant tensor:
#      x y z
#    x 1.723110 0.000000 -0.006840 
#    y 0.000000 1.683030 0.000000 
#    z -0.006840 0.000000 1.716530 
# 
# From -- ./inp_files/186799.got.cif
#   From: 2010.05.17/outbox.cif.g08.bks.cpg/sg12_94_cif.got.tgz:186799.got - 2010.06.03 13:09:07.
