data_PCOD9215122
_publ_section_title
;
Structure prediction by ZEFSAII (Michael W. Deem and Ramdas Pophale) SiO2 
 PCOD9215122
Probable space group: C 2/M
;
_chemical_formula_sum "Si O2"
_cell_formula_units_Z 56
_cell_length_a 15.670196
_cell_length_b 8.633874
_cell_length_c 21.445481
_cell_angle_alpha 90.000000
_cell_angle_beta 90.954604
_cell_angle_gamma 90.000000
_cell_volume 2901.052887
_symmetry_space_group_name_H-M "C 2/M"
_symmetry_group_IT_number 12
_symmetry_cell_setting 'monoclinic'
loop_
_space_group_symop_operation_xyz
x,y,z
-x,y,-z
-x,-y,-z
x,-y,z
1/2+x,1/2+y,z
1/2-x,1/2+y,-z
1/2-x,1/2-y,-z
1/2+x,1/2-y,z
loop_
_atom_site_type_symbol
_atom_site_label
_atom_site_fract_x
_atom_site_fract_y
_atom_site_fract_z
Si Si1 0.749715 0.184437 0.146744
Si Si2 0.913007 0.185599 0.925137
Si Si3 0.654340 0.314772 0.494812
Si Si4 0.080683 0.813390 0.359927
Si Si5 0.097403 0.315627 0.623269
Si Si6 0.098075 0.685554 0.935828
Si Si7 0.247072 0.186958 0.284109
O O1 0.660557 0.253484 0.120912
O O2 0.825912 0.257084 0.106963
O O3 0.760759 0.231487 0.218654
O O4 0.749786 0.000000 0.139133
O O5 0.006040 0.255011 0.911023
O O6 0.916918 0.000000 0.924333
O O7 0.891674 0.243335 0.994882
O O8 0.658242 0.500000 0.493934
O O9 0.750000 0.250000 0.500000
O O10 0.611261 0.264602 0.429522
O O11 0.604375 0.260337 0.555305
O O12 0.155540 0.773045 0.312766
O O13 0.989941 0.737409 0.345843
O O14 0.071732 0.000000 0.359858
O O15 0.099076 0.500000 0.615790
O O16 0.179242 0.271027 0.665624
O O17 0.097685 0.500000 0.940164
O O18 0.249983 0.000000 0.275829
#
# Coordination Sequence:
#
# PCOD9215122 Si02
#       7
#     8   8   8   8   8   8   8
#     4  12  25  41  62  91 124 164 210 252 304 364
#     4  11  22  40  65  95 128 163 202 252 307 361
#     4  11  21  37  62  90 121 156 194 246 305 361
#     4  10  22  41  62  86 119 158 197 245 304 362
#     4  11  23  40  62  90 120 155 199 249 301 361
#     4  11  22  40  65  95 128 163 203 253 305 359
#     4  10  23  44  61  81 120 163 203 251 305 357
#
# _framework density 19.303336000000002
#
# number of rings (size 3 to 8) (size 9 to 14) (size 15 to 20)
#    0.000    1.143    1.429    6.429    0.000    5.714 
#    0.000    2.857    0.000    0.000    0.000    0.000 
#    0.000    0.000    0.000    0.000    0.000    0.000 
#
# Total GULP energy -156641.328272 kJ/mol
# GULP energy per Si atom -5594.333153 kJ/mol
# Density = 1.925940 g / cm^3
# Si number density = 19.303336 Si / 1000 Ang^3
#
#
#
# Elastic Constant Matrix: (Units=GPa)
#
#
# Indices 1 2 3 4 5 6 
#
# 1 47.2774 2.2994 -17.9186 0.0000 4.5202 0.0000
# 2 2.2994 81.1806 1.6514 0.0000 9.2570 0.0000
# 3 -17.9186 1.6514 15.8428 0.0000 16.4506 0.0000
# 4 0.0000 0.0000 0.0000 30.4188 0.0000 -0.7264
# 5 4.5202 9.2570 16.4506 0.0000 -2.8501 0.0000
# 6 0.0000 0.0000 0.0000 -0.7264 0.0000 37.2731
#
#
#
# Elastic Compliance Matrix: (Units=1/GPa)
#
#
# Indices 1 2 3 4 5 6 
#
# 1 0.019285 -0.002971 0.000055 0.000000 0.021252 0.000000
# 2 -0.002971 0.012382 -0.005937 0.000000 0.001239 0.000000
# 3 0.000055 -0.005937 0.011973 0.000000 0.049913 0.000000
# 4 0.000000 0.000000 0.000000 0.032890 0.000000 0.000641
# 5 0.021252 0.001239 0.049913 0.000000 -0.025045 0.000000
# 6 0.000000 0.000000 0.000000 0.000641 0.000000 0.026842
#
#
# Mechanical properties :
#
#
# Convention : Reuss Voigt Hill
#
# Bulk Modulus (GPa) = 38.55822 12.92947 25.74385
# Shear Modulus (GPa) = 47.76607 23.51960 35.64284
#
# Velocity S-wave (km/s) = 4.97983 3.49438 4.30171
# Velocity P-wave (km/s) = 7.28582 4.79515 6.16752
#
# Compressibility (1/GPa) = 0.02593481
#
# Stress axis : x y z
#
# Youngs Moduli (GPa) = 51.85361 80.76315 83.51968
#
# Poissons Ratio (x) = 0.23992 -0.00456
# Poissons Ratio (y) = 0.15404 0.49582
# Poissons Ratio (z) = -0.00283 0.47946
#
# Static dielectric constant tensor:
#      x y z
#    x 1.666320 0.000000 0.002350 
#    y 0.000000 1.648190 0.000000 
#    z 0.002350 0.000000 1.649760 
# 
# From -- ./inp_files/308998.got.cif
#   From: 2010.05.17/outbox.cif.g08.bks.cpg/sg12_155_cif.got.tgz:308998.got - 2010.06.03 13:09:07.
