data_PCOD9215988
_publ_section_title
;
Structure prediction by ZEFSAII (Michael W. Deem and Ramdas Pophale) SiO2 
 PCOD9215988
Probable space group: C 2/M
;
_chemical_formula_sum "Si O2"
_cell_formula_units_Z 58
_cell_length_a 20.419210
_cell_length_b 7.925974
_cell_length_c 22.850106
_cell_angle_alpha 90.000000
_cell_angle_beta 134.931985
_cell_angle_gamma 90.000000
_cell_volume 2618.060833
_symmetry_space_group_name_H-M "C 2/M"
_symmetry_group_IT_number 12
_symmetry_cell_setting 'monoclinic'
loop_
_space_group_symop_operation_xyz
x,y,z
-x,y,-z
-x,-y,-z
x,-y,z
1/2+x,1/2+y,z
1/2-x,1/2+y,-z
1/2-x,1/2-y,-z
1/2+x,1/2-y,z
loop_
_atom_site_type_symbol
_atom_site_label
_atom_site_fract_x
_atom_site_fract_y
_atom_site_fract_z
Si Si1 0.130176 0.312411 0.572135
Si Si2 0.150058 0.806951 0.459004
Si Si3 0.012591 0.295830 0.860250
Si Si4 0.193630 0.805663 0.791929
Si Si5 0.798599 0.804959 0.970408
Si Si6 0.506053 0.194015 0.722668
Si Si7 0.000000 0.000000 0.500000
Si Si8 0.801716 0.296069 0.744099
O O1 0.104530 0.500000 0.577104
O O2 0.117680 0.299674 0.494380
O O3 0.075023 0.152924 0.563679
O O4 0.238561 0.281638 0.653599
O O5 0.250000 0.750000 0.500000
O O6 0.075756 0.791645 0.360721
O O7 0.153310 0.000000 0.482320
O O8 0.020211 0.500000 0.868536
O O9 0.908518 0.244809 0.810467
O O10 0.092586 0.221543 0.951032
O O11 0.027811 0.245538 0.802081
O O12 0.099572 0.706918 0.744679
O O13 0.251418 0.747041 0.772559
O O14 0.166973 0.000000 0.765565
O O15 0.257438 0.793604 0.889607
O O16 0.776663 0.000000 0.946378
O O17 0.750000 0.750000 0.000000
O O18 0.475356 0.000000 0.708155
O O19 0.800786 0.500000 0.738055
#
# Coordination Sequence:
#
# PCOD9215988 Si02
#       8
#     8   8   8   8   8   8   2   8
#     4  12  26  45  72 102 139 187 232 288 351 412
#     4  12  25  44  67  98 139 179 230 290 344 410
#     4  10  22  42  69  95 131 178 222 272 336 405
#     4  11  24  41  66  97 134 173 217 272 333 399
#     4  12  24  41  66  96 133 168 217 276 333 400
#     4  11  23  39  65  98 129 171 226 280 337 400
#     4  12  26  48  68  98 140 178 242 278 344 412
#     4  10  23  45  68  97 138 181 224 278 337 406
#
# _framework density 22.153801999999999
#
# number of rings (size 3 to 8) (size 9 to 14) (size 15 to 20)
#    0.000    0.828    2.759    4.345    1.931    3.862 
#    0.000    2.759    0.000    0.000    0.000    0.000 
#    0.000    0.000    0.000    0.000    0.000    0.000 
#
# Total GULP energy -162067.078406 kJ/mol
# GULP energy per Si atom -5588.519945 kJ/mol
# Density = 2.210338 g / cm^3
# Si number density = 22.153802 Si / 1000 Ang^3
#
#
#
# Elastic Constant Matrix: (Units=GPa)
#
#
# Indices 1 2 3 4 5 6 
#
# 1 62.8070 13.7336 3.6741 0.0000 14.3136 0.0000
# 2 13.7336 99.9502 6.9768 0.0000 6.7012 0.0000
# 3 3.6741 6.9768 86.2318 0.0000 21.1916 0.0000
# 4 0.0000 0.0000 0.0000 32.9522 0.0000 3.9686
# 5 14.3136 6.7012 21.1916 0.0000 43.1769 0.0000
# 6 0.0000 0.0000 0.0000 3.9686 0.0000 20.6831
#
#
#
# Elastic Compliance Matrix: (Units=1/GPa)
#
#
# Indices 1 2 3 4 5 6 
#
# 1 0.017689 -0.002092 0.000883 0.000000 -0.005973 0.000000
# 2 -0.002092 0.010376 -0.000597 0.000000 -0.000624 0.000000
# 3 0.000883 -0.000597 0.013255 0.000000 -0.006706 0.000000
# 4 0.000000 0.000000 0.000000 0.031065 0.000000 -0.005961
# 5 -0.005973 -0.000624 -0.006706 0.000000 0.028529 0.000000
# 6 0.000000 0.000000 0.000000 -0.005961 0.000000 0.049492
#
#
# Mechanical properties :
#
#
# Convention : Reuss Voigt Hill
#
# Bulk Modulus (GPa) = 26.51866 33.08421 29.80143
# Shear Modulus (GPa) = 30.01443 34.33607 32.17525
#
# Velocity S-wave (km/s) = 3.68478 3.94114 3.81512
# Velocity P-wave (km/s) = 5.48632 5.97297 5.73481
#
# Compressibility (1/GPa) = 0.03770930
#
# Stress axis : x y z
#
# Youngs Moduli (GPa) = 56.53323 96.37717 75.44137
#
# Poissons Ratio (x) = 0.20159 -0.06665
# Poissons Ratio (y) = 0.11825 0.04504
# Poissons Ratio (z) = -0.04994 0.05754
#
# Static dielectric constant tensor:
#      x y z
#    x 2.234500 0.000000 -0.262010 
#    y 0.000000 1.787750 0.000000 
#    z -0.262010 0.000000 1.987220 
# 
# From -- ./inp_files/346583.got.cif
#   From: 2010.05.17/outbox.cif.g08.bks.cpg/sg12_174_cif.got.tgz:346583.got - 2010.06.03 13:09:07.
