data_PCOD9215071
_publ_section_title
;
Structure prediction by ZEFSAII (Michael W. Deem and Ramdas Pophale) SiO2 
 PCOD9215071
Probable space group: C 2/M
;
_chemical_formula_sum "Si O2"
_cell_formula_units_Z 48
_cell_length_a 12.665036
_cell_length_b 17.000045
_cell_length_c 15.223128
_cell_angle_alpha 90.000000
_cell_angle_beta 138.838820
_cell_angle_gamma 90.000000
_cell_volume 2157.271288
_symmetry_space_group_name_H-M "C 2/M"
_symmetry_group_IT_number 12
_symmetry_cell_setting 'monoclinic'
loop_
_space_group_symop_operation_xyz
x,y,z
-x,y,-z
-x,-y,-z
x,-y,z
1/2+x,1/2+y,z
1/2-x,1/2+y,-z
1/2-x,1/2-y,-z
1/2+x,1/2-y,z
loop_
_atom_site_type_symbol
_atom_site_label
_atom_site_fract_x
_atom_site_fract_y
_atom_site_fract_z
Si Si1 0.063609 0.686330 0.632318
Si Si2 0.402304 0.345603 0.243414
Si Si3 0.312307 0.091842 0.034997
Si Si4 0.249077 0.155347 0.510485
Si Si5 0.823060 0.593063 0.745352
Si Si6 0.827155 0.090884 0.860712
O O1 0.092676 0.755735 0.720068
O O2 0.230646 0.640576 0.729082
O O3 0.000000 0.719079 0.500000
O O4 0.918534 0.630581 0.574481
O O5 0.321399 0.358334 0.099100
O O6 0.585186 0.375155 0.365063
O O7 0.287319 0.389060 0.240838
O O8 0.295599 0.000000 0.997095
O O9 0.492335 0.118957 0.125710
O O10 0.281878 0.093833 0.119869
O O11 0.250000 0.250000 0.500000
O O12 0.253165 0.133962 0.615178
O O13 0.828463 0.500000 0.732421
O O14 0.848177 0.000000 0.846660
O O15 0.000000 0.121361 0.000000
#
# Coordination Sequence:
#
# PCOD9215071 Si02
#       6
#     8   8   8   8   8   8
#     4  11  24  43  65  91 126 167 212 263 314 371
#     4  11  23  38  62  97 130 164 207 252 312 386
#     4  10  22  41  64  94 130 164 206 261 319 378
#     4  10  22  41  59  89 129 169 209 257 305 369
#     4  11  22  41  66  93 131 169 207 259 319 379
#     4  10  23  44  65  90 122 162 215 270 316 368
#
# _framework density 22.250330999999999
#
# number of rings (size 3 to 8) (size 9 to 14) (size 15 to 20)
#    0.000    1.500    1.667    3.500    2.333    5.667 
#    0.000    0.000    0.000    0.000    0.000    0.000 
#    0.000    0.000    0.000    0.000    0.000    0.000 
#
# Total GULP energy -134166.852864 kJ/mol
# GULP energy per Si atom -5590.285536 kJ/mol
# Density = 2.219969 g / cm^3
# Si number density = 22.250331 Si / 1000 Ang^3
#
#
#
# Elastic Constant Matrix: (Units=GPa)
#
#
# Indices 1 2 3 4 5 6 
#
# 1 42.0468 -9.0332 5.2061 -0.0008 18.5064 -0.0007
# 2 -9.0332 36.1094 40.1106 -0.0011 0.5100 -0.0009
# 3 5.2061 40.1106 156.6368 -0.0044 26.4290 -0.0038
# 4 -0.0008 -0.0011 -0.0044 91.6354 -0.0015 56.3160
# 5 18.5064 0.5100 26.4290 -0.0015 44.2844 -0.0014
# 6 -0.0007 -0.0009 -0.0038 56.3160 -0.0014 71.8976
#
#
#
# Elastic Compliance Matrix: (Units=1/GPa)
#
#
# Indices 1 2 3 4 5 6 
#
# 1 0.031497 0.009626 -0.001415 0.000000 -0.012429 0.000000
# 2 0.009626 0.043176 -0.011802 0.000000 0.002523 0.000000
# 3 -0.001415 -0.011802 0.010375 0.000000 -0.005465 0.000000
# 4 0.000000 0.000000 0.000000 0.021042 0.000000 -0.016482
# 5 -0.012429 0.002523 -0.005465 0.000000 0.031008 0.000000
# 6 0.000000 0.000000 0.000000 -0.016482 0.000000 0.026819
#
#
# Mechanical properties :
#
#
# Convention : Reuss Voigt Hill
#
# Bulk Modulus (GPa) = 12.84234 34.15110 23.49672
# Shear Modulus (GPa) = 25.37396 54.79746 40.08571
#
# Velocity S-wave (km/s) = 3.38062 4.96801 4.24910
# Velocity P-wave (km/s) = 4.58502 6.94911 5.88696
#
# Compressibility (1/GPa) = 0.07786746
#
# Stress axis : x y z
#
# Youngs Moduli (GPa) = 31.74929 23.16119 96.38143
#
# Poissons Ratio (x) = -0.22296 0.13636
# Poissons Ratio (y) = -0.30563 1.13748
# Poissons Ratio (z) = 0.04492 0.27334
#
# Static dielectric constant tensor:
#      x y z
#    x 1.861670 0.000000 0.032320 
#    y 0.000000 1.829790 0.000000 
#    z 0.032320 0.000000 1.838120 
# 
# From -- ./inp_files/271773.got.cif
#   From: 2010.05.17/outbox.cif.g08.bks.cpg/sg12_136_cif.got.tgz:271773.got - 2010.06.03 13:09:07.
