data_PCOD9215793
_publ_section_title
;
Structure prediction by ZEFSAII (Michael W. Deem and Ramdas Pophale) SiO2 
 PCOD9215793
Probable space group: C 2/M
;
_chemical_formula_sum "Si O2"
_cell_formula_units_Z 42
_cell_length_a 13.597720
_cell_length_b 12.749605
_cell_length_c 9.843725
_cell_angle_alpha 90.000000
_cell_angle_beta 93.262437
_cell_angle_gamma 90.000000
_cell_volume 1703.797130
_symmetry_space_group_name_H-M "C 2/M"
_symmetry_group_IT_number 12
_symmetry_cell_setting 'monoclinic'
loop_
_space_group_symop_operation_xyz
x,y,z
-x,y,-z
-x,-y,-z
x,-y,z
1/2+x,1/2+y,z
1/2-x,1/2+y,-z
1/2-x,1/2-y,-z
1/2+x,1/2-y,z
loop_
_atom_site_type_symbol
_atom_site_label
_atom_site_fract_x
_atom_site_fract_y
_atom_site_fract_z
Si Si1 0.000000 0.000000 0.000000
Si Si2 0.367313 0.666990 0.941882
Si Si3 0.620263 0.776412 0.652315
Si Si4 0.747115 0.881997 0.437498
Si Si5 0.439631 0.616633 0.649910
Si Si6 0.362332 0.119497 0.061959
O O1 0.073772 0.907046 0.951116
O O2 0.396890 0.625762 0.796772
O O3 0.254619 0.637604 0.950167
O O4 0.395130 0.787503 0.964748
O O5 0.655214 0.841410 0.521035
O O6 0.715662 0.698156 0.675196
O O7 0.522526 0.705008 0.637118
O O8 0.608907 0.850789 0.781258
O O9 0.843520 0.880056 0.544902
O O10 0.730288 0.000000 0.389483
O O11 0.484400 0.500000 0.640819
O O12 0.387461 0.000000 0.030446
#
# Coordination Sequence:
#
# PCOD9215793 Si02
#       6
#     2   8   8   8   8   8
#     4  12  20  40  62 104 122 166 222 272 308 386
#     4  11  23  39  68  97 130 168 217 279 323 389
#     4  11  22  37  67  97 123 171 215 267 330 387
#     4  10  22  42  65  94 130 170 219 275 327 389
#     4  11  21  41  67  97 130 169 224 277 321 381
#     4  11  23  44  64  95 133 176 213 269 339 397
#
# _framework density 24.650822999999999
#
# number of rings (size 3 to 8) (size 9 to 14) (size 15 to 20)
#    0.000    1.143    3.810    2.857    0.000    1.524 
#    1.714    5.238    0.000   24.000    0.000    0.000 
#    0.000    0.000    0.000    0.000    0.000    0.000 
#
# Total GULP energy -117166.422087 kJ/mol
# GULP energy per Si atom -5579.353433 kJ/mol
# Density = 2.459472 g / cm^3
# Si number density = 24.650823 Si / 1000 Ang^3
#
#
#
# Elastic Constant Matrix: (Units=GPa)
#
#
# Indices 1 2 3 4 5 6 
#
# 1 109.6145 11.3913 -2.6343 0.0000 -5.3420 0.0000
# 2 11.3913 218.6072 13.5580 0.0000 -2.2339 0.0000
# 3 -2.6343 13.5580 47.9781 0.0000 -9.9201 0.0000
# 4 0.0000 0.0000 0.0000 -14.0887 0.0000 -18.6785
# 5 -5.3420 -2.2339 -9.9201 0.0000 31.6046 0.0000
# 6 0.0000 0.0000 0.0000 -18.6785 0.0000 37.3977
#
#
#
# Elastic Compliance Matrix: (Units=1/GPa)
#
#
# Indices 1 2 3 4 5 6 
#
# 1 0.009294 -0.000530 0.001045 0.000000 0.001861 0.000000
# 2 -0.000530 0.004686 -0.001394 0.000000 -0.000196 0.000000
# 3 0.001045 -0.001394 0.022789 0.000000 0.007231 0.000000
# 4 0.000000 0.000000 0.000000 -0.042703 0.000000 -0.021328
# 5 0.001861 -0.000196 0.007231 0.000000 0.034212 0.000000
# 6 0.000000 0.000000 0.000000 -0.021328 0.000000 0.016087
#
#
# Mechanical properties :
#
#
# Convention : Reuss Voigt Hill
#
# Bulk Modulus (GPa) = 28.56208 46.75885 37.66047
# Shear Modulus (GPa) = 86.51371 34.57503 60.54437
#
# Velocity S-wave (km/s) = 5.93059 3.74918 4.96126
# Velocity P-wave (km/s) = 7.64903 6.14422 6.93755
#
# Compressibility (1/GPa) = 0.03501146
#
# Stress axis : x y z
#
# Youngs Moduli (GPa) = 107.59863 213.37941 43.88025
#
# Poissons Ratio (x) = 0.11311 -0.04585
# Poissons Ratio (y) = 0.05704 0.06117
# Poissons Ratio (z) = -0.11244 0.29744
#
# Static dielectric constant tensor:
#      x y z
#    x 2.051140 0.000000 0.116810 
#    y 0.000000 2.142780 0.000000 
#    z 0.116810 0.000000 2.098710 
# 
# From -- ./inp_files/140965.got.cif
#   From: 2010.05.17/outbox.cif.g08.bks.cpg/sg12_71_cif.got.tgz:140965.got - 2010.06.03 13:09:07.
