data_PCOD9215099
_publ_section_title
;
Structure prediction by ZEFSAII (Michael W. Deem and Ramdas Pophale) SiO2 
 PCOD9215099
Probable space group: C 2/M
;
_chemical_formula_sum "Si O2"
_cell_formula_units_Z 64
_cell_length_a 23.327077
_cell_length_b 20.045257
_cell_length_c 17.398452
_cell_angle_alpha 90.000000
_cell_angle_beta 158.351279
_cell_angle_gamma 90.000000
_cell_volume 3001.296699
_symmetry_space_group_name_H-M "C 2/M"
_symmetry_group_IT_number 12
_symmetry_cell_setting 'monoclinic'
loop_
_space_group_symop_operation_xyz
x,y,z
-x,y,-z
-x,-y,-z
x,-y,z
1/2+x,1/2+y,z
1/2-x,1/2+y,-z
1/2-x,1/2-y,-z
1/2+x,1/2-y,z
loop_
_atom_site_type_symbol
_atom_site_label
_atom_site_fract_x
_atom_site_fract_y
_atom_site_fract_z
Si Si1 0.779491 0.575682 0.599374
Si Si2 0.345126 0.728678 0.980940
Si Si3 0.590520 0.119873 0.902500
Si Si4 0.567426 0.318090 0.391797
Si Si5 0.422793 0.573847 0.321499
Si Si6 0.708722 0.638046 0.214938
Si Si7 0.922867 0.926579 0.803470
Si Si8 0.021278 0.677730 0.651346
O O1 0.784489 0.500000 0.638871
O O2 0.726729 0.639883 0.583220
O O3 0.647892 0.575537 0.368852
O O4 0.940739 0.591573 0.758509
O O5 0.348117 0.705133 0.897192
O O6 0.181982 0.701940 0.813292
O O7 0.360866 0.807409 0.005970
O O8 0.482561 0.697973 0.204832
O O9 0.557183 0.133734 0.771157
O O10 0.738299 0.073973 0.099002
O O11 0.463202 0.368776 0.311473
O O12 0.566406 0.246081 0.431442
O O13 0.500000 0.588690 0.500000
O O14 0.476580 0.500000 0.363659
O O15 0.656804 0.625825 0.237926
O O16 0.894181 0.638165 0.443454
O O17 0.607337 0.585034 0.039693
O O18 0.883952 0.000000 0.785752
#
# Coordination Sequence:
#
# PCOD9215099 Si02
#       8
#     8   8   8   8   8   8   8   8
#     4  11  23  41  66  94 127 169 217 265 306 373
#     4  11  22  38  64  94 128 161 209 268 316 378
#     4  11  22  42  65  91 127 165 209 263 326 374
#     4  11  22  42  65  91 127 165 209 263 326 374
#     4  11  24  43  68  91 119 166 217 260 316 392
#     4  11  21  36  62  95 128 168 208 251 316 372
#     4  10  22  41  61  87 133 180 213 250 306 377
#     4  11  22  38  64  94 128 161 209 268 316 378
#
# _framework density 21.324117000000001
#
# number of rings (size 3 to 8) (size 9 to 14) (size 15 to 20)
#    0.000    1.125    5.000    2.625    1.750    4.000 
#    0.000    0.625    0.000    5.250    0.000    0.000 
#    0.000    0.000    0.000    0.000    0.000    0.000 
#
# Total GULP energy -178553.966601 kJ/mol
# GULP energy per Si atom -5579.811456 kJ/mol
# Density = 2.127558 g / cm^3
# Si number density = 21.324117 Si / 1000 Ang^3
#
#
#
# Elastic Constant Matrix: (Units=GPa)
#
#
# Indices 1 2 3 4 5 6 
#
# 1 23.5945 28.7993 6.1106 0.0000 9.2654 0.0000
# 2 28.7993 73.7124 28.9237 0.0000 3.6023 0.0000
# 3 6.1106 28.9237 75.9653 0.0000 16.3791 0.0000
# 4 0.0000 0.0000 0.0000 14.4076 0.0000 13.8011
# 5 9.2654 3.6023 16.3791 0.0000 31.1022 0.0000
# 6 0.0000 0.0000 0.0000 13.8011 0.0000 7.8127
#
#
#
# Elastic Compliance Matrix: (Units=1/GPa)
#
#
# Indices 1 2 3 4 5 6 
#
# 1 0.111900 -0.048797 0.017539 0.000000 -0.036920 0.000000
# 2 -0.048797 0.037292 -0.014075 0.000000 0.017630 0.000000
# 3 0.017539 -0.014075 0.020178 0.000000 -0.014221 0.000000
# 4 0.000000 0.000000 0.000000 -0.100280 0.000000 0.177145
# 5 -0.036920 0.017630 -0.014221 0.000000 0.048598 0.000000
# 6 0.000000 0.000000 0.000000 0.177145 0.000000 -0.184931
#
#
# Mechanical properties :
#
#
# Convention : Reuss Voigt Hill
#
# Bulk Modulus (GPa) = 12.70578 33.43772 23.07175
# Shear Modulus (GPa) = 100.68618 17.96039 59.32329
#
# Velocity S-wave (km/s) = 6.87892 2.90532 5.28017
# Velocity P-wave (km/s) = 8.31048 5.19319 6.92940
#
# Compressibility (1/GPa) = 0.07870431
#
# Stress axis : x y z
#
# Youngs Moduli (GPa) = 8.93654 26.81513 49.55788
#
# Poissons Ratio (x) = 1.30849 -0.86918
# Poissons Ratio (y) = 0.43608 0.69753
# Poissons Ratio (z) = -0.15673 0.37742
#
# Static dielectric constant tensor:
#      x y z
#    x 1.810250 0.000000 0.011260 
#    y 0.000000 1.771290 0.000000 
#    z 0.011260 0.000000 1.793330 
# 
# From -- ./inp_files/290940.got.cif
#   From: 2010.05.17/outbox.cif.g08.bks.cpg/sg12_146_cif.got.tgz:290940.got - 2010.06.03 13:09:07.
