data_PCOD9215658
_publ_section_title
;
Structure prediction by ZEFSAII (Michael W. Deem and Ramdas Pophale) SiO2 
 PCOD9215658
Probable space group: C 2/M
;
_chemical_formula_sum "Si O2"
_cell_formula_units_Z 32
_cell_length_a 9.772447
_cell_length_b 9.711332
_cell_length_c 14.232830
_cell_angle_alpha 90.000000
_cell_angle_beta 115.365791
_cell_angle_gamma 90.000000
_cell_volume 1220.521391
_symmetry_space_group_name_H-M "C 2/M"
_symmetry_group_IT_number 12
_symmetry_cell_setting 'monoclinic'
loop_
_space_group_symop_operation_xyz
x,y,z
-x,y,-z
-x,-y,-z
x,-y,z
1/2+x,1/2+y,z
1/2-x,1/2+y,-z
1/2-x,1/2-y,-z
1/2+x,1/2-y,z
loop_
_atom_site_type_symbol
_atom_site_label
_atom_site_fract_x
_atom_site_fract_y
_atom_site_fract_z
Si Si1 0.546329 0.500000 0.391635
Si Si2 0.510137 0.500000 0.181032
Si Si3 0.500000 0.750996 0.500000
Si Si4 0.243633 0.500000 0.891249
Si Si5 0.038304 0.282929 0.901713
Si Si6 0.822842 0.500000 0.733834
Si Si7 0.447855 0.000000 0.354512
O O1 0.607220 0.500000 0.304336
O O2 0.585797 0.639556 0.459002
O O3 0.360347 0.500000 0.321569
O O4 0.595513 0.500000 0.106774
O O5 0.433338 0.647000 0.151470
O O6 0.423855 0.860705 0.406895
O O7 0.188434 0.372705 0.934150
O O8 0.147743 0.500000 0.767534
O O9 0.900205 0.369174 0.810599
O O10 0.000000 0.269514 0.000000
O O11 0.883778 0.500000 0.643860
#
# Coordination Sequence:
#
# PCOD9215658 Si02
#       7
#     4   4   4   4   8   4   4
#     4  11  24  42  59 100 130 169 221 268 326 387
#     4  12  26  41  69  99 133 177 215 271 329 391
#     4  10  22  42  62  90 134 160 226 274 310 398
#     4  10  23  45  69  94 137 174 213 269 330 390
#     4  10  23  46  68  99 131 172 221 268 324 389
#     4  10  22  41  72  89 135 179 205 275 336 380
#     4   9  20  43  64  93 122 176 216 265 336 381
#
# _framework density 26.218302999999999
#
# number of rings (size 3 to 8) (size 9 to 14) (size 15 to 20)
#    0.000    2.000    0.000    4.875    7.000    2.000 
#   13.500    0.000    0.000    0.000    0.000    0.000 
#    0.000    0.000    0.000    0.000    0.000    0.000 
#
# Total GULP energy -89435.468064 kJ/mol
# GULP energy per Si atom -5589.716754 kJ/mol
# Density = 2.615863 g / cm^3
# Si number density = 26.218303 Si / 1000 Ang^3
#
#
#
# Elastic Constant Matrix: (Units=GPa)
#
#
# Indices 1 2 3 4 5 6 
#
# 1 69.7242 -1.0168 15.9674 0.0000 -12.7656 0.0000
# 2 -1.0168 228.4748 71.9070 0.0000 -19.2582 0.0000
# 3 15.9674 71.9070 170.2873 0.0000 -29.0794 0.0000
# 4 0.0000 0.0000 0.0000 220.4300 0.0000 -35.5590
# 5 -12.7656 -19.2582 -29.0794 0.0000 51.3839 0.0000
# 6 0.0000 0.0000 0.0000 -35.5590 0.0000 27.7822
#
#
#
# Elastic Compliance Matrix: (Units=1/GPa)
#
#
# Indices 1 2 3 4 5 6 
#
# 1 0.015239 0.000717 -0.001150 0.000000 0.003404 0.000000
# 2 0.000717 0.005108 -0.002067 0.000000 0.000923 0.000000
# 3 -0.001150 -0.002067 0.007386 0.000000 0.003119 0.000000
# 4 0.000000 0.000000 0.000000 0.005717 0.000000 0.007317
# 5 0.003404 0.000923 0.003119 0.000000 0.022418 0.000000
# 6 0.000000 0.000000 0.000000 0.007317 0.000000 0.045360
#
#
# Mechanical properties :
#
#
# Convention : Reuss Voigt Hill
#
# Bulk Modulus (GPa) = 43.98958 71.35572 57.67265
# Shear Modulus (GPa) = 43.93431 85.36114 64.64773
#
# Velocity S-wave (km/s) = 4.09799 5.71214 4.97102
# Velocity P-wave (km/s) = 6.26147 8.41307 7.41572
#
# Compressibility (1/GPa) = 0.02273266
#
# Stress axis : x y z
#
# Youngs Moduli (GPa) = 65.61992 195.76087 135.39743
#
# Poissons Ratio (x) = -0.14032 0.15576
# Poissons Ratio (y) = -0.04703 0.27982
# Poissons Ratio (z) = 0.07549 0.40457
#
# Static dielectric constant tensor:
#      x y z
#    x 2.221070 0.000000 0.018740 
#    y 0.000000 2.110120 0.000000 
#    z 0.018740 0.000000 2.032250 
# 
# From -- ./inp_files/202171.got.cif
#   From: 2010.05.17/outbox.cif.g08.bks.cpg/sg12_102_cif.got.tgz:202171.got - 2010.06.03 13:09:07.
