data_PCOD9215310
_publ_section_title
;
Structure prediction by ZEFSAII (Michael W. Deem and Ramdas Pophale) SiO2 
 PCOD9215310
Probable space group: C 2/M
;
_chemical_formula_sum "Si O2"
_cell_formula_units_Z 48
_cell_length_a 23.992641
_cell_length_b 13.022709
_cell_length_c 7.563281
_cell_angle_alpha 90.000000
_cell_angle_beta 80.846036
_cell_angle_gamma 90.000000
_cell_volume 2333.044961
_symmetry_space_group_name_H-M "C 2/M"
_symmetry_group_IT_number 12
_symmetry_cell_setting 'monoclinic'
loop_
_space_group_symop_operation_xyz
x,y,z
-x,y,-z
-x,-y,-z
x,-y,z
1/2+x,1/2+y,z
1/2-x,1/2+y,-z
1/2-x,1/2-y,-z
1/2+x,1/2-y,z
loop_
_atom_site_type_symbol
_atom_site_label
_atom_site_fract_x
_atom_site_fract_y
_atom_site_fract_z
Si Si1 0.715845 0.117151 0.657204
Si Si2 0.379478 0.215683 0.769656
Si Si3 0.759947 0.328907 0.760116
Si Si4 0.996650 0.384263 0.789273
Si Si5 0.637795 0.616470 0.930057
Si Si6 0.605111 0.762187 0.641809
O O1 0.748503 0.206200 0.746450
O O2 0.735691 0.127970 0.442238
O O3 0.650285 0.153088 0.689761
O O4 0.723108 0.000000 0.711833
O O5 0.319984 0.157095 0.822980
O O6 0.433526 0.144176 0.765631
O O7 0.379417 0.256346 0.569008
O O8 0.382462 0.307655 0.906655
O O9 0.705709 0.375846 0.880737
O O10 0.010708 0.500000 0.726451
O O11 0.042604 0.306581 0.689196
O O12 0.000000 0.378445 0.000000
O O13 0.620397 0.500000 0.966646
O O14 0.614460 0.663448 0.758740
#
# Coordination Sequence:
#
# PCOD9215310 Si02
#       6
#     8   8   8   8   8   8
#     4   9  17  33  60  90 124 163 200 246 305 362
#     4  11  23  40  62  92 126 158 205 252 300 365
#     4   9  20  35  56  90 127 160 203 251 296 362
#     4  11  23  42  68  94 124 160 198 247 310 369
#     4  11  23  41  63  87 125 166 204 253 305 355
#     4  10  22  41  64  93 124 158 203 254 304 364
#
# _framework density 20.573972000000001
#
# number of rings (size 3 to 8) (size 9 to 14) (size 15 to 20)
#    0.000    1.833    1.667    3.000    0.000    6.000 
#    0.000    1.667    0.000    2.000    0.000    0.000 
#    0.000    0.000    0.000    0.000    0.000    0.000 
#
# Total GULP energy -134215.256508 kJ/mol
# GULP energy per Si atom -5592.302354 kJ/mol
# Density = 2.052714 g / cm^3
# Si number density = 20.573972 Si / 1000 Ang^3
#
#
#
# Elastic Constant Matrix: (Units=GPa)
#
#
# Indices 1 2 3 4 5 6 
#
# 1 97.1185 -3.9154 -7.5101 0.0000 5.3701 0.0000
# 2 -3.9154 56.5448 -6.9058 0.0000 2.2392 0.0000
# 3 -7.5101 -6.9058 47.8396 0.0000 9.6485 0.0000
# 4 0.0000 0.0000 0.0000 4.0803 0.0000 -8.3160
# 5 5.3701 2.2392 9.6485 0.0000 26.3482 0.0000
# 6 0.0000 0.0000 0.0000 -8.3160 0.0000 7.5739
#
#
#
# Elastic Compliance Matrix: (Units=1/GPa)
#
#
# Indices 1 2 3 4 5 6 
#
# 1 0.010714 0.001173 0.002496 0.000000 -0.003197 0.000000
# 2 0.001173 0.018308 0.003443 0.000000 -0.003056 0.000000
# 3 0.002496 0.003443 0.023704 0.000000 -0.009482 0.000000
# 4 0.000000 0.000000 0.000000 -0.198003 0.000000 -0.217403
# 5 -0.003197 -0.003056 -0.009482 0.000000 0.042337 0.000000
# 6 0.000000 0.000000 0.000000 -0.217403 0.000000 -0.106672
#
#
# Mechanical properties :
#
#
# Convention : Reuss Voigt Hill
#
# Bulk Modulus (GPa) = 14.93614 18.31560 16.62587
# Shear Modulus (GPa) = -24.81136 22.25610 -1.27763
#
# Velocity S-wave (km/s) = -3.47646 3.29258 -0.78889
# Velocity P-wave (km/s) = 2.97302 4.83492 2.69607
#
# Compressibility (1/GPa) = 0.06695171
#
# Stress axis : x y z
#
# Youngs Moduli (GPa) = 93.33736 54.62126 42.18627
#
# Poissons Ratio (x) = -0.06409 -0.10530
# Poissons Ratio (y) = -0.10952 -0.14526
# Poissons Ratio (z) = -0.23298 -0.18808
#
# Static dielectric constant tensor:
#      x y z
#    x 1.737660 0.000000 0.008460 
#    y 0.000000 1.689660 0.000000 
#    z 0.008460 0.000000 1.763240 
# 
# From -- ./inp_files/94331.got.cif
#   From: 2010.05.17/outbox.cif.g08.bks.cpg/sg12_48_cif.got.tgz:94331.got - 2010.06.03 13:09:07.
