data_PCOD9215390
_publ_section_title
;
Structure prediction by ZEFSAII (Michael W. Deem and Ramdas Pophale) SiO2 
 PCOD9215390
Probable space group: C 2/M
;
_chemical_formula_sum "Si O2"
_cell_formula_units_Z 48
_cell_length_a 25.664389
_cell_length_b 8.660999
_cell_length_c 14.424530
_cell_angle_alpha 90.000000
_cell_angle_beta 40.852896
_cell_angle_gamma 90.000000
_cell_volume 2097.285139
_symmetry_space_group_name_H-M "C 2/M"
_symmetry_group_IT_number 12
_symmetry_cell_setting 'monoclinic'
loop_
_space_group_symop_operation_xyz
x,y,z
-x,y,-z
-x,-y,-z
x,-y,z
1/2+x,1/2+y,z
1/2-x,1/2+y,-z
1/2-x,1/2-y,-z
1/2+x,1/2-y,z
loop_
_atom_site_type_symbol
_atom_site_label
_atom_site_fract_x
_atom_site_fract_y
_atom_site_fract_z
Si Si1 0.249927 0.316377 0.104605
Si Si2 0.495437 0.323627 0.740565
Si Si3 0.395861 0.180461 0.025987
Si Si4 0.165427 0.817593 0.714018
Si Si5 0.345430 0.819879 0.474427
Si Si6 0.416147 0.318179 0.654607
O O1 0.262368 0.500000 0.086873
O O2 0.319338 0.236923 0.070162
O O3 0.162751 0.275688 0.262547
O O4 0.250000 0.250000 0.000000
O O5 0.496018 0.500000 0.771596
O O6 0.581967 0.279741 0.584863
O O7 0.431799 0.308883 0.744066
O O8 0.470325 0.218035 0.859927
O O9 0.394069 0.271762 0.124710
O O10 0.390819 0.000000 0.051990
O O11 0.255848 0.785288 0.627433
O O12 0.154996 0.720725 0.634673
O O13 0.161174 0.000000 0.698040
O O14 0.361127 0.000000 0.468496
O O15 0.500000 0.263346 0.500000
O O16 0.405950 0.500000 0.644607
#
# Coordination Sequence:
#
# PCOD9215390 Si02
#       6
#     8   8   8   8   8   8
#     4  12  24  41  64  91 125 165 207 253 306 363
#     4  11  23  40  63  91 127 164 205 257 311 365
#     4  12  25  41  64  92 125 164 208 255 307 366
#     4  10  22  42  66  94 125 160 205 253 307 369
#     4  10  22  41  65  93 127 162 203 253 308 368
#     4  10  23  42  63  92 126 164 208 255 308 364
#
# _framework density 22.88673
#
# number of rings (size 3 to 8) (size 9 to 14) (size 15 to 20)
#    0.000    1.167    1.667    4.500    2.333    3.667 
#    0.000    3.333    0.000    0.000    0.000    0.000 
#    0.000    0.000    0.000    0.000    0.000    0.000 
#
# Total GULP energy -134380.653040 kJ/mol
# GULP energy per Si atom -5599.193877 kJ/mol
# Density = 2.283464 g / cm^3
# Si number density = 22.886730 Si / 1000 Ang^3
#
#
#
# Elastic Constant Matrix: (Units=GPa)
#
#
# Indices 1 2 3 4 5 6 
#
# 1 44.2045 -4.0603 -5.6841 0.0016 -14.6274 -0.0005
# 2 -4.0603 53.4105 1.5733 0.0039 -11.1724 -0.0021
# 3 -5.6841 1.5733 92.6603 0.0026 -5.0782 -0.0016
# 4 0.0016 0.0039 0.0026 34.5586 -0.0010 -6.2030
# 5 -14.6274 -11.1724 -5.0782 -0.0010 38.6748 0.0002
# 6 -0.0005 -0.0021 -0.0016 -6.2030 0.0002 24.9765
#
#
#
# Elastic Compliance Matrix: (Units=1/GPa)
#
#
# Indices 1 2 3 4 5 6 
#
# 1 0.027264 0.004497 0.002249 -0.000001 0.011906 0.000001
# 2 0.004497 0.020669 0.000348 -0.000002 0.007717 0.000001
# 3 0.002249 0.000348 0.011056 -0.000001 0.002403 0.000001
# 4 -0.000001 -0.000002 -0.000001 0.030286 -0.000001 0.007522
# 5 0.011906 0.007717 0.002403 -0.000001 0.032904 0.000001
# 6 0.000001 0.000001 0.000001 0.007522 0.000001 0.041906
#
#
# Mechanical properties :
#
#
# Convention : Reuss Voigt Hill
#
# Bulk Modulus (GPa) = 13.66577 19.32588 16.49582
# Shear Modulus (GPa) = 28.68774 32.87173 30.77974
#
# Velocity S-wave (km/s) = 3.54427 3.79394 3.67123
# Velocity P-wave (km/s) = 4.76793 5.25875 5.01934
#
# Compressibility (1/GPa) = 0.07317551
#
# Stress axis : x y z
#
# Youngs Moduli (GPa) = 36.67832 48.38201 90.45008
#
# Poissons Ratio (x) = -0.21757 -0.20339
# Poissons Ratio (y) = -0.16494 -0.03146
# Poissons Ratio (z) = -0.08248 -0.01683
#
# Static dielectric constant tensor:
#      x y z
#    x 1.883460 0.000000 -0.000300 
#    y 0.000000 1.748500 0.000000 
#    z -0.000300 0.000000 1.868420 
# 
# From -- ./inp_files/244681.got.cif
#   From: 2010.05.17/outbox.cif.g08.bks.cpg/sg12_123_cif.got.tgz:244681.got - 2010.06.03 13:09:07.
