data_PCOD9215085
_publ_section_title
;
Structure prediction by ZEFSAII (Michael W. Deem and Ramdas Pophale) SiO2 
 PCOD9215085
Probable space group: C 2/M
;
_chemical_formula_sum "Si O2"
_cell_formula_units_Z 48
_cell_length_a 14.962100
_cell_length_b 20.480854
_cell_length_c 11.814892
_cell_angle_alpha 90.000000
_cell_angle_beta 139.854239
_cell_angle_gamma 90.000000
_cell_volume 2334.270497
_symmetry_space_group_name_H-M "C 2/M"
_symmetry_group_IT_number 12
_symmetry_cell_setting 'monoclinic'
loop_
_space_group_symop_operation_xyz
x,y,z
-x,y,-z
-x,-y,-z
x,-y,z
1/2+x,1/2+y,z
1/2-x,1/2+y,-z
1/2-x,1/2-y,-z
1/2+x,1/2-y,z
loop_
_atom_site_type_symbol
_atom_site_label
_atom_site_fract_x
_atom_site_fract_y
_atom_site_fract_z
Si Si1 0.018061 0.308828 0.828637
Si Si2 0.336938 0.578334 0.825969
Si Si3 0.203061 0.573898 0.937751
Si Si4 0.153115 0.071180 0.698202
Si Si5 0.712510 0.790492 0.202766
Si Si6 0.379037 0.173458 0.459591
O O1 0.903515 0.293687 0.812227
O O2 0.945652 0.297997 0.638601
O O3 0.081783 0.381337 0.870841
O O4 0.150195 0.275405 0.017627
O O5 0.328109 0.500000 0.794983
O O6 0.248724 0.622298 0.652462
O O7 0.500000 0.594727 0.000000
O O8 0.261956 0.593164 0.873095
O O9 0.151536 0.500000 0.878739
O O10 0.330699 0.574148 0.150160
O O11 0.227162 0.136808 0.732810
O O12 0.000000 0.072192 0.500000
O O13 0.215505 0.000000 0.726037
O O14 0.821092 0.735256 0.336314
O O15 0.500000 0.141974 0.500000
#
# Coordination Sequence:
#
# PCOD9215085 Si02
#       6
#     8   8   8   8   8   8
#     4  10  22  41  60  91 122 166 207 257 316 371
#     4  10  23  42  64  93 127 164 208 260 318 376
#     4   9  18  37  62  88 123 160 203 261 315 373
#     4   9  18  35  58  85 120 161 207 257 311 373
#     4  10  23  40  60  91 129 160 212 262 314 367
#     4  12  24  41  65  94 123 170 215 259 316 374
#
# _framework density 20.563168999999998
#
# number of rings (size 3 to 8) (size 9 to 14) (size 15 to 20)
#    0.000    2.000    1.667    1.000    2.333    3.667 
#    3.000    5.000    0.000    0.000    0.000    0.000 
#    0.000    0.000    0.000    0.000    0.000    0.000 
#
# Total GULP energy -133611.127279 kJ/mol
# GULP energy per Si atom -5567.130303 kJ/mol
# Density = 2.051637 g / cm^3
# Si number density = 20.563169 Si / 1000 Ang^3
#
#
#
# Elastic Constant Matrix: (Units=GPa)
#
#
# Indices 1 2 3 4 5 6 
#
# 1 38.0080 2.7400 18.5638 0.0000 3.8478 0.0000
# 2 2.7400 68.8280 52.3843 0.0000 6.2968 0.0000
# 3 18.5638 52.3843 161.1172 0.0000 -8.4822 0.0000
# 4 0.0000 0.0000 0.0000 34.4097 0.0000 2.5533
# 5 3.8478 6.2968 -8.4822 0.0000 28.2996 0.0000
# 6 0.0000 0.0000 0.0000 2.5533 0.0000 18.3830
#
#
#
# Elastic Compliance Matrix: (Units=1/GPa)
#
#
# Indices 1 2 3 4 5 6 
#
# 1 0.028944 0.002882 -0.004585 0.000000 -0.005951 0.000000
# 2 0.002882 0.020757 -0.007462 0.000000 -0.007247 0.000000
# 3 -0.004585 -0.007462 0.009430 0.000000 0.005110 0.000000
# 4 0.000000 0.000000 0.000000 0.029364 0.000000 -0.004079
# 5 -0.005951 -0.007247 0.005110 0.000000 0.039290 0.000000
# 6 0.000000 0.000000 0.000000 -0.004079 0.000000 0.054964
#
#
# Mechanical properties :
#
#
# Convention : Reuss Voigt Hill
#
# Bulk Modulus (GPa) = 24.50964 46.14771 35.32868
# Shear Modulus (GPa) = 23.29040 29.16948 26.22994
#
# Velocity S-wave (km/s) = 3.36910 3.77042 3.57540
# Velocity P-wave (km/s) = 5.20380 6.43781 5.85342
#
# Compressibility (1/GPa) = 0.04080027
#
# Stress axis : x y z
#
# Youngs Moduli (GPa) = 34.54894 48.17728 106.04209
#
# Poissons Ratio (x) = -0.13885 0.48623
# Poissons Ratio (y) = -0.09957 0.79131
# Poissons Ratio (z) = 0.15842 0.35951
#
# Static dielectric constant tensor:
#      x y z
#    x 1.712850 0.000000 -0.005290 
#    y 0.000000 1.732720 0.000000 
#    z -0.005290 0.000000 1.785370 
# 
# From -- ./inp_files/148003.got.cif
#   From: 2010.05.17/outbox.cif.g08.bks.cpg/sg12_75_cif.got.tgz:148003.got - 2010.06.03 13:09:07.
