data_PCOD9215866
_publ_section_title
;
Structure prediction by ZEFSAII (Michael W. Deem and Ramdas Pophale) SiO2 
 PCOD9215866
Probable space group: C 2/M
;
_chemical_formula_sum "Si O2"
_cell_formula_units_Z 40
_cell_length_a 9.684199
_cell_length_b 17.459523
_cell_length_c 10.930538
_cell_angle_alpha 90.000000
_cell_angle_beta 83.997428
_cell_angle_gamma 90.000000
_cell_volume 1838.018666
_symmetry_space_group_name_H-M "C 2/M"
_symmetry_group_IT_number 12
_symmetry_cell_setting 'monoclinic'
loop_
_space_group_symop_operation_xyz
x,y,z
-x,y,-z
-x,-y,-z
x,-y,z
1/2+x,1/2+y,z
1/2-x,1/2+y,-z
1/2-x,1/2-y,-z
1/2+x,1/2-y,z
loop_
_atom_site_type_symbol
_atom_site_label
_atom_site_fract_x
_atom_site_fract_y
_atom_site_fract_z
Si Si1 0.242983 0.351465 0.717544
Si Si2 0.339848 0.585964 0.470956
Si Si3 0.963999 0.089939 0.200917
Si Si4 0.767001 0.204268 0.124878
Si Si5 0.971744 0.584162 0.857291
O O1 0.261313 0.357729 0.569791
O O2 0.385039 0.382294 0.767440
O O3 0.215225 0.267032 0.771068
O O4 0.115476 0.402948 0.774215
O O5 0.500000 0.585417 0.500000
O O6 0.283882 0.500000 0.496518
O O7 0.357313 0.599208 0.325895
O O8 0.895466 0.145764 0.109113
O O9 0.970456 0.000000 0.168322
O O10 0.631689 0.153028 0.159988
O O11 0.750000 0.250000 0.000000
O O12 0.912619 0.500000 0.833270
O O13 0.000000 0.586338 0.000000
#
# Coordination Sequence:
#
# PCOD9215866 Si02
#       5
#     8   8   8   8   8
#     4  11  21  38  68  93 122 160 205 258 311 361
#     4   8  16  35  62  93 122 154 203 257 304 361
#     4  10  22  42  67  91 121 164 212 253 298 368
#     4  12  25  42  58  89 131 165 201 259 309 362
#     4  11  23  41  61  86 123 166 205 248 309 367
#
# _framework density 21.762564999999999
#
# number of rings (size 3 to 8) (size 9 to 14) (size 15 to 20)
#    0.000    1.600    2.000    4.800    0.000    0.800 
#    0.000    4.000    0.000    3.600    0.000    0.000 
#    0.000    0.000    0.000    0.000    0.000    0.000 
#
# Total GULP energy -111795.525206 kJ/mol
# GULP energy per Si atom -5589.776260 kJ/mol
# Density = 2.171303 g / cm^3
# Si number density = 21.762565 Si / 1000 Ang^3
#
#
#
# Elastic Constant Matrix: (Units=GPa)
#
#
# Indices 1 2 3 4 5 6 
#
# 1 73.6221 26.5414 23.8806 0.0000 -11.2084 0.0000
# 2 26.5414 136.3878 20.7736 0.0000 -2.4850 0.0000
# 3 23.8806 20.7736 63.9287 0.0000 -17.6198 0.0000
# 4 0.0000 0.0000 0.0000 -35.3762 0.0000 20.8227
# 5 -11.2084 -2.4850 -17.6198 0.0000 31.2778 0.0000
# 6 0.0000 0.0000 0.0000 20.8227 0.0000 18.0846
#
#
#
# Elastic Compliance Matrix: (Units=1/GPa)
#
#
# Indices 1 2 3 4 5 6 
#
# 1 0.016395 -0.002455 -0.004452 0.000000 0.003172 0.000000
# 2 -0.002455 0.008105 -0.002109 0.000000 -0.001424 0.000000
# 3 -0.004452 -0.002109 0.020723 0.000000 0.009911 0.000000
# 4 0.000000 0.000000 0.000000 -0.016849 0.000000 0.019400
# 5 0.003172 -0.001424 0.009911 0.000000 0.038578 0.000000
# 6 0.000000 0.000000 0.000000 0.019400 0.000000 0.032959
#
#
# Mechanical properties :
#
#
# Convention : Reuss Voigt Hill
#
# Bulk Modulus (GPa) = 36.77838 46.25887 41.51863
# Shear Modulus (GPa) = 39.36812 16.31343 27.84077
#
# Velocity S-wave (km/s) = 4.25783 2.74087 3.58061
# Velocity P-wave (km/s) = 6.41160 5.59632 6.01778
#
# Compressibility (1/GPa) = 0.02718989
#
# Stress axis : x y z
#
# Youngs Moduli (GPa) = 60.99463 123.38034 48.25657
#
# Poissons Ratio (x) = 0.30284 0.21486
# Poissons Ratio (y) = 0.14971 0.10179
# Poissons Ratio (z) = 0.27158 0.26024
#
# Static dielectric constant tensor:
#      x y z
#    x 1.777600 0.000000 0.039500 
#    y 0.000000 1.000930 0.000000 
#    z 0.039500 0.000000 1.854980 
# 
# From -- ./inp_files/118926.got.cif
#   From: 2010.05.17/outbox.cif.g08.bks.cpg/sg12_60_cif.got.tgz:118926.got - 2010.06.03 13:09:07.
