data_PCOD9215004
_publ_section_title
;
Structure prediction by ZEFSAII (Michael W. Deem and Ramdas Pophale) SiO2 
 PCOD9215004
Probable space group: C 2/M
;
_chemical_formula_sum "Si O2"
_cell_formula_units_Z 30
_cell_length_a 16.681803
_cell_length_b 15.771020
_cell_length_c 5.023188
_cell_angle_alpha 90.000000
_cell_angle_beta 78.942010
_cell_angle_gamma 90.000000
_cell_volume 1297.009352
_symmetry_space_group_name_H-M "C 2/M"
_symmetry_group_IT_number 12
_symmetry_cell_setting 'monoclinic'
loop_
_space_group_symop_operation_xyz
x,y,z
-x,y,-z
-x,-y,-z
x,-y,z
1/2+x,1/2+y,z
1/2-x,1/2+y,-z
1/2-x,1/2-y,-z
1/2+x,1/2-y,z
loop_
_atom_site_type_symbol
_atom_site_label
_atom_site_fract_x
_atom_site_fract_y
_atom_site_fract_z
Si Si1 0.000000 0.299045 0.500000
Si Si2 0.500000 0.500000 0.000000
Si Si3 0.736180 0.399754 0.262948
Si Si4 0.070595 0.861877 0.642480
Si Si5 0.342156 0.899927 0.713495
O O1 0.039320 0.233563 0.687825
O O2 0.071637 0.353826 0.328581
O O3 0.431458 0.424272 0.107627
O O4 0.717240 0.500000 0.249154
O O5 0.654611 0.358707 0.430299
O O6 0.805552 0.390868 0.442902
O O7 0.774424 0.367282 0.964702
O O8 0.000000 0.904717 0.500000
O O9 0.353122 0.000000 0.763025
#
# Coordination Sequence:
#
# PCOD9215004 Si02
#       5
#     4   2   8   8   8
#     4  10  25  45  60 102 138 172 226 269 343 384
#     4  12  22  40  72  90 138 178 220 268 342 412
#     4  10  22  40  67  98 125 176 229 271 329 391
#     4  10  25  39  63  98 131 175 216 278 328 403
#     4  10  23  43  70  95 134 180 223 275 323 398
#
# _framework density 23.130134000000002
#
# number of rings (size 3 to 8) (size 9 to 14) (size 15 to 20)
#    0.800    1.067    1.333    0.800    3.733    5.333 
#    0.000    4.000    0.000    0.000    0.000    0.000 
#    0.000    0.000    0.000    0.000    0.000    0.000 
#
# Total GULP energy -83573.560871 kJ/mol
# GULP energy per Si atom -5571.570725 kJ/mol
# Density = 2.307749 g / cm^3
# Si number density = 23.130134 Si / 1000 Ang^3
#
#
#
# Elastic Constant Matrix: (Units=GPa)
#
#
# Indices 1 2 3 4 5 6 
#
# 1 77.1206 33.9295 -6.1409 0.0000 -25.5624 0.0000
# 2 33.9295 70.9395 5.9759 0.0000 -8.8303 0.0000
# 3 -6.1409 5.9759 65.6525 0.0000 -6.1326 0.0000
# 4 0.0000 0.0000 0.0000 -8.6559 0.0000 -7.1965
# 5 -25.5624 -8.8303 -6.1326 0.0000 28.9753 0.0000
# 6 0.0000 0.0000 0.0000 -7.1965 0.0000 22.7876
#
#
#
# Elastic Compliance Matrix: (Units=1/GPa)
#
#
# Indices 1 2 3 4 5 6 
#
# 1 0.023883 -0.009441 0.004889 0.000000 0.019227 0.000000
# 2 -0.009441 0.018441 -0.002872 0.000000 -0.003317 0.000000
# 3 0.004889 -0.002872 0.016600 0.000000 0.006952 0.000000
# 4 0.000000 0.000000 0.000000 -0.091502 0.000000 -0.028897
# 5 0.019227 -0.003317 0.006952 0.000000 0.051935 0.000000
# 6 0.000000 0.000000 0.000000 -0.028897 0.000000 0.034758
#
#
# Mechanical properties :
#
#
# Convention : Reuss Voigt Hill
#
# Bulk Modulus (GPa) = 22.68770 31.24905 26.96837
# Shear Modulus (GPa) = 59.77004 20.61792 40.19398
#
# Velocity S-wave (km/s) = 5.08890 2.98885 4.17313
# Velocity P-wave (km/s) = 6.66027 5.04484 5.90803
#
# Compressibility (1/GPa) = 0.04407675
#
# Stress axis : x y z
#
# Youngs Moduli (GPa) = 41.87083 54.22632 60.24174
#
# Poissons Ratio (x) = 0.51197 -0.29454
# Poissons Ratio (y) = 0.39532 0.17299
# Poissons Ratio (z) = -0.20472 0.15571
#
# Static dielectric constant tensor:
#      x y z
#    x 1.903200 0.000000 0.076450 
#    y 0.000000 1.852230 0.000000 
#    z 0.076450 0.000000 1.997550 
# 
# From -- ./inp_files/9919.got.cif
#   From: 2010.05.17/outbox.cif.g08.bks.cpg/sg12_5_cif.got.tgz:9919.got - 2010.06.03 13:09:07.
