data_PCOD9215227
_publ_section_title
;
Structure prediction by ZEFSAII (Michael W. Deem and Ramdas Pophale) SiO2 
 PCOD9215227
Probable space group: C 2/M
;
_chemical_formula_sum "Si O2"
_cell_formula_units_Z 48
_cell_length_a 16.759119
_cell_length_b 11.475842
_cell_length_c 23.605075
_cell_angle_alpha 90.000000
_cell_angle_beta 147.390604
_cell_angle_gamma 90.000000
_cell_volume 2446.563610
_symmetry_space_group_name_H-M "C 2/M"
_symmetry_group_IT_number 12
_symmetry_cell_setting 'monoclinic'
loop_
_space_group_symop_operation_xyz
x,y,z
-x,y,-z
-x,-y,-z
x,-y,z
1/2+x,1/2+y,z
1/2-x,1/2+y,-z
1/2-x,1/2-y,-z
1/2+x,1/2-y,z
loop_
_atom_site_type_symbol
_atom_site_label
_atom_site_fract_x
_atom_site_fract_y
_atom_site_fract_z
Si Si1 0.598142 0.226895 0.804614
Si Si2 0.922286 0.767298 0.810501
Si Si3 0.383059 0.500000 0.850260
Si Si4 0.772458 0.000000 0.910158
Si Si5 0.615360 0.133132 0.017570
Si Si6 0.161674 0.132509 0.601680
Si Si7 0.178585 0.362065 0.424711
O O1 0.502197 0.282163 0.797758
O O2 0.729650 0.314558 0.868189
O O3 0.488186 0.179460 0.690495
O O4 0.683994 0.112281 0.877655
O O5 0.779914 0.687999 0.714216
O O6 0.862110 0.884935 0.801542
O O7 0.041663 0.708606 0.923672
O O8 0.288648 0.500000 0.851392
O O9 0.558344 0.500000 0.969493
O O10 0.634843 0.000000 0.010445
O O11 0.500000 0.137326 0.000000
O O12 0.235447 0.132046 0.583810
O O13 0.000000 0.189663 0.500000
O O14 0.138870 0.000000 0.607418
O O15 0.180784 0.500000 0.447605
O O16 0.250000 0.250000 0.500000
#
# Coordination Sequence:
#
# PCOD9215227 Si02
#       7
#     8   8   4   4   8   8   8
#     4  11  23  39  64  86 121 164 207 249 306 374
#     4  11  23  38  62  89 123 159 209 251 301 372
#     4  11  24  38  59  92 126 164 205 250 309 371
#     4  11  22  40  62  86 123 170 206 244 305 380
#     4  11  24  38  58  92 127 156 200 256 307 364
#     4   9  20  41  65  86 116 159 204 250 309 372
#     4  10  22  41  63  92 120 161 209 258 312 374
#
# _framework density 19.619356
#
# number of rings (size 3 to 8) (size 9 to 14) (size 15 to 20)
#    0.000    1.500    2.500    2.000    3.500    3.333 
#    4.500    3.750    0.000    0.000    0.000    0.000 
#    0.000    0.000    0.000    0.000    0.000    0.000 
#
# Total GULP energy -133868.909126 kJ/mol
# GULP energy per Si atom -5577.871214 kJ/mol
# Density = 1.957470 g / cm^3
# Si number density = 19.619356 Si / 1000 Ang^3
#
#
#
# Elastic Constant Matrix: (Units=GPa)
#
#
# Indices 1 2 3 4 5 6 
#
# 1 27.3427 14.6816 15.8660 0.0000 7.7199 0.0000
# 2 14.6816 116.7656 45.0936 0.0001 -7.1974 0.0001
# 3 15.8660 45.0936 110.8491 0.0002 19.9969 0.0006
# 4 0.0000 0.0001 0.0002 30.8645 0.0000 3.0501
# 5 7.7199 -7.1974 19.9969 0.0000 30.8955 0.0001
# 6 0.0000 0.0001 0.0006 3.0501 0.0001 25.1096
#
#
#
# Elastic Compliance Matrix: (Units=1/GPa)
#
#
# Indices 1 2 3 4 5 6 
#
# 1 0.043725 -0.005334 -0.002143 0.000000 -0.010781 0.000000
# 2 -0.005334 0.011786 -0.005397 0.000000 0.007572 0.000000
# 3 -0.002143 -0.005397 0.013194 0.000000 -0.009262 0.000000
# 4 0.000000 0.000000 0.000000 0.032793 0.000000 -0.003983
# 5 -0.010781 0.007572 -0.009262 0.000000 0.042819 0.000000
# 6 0.000000 0.000000 0.000000 -0.003983 0.000000 0.040309
#
#
# Mechanical properties :
#
#
# Convention : Reuss Voigt Hill
#
# Bulk Modulus (GPa) = 23.28006 45.13772 34.20889
# Shear Modulus (GPa) = 22.25242 29.32835 25.79038
#
# Velocity S-wave (km/s) = 3.37145 3.87055 3.62959
# Velocity P-wave (km/s) = 5.20069 6.55984 5.91941
#
# Compressibility (1/GPa) = 0.04295521
#
# Stress axis : x y z
#
# Youngs Moduli (GPa) = 22.87037 84.84773 75.79039
#
# Poissons Ratio (x) = 0.45262 0.16245
# Poissons Ratio (y) = 0.12200 0.40903
# Poissons Ratio (z) = 0.04902 0.45791
#
# Static dielectric constant tensor:
#      x y z
#    x 1.674520 0.000000 0.000470 
#    y 0.000000 1.713020 0.000000 
#    z 0.000470 0.000000 1.686470 
# 
# From -- ./inp_files/343460.got.cif
#   From: 2010.05.17/outbox.cif.g08.bks.cpg/sg12_172_cif.got.tgz:343460.got - 2010.06.03 13:09:07.
