data_PCOD9215406
_publ_section_title
;
Structure prediction by ZEFSAII (Michael W. Deem and Ramdas Pophale) SiO2 
 PCOD9215406
Probable space group: C 2/M
;
_chemical_formula_sum "Si O2"
_cell_formula_units_Z 40
_cell_length_a 9.096765
_cell_length_b 18.566921
_cell_length_c 11.074032
_cell_angle_alpha 90.000000
_cell_angle_beta 81.383883
_cell_angle_gamma 90.000000
_cell_volume 1849.283289
_symmetry_space_group_name_H-M "C 2/M"
_symmetry_group_IT_number 12
_symmetry_cell_setting 'monoclinic'
loop_
_space_group_symop_operation_xyz
x,y,z
-x,y,-z
-x,-y,-z
x,-y,z
1/2+x,1/2+y,z
1/2-x,1/2+y,-z
1/2-x,1/2-y,-z
1/2+x,1/2-y,z
loop_
_atom_site_type_symbol
_atom_site_label
_atom_site_fract_x
_atom_site_fract_y
_atom_site_fract_z
Si Si1 0.270879 0.204741 0.618492
Si Si2 0.447594 0.813644 0.264506
Si Si3 0.214746 0.330980 0.048999
Si Si4 0.384659 0.413437 0.242012
Si Si5 0.232909 0.084697 0.201690
O O1 0.250000 0.250000 0.500000
O O2 0.439850 0.202147 0.640834
O O3 0.205448 0.124474 0.637764
O O4 0.170321 0.249134 0.727681
O O5 0.559202 0.824051 0.139225
O O6 0.342123 0.882695 0.288676
O O7 0.324148 0.374722 0.127464
O O8 0.250000 0.250000 0.000000
O O9 0.216231 0.379024 0.929097
O O10 0.364555 0.500000 0.237320
O O11 0.559106 0.397535 0.239472
O O12 0.247507 0.000000 0.193051
#
# Coordination Sequence:
#
# PCOD9215406 Si02
#       5
#     8   8   8   8   8
#     4  11  23  43  68  91 119 160 214 272 329 381
#     4  11  24  38  61  92 125 163 211 270 318 379
#     4  11  22  37  62  95 133 176 217 257 308 377
#     4  10  22  41  65  94 131 172 217 264 313 379
#     4  11  23  39  61  94 135 174 209 252 312 383
#
# _framework density 21.629999999999999
#
# number of rings (size 3 to 8) (size 9 to 14) (size 15 to 20)
#    0.000    1.200    0.000    7.200    0.000    9.600 
#    0.000    1.000    0.000   10.800    0.000    0.000 
#    0.000    0.000    0.000    0.000    0.000    0.000 
#
# Total GULP energy -111719.588357 kJ/mol
# GULP energy per Si atom -5585.979418 kJ/mol
# Density = 2.158077 g / cm^3
# Si number density = 21.630000 Si / 1000 Ang^3
#
#
#
# Elastic Constant Matrix: (Units=GPa)
#
#
# Indices 1 2 3 4 5 6 
#
# 1 171.8283 83.4911 47.1780 0.0000 23.1966 0.0000
# 2 83.4911 122.2834 37.9308 0.0000 14.2784 0.0000
# 3 47.1780 37.9308 74.4009 0.0000 19.5275 0.0000
# 4 0.0000 0.0000 0.0000 32.9283 0.0000 1.8471
# 5 23.1966 14.2784 19.5275 0.0000 31.0474 0.0000
# 6 0.0000 0.0000 0.0000 1.8471 0.0000 43.8724
#
#
#
# Elastic Compliance Matrix: (Units=1/GPa)
#
#
# Indices 1 2 3 4 5 6 
#
# 1 0.009532 -0.005374 -0.002496 0.000000 -0.003080 0.000000
# 2 -0.005374 0.012813 -0.003152 0.000000 0.000105 0.000000
# 3 -0.002496 -0.003152 0.018876 0.000000 -0.008558 0.000000
# 4 0.000000 0.000000 0.000000 0.030441 0.000000 -0.001282
# 5 -0.003080 0.000105 -0.008558 0.000000 0.039845 0.000000
# 6 0.000000 0.000000 0.000000 -0.001282 0.000000 0.022847
#
#
# Mechanical properties :
#
#
# Convention : Reuss Voigt Hill
#
# Bulk Modulus (GPa) = 52.14601 78.41248 65.27925
# Shear Modulus (GPa) = 30.71422 34.89714 32.80568
#
# Velocity S-wave (km/s) = 3.77235 4.02103 3.89868
# Velocity P-wave (km/s) = 6.56770 7.60846 7.10716
#
# Compressibility (1/GPa) = 0.01917692
#
# Stress axis : x y z
#
# Youngs Moduli (GPa) = 104.90556 78.04840 52.97597
#
# Poissons Ratio (x) = 0.41947 0.13223
# Poissons Ratio (y) = 0.56381 0.16697
# Poissons Ratio (z) = 0.26185 0.24599
#
# Static dielectric constant tensor:
#      x y z
#    x 1.850660 0.000000 0.069430 
#    y 0.000000 1.787850 0.000000 
#    z 0.069430 0.000000 1.902080 
# 
# From -- ./inp_files/119037.got.cif
#   From: 2010.05.17/outbox.cif.g08.bks.cpg/sg12_60_cif.got.tgz:119037.got - 2010.06.03 13:09:07.
