data_PCOD9215776
_publ_section_title
;
Structure prediction by ZEFSAII (Michael W. Deem and Ramdas Pophale) SiO2 
 PCOD9215776
Probable space group: C 2/M
;
_chemical_formula_sum "Si O2"
_cell_formula_units_Z 48
_cell_length_a 19.450901
_cell_length_b 28.927243
_cell_length_c 11.022241
_cell_angle_alpha 90.000000
_cell_angle_beta 20.616462
_cell_angle_gamma 90.000000
_cell_volume 2183.713923
_symmetry_space_group_name_H-M "C 2/M"
_symmetry_group_IT_number 12
_symmetry_cell_setting 'monoclinic'
loop_
_space_group_symop_operation_xyz
x,y,z
-x,y,-z
-x,-y,-z
x,-y,z
1/2+x,1/2+y,z
1/2-x,1/2+y,-z
1/2-x,1/2-y,-z
1/2+x,1/2-y,z
loop_
_atom_site_type_symbol
_atom_site_label
_atom_site_fract_x
_atom_site_fract_y
_atom_site_fract_z
Si Si1 0.853323 0.141813 0.855166
Si Si2 0.777781 0.120046 0.606492
Si Si3 0.144378 0.779242 0.572642
Si Si4 0.209581 0.299348 0.293626
Si Si5 0.488050 0.107783 0.725190
Si Si6 0.231941 0.051740 0.599989
O O1 0.000000 0.152503 0.500000
O O2 0.997608 0.119764 0.716654
O O3 0.745151 0.186179 0.094149
O O4 0.676831 0.108610 0.106723
O O5 0.739563 0.174154 0.646505
O O6 0.740631 0.089044 0.551664
O O7 0.642287 0.104313 0.939281
O O8 0.250000 0.750000 0.500000
O O9 0.118054 0.747997 0.494839
O O10 0.932771 0.794618 0.968808
O O11 0.095726 0.342651 0.538254
O O12 0.653153 0.069461 0.470873
O O13 0.298329 0.000000 0.457844
O O14 0.000000 0.050528 0.000000
#
# Coordination Sequence:
#
# PCOD9215776 Si02
#       6
#     8   8   8   8   8   8
#     4   9  21  42  65  90 126 175 220 264 323 386
#     4  10  22  42  65  91 127 166 211 267 324 382
#     4  11  22  37  57  88 126 169 217 262 316 378
#     4  11  22  37  60  88 124 171 220 263 311 376
#     4  11  22  41  65  91 127 168 211 264 324 383
#     4  11  24  42  67  98 129 165 212 267 327 390
#
# _framework density 21.980900999999999
#
# number of rings (size 3 to 8) (size 9 to 14) (size 15 to 20)
#    0.000    1.500    0.000    5.500    0.000    4.000 
#    0.000   29.167    0.000    7.000    0.000    0.000 
#    0.000    0.000    0.000    0.000    0.000    0.000 
#
# Total GULP energy -133998.343996 kJ/mol
# GULP energy per Si atom -5583.264333 kJ/mol
# Density = 2.193087 g / cm^3
# Si number density = 21.980901 Si / 1000 Ang^3
#
#
#
# Elastic Constant Matrix: (Units=GPa)
#
#
# Indices 1 2 3 4 5 6 
#
# 1 110.4362 38.2885 26.8327 0.0019 -27.7610 0.0007
# 2 38.2885 96.9663 5.4811 0.0077 -11.9875 -0.0021
# 3 26.8327 5.4811 85.7988 -0.0072 -16.7100 -0.0057
# 4 0.0019 0.0077 -0.0072 14.7331 -0.0022 -7.1126
# 5 -27.7610 -11.9875 -16.7100 -0.0022 48.7757 -0.0028
# 6 0.0007 -0.0021 -0.0057 -7.1126 -0.0028 13.0846
#
#
#
# Elastic Compliance Matrix: (Units=1/GPa)
#
#
# Indices 1 2 3 4 5 6 
#
# 1 0.012414 -0.004116 -0.002615 -0.000001 0.005158 -0.000002
# 2 -0.004116 0.012004 0.000684 -0.000005 0.000842 0.000000
# 3 -0.002615 0.000684 0.013042 0.000014 0.003148 0.000014
# 4 -0.000001 -0.000005 0.000014 0.092023 0.000010 0.050022
# 5 0.005158 0.000842 0.003148 0.000010 0.024723 0.000012
# 6 -0.000002 0.000000 0.000014 0.050022 0.000012 0.103617
#
#
# Mechanical properties :
#
#
# Convention : Reuss Voigt Hill
#
# Bulk Modulus (GPa) = 39.42201 48.26732 43.84466
# Shear Modulus (GPa) = 17.96152 30.15862 24.06007
#
# Velocity S-wave (km/s) = 2.86167 3.70812 3.31205
# Velocity P-wave (km/s) = 5.37517 6.35138 5.88356
#
# Compressibility (1/GPa) = 0.02536654
#
# Stress axis : x y z
#
# Youngs Moduli (GPa) = 80.55348 83.30801 76.67339
#
# Poissons Ratio (x) = 0.34293 0.20049
# Poissons Ratio (y) = 0.33159 -0.05248
# Poissons Ratio (z) = 0.21063 -0.05702
#
# Static dielectric constant tensor:
#      x y z
#    x 1.869650 0.000000 -0.013460 
#    y 0.000000 1.813330 0.000030 
#    z -0.013460 0.000030 1.867360 
# 
# From -- ./inp_files/170680.got.cif
#   From: 2010.05.17/outbox.cif.g08.bks.cpg/sg12_86_cif.got.tgz:170680.got - 2010.06.03 13:09:07.
