data_PCOD9215649
_publ_section_title
;
Structure prediction by ZEFSAII (Michael W. Deem and Ramdas Pophale) SiO2 
 PCOD9215649
Probable space group: C 2/M
;
_chemical_formula_sum "Si O2"
_cell_formula_units_Z 48
_cell_length_a 15.657809
_cell_length_b 22.616405
_cell_length_c 10.689509
_cell_angle_alpha 90.000000
_cell_angle_beta 142.314367
_cell_angle_gamma 90.000000
_cell_volume 2314.126254
_symmetry_space_group_name_H-M "C 2/M"
_symmetry_group_IT_number 12
_symmetry_cell_setting 'monoclinic'
loop_
_space_group_symop_operation_xyz
x,y,z
-x,y,-z
-x,-y,-z
x,-y,z
1/2+x,1/2+y,z
1/2-x,1/2+y,-z
1/2-x,1/2-y,-z
1/2+x,1/2-y,z
loop_
_atom_site_type_symbol
_atom_site_label
_atom_site_fract_x
_atom_site_fract_y
_atom_site_fract_z
Si Si1 0.500000 0.213955 0.500000
Si Si2 0.677907 0.000000 0.769973
Si Si3 0.408857 0.891093 0.779922
Si Si4 0.793105 0.500000 0.485221
Si Si5 0.859889 0.373096 0.147645
Si Si6 0.009391 0.000000 0.783263
Si Si7 0.318754 0.292504 0.477075
Si Si8 0.955859 0.876136 0.303818
O O1 0.599623 0.172438 0.697984
O O2 0.392156 0.252871 0.456179
O O3 0.632627 0.060079 0.788091
O O4 0.354524 0.000000 0.415715
O O5 0.846001 0.000000 0.975337
O O6 0.337174 0.942787 0.616752
O O7 0.522616 0.863144 0.819832
O O8 0.298379 0.841357 0.695096
O O9 0.500000 0.915918 0.000000
O O10 0.625786 0.500000 0.287082
O O11 0.706667 0.364972 0.911409
O O12 0.009444 0.057566 0.696529
O O13 0.250000 0.250000 0.500000
O O14 0.449936 0.332712 0.671461
O O15 0.000000 0.868924 0.500000
#
# Coordination Sequence:
#
# PCOD9215649 Si02
#       8
#     4   4   8   4   8   4   8   8
#     4  12  26  47  74 103 142 188 236 292 350 410
#     4  10  24  43  71 105 134 180 228 288 360 432
#     4  12  26  44  69 106 141 179 234 291 348 421
#     4  12  23  42  71 100 143 179 225 295 354 421
#     4  11  25  45  73 103 140 182 233 292 357 415
#     4  10  22  41  71 105 136 175 230 285 360 416
#     4  12  26  46  69 101 139 187 242 279 345 415
#     4  11  23  45  71 101 139 184 229 289 352 419
#
# _framework density 20.742170999999999
#
# number of rings (size 3 to 8) (size 9 to 14) (size 15 to 20)
#    0.000    0.667    4.167    3.250    0.000    3.000 
#    0.000    0.000    0.000    0.000    0.000    0.000 
#    0.000    0.000    0.000    0.000    0.000    0.000 
#
# Total GULP energy -134116.765022 kJ/mol
# GULP energy per Si atom -5588.198543 kJ/mol
# Density = 2.069496 g / cm^3
# Si number density = 20.742171 Si / 1000 Ang^3
#
#
#
# Elastic Constant Matrix: (Units=GPa)
#
#
# Indices 1 2 3 4 5 6 
#
# 1 120.3046 56.5963 55.0681 0.0000 16.4294 0.0000
# 2 56.5963 121.7664 55.8583 0.0000 3.5257 0.0000
# 3 55.0681 55.8583 128.6688 0.0000 10.3114 0.0000
# 4 0.0000 0.0000 0.0000 74.5697 0.0000 36.3649
# 5 16.4294 3.5257 10.3114 0.0000 45.2304 0.0000
# 6 0.0000 0.0000 0.0000 36.3649 0.0000 34.3681
#
#
#
# Elastic Compliance Matrix: (Units=1/GPa)
#
#
# Indices 1 2 3 4 5 6 
#
# 1 0.012143 -0.004104 -0.003145 0.000000 -0.003374 0.000000
# 2 -0.004104 0.011643 -0.003407 0.000000 0.001360 0.000000
# 3 -0.003145 -0.003407 0.010680 0.000000 -0.001027 0.000000
# 4 0.000000 0.000000 0.000000 0.027707 0.000000 -0.029317
# 5 -0.003374 0.001360 -0.001027 0.000000 0.023463 0.000000
# 6 0.000000 0.000000 0.000000 -0.029317 0.000000 0.060117
#
#
# Mechanical properties :
#
#
# Convention : Reuss Voigt Hill
#
# Bulk Modulus (GPa) = 76.02414 78.42058 77.22236
# Shear Modulus (GPa) = 29.16307 44.38145 36.77226
#
# Velocity S-wave (km/s) = 3.75371 4.63068 4.21506
# Velocity P-wave (km/s) = 7.45108 8.15354 7.81022
#
# Compressibility (1/GPa) = 0.01315372
#
# Stress axis : x y z
#
# Youngs Moduli (GPa) = 82.35075 85.88484 93.63712
#
# Poissons Ratio (x) = 0.35243 0.29451
# Poissons Ratio (y) = 0.33793 0.31906
# Poissons Ratio (z) = 0.25901 0.29265
#
# Static dielectric constant tensor:
#      x y z
#    x 1.744950 0.000000 -0.000290 
#    y 0.000000 1.744780 0.000000 
#    z -0.000290 0.000000 1.749980 
# 
# From -- ./inp_files/148084.got.cif
#   From: 2010.05.17/outbox.cif.g08.bks.cpg/sg12_75_cif.got.tgz:148084.got - 2010.06.03 13:09:07.
