data_PCOD9215062
_publ_section_title
;
Structure prediction by ZEFSAII (Michael W. Deem and Ramdas Pophale) SiO2 
 PCOD9215062
Probable space group: C 2/M
;
_chemical_formula_sum "Si O2"
_cell_formula_units_Z 50
_cell_length_a 10.897784
_cell_length_b 27.106960
_cell_length_c 9.467511
_cell_angle_alpha 90.000000
_cell_angle_beta 120.968229
_cell_angle_gamma 90.000000
_cell_volume 2398.087540
_symmetry_space_group_name_H-M "C 2/M"
_symmetry_group_IT_number 12
_symmetry_cell_setting 'monoclinic'
loop_
_space_group_symop_operation_xyz
x,y,z
-x,y,-z
-x,-y,-z
x,-y,z
1/2+x,1/2+y,z
1/2-x,1/2+y,-z
1/2-x,1/2-y,-z
1/2+x,1/2-y,z
loop_
_atom_site_type_symbol
_atom_site_label
_atom_site_fract_x
_atom_site_fract_y
_atom_site_fract_z
Si Si1 0.948250 0.927823 0.700602
Si Si2 0.265794 0.196637 0.080826
Si Si3 0.271460 0.446442 0.326073
Si Si4 0.344267 0.317418 0.685417
Si Si5 0.838331 0.652009 0.854526
Si Si6 0.000000 0.000000 0.000000
Si Si7 0.088452 0.288507 0.351260
O O1 0.823976 0.945231 0.518687
O O2 0.915261 0.869687 0.695794
O O3 0.091582 0.939164 0.695536
O O4 0.960226 0.956897 0.855162
O O5 0.162049 0.190016 0.150519
O O6 0.428649 0.192140 0.234572
O O7 0.250000 0.250000 0.000000
O O8 0.245566 0.158194 0.940578
O O9 0.206421 0.500000 0.257039
O O10 0.177215 0.399346 0.234407
O O11 0.180496 0.311885 0.531387
O O12 0.418689 0.270726 0.653639
O O13 0.817250 0.695713 0.730101
O O14 0.000000 0.657511 0.000000
#
# Coordination Sequence:
#
# PCOD9215062 Si02
#       7
#     8   8   8   8   8   2   8
#     4  11  24  39  66  92 128 160 210 269 331 380
#     4  11  23  37  59  88 129 168 208 265 311 371
#     4  11  22  45  66  91 125 171 210 271 331 384
#     4  11  23  38  62  91 123 171 211 257 322 387
#     4  10  22  41  62  90 126 167 217 262 310 393
#     4  12  24  42  60 100 126 158 212 286 320 384
#     4  10  22  41  58  88 128 167 213 253 310 394
#
# _framework density 20.849947
#
# number of rings (size 3 to 8) (size 9 to 14) (size 15 to 20)
#    0.000    1.280    4.800    0.960    4.480    0.320 
#    2.880    0.000    0.000    0.000    0.000    4.480 
#    0.000    0.000    0.000    0.000    0.000    0.000 
#
# Total GULP energy -139275.618345 kJ/mol
# GULP energy per Si atom -5571.024734 kJ/mol
# Density = 2.080249 g / cm^3
# Si number density = 20.849947 Si / 1000 Ang^3
#
#
#
# Elastic Constant Matrix: (Units=GPa)
#
#
# Indices 1 2 3 4 5 6 
#
# 1 24.2435 3.0668 27.9139 0.0000 -8.6703 0.0000
# 2 3.0668 159.1571 45.7037 0.0000 -14.3346 0.0000
# 3 27.9139 45.7037 141.4421 0.0000 -26.0005 0.0000
# 4 0.0000 0.0000 0.0000 41.6374 0.0000 -6.0126
# 5 -8.6703 -14.3346 -26.0005 0.0000 24.3181 0.0000
# 6 0.0000 0.0000 0.0000 -6.0126 0.0000 12.4260
#
#
#
# Elastic Compliance Matrix: (Units=1/GPa)
#
#
# Indices 1 2 3 4 5 6 
#
# 1 0.056347 0.002777 -0.009986 0.000000 0.011050 0.000000
# 2 0.002777 0.007150 -0.002367 0.000000 0.002674 0.000000
# 3 -0.009986 -0.002367 0.011070 0.000000 0.006881 0.000000
# 4 0.000000 0.000000 0.000000 0.025821 0.000000 0.012494
# 5 0.011050 0.002674 0.006881 0.000000 0.053994 0.000000
# 6 0.000000 0.000000 0.000000 0.012494 0.000000 0.086522
#
#
# Mechanical properties :
#
#
# Convention : Reuss Voigt Hill
#
# Bulk Modulus (GPa) = 18.04557 53.13461 35.59009
# Shear Modulus (GPa) = 17.95145 32.22017 25.08581
#
# Velocity S-wave (km/s) = 2.93743 3.93534 3.47242
# Velocity P-wave (km/s) = 4.49204 6.79624 5.76052
#
# Compressibility (1/GPa) = 0.05541527
#
# Stress axis : x y z
#
# Youngs Moduli (GPa) = 17.74724 139.85768 90.33017
#
# Poissons Ratio (x) = -0.38841 0.90207
# Poissons Ratio (y) = -0.04929 0.21380
# Poissons Ratio (z) = 0.17723 0.33103
#
# Static dielectric constant tensor:
#      x y z
#    x 1.779710 0.000000 -0.017790 
#    y 0.000000 1.745150 0.000000 
#    z -0.017790 0.000000 1.788260 
# 
# From -- ./inp_files/53351.got.cif
#   From: 2010.05.17/outbox.cif.g08.bks.cpg/sg12_27_cif.got.tgz:53351.got - 2010.06.03 13:09:07.
