data_PCOD9215066
_publ_section_title
;
Structure prediction by ZEFSAII (Michael W. Deem and Ramdas Pophale) SiO2 
 PCOD9215066
Probable space group: C 2/M
;
_chemical_formula_sum "Si O2"
_cell_formula_units_Z 56
_cell_length_a 14.860975
_cell_length_b 8.729379
_cell_length_c 25.309269
_cell_angle_alpha 90.000000
_cell_angle_beta 63.700196
_cell_angle_gamma 90.000000
_cell_volume 2943.436760
_symmetry_space_group_name_H-M "C 2/M"
_symmetry_group_IT_number 12
_symmetry_cell_setting 'monoclinic'
loop_
_space_group_symop_operation_xyz
x,y,z
-x,y,-z
-x,-y,-z
x,-y,z
1/2+x,1/2+y,z
1/2-x,1/2+y,-z
1/2-x,1/2-y,-z
1/2+x,1/2-y,z
loop_
_atom_site_type_symbol
_atom_site_label
_atom_site_fract_x
_atom_site_fract_y
_atom_site_fract_z
Si Si1 0.635803 0.685681 0.688706
Si Si2 0.423130 0.815859 0.772207
Si Si3 0.567142 0.174263 0.435243
Si Si4 0.678354 0.815421 0.091139
Si Si5 0.101385 0.185014 0.003247
Si Si6 0.780365 0.829451 0.438111
Si Si7 0.837547 0.182396 0.687325
O O1 0.641206 0.500000 0.686952
O O2 0.533338 0.742903 0.740569
O O3 0.643981 0.739371 0.624954
O O4 0.730781 0.753227 0.695099
O O5 0.366513 0.770707 0.840741
O O6 0.365111 0.756458 0.735848
O O7 0.430328 0.000000 0.768699
O O8 0.500000 0.240865 0.500000
O O9 0.677645 0.162097 0.431445
O O10 0.580882 0.267896 0.378254
O O11 0.530665 0.000000 0.433604
O O12 0.615108 0.747278 0.058952
O O13 0.674711 0.000000 0.088330
O O14 0.795133 0.769298 0.053314
O O15 0.098749 0.000000 0.005913
O O16 0.000000 0.236719 0.000000
O O17 0.750000 0.750000 0.500000
O O18 0.815846 0.000000 0.442228
O O19 0.834943 0.000000 0.691823
#
# Coordination Sequence:
#
# PCOD9215066 Si02
#       7
#     8   8   8   8   8   8   8
#     4  10  22  41  59  81 112 149 195 246 297 354
#     4  11  23  39  60  85 119 162 200 243 296 349
#     4   9  19  36  55  77 105 142 185 234 293 353
#     4   9  20  37  56  86 121 152 195 241 283 338
#     4   9  18  35  60  88 120 157 194 234 283 335
#     4   9  19  33  51  76 104 134 173 228 290 351
#     4  11  23  39  58  84 115 151 195 242 296 359
#
# _framework density 19.025379999999998
#
# number of rings (size 3 to 8) (size 9 to 14) (size 15 to 20)
#    0.000    2.286    0.000    3.000    2.000    5.714 
#    0.000    1.429    0.000    0.000    0.000    0.000 
#    0.000    0.000    0.000    0.000    0.000    0.000 
#
# Total GULP energy -156221.553476 kJ/mol
# GULP energy per Si atom -5579.341196 kJ/mol
# Density = 1.898208 g / cm^3
# Si number density = 19.025380 Si / 1000 Ang^3
#
#
#
# Elastic Constant Matrix: (Units=GPa)
#
#
# Indices 1 2 3 4 5 6 
#
# 1 113.3441 23.6090 73.5495 0.0000 4.6507 0.0000
# 2 23.6090 49.2551 47.9393 0.0000 1.9137 0.0000
# 3 73.5495 47.9393 194.6979 0.0000 6.5188 0.0000
# 4 0.0000 0.0000 0.0000 27.4192 0.0000 1.4028
# 5 4.6507 1.9137 6.5188 0.0000 19.2540 0.0000
# 6 0.0000 0.0000 0.0000 1.4028 0.0000 26.1541
#
#
#
# Elastic Compliance Matrix: (Units=1/GPa)
#
#
# Indices 1 2 3 4 5 6 
#
# 1 0.011833 -0.001727 -0.004000 0.000000 -0.001332 0.000000
# 2 -0.001727 0.026957 -0.005977 0.000000 -0.000239 0.000000
# 3 -0.004000 -0.005977 0.008159 0.000000 -0.001202 0.000000
# 4 0.000000 0.000000 0.000000 0.036571 0.000000 -0.001962
# 5 -0.001332 -0.000239 -0.001202 0.000000 0.052690 0.000000
# 6 0.000000 0.000000 0.000000 -0.001962 0.000000 0.038340
#
#
# Mechanical properties :
#
#
# Convention : Reuss Voigt Hill
#
# Bulk Modulus (GPa) = 42.47927 71.94364 57.21145
# Shear Modulus (GPa) = 24.29483 28.71206 26.50345
#
# Velocity S-wave (km/s) = 3.57735 3.88899 3.73642
# Velocity P-wave (km/s) = 6.28008 7.61986 6.98218
#
# Compressibility (1/GPa) = 0.02354090
#
# Stress axis : x y z
#
# Youngs Moduli (GPa) = 84.51114 37.09630 122.55955
#
# Poissons Ratio (x) = 0.06405 0.49027
# Poissons Ratio (y) = 0.14591 0.73257
# Poissons Ratio (z) = 0.33807 0.22173
#
# Static dielectric constant tensor:
#      x y z
#    x 1.669220 0.000000 -0.023470 
#    y 0.000000 1.659550 0.000000 
#    z -0.023470 0.000000 1.669070 
# 
# From -- ./inp_files/338581.got.cif
#   From: 2010.05.17/outbox.cif.g08.bks.cpg/sg12_170_cif.got.tgz:338581.got - 2010.06.03 13:09:07.
