data_PCOD9215222
_publ_section_title
;
Structure prediction by ZEFSAII (Michael W. Deem and Ramdas Pophale) SiO2 
 PCOD9215222
Probable space group: C 2/M
;
_chemical_formula_sum "Si O2"
_cell_formula_units_Z 40
_cell_length_a 11.215120
_cell_length_b 17.827436
_cell_length_c 12.933556
_cell_angle_alpha 90.000000
_cell_angle_beta 44.139194
_cell_angle_gamma 90.000000
_cell_volume 1800.826777
_symmetry_space_group_name_H-M "C 2/M"
_symmetry_group_IT_number 12
_symmetry_cell_setting 'monoclinic'
loop_
_space_group_symop_operation_xyz
x,y,z
-x,y,-z
-x,-y,-z
x,-y,z
1/2+x,1/2+y,z
1/2-x,1/2+y,-z
1/2-x,1/2-y,-z
1/2+x,1/2-y,z
loop_
_atom_site_type_symbol
_atom_site_label
_atom_site_fract_x
_atom_site_fract_y
_atom_site_fract_z
Si Si1 0.097367 0.128523 0.840432
Si Si2 0.971101 0.302163 0.135659
Si Si3 0.353652 0.282551 0.533436
Si Si4 0.159386 0.081450 0.574085
Si Si5 0.559694 0.089858 0.263227
O O1 0.009759 0.210729 0.875103
O O2 0.102142 0.087994 0.727950
O O3 0.294979 0.124840 0.753927
O O4 0.000000 0.095005 0.000000
O O5 0.778959 0.306455 0.297040
O O6 0.066727 0.357122 0.156472
O O7 0.000000 0.325549 0.000000
O O8 0.500000 0.236539 0.500000
O O9 0.250000 0.250000 0.500000
O O10 0.435195 0.355247 0.431134
O O11 0.366029 0.093587 0.430981
O O12 0.121581 0.000000 0.556070
O O13 0.591625 0.000000 0.226177
#
# Coordination Sequence:
#
# PCOD9215222 Si02
#       5
#     8   8   8   8   8
#     4  11  23  37  61  97 129 165 216 270 320 383
#     4  10  24  40  62  94 128 165 212 266 322 385
#     4  11  24  41  66  94 126 168 217 264 317 385
#     4  10  22  41  63  91 125 167 211 261 321 388
#     4  10  23  42  64  89 127 173 217 263 325 392
#
# _framework density 22.212019999999999
#
# number of rings (size 3 to 8) (size 9 to 14) (size 15 to 20)
#    0.000    1.600    2.000    1.200    5.600    8.800 
#    0.000    0.000    0.000    0.000    0.000    0.000 
#    0.000    0.000    0.000    0.000    0.000    0.000 
#
# Total GULP energy -111423.975838 kJ/mol
# GULP energy per Si atom -5571.198792 kJ/mol
# Density = 2.216146 g / cm^3
# Si number density = 22.212020 Si / 1000 Ang^3
#
#
#
# Elastic Constant Matrix: (Units=GPa)
#
#
# Indices 1 2 3 4 5 6 
#
# 1 95.0150 36.3490 35.8760 -0.0001 6.1671 0.0001
# 2 36.3490 127.6666 15.8362 0.0002 9.5798 -0.0001
# 3 35.8760 15.8362 107.8582 -0.0001 32.7405 0.0003
# 4 -0.0001 0.0002 -0.0001 11.1016 0.0001 9.2090
# 5 6.1671 9.5798 32.7405 0.0001 30.2448 -0.0002
# 6 0.0001 -0.0001 0.0003 9.2090 -0.0002 13.8601
#
#
#
# Elastic Compliance Matrix: (Units=1/GPa)
#
#
# Indices 1 2 3 4 5 6 
#
# 1 0.013579 -0.003519 -0.005210 0.000000 0.003986 0.000000
# 2 -0.003519 0.008962 0.000743 0.000000 -0.002925 0.000000
# 3 -0.005210 0.000743 0.015854 0.000002 -0.016335 -0.000002
# 4 0.000000 0.000000 0.000002 0.200688 -0.000003 -0.133343
# 5 0.003986 -0.002925 -0.016335 -0.000003 0.050860 0.000003
# 6 0.000000 0.000000 -0.000002 -0.133343 0.000003 0.160746
#
#
# Mechanical properties :
#
#
# Convention : Reuss Voigt Hill
#
# Bulk Modulus (GPa) = 44.59818 56.29578 50.44698
# Shear Modulus (GPa) = 10.54547 27.20654 18.87601
#
# Velocity S-wave (km/s) = 2.18127 3.50359 2.91831
# Velocity P-wave (km/s) = 5.14450 6.46271 5.84091
#
# Compressibility (1/GPa) = 0.02242244
#
# Stress axis : x y z
#
# Youngs Moduli (GPa) = 73.64080 111.57932 63.07615
#
# Poissons Ratio (x) = 0.39266 0.32862
# Poissons Ratio (y) = 0.25915 -0.04684
# Poissons Ratio (z) = 0.38367 -0.08285
#
# Static dielectric constant tensor:
#      x y z
#    x 1.429270 0.000000 -0.163520 
#    y 0.000000 1.910880 0.000000 
#    z -0.163520 0.000000 1.786410 
# 
# From -- ./inp_files/205916.got.cif
#   From: 2010.05.17/outbox.cif.g08.bks.cpg/sg12_103_cif.got.tgz:205916.got - 2010.06.03 13:09:07.
