data_PCOD9215407
_publ_section_title
;
Structure prediction by ZEFSAII (Michael W. Deem and Ramdas Pophale) SiO2 
 PCOD9215407
Probable space group: C 2/M
;
_chemical_formula_sum "Si O2"
_cell_formula_units_Z 60
_cell_length_a 19.413436
_cell_length_b 12.727030
_cell_length_c 22.599582
_cell_angle_alpha 90.000000
_cell_angle_beta 31.124243
_cell_angle_gamma 90.000000
_cell_volume 2886.241764
_symmetry_space_group_name_H-M "C 2/M"
_symmetry_group_IT_number 12
_symmetry_cell_setting 'monoclinic'
loop_
_space_group_symop_operation_xyz
x,y,z
-x,y,-z
-x,-y,-z
x,-y,z
1/2+x,1/2+y,z
1/2-x,1/2+y,-z
1/2-x,1/2-y,-z
1/2+x,1/2-y,z
loop_
_atom_site_type_symbol
_atom_site_label
_atom_site_fract_x
_atom_site_fract_y
_atom_site_fract_z
Si Si1 0.500000 0.782445 0.000000
Si Si2 0.108028 0.801040 0.091457
Si Si3 0.038283 0.277466 0.328650
Si Si4 0.835581 0.618748 0.564939
Si Si5 0.362412 0.682639 0.628572
Si Si6 0.429299 0.616970 0.318918
Si Si7 0.935038 0.617320 0.170752
Si Si8 0.698378 0.379055 0.900364
O O1 0.490025 0.853649 0.065173
O O2 0.376125 0.702220 0.088017
O O3 0.057046 0.872225 0.182212
O O4 0.000207 0.707548 0.162990
O O5 0.250000 0.750000 0.000000
O O6 0.125963 0.862812 0.016694
O O7 0.111656 0.199900 0.321182
O O8 0.148923 0.340676 0.210519
O O9 0.951776 0.354648 0.432936
O O10 0.944526 0.207500 0.356069
O O11 0.845657 0.500000 0.579933
O O12 0.843910 0.703378 0.610896
O O13 0.698707 0.629453 0.629023
O O14 0.500000 0.637982 0.500000
O O15 0.225209 0.624550 0.715070
O O16 0.423552 0.500000 0.349692
O O17 0.974872 0.500000 0.159289
O O18 0.689230 0.500000 0.888469
#
# Coordination Sequence:
#
# PCOD9215407 Si02
#       8
#     4   8   8   8   8   8   8   8
#     4  10  22  42  56  90 126 160 204 258 302 386
#     4  11  23  43  60  89 127 162 218 269 310 381
#     4  11  22  40  62  98 131 159 212 269 311 387
#     4  10  22  42  68  92 124 170 214 263 327 381
#     4  10  22  41  65  94 132 165 211 266 316 390
#     4  11  23  42  67  91 127 173 210 264 328 381
#     4  11  23  41  65  91 124 172 215 262 322 377
#     4  11  22  37  62  91 123 161 203 258 314 361
#
# _framework density 20.788278999999999
#
# number of rings (size 3 to 8) (size 9 to 14) (size 15 to 20)
#    0.000    1.333    4.000    1.600    0.000    4.800 
#    0.000    2.000    0.000    0.000    0.000    0.000 
#    0.000    0.000    0.000    0.000    0.000    0.000 
#
# Total GULP energy -167616.670120 kJ/mol
# GULP energy per Si atom -5587.222337 kJ/mol
# Density = 2.074096 g / cm^3
# Si number density = 20.788279 Si / 1000 Ang^3
#
#
#
# Elastic Constant Matrix: (Units=GPa)
#
#
# Indices 1 2 3 4 5 6 
#
# 1 46.1154 4.4897 -4.1876 0.0001 -8.9760 0.0000
# 2 4.4897 89.0355 12.1508 0.0001 -2.5310 0.0000
# 3 -4.1876 12.1508 54.5222 0.0002 -17.8083 -0.0001
# 4 0.0001 0.0001 0.0002 17.8003 -0.0001 0.3553
# 5 -8.9760 -2.5310 -17.8083 -0.0001 38.4738 0.0000
# 6 0.0000 0.0000 -0.0001 0.3553 0.0000 12.4651
#
#
#
# Elastic Compliance Matrix: (Units=1/GPa)
#
#
# Indices 1 2 3 4 5 6 
#
# 1 0.023743 -0.001618 0.004664 0.000000 0.007592 0.000000
# 2 -0.001618 0.011703 -0.003068 0.000000 -0.001028 0.000000
# 3 0.004664 -0.003068 0.023176 0.000000 0.011614 0.000000
# 4 0.000000 0.000000 0.000000 0.056211 0.000000 -0.001602
# 5 0.007592 -0.001028 0.011614 0.000000 0.033071 0.000000
# 6 0.000000 0.000000 0.000000 -0.001602 0.000000 0.080270
#
#
# Mechanical properties :
#
#
# Convention : Reuss Voigt Hill
#
# Bulk Modulus (GPa) = 17.07117 23.84209 20.45663
# Shear Modulus (GPa) = 20.18211 25.56252 22.87232
#
# Velocity S-wave (km/s) = 3.11921 3.51046 3.32060
# Velocity P-wave (km/s) = 4.60461 5.28441 4.95618
#
# Compressibility (1/GPa) = 0.05857829
#
# Stress axis : x y z
#
# Youngs Moduli (GPa) = 42.11692 85.45161 43.14721
#
# Poissons Ratio (x) = 0.13826 -0.20123
# Poissons Ratio (y) = 0.06814 0.13237
# Poissons Ratio (z) = -0.19643 0.26216
#
# Static dielectric constant tensor:
#      x y z
#    x 1.737570 0.000000 -0.019110 
#    y 0.000000 1.710980 0.000000 
#    z -0.019110 0.000000 1.748110 
# 
# From -- ./inp_files/347132.got.cif
#   From: 2010.05.17/outbox.cif.g08.bks.cpg/sg12_174_cif.got.tgz:347132.got - 2010.06.03 13:09:07.
