data_PCOD9215752
_publ_section_title
;
Structure prediction by ZEFSAII (Michael W. Deem and Ramdas Pophale) SiO2 
 PCOD9215752
Probable space group: C 2/M
;
_chemical_formula_sum "Si O2"
_cell_formula_units_Z 40
_cell_length_a 27.347690
_cell_length_b 10.993396
_cell_length_c 11.548198
_cell_angle_alpha 90.000000
_cell_angle_beta 148.762375
_cell_angle_gamma 90.000000
_cell_volume 1800.485823
_symmetry_space_group_name_H-M "C 2/M"
_symmetry_group_IT_number 12
_symmetry_cell_setting 'monoclinic'
loop_
_space_group_symop_operation_xyz
x,y,z
-x,y,-z
-x,-y,-z
x,-y,z
1/2+x,1/2+y,z
1/2-x,1/2+y,-z
1/2-x,1/2-y,-z
1/2+x,1/2-y,z
loop_
_atom_site_type_symbol
_atom_site_label
_atom_site_fract_x
_atom_site_fract_y
_atom_site_fract_z
Si Si1 0.784279 0.633645 0.722208
Si Si2 0.028740 0.133657 0.693069
Si Si3 0.070316 0.635675 0.389763
Si Si4 0.102130 0.778700 0.229835
Si Si5 0.738035 0.712207 0.108148
O O1 0.823454 0.500000 0.787144
O O2 0.850956 0.729591 0.792391
O O3 0.681969 0.642448 0.454222
O O4 0.771755 0.669942 0.829590
O O5 0.000000 0.144063 0.500000
O O6 0.987658 0.250544 0.675966
O O7 0.995548 0.000000 0.668228
O O8 0.141390 0.139626 0.926643
O O9 0.030867 0.500000 0.326608
O O10 0.085369 0.666739 0.285075
O O11 0.171220 0.643196 0.658396
O O12 0.000000 0.835378 0.000000
O O13 0.750000 0.750000 0.000000
#
# Coordination Sequence:
#
# PCOD9215752 Si02
#       5
#     8   8   8   8   8
#     4  10  23  41  66  97 129 171 223 272 327 395
#     4  11  24  43  64  93 132 173 218 268 324 389
#     4  11  24  42  67  99 132 171 221 272 330 394
#     4  10  22  42  64  94 132 169 215 274 332 390
#     4  11  23  43  64  95 131 176 216 271 327 394
#
# _framework density 22.216227
#
# number of rings (size 3 to 8) (size 9 to 14) (size 15 to 20)
#    0.000    1.400    2.000    2.400    0.000    9.600 
#    0.000    7.000    0.000    0.000    0.000    0.000 
#    0.000    0.000    0.000    0.000    0.000    0.000 
#
# Total GULP energy -111836.441181 kJ/mol
# GULP energy per Si atom -5591.822059 kJ/mol
# Density = 2.216566 g / cm^3
# Si number density = 22.216227 Si / 1000 Ang^3
#
#
#
# Elastic Constant Matrix: (Units=GPa)
#
#
# Indices 1 2 3 4 5 6 
#
# 1 115.2598 36.8941 30.2171 0.0000 -13.4582 0.0000
# 2 36.8941 127.6727 10.0353 0.0000 7.2569 0.0000
# 3 30.2171 10.0353 144.8184 0.0000 13.7481 0.0000
# 4 0.0000 0.0000 0.0000 -4.4248 0.0000 12.3168
# 5 -13.4582 7.2569 13.7481 0.0000 41.7945 0.0000
# 6 0.0000 0.0000 0.0000 12.3168 0.0000 16.8410
#
#
#
# Elastic Compliance Matrix: (Units=1/GPa)
#
#
# Indices 1 2 3 4 5 6 
#
# 1 0.010952 -0.003246 -0.002528 0.000000 0.004922 0.000000
# 2 -0.003246 0.008899 0.000316 0.000000 -0.002694 0.000000
# 3 -0.002528 0.000316 0.007735 0.000000 -0.003413 0.000000
# 4 0.000000 0.000000 0.000000 -0.074445 0.000000 0.054446
# 5 0.004922 -0.002694 -0.003413 0.000000 0.027102 0.000000
# 6 0.000000 0.000000 0.000000 0.054446 0.000000 0.019560
#
#
# Mechanical properties :
#
#
# Convention : Reuss Voigt Hill
#
# Bulk Modulus (GPa) = 59.98238 60.22712 60.10475
# Shear Modulus (GPa) = 307.22520 31.54909 169.38715
#
# Velocity S-wave (km/s) = 11.77238 3.77250 8.74130
# Velocity P-wave (km/s) = 14.55483 6.79294 11.35753
#
# Compressibility (1/GPa) = 0.01667156
#
# Stress axis : x y z
#
# Youngs Moduli (GPa) = 91.30386 112.37429 129.28775
#
# Poissons Ratio (x) = 0.36477 0.32679
# Poissons Ratio (y) = 0.29638 -0.04091
# Poissons Ratio (z) = 0.23078 -0.03556
#
# Static dielectric constant tensor:
#      x y z
#    x 1.792770 0.000000 0.020000 
#    y 0.000000 1.805410 0.000000 
#    z 0.020000 0.000000 1.834910 
# 
# From -- ./inp_files/140383.got.cif
#   From: 2010.05.17/outbox.cif.g08.bks.cpg/sg12_71_cif.got.tgz:140383.got - 2010.06.03 13:09:07.
