data_PCOD9215845
_publ_section_title
;
Structure prediction by ZEFSAII (Michael W. Deem and Ramdas Pophale) SiO2 
 PCOD9215845
Probable space group: C 2/M
;
_chemical_formula_sum "Si O2"
_cell_formula_units_Z 32
_cell_length_a 7.405481
_cell_length_b 13.907941
_cell_length_c 17.588256
_cell_angle_alpha 90.000000
_cell_angle_beta 135.834588
_cell_angle_gamma 90.000000
_cell_volume 1262.131974
_symmetry_space_group_name_H-M "C 2/M"
_symmetry_group_IT_number 12
_symmetry_cell_setting 'monoclinic'
loop_
_space_group_symop_operation_xyz
x,y,z
-x,y,-z
-x,-y,-z
x,-y,z
1/2+x,1/2+y,z
1/2-x,1/2+y,-z
1/2-x,1/2-y,-z
1/2+x,1/2-y,z
loop_
_atom_site_type_symbol
_atom_site_label
_atom_site_fract_x
_atom_site_fract_y
_atom_site_fract_z
Si Si1 0.721628 0.383014 0.509827
Si Si2 0.795802 0.885708 0.670225
Si Si3 0.657468 0.182225 0.126851
Si Si4 0.242549 0.605557 0.871395
O O1 0.500000 0.348457 0.500000
O O2 0.711987 0.500000 0.509153
O O3 0.673960 0.353125 0.408389
O O4 0.016580 0.353489 0.617124
O O5 0.059938 0.862834 0.792504
O O6 0.775211 0.000000 0.659437
O O7 0.703746 0.295242 0.155967
O O8 0.494951 0.130471 0.143850
O O9 0.500000 0.173727 0.000000
O O10 0.198256 0.500000 0.821026
O O11 0.500000 0.596294 0.000000
#
# Coordination Sequence:
#
# PCOD9215845 Si02
#       4
#     8   8   8   8
#     4   8  15  33  59  92 132 177 236 294 342 404
#     4   9  18  33  60  98 137 180 231 285 347 417
#     4  11  22  41  65  99 143 178 224 281 344 422
#     4  10  22  42  66  94 134 186 236 280 331 405
#
# _framework density 25.353925
#
# number of rings (size 3 to 8) (size 9 to 14) (size 15 to 20)
#    0.000    2.500    0.000    5.250    0.000    2.000 
#    9.000    2.500    0.000    6.750    0.000    3.500 
#    0.000    1.000    0.000    0.000    0.000    0.000 
#
# Total GULP energy -89549.785741 kJ/mol
# GULP energy per Si atom -5596.861609 kJ/mol
# Density = 2.529622 g / cm^3
# Si number density = 25.353925 Si / 1000 Ang^3
#
#
#
# Elastic Constant Matrix: (Units=GPa)
#
#
# Indices 1 2 3 4 5 6 
#
# 1 205.2351 23.7054 84.0247 -0.0001 48.8419 0.0000
# 2 23.7054 136.0267 10.3227 0.0000 19.3340 0.0000
# 3 84.0247 10.3227 156.3480 -0.0006 25.6537 0.0004
# 4 -0.0001 0.0000 -0.0006 58.8833 -0.0003 -20.1975
# 5 48.8419 19.3340 25.6537 -0.0003 37.5330 0.0002
# 6 0.0000 0.0000 0.0004 -20.1975 0.0002 56.1479
#
#
#
# Elastic Compliance Matrix: (Units=1/GPa)
#
#
# Indices 1 2 3 4 5 6 
#
# 1 0.008117 0.000026 -0.002961 0.000000 -0.008552 0.000000
# 2 0.000026 0.007936 0.000156 0.000000 -0.004228 0.000000
# 3 -0.002961 0.000156 0.008287 0.000000 -0.001892 0.000000
# 4 0.000000 0.000000 0.000000 0.019373 0.000000 0.006969
# 5 -0.008552 -0.004228 -0.001892 0.000000 0.041243 0.000000
# 6 0.000000 0.000000 0.000000 0.006969 0.000000 0.020317
#
#
# Mechanical properties :
#
#
# Convention : Reuss Voigt Hill
#
# Bulk Modulus (GPa) = 53.24150 81.52391 67.38271
# Shear Modulus (GPa) = 42.70134 55.81663 49.25899
#
# Velocity S-wave (km/s) = 4.10837 4.69710 4.41256
# Velocity P-wave (km/s) = 6.59923 7.85119 7.25228
#
# Compressibility (1/GPa) = 0.01878234
#
# Stress axis : x y z
#
# Youngs Moduli (GPa) = 123.20075 126.00574 120.66767
#
# Poissons Ratio (x) = -0.00324 0.35725
# Poissons Ratio (y) = -0.00317 -0.01882
# Poissons Ratio (z) = 0.36475 -0.01965
#
# Static dielectric constant tensor:
#      x y z
#    x 2.033880 0.000000 -0.067900 
#    y 0.000000 2.036630 0.000000 
#    z -0.067900 0.000000 1.956410 
# 
# From -- ./inp_files/193890.got.cif
#   From: 2010.05.17/outbox.cif.g08.bks.cpg/sg12_97_cif.got.tgz:193890.got - 2010.06.03 13:09:07.
