data_PCOD9215012
_publ_section_title
;
Structure prediction by ZEFSAII (Michael W. Deem and Ramdas Pophale) SiO2 
 PCOD9215012
Probable space group: C 2/M
;
_chemical_formula_sum "Si O2"
_cell_formula_units_Z 44
_cell_length_a 17.310660
_cell_length_b 23.084388
_cell_length_c 9.090944
_cell_angle_alpha 90.000000
_cell_angle_beta 142.296814
_cell_angle_gamma 90.000000
_cell_volume 2221.712627
_symmetry_space_group_name_H-M "C 2/M"
_symmetry_group_IT_number 12
_symmetry_cell_setting 'monoclinic'
loop_
_space_group_symop_operation_xyz
x,y,z
-x,y,-z
-x,-y,-z
x,-y,z
1/2+x,1/2+y,z
1/2-x,1/2+y,-z
1/2-x,1/2-y,-z
1/2+x,1/2-y,z
loop_
_atom_site_type_symbol
_atom_site_label
_atom_site_fract_x
_atom_site_fract_y
_atom_site_fract_z
Si Si1 0.058540 0.811133 0.429173
Si Si2 0.875852 0.000000 0.407384
Si Si3 0.500000 0.870075 0.000000
Si Si4 0.222496 0.385164 0.123750
Si Si5 0.828657 0.297099 0.524612
Si Si6 0.568074 0.500000 0.948300
Si Si7 0.680316 0.626743 0.057926
O O1 0.196366 0.839455 0.657142
O O2 0.074112 0.743928 0.416770
O O3 0.000000 0.819192 0.500000
O O4 0.958171 0.843493 0.173456
O O5 0.798169 0.944086 0.252949
O O6 0.000000 0.000000 0.500000
O O7 0.939886 0.000000 0.660064
O O8 0.409681 0.896988 0.991657
O O9 0.405768 0.833970 0.756849
O O10 0.238051 0.368413 0.972940
O O11 0.750000 0.250000 0.500000
O O12 0.749595 0.338058 0.293897
O O13 0.500000 0.500000 0.000000
O O14 0.649897 0.558735 0.043880
#
# Coordination Sequence:
#
# PCOD9215012 Si02
#       7
#     8   4   4   8   8   4   8
#     4  10  22  40  68 100 129 178 230 284 346 405
#     4  12  20  47  75 102 137 181 227 299 355 403
#     4  12  28  43  62  98 140 187 224 278 354 422
#     4  11  23  44  69 101 139 180 227 281 358 415
#     4  12  26  44  66  96 147 183 229 288 341 421
#     4  12  26  40  75 110 136 165 235 302 340 403
#     4  11  25  44  73 104 134 180 236 294 347 410
#
# _framework density 19.804541
#
# number of rings (size 3 to 8) (size 9 to 14) (size 15 to 20)
#    0.000    0.727    5.455    1.636    7.636    1.818 
#    0.000    0.909    0.000    2.182    0.000    0.000 
#    0.000    0.000    0.000    0.000    0.000    0.000 
#
# Total GULP energy -122550.008087 kJ/mol
# GULP energy per Si atom -5570.454913 kJ/mol
# Density = 1.975947 g / cm^3
# Si number density = 19.804541 Si / 1000 Ang^3
#
#
#
# Elastic Constant Matrix: (Units=GPa)
#
#
# Indices 1 2 3 4 5 6 
#
# 1 117.6713 34.9619 57.0643 0.0000 13.6736 0.0000
# 2 34.9619 110.1475 55.2882 0.0000 -8.2756 0.0000
# 3 57.0643 55.2882 130.1970 0.0000 -28.6536 0.0000
# 4 0.0000 0.0000 0.0000 27.0273 0.0000 -6.1482
# 5 13.6736 -8.2756 -28.6536 0.0000 31.9756 0.0000
# 6 0.0000 0.0000 0.0000 -6.1482 0.0000 19.3304
#
#
#
# Elastic Compliance Matrix: (Units=1/GPa)
#
#
# Indices 1 2 3 4 5 6 
#
# 1 0.015308 -0.001201 -0.009602 0.000000 -0.015462 0.000000
# 2 -0.001201 0.011711 -0.004568 0.000000 -0.000549 0.000000
# 3 -0.009602 -0.004568 0.018028 0.000000 0.019079 0.000000
# 4 0.000000 0.000000 0.000000 0.039885 0.000000 0.012686
# 5 -0.015462 -0.000549 0.019079 0.000000 0.054841 0.000000
# 6 0.000000 0.000000 0.000000 0.012686 0.000000 0.055767
#
#
# Mechanical properties :
#
#
# Convention : Reuss Voigt Hill
#
# Bulk Modulus (GPa) = 69.90162 72.51606 71.20884
# Shear Modulus (GPa) = 21.64024 29.71343 25.67684
#
# Velocity S-wave (km/s) = 3.30917 3.87762 3.60462
# Velocity P-wave (km/s) = 7.06917 7.53281 7.30467
#
# Compressibility (1/GPa) = 0.01430582
#
# Stress axis : x y z
#
# Youngs Moduli (GPa) = 65.32356 85.38683 55.46948
#
# Poissons Ratio (x) = 0.10253 0.53264
# Poissons Ratio (y) = 0.07844 0.25337
# Poissons Ratio (z) = 0.62727 0.39002
#
# Static dielectric constant tensor:
#      x y z
#    x 1.830200 0.000000 0.007260 
#    y 0.000000 1.668340 0.000000 
#    z 0.007260 0.000000 1.688820 
# 
# From -- ./inp_files/79224.got.cif
#   From: 2010.05.17/outbox.cif.g08.bks.cpg/sg12_40_cif.got.tgz:79224.got - 2010.06.03 13:09:07.
