data_PCOD9215167
_publ_section_title
;
Structure prediction by ZEFSAII (Michael W. Deem and Ramdas Pophale) SiO2 
 PCOD9215167
Probable space group: C 2/M
;
_chemical_formula_sum "Si O2"
_cell_formula_units_Z 48
_cell_length_a 26.584207
_cell_length_b 8.834439
_cell_length_c 15.254569
_cell_angle_alpha 90.000000
_cell_angle_beta 40.769610
_cell_angle_gamma 90.000000
_cell_volume 2339.529060
_symmetry_space_group_name_H-M "C 2/M"
_symmetry_group_IT_number 12
_symmetry_cell_setting 'monoclinic'
loop_
_space_group_symop_operation_xyz
x,y,z
-x,y,-z
-x,-y,-z
x,-y,z
1/2+x,1/2+y,z
1/2-x,1/2+y,-z
1/2-x,1/2-y,-z
1/2+x,1/2-y,z
loop_
_atom_site_type_symbol
_atom_site_label
_atom_site_fract_x
_atom_site_fract_y
_atom_site_fract_z
Si Si1 0.980322 0.678866 0.753212
Si Si2 0.741753 0.680576 0.238759
Si Si3 0.065485 0.818465 0.483249
Si Si4 0.783816 0.824150 0.368098
Si Si5 0.968140 0.824052 0.135887
Si Si6 0.183978 0.180103 0.026154
O O1 0.972569 0.500000 0.755962
O O2 0.899450 0.757968 0.837083
O O3 0.045204 0.739250 0.601312
O O4 0.001658 0.726929 0.823401
O O5 0.752756 0.500000 0.215684
O O6 0.651926 0.716072 0.338042
O O7 0.758457 0.734198 0.315158
O O8 0.796228 0.766127 0.098446
O O9 0.000000 0.774147 0.500000
O O10 0.061179 0.000000 0.501379
O O11 0.750000 0.750000 0.500000
O O12 0.876090 0.819788 0.253549
O O13 0.759773 0.000000 0.392642
O O14 0.992537 0.000000 0.116902
O O15 0.000000 0.773116 0.000000
O O16 0.184804 0.000000 0.031507
O O17 0.250000 0.250000 0.000000
#
# Coordination Sequence:
#
# PCOD9215167 Si02
#       6
#     8   8   8   8   8   8
#     4  12  25  40  63  94 126 161 204 254 306 364
#     4  11  23  40  64  94 126 162 207 257 312 372
#     4  10  22  41  64  89 122 164 205 250 305 364
#     4  11  23  39  61  89 123 164 207 255 311 368
#     4  10  22  41  63  86 116 159 207 253 305 362
#     4  12  25  43  66  92 126 164 205 253 306 366
#
# _framework density 20.516947999999999
#
# number of rings (size 3 to 8) (size 9 to 14) (size 15 to 20)
#    0.000    1.000    0.000    7.000    0.000   10.000 
#    0.000    0.000    0.000    0.000    0.000    0.000 
#    0.000    0.000    0.000    0.000    0.000    0.000 
#
# Total GULP energy -134388.530387 kJ/mol
# GULP energy per Si atom -5599.522099 kJ/mol
# Density = 2.047025 g / cm^3
# Si number density = 20.516948 Si / 1000 Ang^3
#
#
#
# Elastic Constant Matrix: (Units=GPa)
#
#
# Indices 1 2 3 4 5 6 
#
# 1 46.6867 5.1783 -18.1597 0.0003 2.8760 -0.0001
# 2 5.1783 77.2720 17.9561 0.0006 -4.6623 -0.0003
# 3 -18.1597 17.9561 74.1040 0.0006 9.3484 -0.0003
# 4 0.0003 0.0006 0.0006 21.3635 -0.0001 0.2693
# 5 2.8760 -4.6623 9.3484 -0.0001 36.6635 0.0001
# 6 -0.0001 -0.0003 -0.0003 0.2693 0.0001 35.6791
#
#
#
# Elastic Compliance Matrix: (Units=1/GPa)
#
#
# Indices 1 2 3 4 5 6 
#
# 1 0.025051 -0.003706 0.007588 0.000000 -0.004371 0.000000
# 2 -0.003706 0.014521 -0.004852 0.000000 0.003374 0.000000
# 3 0.007588 -0.004852 0.017237 0.000000 -0.005607 0.000000
# 4 0.000000 0.000000 0.000000 0.046813 0.000000 -0.000353
# 5 -0.004371 0.003374 -0.005607 0.000000 0.029477 0.000000
# 6 0.000000 0.000000 0.000000 -0.000353 0.000000 0.028030
#
#
# Mechanical properties :
#
#
# Convention : Reuss Voigt Hill
#
# Bulk Modulus (GPa) = 18.22499 23.11247 20.66873
# Shear Modulus (GPa) = 27.56957 31.61377 29.59167
#
# Velocity S-wave (km/s) = 3.66969 3.92964 3.80189
# Velocity P-wave (km/s) = 5.18244 5.64614 5.41925
#
# Compressibility (1/GPa) = 0.05486971
#
# Stress axis : x y z
#
# Youngs Moduli (GPa) = 39.91803 68.86663 58.01372
#
# Poissons Ratio (x) = 0.25521 -0.44023
# Poissons Ratio (y) = 0.14793 0.28150
# Poissons Ratio (z) = -0.30291 0.33417
#
# Static dielectric constant tensor:
#      x y z
#    x 1.718280 0.000000 0.000920 
#    y 0.000000 1.691960 0.000000 
#    z 0.000920 0.000000 1.700870 
# 
# From -- ./inp_files/244606.got.cif
#   From: 2010.05.17/outbox.cif.g08.bks.cpg/sg12_123_cif.got.tgz:244606.got - 2010.06.03 13:09:07.
