data_PCOD9215447
_publ_section_title
;
Structure prediction by ZEFSAII (Michael W. Deem and Ramdas Pophale) SiO2 
 PCOD9215447
Probable space group: C 2/M
;
_chemical_formula_sum "Si O2"
_cell_formula_units_Z 48
_cell_length_a 31.969007
_cell_length_b 9.028623
_cell_length_c 7.609974
_cell_angle_alpha 90.000000
_cell_angle_beta 72.541451
_cell_angle_gamma 90.000000
_cell_volume 2095.329271
_symmetry_space_group_name_H-M "C 2/M"
_symmetry_group_IT_number 12
_symmetry_cell_setting 'monoclinic'
loop_
_space_group_symop_operation_xyz
x,y,z
-x,y,-z
-x,-y,-z
x,-y,z
1/2+x,1/2+y,z
1/2-x,1/2+y,-z
1/2-x,1/2-y,-z
1/2+x,1/2-y,z
loop_
_atom_site_type_symbol
_atom_site_label
_atom_site_fract_x
_atom_site_fract_y
_atom_site_fract_z
Si Si1 0.341162 0.676180 0.960328
Si Si2 0.213791 0.651235 0.712257
Si Si3 0.984037 0.165967 0.218399
Si Si4 0.600616 0.829566 0.573676
Si Si5 0.691379 0.744384 0.371632
Si Si6 0.070604 0.668482 0.207585
O O1 0.341649 0.500000 0.920062
O O2 0.310316 0.713002 0.164151
O O3 0.321336 0.766304 0.816953
O O4 0.390352 0.736208 0.929543
O O5 0.192412 0.500000 0.807999
O O6 0.264813 0.648766 0.697436
O O7 0.209372 0.652772 0.507315
O O8 0.939525 0.259252 0.273444
O O9 0.023651 0.252977 0.260018
O O10 0.977131 0.000000 0.300810
O O11 0.000000 0.152229 0.000000
O O12 0.642782 0.721205 0.514449
O O13 0.584110 0.838529 0.394259
O O14 0.611711 0.000000 0.612373
O O15 0.068390 0.500000 0.140899
#
# Coordination Sequence:
#
# PCOD9215447 Si02
#       6
#     8   8   8   8   8   8
#     4  11  24  42  68 100 137 178 221 276 337 396
#     4  11  24  42  68 100 135 178 227 278 334 396
#     4  11  25  41  60  93 130 165 207 261 323 387
#     4  10  22  41  66  92 122 165 215 266 321 387
#     4  10  24  43  65  97 134 175 224 273 330 396
#     4  10  22  42  66  93 125 166 216 264 319 390
#
# _framework density 22.908092
#
# number of rings (size 3 to 8) (size 9 to 14) (size 15 to 20)
#    0.000    1.500    0.000    3.500    2.333   13.333 
#    0.000    0.000    0.000    0.000    0.000    0.000 
#    0.000    0.000    0.000    0.000    0.000    0.000 
#
# Total GULP energy -133664.567189 kJ/mol
# GULP energy per Si atom -5569.356966 kJ/mol
# Density = 2.285595 g / cm^3
# Si number density = 22.908092 Si / 1000 Ang^3
#
#
#
# Elastic Constant Matrix: (Units=GPa)
#
#
# Indices 1 2 3 4 5 6 
#
# 1 121.6661 27.4852 26.7355 0.0000 -7.2218 0.0000
# 2 27.4852 67.4215 32.3892 0.0000 -13.9694 0.0000
# 3 26.7355 32.3892 64.0751 0.0000 -8.3099 0.0000
# 4 0.0000 0.0000 0.0000 -205.8428 0.0000 -86.0968
# 5 -7.2218 -13.9694 -8.3099 0.0000 44.4755 0.0000
# 6 0.0000 0.0000 0.0000 -86.0968 0.0000 -42.1432
#
#
#
# Elastic Compliance Matrix: (Units=1/GPa)
#
#
# Indices 1 2 3 4 5 6 
#
# 1 0.009376 -0.002519 -0.002607 0.000000 0.000244 0.000000
# 2 -0.002519 0.021148 -0.009050 0.000000 0.004542 0.000000
# 3 -0.002607 -0.009050 0.021363 0.000000 0.000726 0.000000
# 4 0.000000 0.000000 0.000000 -0.033388 0.000000 0.068211
# 5 0.000244 0.004542 0.000726 0.000000 0.024086 0.000000
# 6 0.000000 0.000000 0.000000 0.068211 0.000000 -0.163081
#
#
# Mechanical properties :
#
#
# Convention : Reuss Voigt Hill
#
# Bulk Modulus (GPa) = 42.49023 47.37584 44.93303
# Shear Modulus (GPa) = -59.31203 -29.59858 -44.45531
#
# Velocity S-wave (km/s) = -5.09387 -3.59842 -4.41000
# Velocity P-wave (km/s) = 4.00103 1.86035 2.50473
#
# Compressibility (1/GPa) = 0.02353482
#
# Stress axis : x y z
#
# Youngs Moduli (GPa) = 106.65914 47.28658 46.80977
#
# Poissons Ratio (x) = 0.11912 0.12203
# Poissons Ratio (y) = 0.26869 0.42361
# Poissons Ratio (z) = 0.27806 0.42793
#
# Static dielectric constant tensor:
#      x y z
#    x 1.846830 0.000000 0.029350 
#    y 0.000000 1.705130 0.000000 
#    z 0.029350 0.000000 1.852560 
# 
# From -- ./inp_files/108672.got.cif
#   From: 2010.05.17/outbox.cif.g08.bks.cpg/sg12_55_cif.got.tgz:108672.got - 2010.06.03 13:09:07.
