data_PCOD9215634
_publ_section_title
;
Structure prediction by ZEFSAII (Michael W. Deem and Ramdas Pophale) SiO2 
 PCOD9215634
Probable space group: C 2/M
;
_chemical_formula_sum "Si O2"
_cell_formula_units_Z 32
_cell_length_a 5.328622
_cell_length_b 26.214842
_cell_length_c 13.050790
_cell_angle_alpha 90.000000
_cell_angle_beta 130.578890
_cell_angle_gamma 90.000000
_cell_volume 1384.627787
_symmetry_space_group_name_H-M "C 2/M"
_symmetry_group_IT_number 12
_symmetry_cell_setting 'monoclinic'
loop_
_space_group_symop_operation_xyz
x,y,z
-x,y,-z
-x,-y,-z
x,-y,z
1/2+x,1/2+y,z
1/2-x,1/2+y,-z
1/2-x,1/2-y,-z
1/2+x,1/2-y,z
loop_
_atom_site_type_symbol
_atom_site_label
_atom_site_fract_x
_atom_site_fract_y
_atom_site_fract_z
Si Si1 0.874070 0.623051 0.356552
Si Si2 0.130873 0.718106 0.334162
Si Si3 0.862981 0.340394 0.852857
Si Si4 0.347419 0.942926 0.151786
O O1 0.535333 0.656780 0.263905
O O2 0.822581 0.578037 0.261132
O O3 0.000000 0.604940 0.500000
O O4 0.151983 0.663110 0.393238
O O5 0.438797 0.747395 0.365527
O O6 0.968047 0.698046 0.183765
O O7 0.045554 0.398689 0.147675
O O8 0.000000 0.327431 0.000000
O O9 0.488708 0.000000 0.186024
O O10 0.000000 0.944155 0.000000
#
# Coordination Sequence:
#
# PCOD9215634 Si02
#       4
#     8   8   8   8
#     4  11  25  45  68 100 142 182 229 289 347 409
#     4  11  24  45  69 102 139 187 236 286 345 412
#     4  11  23  43  69 100 138 182 232 289 343 414
#     4  10  22  41  70 104 137 181 231 285 347 416
#
# _framework density 23.110900999999998
#
# number of rings (size 3 to 8) (size 9 to 14) (size 15 to 20)
#    0.000    1.250    5.000    0.000    0.000    8.000 
#    0.000    1.250    0.000    0.000    0.000    0.000 
#    0.000    0.000    0.000    0.000    0.000    0.000 
#
# Total GULP energy -89241.223656 kJ/mol
# GULP energy per Si atom -5577.576478 kJ/mol
# Density = 2.305830 g / cm^3
# Si number density = 23.110901 Si / 1000 Ang^3
#
#
#
# Elastic Constant Matrix: (Units=GPa)
#
#
# Indices 1 2 3 4 5 6 
#
# 1 114.8982 41.5100 45.0522 0.0000 -4.4191 0.0000
# 2 41.5100 105.7156 38.7633 0.0000 -3.3682 0.0000
# 3 45.0522 38.7633 157.0107 0.0000 -17.1485 0.0000
# 4 0.0000 0.0000 0.0000 2.6016 0.0000 -1.3680
# 5 -4.4191 -3.3682 -17.1485 0.0000 39.8654 0.0000
# 6 0.0000 0.0000 0.0000 -1.3680 0.0000 33.4298
#
#
#
# Elastic Compliance Matrix: (Units=1/GPa)
#
#
# Indices 1 2 3 4 5 6 
#
# 1 0.010827 -0.003421 -0.002269 0.000000 -0.000065 0.000000
# 2 -0.003421 0.011484 -0.001877 0.000000 -0.000216 0.000000
# 3 -0.002269 -0.001877 0.007805 0.000000 0.002947 0.000000
# 4 0.000000 0.000000 0.000000 0.392835 0.000000 0.016075
# 5 -0.000065 -0.000216 0.002947 0.000000 0.026327 0.000000
# 6 0.000000 0.000000 0.000000 0.016075 0.000000 0.030571
#
#
# Mechanical properties :
#
#
# Convention : Reuss Voigt Hill
#
# Bulk Modulus (GPa) = 66.75000 69.80840 68.27920
# Shear Modulus (GPa) = 10.00045 31.99928 20.99987
#
# Velocity S-wave (km/s) = 2.08244 3.72505 3.01766
# Velocity P-wave (km/s) = 5.89298 6.98375 6.46142
#
# Compressibility (1/GPa) = 0.01498127
#
# Stress axis : x y z
#
# Youngs Moduli (GPa) = 92.36563 87.07671 128.11606
#
# Poissons Ratio (x) = 0.29791 0.29069
# Poissons Ratio (y) = 0.31600 0.24050
# Poissons Ratio (z) = 0.20958 0.16346
#
# Static dielectric constant tensor:
#      x y z
#    x 2.008830 0.000000 0.047320 
#    y 0.000000 1.845980 0.000000 
#    z 0.047320 0.000000 1.631510 
# 
# From -- ./inp_files/115351.got.cif
#   From: 2010.05.17/outbox.cif.g08.bks.cpg/sg12_58_cif.got.tgz:115351.got - 2010.06.03 13:09:07.
