data_PCOD9215973
_publ_section_title
;
Structure prediction by ZEFSAII (Michael W. Deem and Ramdas Pophale) SiO2 
 PCOD9215973
Probable space group: C 2/M
;
_chemical_formula_sum "Si O2"
_cell_formula_units_Z 40
_cell_length_a 11.627083
_cell_length_b 14.391293
_cell_length_c 10.980957
_cell_angle_alpha 90.000000
_cell_angle_beta 100.484721
_cell_angle_gamma 90.000000
_cell_volume 1806.751194
_symmetry_space_group_name_H-M "C 2/M"
_symmetry_group_IT_number 12
_symmetry_cell_setting 'monoclinic'
loop_
_space_group_symop_operation_xyz
x,y,z
-x,y,-z
-x,-y,-z
x,-y,z
1/2+x,1/2+y,z
1/2-x,1/2+y,-z
1/2-x,1/2-y,-z
1/2+x,1/2-y,z
loop_
_atom_site_type_symbol
_atom_site_label
_atom_site_fract_x
_atom_site_fract_y
_atom_site_fract_z
Si Si1 0.271631 0.603852 0.050358
Si Si2 0.188734 0.285546 0.612733
Si Si3 0.598700 0.500000 0.415920
Si Si4 0.133892 0.762569 0.130684
Si Si5 0.139183 0.500000 0.556680
Si Si6 0.035673 0.160002 0.731140
O O1 0.236348 0.500000 0.014727
O O2 0.163676 0.670408 0.061911
O O3 0.358972 0.605541 0.183283
O O4 0.339916 0.650333 0.951135
O O5 0.250000 0.250000 0.500000
O O6 0.275312 0.266011 0.740977
O O7 0.153564 0.394344 0.610877
O O8 0.080100 0.219426 0.626245
O O9 0.500000 0.500000 0.500000
O O10 0.732217 0.500000 0.489987
O O11 0.566712 0.589835 0.328459
O O12 0.010623 0.771126 0.172781
O O13 0.000000 0.500000 0.500000
#
# Coordination Sequence:
#
# PCOD9215973 Si02
#       6
#     8   8   4   8   4   8
#     4  10  22  42  69 101 132 178 236 296 355 425
#     4  11  26  46  66 100 143 188 235 291 354 431
#     4  12  24  44  70 106 140 188 246 296 355 428
#     4  10  23  41  68  97 142 176 229 294 361 416
#     4  12  28  44  67 101 138 195 231 285 365 421
#     4  11  23  42  69 100 136 183 234 300 349 422
#
# _framework density 22.139185000000001
#
# number of rings (size 3 to 8) (size 9 to 14) (size 15 to 20)
#    0.000    1.200    3.000    1.800    5.600    0.800 
#    3.600    0.000    0.000    3.600    0.000    0.000 
#    0.000    0.000    0.000    0.000    0.000    0.000 
#
# Total GULP energy -111561.698989 kJ/mol
# GULP energy per Si atom -5578.084949 kJ/mol
# Density = 2.208879 g / cm^3
# Si number density = 22.139185 Si / 1000 Ang^3
#
#
#
# Elastic Constant Matrix: (Units=GPa)
#
#
# Indices 1 2 3 4 5 6 
#
# 1 105.4133 37.9011 26.6532 0.0000 -18.8312 0.0000
# 2 37.9011 157.2506 43.3391 0.0000 -17.0812 0.0000
# 3 26.6532 43.3391 101.5124 0.0000 -17.0554 0.0000
# 4 0.0000 0.0000 0.0000 19.7113 0.0000 0.4043
# 5 -18.8312 -17.0812 -17.0554 0.0000 47.3728 0.0000
# 6 0.0000 0.0000 0.0000 0.4043 0.0000 14.3303
#
#
#
# Elastic Compliance Matrix: (Units=1/GPa)
#
#
# Indices 1 2 3 4 5 6 
#
# 1 0.011137 -0.001905 -0.001578 0.000000 0.003172 0.000000
# 2 -0.001905 0.007647 -0.002585 0.000000 0.001069 0.000000
# 3 -0.001578 -0.002585 0.011822 0.000000 0.002697 0.000000
# 4 0.000000 0.000000 0.000000 0.050762 0.000000 -0.001432
# 5 0.003172 0.001069 0.002697 0.000000 0.023727 0.000000
# 6 0.000000 0.000000 0.000000 -0.001432 0.000000 0.069823
#
#
# Mechanical properties :
#
#
# Convention : Reuss Voigt Hill
#
# Bulk Modulus (GPa) = 54.14007 64.44034 59.29021
# Shear Modulus (GPa) = 25.87869 33.36842 29.62355
#
# Velocity S-wave (km/s) = 3.42264 3.88649 3.66192
# Velocity P-wave (km/s) = 6.33457 7.02210 6.68718
#
# Compressibility (1/GPa) = 0.01847061
#
# Stress axis : x y z
#
# Youngs Moduli (GPa) = 89.79080 130.77065 84.58780
#
# Poissons Ratio (x) = 0.24909 0.13347
# Poissons Ratio (y) = 0.17104 0.21865
# Poissons Ratio (z) = 0.14168 0.33804
#
# Static dielectric constant tensor:
#      x y z
#    x 1.902810 0.000000 0.004170 
#    y 0.000000 1.908790 0.000000 
#    z 0.004170 0.000000 1.808140 
# 
# From -- ./inp_files/129256.got.cif
#   From: 2010.05.17/outbox.cif.g08.bks.cpg/sg12_65_cif.got.tgz:129256.got - 2010.06.03 13:09:07.
