data_PCOD9215120
_publ_section_title
;
Structure prediction by ZEFSAII (Michael W. Deem and Ramdas Pophale) SiO2 
 PCOD9215120
Probable space group: C 2/M
;
_chemical_formula_sum "Si O2"
_cell_formula_units_Z 42
_cell_length_a 9.990852
_cell_length_b 18.187512
_cell_length_c 13.899552
_cell_angle_alpha 90.000000
_cell_angle_beta 111.063019
_cell_angle_gamma 90.000000
_cell_volume 2356.919202
_symmetry_space_group_name_H-M "C 2/M"
_symmetry_group_IT_number 12
_symmetry_cell_setting 'monoclinic'
loop_
_space_group_symop_operation_xyz
x,y,z
-x,y,-z
-x,-y,-z
x,-y,z
1/2+x,1/2+y,z
1/2-x,1/2+y,-z
1/2-x,1/2-y,-z
1/2+x,1/2-y,z
loop_
_atom_site_type_symbol
_atom_site_label
_atom_site_fract_x
_atom_site_fract_y
_atom_site_fract_z
Si Si1 0.244492 0.320841 0.802176
Si Si2 0.942316 0.820841 0.197825
Si Si3 0.640874 0.913246 0.596302
Si Si4 0.777816 0.918795 0.000000
Si Si5 0.455428 0.586754 0.596302
Si Si6 0.500000 0.000000 0.000000
O O1 0.154719 0.250000 0.809438
O O2 0.400355 0.299982 0.800710
O O3 0.162614 0.365660 0.697350
O O4 0.267278 0.373642 0.899170
O O5 0.868108 0.873642 0.100830
O O6 0.965264 0.865659 0.302651
O O7 0.500000 0.892536 0.500000
O O8 0.785160 0.904560 0.570319
O O9 0.629289 0.000000 0.618414
O O10 0.842367 0.000000 0.000000
O O11 0.619612 0.936983 1.000000
O O12 0.500000 0.607464 0.500000
O O13 0.489126 0.500000 0.618415
#
# Coordination Sequence:
#
# PCOD9215120 Si02
#       6
#     8   8   8   8   8   2
#     4  11  24  38  60  86 121 157 194 240 291 349
#     4  11  24  38  60  86 121 157 194 240 291 349
#     4   9  19  38  59  85 112 149 196 242 289 343
#     4  10  22  41  62  86 117 149 192 238 290 342
#     4   9  19  38  59  85 112 149 196 242 289 343
#     4   8  24  40  62  92 116 148 192 252 272 366
#
# _framework density 17.819872
#
# number of rings (size 3 to 8) (size 9 to 14) (size 15 to 20)
#    0.571    1.524    0.000    2.286    2.667    5.333 
#    0.000    3.810    0.000    0.000    0.000    0.000 
#    0.000    0.000    0.000    0.000    0.000    0.000 
#
# Total GULP energy -116915.563021 kJ/mol
# GULP energy per Si atom -5567.407763 kJ/mol
# Density = 1.777931 g / cm^3
# Si number density = 17.819872 Si / 1000 Ang^3
#
#
#
# Elastic Constant Matrix: (Units=GPa)
#
#
# Indices 1 2 3 4 5 6 
#
# 1 98.6884 78.2596 79.0771 0.0000 -0.8210 0.0000
# 2 78.2596 133.1898 105.2247 0.0000 -3.3278 0.0000
# 3 79.0771 105.2247 165.5683 0.0000 -7.4327 0.0000
# 4 0.0000 0.0000 0.0000 118.8907 0.0000 -11.0709
# 5 -0.8210 -3.3278 -7.4327 0.0000 13.9472 0.0000
# 6 0.0000 0.0000 0.0000 -11.0709 0.0000 29.1784
#
#
#
# Elastic Compliance Matrix: (Units=1/GPa)
#
#
# Indices 1 2 3 4 5 6 
#
# 1 0.020509 -0.008592 -0.004480 0.000000 -0.003230 0.000000
# 2 -0.008592 0.018712 -0.007797 0.000000 -0.000196 0.000000
# 3 -0.004480 -0.007797 0.013359 0.000000 0.004995 0.000000
# 4 0.000000 0.000000 0.000000 0.008719 0.000000 0.003308
# 5 -0.003230 -0.000196 0.004995 0.000000 0.074124 0.000000
# 6 0.000000 0.000000 0.000000 0.003308 0.000000 0.035527
#
#
# Mechanical properties :
#
#
# Convention : Reuss Voigt Hill
#
# Bulk Modulus (GPa) = 92.23607 102.50769 97.37188
# Shear Modulus (GPa) = 23.11580 41.39560 32.25570
#
# Velocity S-wave (km/s) = 3.60556 4.82498 4.25914
# Velocity P-wave (km/s) = 8.31902 9.41753 8.88527
#
# Compressibility (1/GPa) = 0.01084175
#
# Stress axis : x y z
#
# Youngs Moduli (GPa) = 48.75842 53.44203 74.85680
#
# Poissons Ratio (x) = 0.45920 0.33533
# Poissons Ratio (y) = 0.41896 0.58366
# Poissons Ratio (z) = 0.21842 0.41669
#
# Static dielectric constant tensor:
#      x y z
#    x 1.594640 0.000000 0.002020 
#    y 0.000000 1.596360 0.000000 
#    z 0.002020 0.000000 1.578320 
# 
# From -- ./inp_files/196088.got.cif
#   From: 2010.05.17/outbox.cif.g08.bks.cpg/sg12_99_cif.got.tgz:196088.got - 2010.06.03 13:09:07.
