data_PCOD9215510
_publ_section_title
;
Structure prediction by ZEFSAII (Michael W. Deem and Ramdas Pophale) SiO2 
 PCOD9215510
Probable space group: C 2/M
;
_chemical_formula_sum "Si O2"
_cell_formula_units_Z 58
_cell_length_a 7.249096
_cell_length_b 23.895705
_cell_length_c 18.535133
_cell_angle_alpha 90.000000
_cell_angle_beta 134.473250
_cell_angle_gamma 90.000000
_cell_volume 2291.081930
_symmetry_space_group_name_H-M "C 2/M"
_symmetry_group_IT_number 12
_symmetry_cell_setting 'monoclinic'
loop_
_space_group_symop_operation_xyz
x,y,z
-x,y,-z
-x,-y,-z
x,-y,z
1/2+x,1/2+y,z
1/2-x,1/2+y,-z
1/2-x,1/2-y,-z
1/2+x,1/2-y,z
loop_
_atom_site_type_symbol
_atom_site_label
_atom_site_fract_x
_atom_site_fract_y
_atom_site_fract_z
Si Si1 0.918818 0.731204 0.393667
Si Si2 0.926537 0.206544 0.824075
Si Si3 0.023891 0.915255 0.848747
Si Si4 0.936865 0.437362 0.162566
Si Si5 0.454646 0.437062 0.663104
Si Si6 0.804273 0.318295 0.099808
Si Si7 0.000000 0.500000 0.000000
Si Si8 0.851720 0.152156 0.525323
O O1 0.660559 0.715923 0.282012
O O2 0.000000 0.727388 0.500000
O O3 0.987255 0.795628 0.396272
O O4 0.115732 0.683457 0.421431
O O5 0.093627 0.150535 0.873910
O O6 0.040134 0.264718 0.884674
O O7 0.689948 0.189327 0.811423
O O8 0.929097 0.925347 0.740978
O O9 0.791785 0.932599 0.840490
O O10 0.272540 0.952133 0.929097
O O11 0.914147 0.500000 0.119835
O O12 0.896757 0.380503 0.106398
O O13 0.235184 0.434071 0.269510
O O14 0.368980 0.500000 0.624069
O O15 0.306780 0.391606 0.575453
O O16 0.500000 0.314466 0.000000
O O17 0.000000 0.123804 0.500000
#
# Coordination Sequence:
#
# PCOD9215510 Si02
#       8
#     8   8   8   8   8   8   2   8
#     4  10  22  41  67 102 130 181 224 286 355 420
#     4  11  26  42  72 100 142 186 229 300 367 421
#     4  11  25  45  70  99 139 182 242 293 351 418
#     4  10  23  45  70 101 139 184 238 297 344 421
#     4  11  23  43  71 102 133 192 225 285 361 421
#     4  11  26  44  65 102 141 185 234 291 365 427
#     4  12  24  48  74 100 132 188 250 310 332 428
#     4  10  23  38  67  98 142 166 232 281 338 436
#
# _framework density 25.315549000000001
#
# number of rings (size 3 to 8) (size 9 to 14) (size 15 to 20)
#    0.000    1.379    1.379    2.069   14.483    2.759 
#    0.000    0.000    1.517    1.241    0.000    0.000 
#    0.000    0.000    0.000    0.000    0.000    0.000 
#
# Total GULP energy -161842.123081 kJ/mol
# GULP energy per Si atom -5580.762865 kJ/mol
# Density = 2.525793 g / cm^3
# Si number density = 25.315549 Si / 1000 Ang^3
#
#
#
# Elastic Constant Matrix: (Units=GPa)
#
#
# Indices 1 2 3 4 5 6 
#
# 1 56.3967 25.8295 8.3254 0.0000 -4.0520 0.0000
# 2 25.8295 256.2231 57.0851 0.0000 8.7261 0.0000
# 3 8.3254 57.0851 89.6922 0.0000 -8.3390 0.0000
# 4 0.0000 0.0000 0.0000 23.6629 0.0000 -4.0506
# 5 -4.0520 8.7261 -8.3390 0.0000 35.5930 0.0000
# 6 0.0000 0.0000 0.0000 -4.0506 0.0000 30.6069
#
#
#
# Elastic Compliance Matrix: (Units=1/GPa)
#
#
# Indices 1 2 3 4 5 6 
#
# 1 0.018837 -0.001921 -0.000289 0.000000 0.002548 0.000000
# 2 -0.001921 0.004864 -0.003116 0.000000 -0.002141 0.000000
# 3 -0.000289 -0.003116 0.013522 0.000000 0.003899 0.000000
# 4 0.000000 0.000000 0.000000 0.043240 0.000000 0.005723
# 5 0.002548 -0.002141 0.003899 0.000000 0.029824 0.000000
# 6 0.000000 0.000000 0.000000 0.005723 0.000000 0.033430
#
#
# Mechanical properties :
#
#
# Convention : Reuss Voigt Hill
#
# Bulk Modulus (GPa) = 37.63638 64.97692 51.30665
# Shear Modulus (GPa) = 30.63237 38.71068 34.67153
#
# Velocity S-wave (km/s) = 3.48231 3.91465 3.70479
# Velocity P-wave (km/s) = 5.57385 6.79376 6.21381
#
# Compressibility (1/GPa) = 0.02657003
#
# Stress axis : x y z
#
# Youngs Moduli (GPa) = 53.08643 205.60211 73.95383
#
# Poissons Ratio (x) = 0.39504 0.02135
# Poissons Ratio (y) = 0.10200 0.23046
# Poissons Ratio (z) = 0.01533 0.64072
#
# Static dielectric constant tensor:
#      x y z
#    x 1.859730 0.000000 0.195740 
#    y 0.000000 1.978620 0.000000 
#    z 0.195740 0.000000 1.869250 
# 
# From -- ./inp_files/302475.got.cif
#   From: 2010.05.17/outbox.cif.g08.bks.cpg/sg12_152_cif.got.tgz:302475.got - 2010.06.03 13:09:07.
