data_PCOD9215895
_publ_section_title
;
Structure prediction by ZEFSAII (Michael W. Deem and Ramdas Pophale) SiO2 
 PCOD9215895
Probable space group: C 2/M
;
_chemical_formula_sum "Si O2"
_cell_formula_units_Z 48
_cell_length_a 9.306613
_cell_length_b 16.026116
_cell_length_c 26.004728
_cell_angle_alpha 90.000000
_cell_angle_beta 141.291610
_cell_angle_gamma 90.000000
_cell_volume 2425.494084
_symmetry_space_group_name_H-M "C 2/M"
_symmetry_group_IT_number 12
_symmetry_cell_setting 'monoclinic'
loop_
_space_group_symop_operation_xyz
x,y,z
-x,y,-z
-x,-y,-z
x,-y,z
1/2+x,1/2+y,z
1/2-x,1/2+y,-z
1/2-x,1/2-y,-z
1/2+x,1/2-y,z
loop_
_atom_site_type_symbol
_atom_site_label
_atom_site_fract_x
_atom_site_fract_y
_atom_site_fract_z
Si Si1 0.611165 0.091537 0.344102
Si Si2 0.479177 0.173536 0.148230
Si Si3 0.669898 0.346961 0.163220
Si Si4 0.835597 0.596970 0.000899
Si Si5 0.241843 0.238559 0.437335
Si Si6 0.396041 0.407735 0.318511
O O1 0.357621 0.104689 0.249538
O O2 0.676745 0.171694 0.395565
O O3 0.783387 0.092107 0.343721
O O4 0.627577 0.000000 0.373956
O O5 0.596008 0.263105 0.172248
O O6 0.294785 0.172744 0.143346
O O7 0.374515 0.146979 0.064406
O O8 0.684383 0.111245 0.221395
O O9 0.431785 0.394948 0.088133
O O10 0.893321 0.500000 0.025941
O O11 0.000000 0.627287 0.000000
O O12 0.500000 0.211682 0.500000
O O13 0.250000 0.250000 0.500000
O O14 0.072901 0.168349 0.368001
O O15 0.493140 0.500000 0.335340
#
# Coordination Sequence:
#
# PCOD9215895 Si02
#       6
#     8   8   8   8   8   8
#     4  10  22  42  68  96 128 173 217 261 319 389
#     4  11  22  39  66  92 127 171 216 263 318 376
#     4  11  22  39  66  93 127 169 217 264 315 382
#     4  11  24  41  60  91 131 168 214 268 317 374
#     4  12  24  42  69  96 130 165 209 269 326 389
#     4  10  22  42  67  96 131 170 215 265 321 384
#
# _framework density 19.789781999999999
#
# number of rings (size 3 to 8) (size 9 to 14) (size 15 to 20)
#    0.000    1.167    3.333    3.000    0.000    4.000 
#    3.000    0.000    0.000    0.000    0.000    0.000 
#    0.000    0.000    0.000    0.000    0.000    0.000 
#
# Total GULP energy -134033.081407 kJ/mol
# GULP energy per Si atom -5584.711725 kJ/mol
# Density = 1.974474 g / cm^3
# Si number density = 19.789782 Si / 1000 Ang^3
#
#
#
# Elastic Constant Matrix: (Units=GPa)
#
#
# Indices 1 2 3 4 5 6 
#
# 1 65.4524 -1.9867 14.3936 0.0000 17.4972 0.0000
# 2 -1.9867 116.8767 18.6275 0.0000 7.6578 0.0000
# 3 14.3936 18.6275 78.8624 0.0000 16.2509 0.0001
# 4 0.0000 0.0000 0.0000 8.1448 0.0000 -6.6679
# 5 17.4972 7.6578 16.2509 0.0000 33.2144 0.0000
# 6 0.0000 0.0000 0.0001 -6.6679 0.0000 14.3033
#
#
#
# Elastic Compliance Matrix: (Units=1/GPa)
#
#
# Indices 1 2 3 4 5 6 
#
# 1 0.018088 0.001170 -0.001733 0.000000 -0.008950 0.000000
# 2 0.001170 0.009005 -0.001986 0.000000 -0.001721 0.000000
# 3 -0.001733 -0.001986 0.014661 0.000000 -0.005802 0.000000
# 4 0.000000 0.000000 0.000000 0.198554 0.000000 0.092562
# 5 -0.008950 -0.001721 -0.005802 0.000000 0.038058 0.000000
# 6 0.000000 0.000000 0.000000 0.092562 0.000000 0.113064
#
#
# Mechanical properties :
#
#
# Convention : Reuss Voigt Hill
#
# Bulk Modulus (GPa) = 27.28075 35.91783 31.59929
# Shear Modulus (GPa) = 12.23248 26.47632 19.35440
#
# Velocity S-wave (km/s) = 2.48890 3.66167 3.13069
# Velocity P-wave (km/s) = 4.69837 6.00551 5.39170
#
# Compressibility (1/GPa) = 0.03665589
#
# Stress axis : x y z
#
# Youngs Moduli (GPa) = 55.28650 111.04706 68.20609
#
# Poissons Ratio (x) = -0.12994 0.11822
# Poissons Ratio (y) = -0.06469 0.13546
# Poissons Ratio (z) = 0.09583 0.22054
#
# Static dielectric constant tensor:
#      x y z
#    x 1.668830 0.000000 0.001330 
#    y 0.000000 1.718200 0.000000 
#    z 0.001330 0.000000 1.669390 
# 
# From -- ./inp_files/255748.got.cif
#   From: 2010.05.17/outbox.cif.g08.bks.cpg/sg12_128_cif.got.tgz:255748.got - 2010.06.03 13:09:07.
