data_PCOD9215424
_publ_section_title
;
Structure prediction by ZEFSAII (Michael W. Deem and Ramdas Pophale) SiO2 
 PCOD9215424
Probable space group: C 2/M
;
_chemical_formula_sum "Si O2"
_cell_formula_units_Z 40
_cell_length_a 13.242810
_cell_length_b 12.722607
_cell_length_c 14.596745
_cell_angle_alpha 90.000000
_cell_angle_beta 44.122558
_cell_angle_gamma 90.000000
_cell_volume 1712.156578
_symmetry_space_group_name_H-M "C 2/M"
_symmetry_group_IT_number 12
_symmetry_cell_setting 'monoclinic'
loop_
_space_group_symop_operation_xyz
x,y,z
-x,y,-z
-x,-y,-z
x,-y,z
1/2+x,1/2+y,z
1/2-x,1/2+y,-z
1/2-x,1/2-y,-z
1/2+x,1/2-y,z
loop_
_atom_site_type_symbol
_atom_site_label
_atom_site_fract_x
_atom_site_fract_y
_atom_site_fract_z
Si Si1 0.054047 0.831901 0.369821
Si Si2 0.619477 0.123063 0.139711
Si Si3 0.659032 0.125054 0.913525
Si Si4 0.863850 0.787308 0.346584
Si Si5 0.322129 0.122088 0.699080
O O1 0.221483 0.847175 0.238624
O O2 0.044994 0.704655 0.384546
O O3 0.000000 0.877400 0.500000
O O4 0.964585 0.866126 0.339894
O O5 0.475574 0.195433 0.242071
O O6 0.720173 0.131069 0.164886
O O7 0.573397 0.000000 0.165275
O O8 0.699147 0.148218 0.992585
O O9 0.648032 0.000000 0.914306
O O10 0.500000 0.171053 0.000000
O O11 0.750000 0.750000 0.500000
O O12 0.785542 0.839323 0.310584
O O13 0.358744 0.000000 0.659935
#
# Coordination Sequence:
#
# PCOD9215424 Si02
#       5
#     8   8   8   8   8
#     4  11  23  41  67  98 138 174 228 287 339 406
#     4   9  21  42  68  95 128 179 234 275 333 416
#     4  10  22  42  69  99 135 181 232 282 344 414
#     4  11  22  38  64 101 137 171 221 285 344 404
#     4  10  22  41  65  96 135 178 222 276 342 408
#
# _framework density 23.362349999999999
#
# number of rings (size 3 to 8) (size 9 to 14) (size 15 to 20)
#    0.000    1.800    2.000    1.200    0.000    5.600 
#    0.000    3.000    0.000   15.000    0.000    0.000 
#    0.000    0.000    0.000    0.000    0.000    0.000 
#
# Total GULP energy -111490.430344 kJ/mol
# GULP energy per Si atom -5574.521517 kJ/mol
# Density = 2.330918 g / cm^3
# Si number density = 23.362350 Si / 1000 Ang^3
#
#
#
# Elastic Constant Matrix: (Units=GPa)
#
#
# Indices 1 2 3 4 5 6 
#
# 1 174.0030 29.5552 61.2826 0.0000 26.6678 0.0000
# 2 29.5552 94.8953 19.3913 0.0000 11.6896 0.0000
# 3 61.2826 19.3913 181.9127 0.0000 19.2173 0.0000
# 4 0.0000 0.0000 0.0000 -12.7414 0.0000 2.5851
# 5 26.6678 11.6896 19.2173 0.0000 41.3789 0.0000
# 6 0.0000 0.0000 0.0000 2.5851 0.0000 33.1761
#
#
#
# Elastic Compliance Matrix: (Units=1/GPa)
#
#
# Indices 1 2 3 4 5 6 
#
# 1 0.007174 -0.001433 -0.001912 0.000000 -0.003331 0.000000
# 2 -0.001433 0.011340 -0.000510 0.000000 -0.002043 0.000000
# 3 -0.001912 -0.000510 0.006362 0.000000 -0.001578 0.000000
# 4 0.000000 0.000000 0.000000 -0.077263 0.000000 0.006020
# 5 -0.003331 -0.002043 -0.001578 0.000000 0.027624 0.000000
# 6 0.000000 0.000000 0.000000 0.006020 0.000000 0.029673
#
#
# Mechanical properties :
#
#
# Convention : Reuss Voigt Hill
#
# Bulk Modulus (GPa) = 58.25626 74.58547 66.42086
# Shear Modulus (GPa) = 272.56302 35.06817 153.81560
#
# Velocity S-wave (km/s) = 10.81300 3.87855 8.12293
# Velocity P-wave (km/s) = 13.44934 7.21473 10.79206
#
# Compressibility (1/GPa) = 0.01716554
#
# Stress axis : x y z
#
# Youngs Moduli (GPa) = 139.38329 88.18128 157.17196
#
# Poissons Ratio (x) = 0.12640 0.30055
# Poissons Ratio (y) = 0.19980 0.08018
# Poissons Ratio (z) = 0.26654 0.04498
#
# Static dielectric constant tensor:
#      x y z
#    x 1.979420 0.000000 0.022640 
#    y 0.000000 1.958300 0.000000 
#    z 0.022640 0.000000 1.956590 
# 
# From -- ./inp_files/214579.got.cif
#   From: 2010.05.17/outbox.cif.g08.bks.cpg/sg12_108_cif.got.tgz:214579.got - 2010.06.03 13:09:07.
