data_PCOD9215401
_publ_section_title
;
Structure prediction by ZEFSAII (Michael W. Deem and Ramdas Pophale) SiO2 
 PCOD9215401
Probable space group: C 2/M
;
_chemical_formula_sum "Si O2"
_cell_formula_units_Z 50
_cell_length_a 7.994100
_cell_length_b 13.770065
_cell_length_c 18.240663
_cell_angle_alpha 90.000000
_cell_angle_beta 75.207166
_cell_angle_gamma 90.000000
_cell_volume 1941.367175
_symmetry_space_group_name_H-M "C 2/M"
_symmetry_group_IT_number 12
_symmetry_cell_setting 'monoclinic'
loop_
_space_group_symop_operation_xyz
x,y,z
-x,y,-z
-x,-y,-z
x,-y,z
1/2+x,1/2+y,z
1/2-x,1/2+y,-z
1/2-x,1/2-y,-z
1/2+x,1/2-y,z
loop_
_atom_site_type_symbol
_atom_site_label
_atom_site_fract_x
_atom_site_fract_y
_atom_site_fract_z
Si Si1 0.669446 0.889486 0.033776
Si Si2 0.887176 0.108027 0.350369
Si Si3 0.765245 0.360832 0.476472
Si Si4 0.434883 0.803936 0.178010
Si Si5 0.606651 0.616826 0.125653
Si Si6 0.000000 0.000000 0.500000
Si Si7 0.038902 0.317261 0.329111
O O1 0.826443 0.856876 0.964295
O O2 0.708736 0.000000 0.049580
O O3 0.500000 0.888866 0.000000
O O4 0.603309 0.837234 0.113091
O O5 0.783165 0.093700 0.439519
O O6 0.732731 0.146186 0.315562
O O7 0.950001 0.187309 0.165104
O O8 0.015937 0.200259 0.339593
O O9 0.750000 0.250000 0.500000
O O10 0.618565 0.415069 0.447625
O O11 0.935323 0.365563 0.408772
O O12 0.265215 0.852477 0.161762
O O13 0.458673 0.836942 0.258854
O O14 0.080224 0.000000 0.131431
O O15 0.450393 0.500000 0.322080
#
# Coordination Sequence:
#
# PCOD9215401 Si02
#       7
#     8   8   8   8   8   2   8
#     4   8  16  34  62  91 124 165 217 260 309 378
#     4  11  25  45  66  91 126 174 211 262 323 380
#     4  10  25  42  69  95 125 162 219 260 311 379
#     4  11  21  41  64  93 131 172 204 267 332 372
#     4  10  22  41  65  94 125 171 221 260 309 386
#     4  12  24  48  70 102 120 176 216 266 324 382
#     4  11  26  42  65  98 133 161 217 269 318 391
#
# _framework density 25.755046
#
# number of rings (size 3 to 8) (size 9 to 14) (size 15 to 20)
#    0.000    1.760    0.800    3.360   10.080    2.560 
#    0.000    2.400    0.000    6.240    0.000    0.000 
#    0.000    0.000    0.000    0.000    0.000    0.000 
#
# Total GULP energy -139433.671807 kJ/mol
# GULP energy per Si atom -5577.346872 kJ/mol
# Density = 2.569643 g / cm^3
# Si number density = 25.755046 Si / 1000 Ang^3
#
#
#
# Elastic Constant Matrix: (Units=GPa)
#
#
# Indices 1 2 3 4 5 6 
#
# 1 60.5957 20.9323 10.8212 0.0000 12.7329 0.0000
# 2 20.9323 115.7549 2.3886 0.0000 1.9581 0.0000
# 3 10.8212 2.3886 140.4573 0.0000 -5.5769 0.0000
# 4 0.0000 0.0000 0.0000 25.8714 0.0000 10.7579
# 5 12.7329 1.9581 -5.5769 0.0000 34.1498 0.0000
# 6 0.0000 0.0000 0.0000 10.7579 0.0000 40.4067
#
#
#
# Elastic Compliance Matrix: (Units=1/GPa)
#
#
# Indices 1 2 3 4 5 6 
#
# 1 0.019527 -0.003370 -0.001740 0.000000 -0.007371 0.000000
# 2 -0.003370 0.009233 0.000132 0.000000 0.000749 0.000000
# 3 -0.001740 0.000132 0.007324 0.000000 0.001837 0.000000
# 4 0.000000 0.000000 0.000000 0.043465 0.000000 -0.011572
# 5 -0.007371 0.000749 0.001837 0.000000 0.032288 0.000000
# 6 0.000000 0.000000 0.000000 -0.011572 0.000000 0.027829
#
#
# Mechanical properties :
#
#
# Convention : Reuss Voigt Hill
#
# Bulk Modulus (GPa) = 38.27250 42.78801 40.53025
# Shear Modulus (GPa) = 31.57928 38.92996 35.25462
#
# Velocity S-wave (km/s) = 3.50543 3.89208 3.70380
# Velocity P-wave (km/s) = 5.59254 6.07019 5.83625
#
# Compressibility (1/GPa) = 0.02612842
#
# Stress axis : x y z
#
# Youngs Moduli (GPa) = 51.21174 108.30670 136.53118
#
# Poissons Ratio (x) = 0.36505 0.23753
# Poissons Ratio (y) = 0.17261 -0.01808
# Poissons Ratio (z) = 0.08910 -0.01434
#
# Static dielectric constant tensor:
#      x y z
#    x -3.736170 0.000000 -1.939430 
#    y 0.000000 2.063020 0.000000 
#    z -1.939430 0.000000 1.366780 
# 
# From -- ./inp_files/256960.got.cif
#   From: 2010.05.17/outbox.cif.g08.bks.cpg/sg12_129_cif.got.tgz:256960.got - 2010.06.03 13:09:07.
