data_PCOD9215494
_publ_section_title
;
Structure prediction by ZEFSAII (Michael W. Deem and Ramdas Pophale) SiO2 
 PCOD9215494
Probable space group: C 2/M
;
_chemical_formula_sum "Si O2"
_cell_formula_units_Z 40
_cell_length_a 14.962737
_cell_length_b 17.127495
_cell_length_c 15.100569
_cell_angle_alpha 90.000000
_cell_angle_beta 152.448599
_cell_angle_gamma 90.000000
_cell_volume 1789.993378
_symmetry_space_group_name_H-M "C 2/M"
_symmetry_group_IT_number 12
_symmetry_cell_setting 'monoclinic'
loop_
_space_group_symop_operation_xyz
x,y,z
-x,y,-z
-x,-y,-z
x,-y,z
1/2+x,1/2+y,z
1/2-x,1/2+y,-z
1/2-x,1/2-y,-z
1/2+x,1/2-y,z
loop_
_atom_site_type_symbol
_atom_site_label
_atom_site_fract_x
_atom_site_fract_y
_atom_site_fract_z
Si Si1 0.293748 0.583196 0.767152
Si Si2 0.756204 0.872316 0.538259
Si Si3 0.725082 0.759600 0.218152
Si Si4 0.197105 0.916855 0.617648
Si Si5 0.434511 0.754223 0.225703
O O1 0.202891 0.500000 0.717974
O O2 0.295459 0.581127 0.662067
O O3 0.210791 0.670569 0.706386
O O4 0.500000 0.584531 0.000000
O O5 0.813698 0.914107 0.497843
O O6 0.538726 0.837441 0.335603
O O7 0.900148 0.798606 0.671605
O O8 0.729066 0.830785 0.290598
O O9 0.857778 0.780739 0.250806
O O10 0.500000 0.752933 0.000000
O O11 0.000000 0.921119 0.500000
O O12 0.302097 0.000000 0.731975
O O13 0.250000 0.750000 0.000000
#
# Coordination Sequence:
#
# PCOD9215494 Si02
#       5
#     8   8   8   8   8
#     4  10  22  41  66  97 133 175 226 280 340 403
#     4  11  22  40  67  94 133 177 220 277 335 406
#     4  11  22  41  66  93 133 175 217 277 333 399
#     4  11  23  41  65  95 130 172 221 274 337 403
#     4  11  22  39  66 101 133 173 223 274 336 402
#
# _framework density 22.346450999999998
#
# number of rings (size 3 to 8) (size 9 to 14) (size 15 to 20)
#    0.000    1.200    2.000    6.600    0.000    0.400 
#    0.000    3.000    0.000    8.400    0.000    0.000 
#    0.000    0.000    0.000    0.000    0.000    0.000 
#
# Total GULP energy -111384.968401 kJ/mol
# GULP energy per Si atom -5569.248420 kJ/mol
# Density = 2.229559 g / cm^3
# Si number density = 22.346451 Si / 1000 Ang^3
#
#
#
# Elastic Constant Matrix: (Units=GPa)
#
#
# Indices 1 2 3 4 5 6 
#
# 1 89.1890 15.7418 34.8851 0.0006 -18.3955 0.0082
# 2 15.7418 190.6154 49.1307 -0.0191 -16.6305 0.0489
# 3 34.8851 49.1307 137.4467 -0.0298 -5.6770 0.0870
# 4 0.0006 -0.0191 -0.0298 269.3170 -0.0166 -475.2549
# 5 -18.3955 -16.6305 -5.6770 -0.0166 36.5660 0.0455
# 6 0.0082 0.0489 0.0870 -475.2549 0.0455 802.3644
#
#
#
# Elastic Compliance Matrix: (Units=1/GPa)
#
#
# Indices 1 2 3 4 5 6 
#
# 1 0.013822 0.000293 -0.003342 0.000006 0.006568 0.000003
# 2 0.000293 0.005988 -0.002110 0.000003 0.002543 0.000002
# 3 -0.003342 -0.002110 0.008825 0.000011 -0.001270 0.000006
# 4 0.000006 0.000003 0.000011 -0.082067 0.000030 -0.048610
# 5 0.006568 0.002543 -0.001270 0.000030 0.031611 0.000016
# 6 0.000003 0.000002 0.000006 -0.048610 0.000016 -0.027546
#
#
# Mechanical properties :
#
#
# Convention : Reuss Voigt Hill
#
# Bulk Modulus (GPa) = 54.58997 68.52957 61.55977
# Shear Modulus (GPa) = -151.77000 242.81570 45.52285
#
# Velocity S-wave (km/s) = -8.25011 10.43530 4.51837
# Velocity P-wave (km/s) = 8.14066 13.26377 7.40463
#
# Compressibility (1/GPa) = 0.01831838
#
# Stress axis : x y z
#
# Youngs Moduli (GPa) = 72.34773 167.01221 113.31112
#
# Poissons Ratio (x) = -0.04890 0.37864
# Poissons Ratio (y) = -0.02119 0.23904
# Poissons Ratio (z) = 0.24175 0.35232
#
# Static dielectric constant tensor:
#      x y z
#    x 1.836330 0.000000 -0.020780 
#    y 0.000000 1.956690 0.000000 
#    z -0.020780 0.000000 1.852330 
# 
# From -- ./inp_files/216925.got.cif
#   From: 2010.05.17/outbox.cif.g08.bks.cpg/sg12_109_cif.got.tgz:216925.got - 2010.06.03 13:09:07.
