data_PCOD9215091
_publ_section_title
;
Structure prediction by ZEFSAII (Michael W. Deem and Ramdas Pophale) SiO2 
 PCOD9215091
Probable space group: C 2/M
;
_chemical_formula_sum "Si O2"
_cell_formula_units_Z 64
_cell_length_a 11.336215
_cell_length_b 26.845284
_cell_length_c 11.875787
_cell_angle_alpha 90.000000
_cell_angle_beta 112.626244
_cell_angle_gamma 90.000000
_cell_volume 3335.924556
_symmetry_space_group_name_H-M "C 2/M"
_symmetry_group_IT_number 12
_symmetry_cell_setting 'monoclinic'
loop_
_space_group_symop_operation_xyz
x,y,z
-x,y,-z
-x,-y,-z
x,-y,z
1/2+x,1/2+y,z
1/2-x,1/2+y,-z
1/2-x,1/2-y,-z
1/2+x,1/2-y,z
loop_
_atom_site_type_symbol
_atom_site_label
_atom_site_fract_x
_atom_site_fract_y
_atom_site_fract_z
Si Si1 0.183731 0.941994 0.320441
Si Si2 0.904532 0.554882 0.588583
Si Si3 0.361838 0.118168 0.256655
Si Si4 0.951792 0.902632 0.362278
Si Si5 0.197041 0.554711 0.194146
Si Si6 0.347776 0.799860 0.426988
Si Si7 0.959181 0.649231 0.872097
Si Si8 0.235429 0.186138 0.628357
O O1 0.295547 0.939923 0.456136
O O2 0.250273 0.922410 0.230597
O O3 0.073916 0.905265 0.325866
O O4 0.142801 0.000000 0.298590
O O5 0.964783 0.500000 0.601159
O O6 0.841125 0.556428 0.687846
O O7 0.014734 0.595356 0.633343
O O8 0.317281 0.165811 0.309826
O O9 0.418732 0.133077 0.157301
O O10 0.846304 0.934105 0.256360
O O11 0.877103 0.851548 0.371568
O O12 0.000000 0.924587 0.500000
O O13 0.168399 0.500000 0.137762
O O14 0.117021 0.599869 0.114232
O O15 0.500000 0.799642 0.500000
O O16 0.279962 0.821055 0.514976
O O17 0.307003 0.743373 0.386433
O O18 0.858142 0.676519 0.753085
O O19 0.000000 0.677515 0.000000
#
# Coordination Sequence:
#
# PCOD9215091 Si02
#       8
#     8   8   8   8   8   8   8   8
#     4  11  21  30  49  83 123 159 190 231 291 361
#     4   9  17  29  47  75 114 151 183 225 280 345
#     4  11  21  34  56  83 114 152 192 241 295 344
#     4  11  19  31  50  80 124 161 185 228 288 362
#     4   9  18  31  51  79 110 150 196 235 279 339
#     4  11  20  36  61  91 120 146 183 237 308 359
#     4  10  22  41  61  80 112 155 201 251 292 339
#     4  10  23  38  58  89 119 151 193 237 293 360
#
# _framework density 19.185085999999998
#
# number of rings (size 3 to 8) (size 9 to 14) (size 15 to 20)
#    0.000    1.750    2.500    3.000    1.750    3.250 
#    0.000    0.625    0.000    3.000    0.000    4.375 
#    0.000    0.000    0.000    0.000    0.000    0.000 
#
# Total GULP energy -178478.738038 kJ/mol
# GULP energy per Si atom -5577.460564 kJ/mol
# Density = 1.914142 g / cm^3
# Si number density = 19.185086 Si / 1000 Ang^3
#
#
#
# Elastic Constant Matrix: (Units=GPa)
#
#
# Indices 1 2 3 4 5 6 
#
# 1 116.3339 36.0442 25.8314 0.0000 -16.4391 0.0000
# 2 36.0442 92.5678 13.7532 0.0000 -5.8944 0.0000
# 3 25.8314 13.7532 62.7462 0.0000 -8.9921 0.0000
# 4 0.0000 0.0000 0.0000 7.8280 0.0000 -2.4470
# 5 -16.4391 -5.8944 -8.9921 0.0000 16.7346 0.0000
# 6 0.0000 0.0000 0.0000 -2.4470 0.0000 26.9388
#
#
#
# Elastic Compliance Matrix: (Units=1/GPa)
#
#
# Indices 1 2 3 4 5 6 
#
# 1 0.011511 -0.003529 -0.002733 0.000000 0.008596 0.000000
# 2 -0.003529 0.012374 -0.001226 0.000000 0.000233 0.000000
# 3 -0.002733 -0.001226 0.018293 0.000000 0.006713 0.000000
# 4 0.000000 0.000000 0.000000 0.131479 0.000000 0.011943
# 5 0.008596 0.000233 0.006713 0.000000 0.071890 0.000000
# 6 0.000000 0.000000 0.000000 0.011943 0.000000 0.038206
#
#
# Mechanical properties :
#
#
# Convention : Reuss Voigt Hill
#
# Bulk Modulus (GPa) = 36.76256 46.98948 41.87602
# Shear Modulus (GPa) = 16.24449 23.36823 19.80636
#
# Velocity S-wave (km/s) = 2.91301 3.49383 3.21656
# Velocity P-wave (km/s) = 5.52429 6.38919 5.97242
#
# Compressibility (1/GPa) = 0.02720159
#
# Stress axis : x y z
#
# Youngs Moduli (GPa) = 86.87435 80.81524 54.66487
#
# Poissons Ratio (x) = 0.28517 0.14943
# Poissons Ratio (y) = 0.30655 0.06702
# Poissons Ratio (z) = 0.23747 0.09909
#
# Static dielectric constant tensor:
#      x y z
#    x 1.725300 0.000000 -0.010910 
#    y 0.000000 1.714420 0.000000 
#    z -0.010910 0.000000 1.644720 
# 
# From -- ./inp_files/137441.got.cif
#   From: 2010.05.17/outbox.cif.g08.bks.cpg/sg12_69_cif.got.tgz:137441.got - 2010.06.03 13:09:07.
