data_PCOD9215898
_publ_section_title
;
Structure prediction by ZEFSAII (Michael W. Deem and Ramdas Pophale) SiO2 
 PCOD9215898
Probable space group: C 2/M
;
_chemical_formula_sum "Si O2"
_cell_formula_units_Z 40
_cell_length_a 14.164143
_cell_length_b 12.649164
_cell_length_c 9.815716
_cell_angle_alpha 90.000000
_cell_angle_beta 112.506684
_cell_angle_gamma 90.000000
_cell_volume 1624.682368
_symmetry_space_group_name_H-M "C 2/M"
_symmetry_group_IT_number 12
_symmetry_cell_setting 'monoclinic'
loop_
_space_group_symop_operation_xyz
x,y,z
-x,y,-z
-x,-y,-z
x,-y,z
1/2+x,1/2+y,z
1/2-x,1/2+y,-z
1/2-x,1/2-y,-z
1/2+x,1/2-y,z
loop_
_atom_site_type_symbol
_atom_site_label
_atom_site_fract_x
_atom_site_fract_y
_atom_site_fract_z
Si Si1 0.745051 0.880777 0.382410
Si Si2 0.279652 0.287670 0.864355
Si Si3 0.956188 0.886022 0.628803
Si Si4 0.000000 0.300025 0.000000
Si Si5 0.487831 0.847238 0.704580
Si Si6 0.160263 0.500000 0.731310
O O1 0.759385 0.795402 0.272123
O O2 0.833770 0.871701 0.543754
O O3 0.631711 0.871693 0.383450
O O4 0.754138 0.000000 0.330495
O O5 0.401127 0.271380 0.923844
O O6 0.241748 0.404679 0.811835
O O7 0.250000 0.250000 0.000000
O O8 0.001779 0.778704 0.709620
O O9 0.000000 0.891890 0.500000
O O10 0.976974 0.000000 0.706424
O O11 0.987780 0.373977 0.124919
O O12 0.569661 0.908500 0.662719
#
# Coordination Sequence:
#
# PCOD9215898 Si02
#       6
#     8   8   8   4   8   4
#     4  10  22  42  70  98 131 182 229 274 334 408
#     4  11  24  41  66 102 139 176 226 280 335 401
#     4  10  22  42  67  96 132 178 229 278 335 404
#     4  10  24  44  66  96 134 182 218 274 338 400
#     4  11  22  42  69  99 134 175 228 280 335 404
#     4  12  24  42  67 100 135 175 232 278 339 401
#
# _framework density 24.620197000000001
#
# number of rings (size 3 to 8) (size 9 to 14) (size 15 to 20)
#    0.000    1.400    3.000    1.800    1.400    0.800 
#    9.000    4.500    4.400    0.000    0.000    0.000 
#    0.000    0.000    0.000    0.000    0.000    0.000 
#
# Total GULP energy -111443.384101 kJ/mol
# GULP energy per Si atom -5572.169205 kJ/mol
# Density = 2.456416 g / cm^3
# Si number density = 24.620197 Si / 1000 Ang^3
#
#
#
# Elastic Constant Matrix: (Units=GPa)
#
#
# Indices 1 2 3 4 5 6 
#
# 1 104.6758 28.4979 19.0898 0.0000 17.9808 0.0000
# 2 28.4979 264.2983 43.1998 0.0000 1.6260 0.0000
# 3 19.0898 43.1998 53.4639 0.0000 -8.6254 0.0000
# 4 0.0000 0.0000 0.0000 20.8804 0.0000 35.0213
# 5 17.9808 1.6260 -8.6254 0.0000 43.0382 0.0000
# 6 0.0000 0.0000 0.0000 35.0213 0.0000 78.6876
#
#
#
# Elastic Compliance Matrix: (Units=1/GPa)
#
#
# Indices 1 2 3 4 5 6 
#
# 1 0.011511 -0.000441 -0.004678 0.000000 -0.005730 0.000000
# 2 -0.000441 0.004410 -0.003517 0.000000 -0.000687 0.000000
# 3 -0.004678 -0.003517 0.024340 0.000000 0.006965 0.000000
# 4 0.000000 0.000000 0.000000 0.188907 0.000000 -0.084077
# 5 -0.005730 -0.000687 0.006965 0.000000 0.027051 0.000000
# 6 0.000000 0.000000 0.000000 -0.084077 0.000000 0.050128
#
#
# Mechanical properties :
#
#
# Convention : Reuss Voigt Hill
#
# Bulk Modulus (GPa) = 43.49923 67.11254 55.30589
# Shear Modulus (GPa) = 15.09287 50.63128 32.86208
#
# Velocity S-wave (km/s) = 2.47863 4.53978 3.65740
# Velocity P-wave (km/s) = 5.08900 7.40255 6.35199
#
# Compressibility (1/GPa) = 0.02298891
#
# Stress axis : x y z
#
# Youngs Moduli (GPa) = 86.87480 226.74482 41.08488
#
# Poissons Ratio (x) = 0.10006 0.19219
# Poissons Ratio (y) = 0.03834 0.14449
# Poissons Ratio (z) = 0.40639 0.79742
#
# Static dielectric constant tensor:
#      x y z
#    x 2.019390 0.000000 -0.052980 
#    y 0.000000 1.957910 0.000000 
#    z -0.052980 0.000000 1.993470 
# 
# From -- ./inp_files/141136.got.cif
#   From: 2010.05.17/outbox.cif.g08.bks.cpg/sg12_71_cif.got.tgz:141136.got - 2010.06.03 13:09:07.
