data_PCOD9215184
_publ_section_title
;
Structure prediction by ZEFSAII (Michael W. Deem and Ramdas Pophale) SiO2 
 PCOD9215184
Probable space group: C 2/M
;
_chemical_formula_sum "Si O2"
_cell_formula_units_Z 56
_cell_length_a 9.892474
_cell_length_b 24.752348
_cell_length_c 18.195534
_cell_angle_alpha 90.000000
_cell_angle_beta 140.412724
_cell_angle_gamma 90.000000
_cell_volume 2839.212641
_symmetry_space_group_name_H-M "C 2/M"
_symmetry_group_IT_number 12
_symmetry_cell_setting 'monoclinic'
loop_
_space_group_symop_operation_xyz
x,y,z
-x,y,-z
-x,-y,-z
x,-y,z
1/2+x,1/2+y,z
1/2-x,1/2+y,-z
1/2-x,1/2-y,-z
1/2+x,1/2-y,z
loop_
_atom_site_type_symbol
_atom_site_label
_atom_site_fract_x
_atom_site_fract_y
_atom_site_fract_z
Si Si1 0.513133 0.899385 0.785152
Si Si2 0.100865 0.306575 0.614542
Si Si3 0.178401 0.603182 0.020125
Si Si4 0.060982 0.500000 0.609221
Si Si5 0.167859 0.903523 0.213507
Si Si6 0.253900 0.000000 0.614564
Si Si7 0.401197 0.216115 0.682130
Si Si8 0.273738 0.229248 0.927900
O O1 0.579603 0.898236 0.897553
O O2 0.725121 0.903324 0.822843
O O3 0.354760 0.947969 0.697835
O O4 0.402001 0.843007 0.718040
O O5 0.273336 0.345637 0.725499
O O6 0.208084 0.252586 0.627902
O O7 0.000000 0.334048 0.500000
O O8 0.934746 0.292290 0.609251
O O9 0.419858 0.582156 0.114476
O O10 0.215483 0.664554 0.064163
O O11 0.000000 0.578563 0.000000
O O12 0.198949 0.447890 0.687008
O O13 0.000000 0.500000 0.500000
O O14 0.857067 0.500000 0.576757
O O15 0.000000 0.000000 0.500000
O O16 0.603412 0.247695 0.800262
O O17 0.500000 0.251549 0.000000
O O18 0.250000 0.250000 0.000000
#
# Coordination Sequence:
#
# PCOD9215184 Si02
#       8
#     8   8   8   4   8   4   8   8
#     4  10  23  40  65  91 122 166 207 251 314 379
#     4  11  23  38  57  85 123 163 206 258 308 368
#     4  11  23  37  59  94 127 159 200 255 315 367
#     4  10  22  43  70  93 113 162 216 254 309 370
#     4  10  22  41  63  88 124 161 206 257 312 374
#     4  10  24  47  68  93 125 162 212 264 307 364
#     4  11  22  37  59  88 121 163 206 251 312 371
#     4  11  21  33  57  88 123 163 200 246 305 376
#
# _framework density 19.723777999999999
#
# number of rings (size 3 to 8) (size 9 to 14) (size 15 to 20)
#    0.000    1.429    2.857    2.143    4.000    2.286 
#    0.000    4.286    0.000    0.000    0.000    0.000 
#    0.000    0.000    0.000    0.000    0.000    0.000 
#
# Total GULP energy -156326.011695 kJ/mol
# GULP energy per Si atom -5583.071846 kJ/mol
# Density = 1.967889 g / cm^3
# Si number density = 19.723778 Si / 1000 Ang^3
#
#
#
# Elastic Constant Matrix: (Units=GPa)
#
#
# Indices 1 2 3 4 5 6 
#
# 1 131.1445 44.1326 65.8438 0.0000 -6.6120 0.0000
# 2 44.1326 84.1516 39.2114 0.0000 5.3220 0.0000
# 3 65.8438 39.2114 103.8784 0.0001 -2.5218 -0.0001
# 4 0.0000 0.0000 0.0001 12.9371 0.0000 3.7257
# 5 -6.6120 5.3220 -2.5218 0.0000 47.7481 0.0000
# 6 0.0000 0.0000 -0.0001 3.7257 0.0000 19.8946
#
#
#
# Elastic Compliance Matrix: (Units=1/GPa)
#
#
# Indices 1 2 3 4 5 6 
#
# 1 0.012036 -0.003502 -0.006266 0.000000 0.001726 0.000000
# 2 -0.003502 0.015612 -0.003732 0.000000 -0.002422 0.000000
# 3 -0.006266 -0.003732 0.015015 0.000000 0.000341 0.000000
# 4 0.000000 0.000000 0.000000 0.081703 0.000000 -0.015301
# 5 0.001726 -0.002422 0.000341 0.000000 0.021470 0.000000
# 6 0.000000 0.000000 0.000000 -0.015301 0.000000 0.053130
#
#
# Mechanical properties :
#
#
# Convention : Reuss Voigt Hill
#
# Bulk Modulus (GPa) = 63.83970 68.61666 66.22818
# Shear Modulus (GPa) = 21.62733 27.44840 24.53787
#
# Velocity S-wave (km/s) = 3.31495 3.73452 3.53097
# Velocity P-wave (km/s) = 6.86214 7.31162 7.09045
#
# Compressibility (1/GPa) = 0.01566423
#
# Stress axis : x y z
#
# Youngs Moduli (GPa) = 83.08087 64.05246 66.59943
#
# Poissons Ratio (x) = 0.22432 0.41728
# Poissons Ratio (y) = 0.29096 0.24856
# Poissons Ratio (z) = 0.52054 0.23905
#
# Static dielectric constant tensor:
#      x y z
#    x 1.699510 0.000000 0.031750 
#    y 0.000000 1.428300 0.000000 
#    z 0.031750 0.000000 1.687170 
# 
# From -- ./inp_files/259898.got.cif
#   From: 2010.05.17/outbox.cif.g08.bks.cpg/sg12_130_cif.got.tgz:259898.got - 2010.06.03 13:09:07.
