data_PCOD9215918
_publ_section_title
;
Structure prediction by ZEFSAII (Michael W. Deem and Ramdas Pophale) SiO2 
 PCOD9215918
Probable space group: C 2/M
;
_chemical_formula_sum "Si O2"
_cell_formula_units_Z 44
_cell_length_a 19.414673
_cell_length_b 21.894735
_cell_length_c 6.003141
_cell_angle_alpha 90.000000
_cell_angle_beta 127.705336
_cell_angle_gamma 90.000000
_cell_volume 2018.906702
_symmetry_space_group_name_H-M "C 2/M"
_symmetry_group_IT_number 12
_symmetry_cell_setting 'monoclinic'
loop_
_space_group_symop_operation_xyz
x,y,z
-x,y,-z
-x,-y,-z
x,-y,z
1/2+x,1/2+y,z
1/2-x,1/2+y,-z
1/2-x,1/2-y,-z
1/2+x,1/2-y,z
loop_
_atom_site_type_symbol
_atom_site_label
_atom_site_fract_x
_atom_site_fract_y
_atom_site_fract_z
Si Si1 0.414277 0.070093 0.481467
Si Si2 0.193592 0.763744 0.106687
Si Si3 0.452711 0.500000 0.149503
Si Si4 0.249034 0.069981 0.820937
Si Si5 0.167957 0.654825 0.347432
Si Si6 0.403908 0.622999 0.216072
O O1 0.500000 0.077318 0.500000
O O2 0.405018 0.124440 0.642264
O O3 0.417513 0.000000 0.580744
O O4 0.327693 0.073638 0.155726
O O5 0.150161 0.701293 0.109704
O O6 0.264298 0.802120 0.388903
O O7 0.250000 0.750000 0.000000
O O8 0.117870 0.812810 0.932421
O O9 0.500000 0.500000 0.500000
O O10 0.399765 0.563072 0.052578
O O11 0.500000 0.500000 0.000000
O O12 0.284392 0.096239 0.661545
O O13 0.168477 0.110568 0.740178
O O14 0.220781 0.000000 0.748036
O O15 0.500000 0.625873 0.500000
#
# Coordination Sequence:
#
# PCOD9215918 Si02
#       6
#     8   8   4   8   8   8
#     4  10  22  42  68 102 141 178 229 294 350 416
#     4  11  23  44  68  93 139 184 231 289 336 421
#     4  10  24  46  70 106 149 189 241 307 360 434
#     4  11  22  42  71 103 138 177 229 288 357 418
#     4  11  22  41  73  94 133 188 231 283 353 421
#     4  11  23  44  68 102 142 184 231 293 357 429
#
# _framework density 21.793973000000001
#
# number of rings (size 3 to 8) (size 9 to 14) (size 15 to 20)
#    0.000    1.273    4.545    0.545    0.000    3.636 
#    1.636    8.182    4.000    0.000    0.000    0.000 
#    0.000    0.000    0.000    0.000    0.000    0.000 
#
# Total GULP energy -122729.533666 kJ/mol
# GULP energy per Si atom -5578.615167 kJ/mol
# Density = 2.174437 g / cm^3
# Si number density = 21.793973 Si / 1000 Ang^3
#
#
#
# Elastic Constant Matrix: (Units=GPa)
#
#
# Indices 1 2 3 4 5 6 
#
# 1 115.9471 51.0719 20.0863 0.0000 -1.6746 0.0000
# 2 51.0719 138.9885 23.5585 0.0000 -5.4776 0.0000
# 3 20.0863 23.5585 25.5248 0.0000 -1.6617 0.0000
# 4 0.0000 0.0000 0.0000 -5.9380 0.0000 -27.2316
# 5 -1.6746 -5.4776 -1.6617 0.0000 32.3946 0.0000
# 6 0.0000 0.0000 0.0000 -27.2316 0.0000 44.1468
#
#
#
# Elastic Compliance Matrix: (Units=1/GPa)
#
#
# Indices 1 2 3 4 5 6 
#
# 1 0.010977 -0.003054 -0.005836 0.000000 -0.000248 0.000000
# 2 -0.003054 0.009414 -0.006213 0.000000 0.001115 0.000000
# 3 -0.005836 -0.006213 0.049581 0.000000 0.001191 0.000000
# 4 0.000000 0.000000 0.000000 -0.043984 0.000000 -0.027131
# 5 -0.000248 0.001115 0.001191 0.000000 0.031106 0.000000
# 6 0.000000 0.000000 0.000000 -0.027131 0.000000 0.005916
#
#
# Mechanical properties :
#
#
# Convention : Reuss Voigt Hill
#
# Bulk Modulus (GPa) = 25.14605 52.21041 38.67823
# Shear Modulus (GPa) = 46.96049 26.50359 36.73204
#
# Velocity S-wave (km/s) = 4.64696 3.49104 4.10984
# Velocity P-wave (km/s) = 6.35259 6.34493 6.34877
#
# Compressibility (1/GPa) = 0.03976767
#
# Stress axis : x y z
#
# Youngs Moduli (GPa) = 91.09691 106.22272 20.16882
#
# Poissons Ratio (x) = 0.32444 0.11770
# Poissons Ratio (y) = 0.27824 0.12530
# Poissons Ratio (z) = 0.53160 0.65994
#
# Static dielectric constant tensor:
#      x y z
#    x 1.598000 0.000000 0.042870 
#    y 0.000000 1.816320 0.000000 
#    z 0.042870 0.000000 1.875040 
# 
# From -- ./inp_files/16997.got.cif
#   From: 2010.05.17/outbox.cif.g08.bks.cpg/sg12_9_cif.got.tgz:16997.got - 2010.06.03 13:09:07.
