data_PCOD9215096
_publ_section_title
;
Structure prediction by ZEFSAII (Michael W. Deem and Ramdas Pophale) SiO2 
 PCOD9215096
Probable space group: C 2/M
;
_chemical_formula_sum "Si O2"
_cell_formula_units_Z 64
_cell_length_a 19.221736
_cell_length_b 9.146794
_cell_length_c 28.988328
_cell_angle_alpha 90.000000
_cell_angle_beta 35.040706
_cell_angle_gamma 90.000000
_cell_volume 2926.282776
_symmetry_space_group_name_H-M "C 2/M"
_symmetry_group_IT_number 12
_symmetry_cell_setting 'monoclinic'
loop_
_space_group_symop_operation_xyz
x,y,z
-x,y,-z
-x,-y,-z
x,-y,z
1/2+x,1/2+y,z
1/2-x,1/2+y,-z
1/2-x,1/2-y,-z
1/2+x,1/2-y,z
loop_
_atom_site_type_symbol
_atom_site_label
_atom_site_fract_x
_atom_site_fract_y
_atom_site_fract_z
Si Si1 0.336508 0.170339 0.054269
Si Si2 0.098246 0.329385 0.700093
Si Si3 0.052102 0.332577 0.546179
Si Si4 0.960385 0.173014 0.358033
Si Si5 0.030163 0.170852 0.892087
Si Si6 0.192074 0.667164 0.372732
Si Si7 0.592044 0.331932 0.140510
Si Si8 0.779739 0.326276 0.794519
O O1 0.235869 0.181321 0.068067
O O2 0.283183 0.266032 0.124829
O O3 0.344494 0.000000 0.063409
O O4 0.461834 0.230113 0.966423
O O5 0.103490 0.500000 0.688778
O O6 0.198092 0.277520 0.682638
O O7 0.112836 0.241193 0.644742
O O8 0.970762 0.279208 0.790443
O O9 0.059281 0.500000 0.559367
O O10 0.091005 0.223834 0.564928
O O11 0.912571 0.303114 0.607414
O O12 0.125847 0.325474 0.458610
O O13 0.095842 0.241002 0.281387
O O14 0.964229 0.000000 0.351770
O O15 0.964242 0.192223 0.879091
O O16 0.174247 0.197854 0.813661
O O17 0.014655 0.000000 0.913494
O O18 0.235347 0.500000 0.342427
O O19 0.561443 0.500000 0.170981
O O20 0.804355 0.500000 0.784021
#
# Coordination Sequence:
#
# PCOD9215096 Si02
#       8
#     8   8   8   8   8   8   8   8
#     4  11  22  38  62  88 119 158 200 253 307 359
#     4  12  25  40  62  91 123 164 208 252 303 362
#     4   9  20  41  68  96 125 163 203 242 297 362
#     4  12  25  41  62  89 124 164 204 256 309 356
#     4  10  23  40  61  87 117 158 204 248 301 366
#     4   9  20  41  68  95 127 163 200 245 298 358
#     4  10  22  41  61  86 120 161 203 249 306 360
#     4  11  23  40  61  87 119 160 205 251 301 364
#
# _framework density 21.870750999999998
#
# number of rings (size 3 to 8) (size 9 to 14) (size 15 to 20)
#    0.000    1.500    1.250    4.500    1.750    5.000 
#    0.000    1.250    0.000    0.000    0.000    0.000 
#    0.000    0.000    0.000    0.000    0.000    0.000 
#
# Total GULP energy -179035.198358 kJ/mol
# GULP energy per Si atom -5594.849949 kJ/mol
# Density = 2.182097 g / cm^3
# Si number density = 21.870751 Si / 1000 Ang^3
#
#
#
# Elastic Constant Matrix: (Units=GPa)
#
#
# Indices 1 2 3 4 5 6 
#
# 1 73.1535 38.1748 -4.7110 0.0000 -5.6230 -0.0002
# 2 38.1748 113.0246 17.1802 -0.0001 6.6576 -0.0008
# 3 -4.7110 17.1802 32.3940 0.0000 -7.7388 0.0000
# 4 0.0000 -0.0001 0.0000 32.7507 0.0000 2.4500
# 5 -5.6230 6.6576 -7.7388 0.0000 33.4728 0.0000
# 6 -0.0002 -0.0008 0.0000 2.4500 0.0000 23.3533
#
#
#
# Elastic Compliance Matrix: (Units=1/GPa)
#
#
# Indices 1 2 3 4 5 6 
#
# 1 0.019008 -0.008147 0.008716 0.000000 0.006829 0.000000
# 2 -0.008147 0.013467 -0.009837 0.000000 -0.006321 0.000000
# 3 0.008716 -0.009837 0.040403 0.000000 0.012762 0.000000
# 4 0.000000 0.000000 0.000000 0.030775 0.000000 -0.003229
# 5 0.006829 -0.006321 0.012762 0.000000 0.035230 0.000000
# 6 0.000000 0.000000 0.000000 -0.003229 0.000000 0.043159
#
#
# Mechanical properties :
#
#
# Convention : Reuss Voigt Hill
#
# Bulk Modulus (GPa) = 18.40191 35.54002 26.97096
# Shear Modulus (GPa) = 22.86317 29.11057 25.98687
#
# Velocity S-wave (km/s) = 3.23674 3.65228 3.45077
# Velocity P-wave (km/s) = 4.73295 5.83702 5.31374
#
# Compressibility (1/GPa) = 0.05434220
#
# Stress axis : x y z
#
# Youngs Moduli (GPa) = 52.61041 74.25546 24.75038
#
# Poissons Ratio (x) = 0.60497 -0.21573
# Poissons Ratio (y) = 0.42862 0.24347
# Poissons Ratio (z) = -0.45857 0.73047
#
# Static dielectric constant tensor:
#      x y z
#    x 1.829660 0.000000 -0.005710 
#    y 0.000000 1.733070 0.000000 
#    z -0.005710 0.000000 1.805750 
# 
# From -- ./inp_files/377969.got.cif
#   From: 2010.05.17/outbox.cif.g08.bks.cpg/sg12_189_cif.got.tgz:377969.got - 2010.06.03 13:09:07.
