data_PCOD9215650
_publ_section_title
;
Structure prediction by ZEFSAII (Michael W. Deem and Ramdas Pophale) SiO2 
 PCOD9215650
Probable space group: C 2/M
;
_chemical_formula_sum "Si O2"
_cell_formula_units_Z 46
_cell_length_a 8.173462
_cell_length_b 19.192373
_cell_length_c 18.352116
_cell_angle_alpha 90.000000
_cell_angle_beta 141.430329
_cell_angle_gamma 90.000000
_cell_volume 1794.872143
_symmetry_space_group_name_H-M "C 2/M"
_symmetry_group_IT_number 12
_symmetry_cell_setting 'monoclinic'
loop_
_space_group_symop_operation_xyz
x,y,z
-x,y,-z
-x,-y,-z
x,-y,z
1/2+x,1/2+y,z
1/2-x,1/2+y,-z
1/2-x,1/2-y,-z
1/2+x,1/2-y,z
loop_
_atom_site_type_symbol
_atom_site_label
_atom_site_fract_x
_atom_site_fract_y
_atom_site_fract_z
Si Si1 0.500000 0.500000 0.000000
Si Si2 0.000000 0.189346 0.500000
Si Si3 0.011808 0.674064 0.157731
Si Si4 0.235685 0.578903 0.681410
Si Si5 0.955596 0.079705 0.354286
Si Si6 0.246418 0.903492 0.958956
Si Si7 0.435682 0.794250 0.291276
O O1 0.362374 0.441582 0.006485
O O2 0.012137 0.136480 0.572061
O O3 0.266321 0.233638 0.597767
O O4 0.187494 0.603312 0.220915
O O5 0.219277 0.736752 0.229473
O O6 0.880661 0.678382 0.190833
O O7 0.836253 0.670009 0.024840
O O8 0.140452 0.500000 0.664518
O O9 0.311966 0.582830 0.623621
O O10 0.506259 0.591502 0.819815
O O11 0.064315 0.640689 0.653746
O O12 0.933653 0.000000 0.372745
O O13 0.500000 0.926855 0.000000
#
# Coordination Sequence:
#
# PCOD9215650 Si02
#       7
#     2   4   8   8   8   8   8
#     4  12  26  40  72 122 152 204 264 282 362 458
#     4  10  25  48  76 100 139 192 246 328 389 448
#     4  11  25  44  71 105 146 200 250 308 370 454
#     4  11  24  44  71 110 151 196 246 306 371 460
#     4  10  22  41  71 107 139 183 244 307 376 444
#     4  12  25  45  74 111 160 206 249 304 375 449
#     4  11  26  48  71 106 144 192 263 312 384 448
#
# _framework density 25.628568000000001
#
# number of rings (size 3 to 8) (size 9 to 14) (size 15 to 20)
#    0.000    1.043    2.609    2.609    1.217    7.652 
#    0.000    1.739    0.000    0.000    0.000    0.000 
#    0.000    0.000    0.000    0.000    0.000    0.000 
#
# Total GULP energy -128456.294915 kJ/mol
# GULP energy per Si atom -5585.056301 kJ/mol
# Density = 2.557024 g / cm^3
# Si number density = 25.628568 Si / 1000 Ang^3
#
#
#
# Elastic Constant Matrix: (Units=GPa)
#
#
# Indices 1 2 3 4 5 6 
#
# 1 146.4505 37.8824 20.1218 0.0026 -16.7203 0.0009
# 2 37.8824 112.4674 21.1950 0.0020 -7.1451 0.0004
# 3 20.1218 21.1950 40.5282 0.0015 1.0125 0.0006
# 4 0.0026 0.0020 0.0015 121.4064 0.0038 42.8714
# 5 -16.7203 -7.1451 1.0125 0.0038 43.4835 0.0012
# 6 0.0009 0.0004 0.0006 42.8714 0.0012 29.8202
#
#
#
# Elastic Compliance Matrix: (Units=1/GPa)
#
#
# Indices 1 2 3 4 5 6 
#
# 1 0.008083 -0.001965 -0.003057 0.000000 0.002856 0.000000
# 2 -0.001965 0.010475 -0.004529 0.000000 0.001071 0.000000
# 3 -0.003057 -0.004529 0.028625 0.000000 -0.002586 0.000000
# 4 0.000000 0.000000 0.000000 0.016730 -0.000001 -0.024053
# 5 0.002856 0.001071 -0.002586 -0.000001 0.024332 0.000000
# 6 0.000000 0.000000 0.000000 -0.024053 0.000000 0.068114
#
#
# Mechanical properties :
#
#
# Convention : Reuss Voigt Hill
#
# Bulk Modulus (GPa) = 35.61147 50.87160 43.24153
# Shear Modulus (GPa) = 27.05329 53.62516 40.33922
#
# Velocity S-wave (km/s) = 3.25251 4.57924 3.97166
# Velocity P-wave (km/s) = 5.29438 6.91750 6.15964
#
# Compressibility (1/GPa) = 0.02808084
#
# Stress axis : x y z
#
# Youngs Moduli (GPa) = 123.72266 95.46607 34.93449
#
# Poissons Ratio (x) = 0.18759 0.10678
# Poissons Ratio (y) = 0.24311 0.15823
# Poissons Ratio (z) = 0.37818 0.43239
#
# Static dielectric constant tensor:
#      x y z
#    x 2.024710 0.000000 0.041110 
#    y 0.000000 2.016650 0.000000 
#    z 0.041110 0.000000 2.072740 
# 
# From -- ./inp_files/301860.got.cif
#   From: 2010.05.17/outbox.cif.g08.bks.cpg/sg12_151_cif.got.tgz:301860.got - 2010.06.03 13:09:07.
