data_PCOD9215088
_publ_section_title
;
Structure prediction by ZEFSAII (Michael W. Deem and Ramdas Pophale) SiO2 
 PCOD9215088
Probable space group: C 2/M
;
_chemical_formula_sum "Si O2"
_cell_formula_units_Z 40
_cell_length_a 12.678959
_cell_length_b 26.826267
_cell_length_c 7.423656
_cell_angle_alpha 90.000000
_cell_angle_beta 136.028296
_cell_angle_gamma 90.000000
_cell_volume 1753.116359
_symmetry_space_group_name_H-M "C 2/M"
_symmetry_group_IT_number 12
_symmetry_cell_setting 'monoclinic'
loop_
_space_group_symop_operation_xyz
x,y,z
-x,y,-z
-x,-y,-z
x,-y,z
1/2+x,1/2+y,z
1/2-x,1/2+y,-z
1/2-x,1/2-y,-z
1/2+x,1/2-y,z
loop_
_atom_site_type_symbol
_atom_site_label
_atom_site_fract_x
_atom_site_fract_y
_atom_site_fract_z
Si Si1 0.905383 0.709942 0.037371
Si Si2 0.360847 0.596782 0.471239
Si Si3 0.107589 0.792767 0.468597
Si Si4 0.633603 0.892217 0.872693
Si Si5 0.806194 0.442001 0.410450
O O1 0.869011 0.668311 0.140547
O O2 0.013800 0.753672 0.237827
O O3 0.755989 0.729018 0.750612
O O4 0.000000 0.681589 0.000000
O O5 0.500000 0.587667 0.500000
O O6 0.360932 0.652139 0.565086
O O7 0.321892 0.562369 0.593107
O O8 0.218253 0.595518 0.160955
O O9 0.000000 0.805877 0.500000
O O10 0.464519 0.914943 0.662057
O O11 0.726966 0.914966 0.820158
O O12 0.836814 0.500000 0.414729
#
# Coordination Sequence:
#
# PCOD9215088 Si02
#       5
#     8   8   8   8   8
#     4  11  22  40  64  96 135 179 222 269 328 392
#     4  10  23  45  65  95 140 173 212 271 336 396
#     4  10  22  41  60  94 135 178 221 263 328 395
#     4  10  22  42  67  95 135 169 220 275 325 391
#     4  11  24  43  71  99 122 169 228 277 333 389
#
# _framework density 22.816510999999998
#
# number of rings (size 3 to 8) (size 9 to 14) (size 15 to 20)
#    0.000    1.600    0.000    5.400    2.800    3.600 
#   10.800    1.000    0.000    0.000    0.000    0.000 
#    0.000    0.000    0.000    0.000    0.000    0.000 
#
# Total GULP energy -111571.119252 kJ/mol
# GULP energy per Si atom -5578.555963 kJ/mol
# Density = 2.276458 g / cm^3
# Si number density = 22.816511 Si / 1000 Ang^3
#
#
#
# Elastic Constant Matrix: (Units=GPa)
#
#
# Indices 1 2 3 4 5 6 
#
# 1 113.2496 63.7130 29.4978 0.0000 -18.7911 0.0000
# 2 63.7130 222.4982 124.4548 0.0000 -46.3162 0.0000
# 3 29.4978 124.4548 139.1514 0.0000 -16.4103 0.0000
# 4 0.0000 0.0000 0.0000 1.4410 0.0000 -10.3166
# 5 -18.7911 -46.3162 -16.4103 0.0000 34.6437 0.0000
# 6 0.0000 0.0000 0.0000 -10.3166 0.0000 40.4276
#
#
#
# Elastic Compliance Matrix: (Units=1/GPa)
#
#
# Indices 1 2 3 4 5 6 
#
# 1 0.010691 -0.002988 0.000655 0.000000 0.002115 0.000000
# 2 -0.002988 0.013244 -0.009866 0.000000 0.011413 0.000000
# 3 0.000655 -0.009866 0.015208 0.000000 -0.005632 0.000000
# 4 0.000000 0.000000 0.000000 -0.839147 0.000000 -0.214140
# 5 0.002115 0.011413 -0.005632 0.000000 0.042603 0.000000
# 6 0.000000 0.000000 0.000000 -0.214140 0.000000 -0.029910
#
#
# Mechanical properties :
#
#
# Convention : Reuss Voigt Hill
#
# Bulk Modulus (GPa) = 67.81647 101.13670 84.47658
# Shear Modulus (GPa) = -6.59632 32.45135 12.92751
#
# Velocity S-wave (km/s) = -1.70215 3.77540 2.38289
# Velocity P-wave (km/s) = 5.09156 7.96412 6.68398
#
# Compressibility (1/GPa) = 0.01474568
#
# Stress axis : x y z
#
# Youngs Moduli (GPa) = 93.53524 75.50338 65.75614
#
# Poissons Ratio (x) = 0.22558 -0.04308
# Poissons Ratio (y) = 0.27945 0.64877
# Poissons Ratio (z) = -0.06128 0.74494
#
# Static dielectric constant tensor:
#      x y z
#    x 1.906390 0.000000 0.078380 
#    y 0.000000 1.888580 0.000000 
#    z 0.078380 0.000000 1.784630 
# 
# From -- ./inp_files/66648.got.cif
#   From: 2010.05.17/outbox.cif.g08.bks.cpg/sg12_34_cif.got.tgz:66648.got - 2010.06.03 13:09:07.
