data_PCOD9215072
_publ_section_title
;
Structure prediction by ZEFSAII (Michael W. Deem and Ramdas Pophale) SiO2 
 PCOD9215072
Probable space group: C 2/M
;
_chemical_formula_sum "Si O2"
_cell_formula_units_Z 50
_cell_length_a 15.952545
_cell_length_b 14.779816
_cell_length_c 10.862897
_cell_angle_alpha 90.000000
_cell_angle_beta 72.498006
_cell_angle_gamma 90.000000
_cell_volume 2442.639654
_symmetry_space_group_name_H-M "C 2/M"
_symmetry_group_IT_number 12
_symmetry_cell_setting 'monoclinic'
loop_
_space_group_symop_operation_xyz
x,y,z
-x,y,-z
-x,-y,-z
x,-y,z
1/2+x,1/2+y,z
1/2-x,1/2+y,-z
1/2-x,1/2-y,-z
1/2+x,1/2-y,z
loop_
_atom_site_type_symbol
_atom_site_label
_atom_site_fract_x
_atom_site_fract_y
_atom_site_fract_z
Si Si1 0.399427 0.648056 0.220945
Si Si2 0.433631 0.751207 0.794312
Si Si3 0.260427 0.395600 0.487896
Si Si4 0.000000 0.000000 0.000000
Si Si5 0.175882 0.280438 0.936433
Si Si6 0.801017 0.106640 0.742887
Si Si7 0.097562 0.605433 0.400706
O O1 0.466464 0.719357 0.251987
O O2 0.339501 0.607646 0.355286
O O3 0.335357 0.702971 0.159285
O O4 0.454925 0.578759 0.111217
O O5 0.376793 0.663694 0.777273
O O6 0.406399 0.831422 0.716105
O O7 0.410407 0.782452 0.942471
O O8 0.239151 0.500000 0.525240
O O9 0.288976 0.358940 0.608162
O O10 0.171954 0.359615 0.462784
O O11 0.211176 0.369869 0.854717
O O12 0.250000 0.250000 0.000000
O O13 0.821168 0.000000 0.737703
O O14 0.118800 0.500000 0.361627
O O15 0.000000 0.607596 0.500000
#
# Coordination Sequence:
#
# PCOD9215072 Si02
#       7
#     8   8   8   2   8   8   8
#     4  12  24  41  68  98 133 176 223 268 335 398
#     4  11  24  40  64  98 131 170 224 275 332 405
#     4  10  22  41  65  96 126 172 226 267 331 403
#     4  12  24  44  68  98 140 184 210 286 328 396
#     4  10  22  41  59  90 128 166 222 263 317 395
#     4  10  24  41  65  97 135 174 215 279 340 397
#     4  10  24  45  67  94 129 175 229 279 330 394
#
# _framework density 20.469659
#
# number of rings (size 3 to 8) (size 9 to 14) (size 15 to 20)
#    0.000    1.440    2.400    1.920    5.600    1.920 
#    0.000    1.600    0.000    1.920    0.000    0.000 
#    0.000    0.000    0.000    0.000    0.000    0.000 
#
# Total GULP energy -139282.018884 kJ/mol
# GULP energy per Si atom -5571.280755 kJ/mol
# Density = 2.042307 g / cm^3
# Si number density = 20.469659 Si / 1000 Ang^3
#
#
#
# Elastic Constant Matrix: (Units=GPa)
#
#
# Indices 1 2 3 4 5 6 
#
# 1 87.1783 14.0123 30.0730 0.0000 7.1540 0.0000
# 2 14.0123 83.5019 27.9516 0.0000 7.4756 0.0000
# 3 30.0730 27.9516 105.1087 0.0000 5.1072 0.0000
# 4 0.0000 0.0000 0.0000 33.6267 0.0000 -6.7354
# 5 7.1540 7.4756 5.1072 0.0000 29.0954 0.0000
# 6 0.0000 0.0000 0.0000 -6.7354 0.0000 18.2842
#
#
#
# Elastic Compliance Matrix: (Units=1/GPa)
#
#
# Indices 1 2 3 4 5 6 
#
# 1 0.012963 -0.000834 -0.003372 0.000000 -0.002381 0.000000
# 2 -0.000834 0.013428 -0.003202 0.000000 -0.002683 0.000000
# 3 -0.003372 -0.003202 0.011347 0.000000 -0.000340 0.000000
# 4 0.000000 0.000000 0.000000 0.032107 0.000000 0.011827
# 5 -0.002381 -0.002683 -0.000340 0.000000 0.035704 0.000000
# 6 0.000000 0.000000 0.000000 0.011827 0.000000 0.059049
#
#
# Mechanical properties :
#
#
# Convention : Reuss Voigt Hill
#
# Bulk Modulus (GPa) = 43.62358 46.65139 45.13748
# Shear Modulus (GPa) = 26.73035 29.78473 28.25754
#
# Velocity S-wave (km/s) = 3.61758 3.81867 3.71948
# Velocity P-wave (km/s) = 6.22951 6.50254 6.36749
#
# Compressibility (1/GPa) = 0.02292338
#
# Stress axis : x y z
#
# Youngs Moduli (GPa) = 77.14145 74.47301 88.13183
#
# Poissons Ratio (x) = 0.06207 0.29714
# Poissons Ratio (y) = 0.06430 0.28220
# Poissons Ratio (z) = 0.26009 0.23846
#
# Static dielectric constant tensor:
#      x y z
#    x 1.765230 0.000000 -0.016170 
#    y 0.000000 1.730550 0.000000 
#    z -0.016170 0.000000 1.747330 
# 
# From -- ./inp_files/143676.got.cif
#   From: 2010.05.17/outbox.cif.g08.bks.cpg/sg12_72_cif.got.tgz:143676.got - 2010.06.03 13:09:07.
