data_PCOD9215669
_publ_section_title
;
Structure prediction by ZEFSAII (Michael W. Deem and Ramdas Pophale) SiO2 
 PCOD9215669
Probable space group: C 2/M
;
_chemical_formula_sum "Si O2"
_cell_formula_units_Z 48
_cell_length_a 15.660262
_cell_length_b 19.214080
_cell_length_c 14.030388
_cell_angle_alpha 90.000000
_cell_angle_beta 153.514310
_cell_angle_gamma 90.000000
_cell_volume 1882.773669
_symmetry_space_group_name_H-M "C 2/M"
_symmetry_group_IT_number 12
_symmetry_cell_setting 'monoclinic'
loop_
_space_group_symop_operation_xyz
x,y,z
-x,y,-z
-x,-y,-z
x,-y,z
1/2+x,1/2+y,z
1/2-x,1/2+y,-z
1/2-x,1/2-y,-z
1/2+x,1/2-y,z
loop_
_atom_site_type_symbol
_atom_site_label
_atom_site_fract_x
_atom_site_fract_y
_atom_site_fract_z
Si Si1 0.730888 0.348542 0.932426
Si Si2 0.223066 0.000000 0.653945
Si Si3 0.307533 0.636185 0.480951
Si Si4 0.290440 0.381218 0.805076
Si Si5 0.163738 0.500000 0.020771
Si Si6 0.770461 0.224699 0.265134
Si Si7 0.005294 0.620162 0.340733
O O1 0.505689 0.338608 0.726038
O O2 0.771823 0.325760 0.865221
O O3 0.785847 0.430957 0.987727
O O4 0.876353 0.319985 0.158054
O O5 0.134836 0.070478 0.525952
O O6 0.443388 0.000000 0.835959
O O7 0.224564 0.000000 0.768340
O O8 0.222723 0.692287 0.321078
O O9 0.155888 0.607965 0.405275
O O10 0.313658 0.298731 0.846527
O O11 0.160734 0.377224 0.581034
O O12 0.167287 0.413504 0.768215
O O13 0.500000 0.412430 0.000000
O O14 0.000000 0.233299 0.500000
#
# Coordination Sequence:
#
# PCOD9215669 Si02
#       7
#     8   4   8   8   4   8   8
#     4  11  23  39  66  97 134 176 212 258 322 394
#     4  11  21  37  65  98 141 178 204 256 330 397
#     4  11  23  39  66  97 134 176 212 258 322 394
#     4  11  25  46  66  86 126 178 221 277 329 369
#     4  11  21  37  65  98 141 178 204 256 330 397
#     4  10  22  42  60  94 136 172 214 260 316 390
#     4  11  24  44  63  95 128 169 227 274 317 383
#
# _framework density 25.494301
#
# number of rings (size 3 to 8) (size 9 to 14) (size 15 to 20)
#    0.000    1.167    5.000    1.500    2.333    2.000 
#    0.000    0.000    0.000    8.000    0.000   14.000 
#    0.000    0.000    0.000    0.000    0.000    0.000 
#
# Total GULP energy -133840.388604 kJ/mol
# GULP energy per Si atom -5576.682858 kJ/mol
# Density = 2.543627 g / cm^3
# Si number density = 25.494301 Si / 1000 Ang^3
#
#
#
# Elastic Constant Matrix: (Units=GPa)
#
#
# Indices 1 2 3 4 5 6 
#
# 1 189.3183 20.3906 69.1253 0.0000 -3.0162 0.0000
# 2 20.3906 64.6952 -6.9106 0.0000 7.8587 0.0000
# 3 69.1253 -6.9106 163.3938 0.0000 10.8543 0.0000
# 4 0.0000 0.0000 0.0000 25.5600 0.0000 -8.3833
# 5 -3.0162 7.8587 10.8543 0.0000 50.3991 0.0000
# 6 0.0000 0.0000 0.0000 -8.3833 0.0000 8.5263
#
#
#
# Elastic Compliance Matrix: (Units=1/GPa)
#
#
# Indices 1 2 3 4 5 6 
#
# 1 0.006697 -0.002613 -0.003041 0.000000 0.001463 0.000000
# 2 -0.002613 0.016890 0.002034 0.000000 -0.003228 0.000000
# 3 -0.003041 0.002034 0.007635 0.000000 -0.002144 0.000000
# 4 0.000000 0.000000 0.000000 0.057746 0.000000 0.056777
# 5 0.001463 -0.003228 -0.002144 0.000000 0.020894 0.000000
# 6 0.000000 0.000000 0.000000 0.056777 0.000000 0.173109
#
#
# Mechanical properties :
#
#
# Convention : Reuss Voigt Hill
#
# Bulk Modulus (GPa) = 41.69692 64.73532 53.21612
# Shear Modulus (GPa) = 16.76692 39.21721 27.99206
#
# Velocity S-wave (km/s) = 2.56730 3.92634 3.31716
# Velocity P-wave (km/s) = 5.01786 6.78248 5.96578
#
# Compressibility (1/GPa) = 0.02398259
#
# Stress axis : x y z
#
# Youngs Moduli (GPa) = 149.31416 59.20571 130.97252
#
# Poissons Ratio (x) = 0.15473 0.39830
# Poissons Ratio (y) = 0.39022 -0.26646
# Poissons Ratio (z) = 0.45408 -0.12045
#
# Static dielectric constant tensor:
#      x y z
#    x 1.992410 0.000000 -0.018360 
#    y 0.000000 2.029780 0.000000 
#    z -0.018360 0.000000 2.146930 
# 
# From -- ./inp_files/149893.got.cif
#   From: 2010.05.17/outbox.cif.g08.bks.cpg/sg12_75_cif.got.tgz:149893.got - 2010.06.03 13:09:07.
