data_PCOD9215241
_publ_section_title
;
Structure prediction by ZEFSAII (Michael W. Deem and Ramdas Pophale) SiO2 
 PCOD9215241
Probable space group: C 2/M
;
_chemical_formula_sum "Si O2"
_cell_formula_units_Z 44
_cell_length_a 17.958709
_cell_length_b 11.362505
_cell_length_c 9.895933
_cell_angle_alpha 90.000000
_cell_angle_beta 108.235096
_cell_angle_gamma 90.000000
_cell_volume 1917.914405
_symmetry_space_group_name_H-M "C 2/M"
_symmetry_group_IT_number 12
_symmetry_cell_setting 'monoclinic'
loop_
_space_group_symop_operation_xyz
x,y,z
-x,y,-z
-x,-y,-z
x,-y,z
1/2+x,1/2+y,z
1/2-x,1/2+y,-z
1/2-x,1/2-y,-z
1/2+x,1/2-y,z
loop_
_atom_site_type_symbol
_atom_site_label
_atom_site_fract_x
_atom_site_fract_y
_atom_site_fract_z
Si Si1 0.550982 0.198327 0.263933
Si Si2 0.074416 0.867776 0.752003
Si Si3 0.924382 0.500000 0.132629
Si Si4 0.302683 0.180323 0.187846
Si Si5 0.204551 0.628056 0.506007
Si Si6 0.624469 0.365747 0.081517
O O1 0.497089 0.283040 0.325963
O O2 0.493191 0.102138 0.168449
O O3 0.619952 0.139610 0.388514
O O4 0.591418 0.277217 0.172494
O O5 0.157106 0.806958 0.767456
O O6 0.067660 0.000000 0.697818
O O7 0.074332 0.869462 0.916329
O O8 0.857201 0.603134 0.121016
O O9 0.305228 0.125549 0.338805
O O10 0.212421 0.175313 0.094701
O O11 0.239721 0.500000 0.484423
O O12 0.250000 0.750000 0.500000
O O13 0.628184 0.500000 0.136591
#
# Coordination Sequence:
#
# PCOD9215241 Si02
#       6
#     8   8   4   8   8   8
#     4  11  23  40  66 100 133 175 228 276 344 405
#     4  10  24  42  65  97 135 179 227 287 344 409
#     4  10  22  41  63  96 137 170 219 273 339 398
#     4  11  22  42  68  96 132 180 226 275 347 412
#     4  12  25  43  71 102 139 180 231 291 347 418
#     4  11  21  42  70  96 135 183 229 279 341 415
#
# _framework density 22.941586999999998
#
# number of rings (size 3 to 8) (size 9 to 14) (size 15 to 20)
#    0.000    1.091    4.545    1.636    0.000    6.545 
#    1.636    8.182    0.000    0.000    0.000    0.000 
#    0.000    0.000    0.000    0.000    0.000    0.000 
#
# Total GULP energy -122513.898168 kJ/mol
# GULP energy per Si atom -5568.813553 kJ/mol
# Density = 2.288937 g / cm^3
# Si number density = 22.941587 Si / 1000 Ang^3
#
#
#
# Elastic Constant Matrix: (Units=GPa)
#
#
# Indices 1 2 3 4 5 6 
#
# 1 92.5131 49.2200 19.8098 0.0000 34.7023 0.0000
# 2 49.2200 203.9296 -2.6856 0.0000 11.4713 0.0000
# 3 19.8098 -2.6856 44.5222 0.0000 7.2183 0.0000
# 4 0.0000 0.0000 0.0000 11.5548 0.0000 -4.0369
# 5 34.7023 11.4713 7.2183 0.0000 25.3112 0.0000
# 6 0.0000 0.0000 0.0000 -4.0369 0.0000 39.9952
#
#
#
# Elastic Compliance Matrix: (Units=1/GPa)
#
#
# Indices 1 2 3 4 5 6 
#
# 1 0.027418 -0.004833 -0.007079 0.000000 -0.033382 0.000000
# 2 -0.004833 0.005905 0.001957 0.000000 0.003392 0.000000
# 3 -0.007079 0.001957 0.025477 0.000000 0.001553 0.000000
# 4 0.000000 0.000000 0.000000 0.089707 0.000000 0.009055
# 5 -0.033382 0.003392 0.001553 0.000000 0.083296 0.000000
# 6 0.000000 0.000000 0.000000 0.009055 0.000000 0.025917
#
#
# Mechanical properties :
#
#
# Convention : Reuss Voigt Hill
#
# Bulk Modulus (GPa) = 25.71385 52.62814 39.17100
# Shear Modulus (GPa) = 17.20615 33.68028 25.44321
#
# Velocity S-wave (km/s) = 2.74158 3.83572 3.33384
# Velocity P-wave (km/s) = 4.61025 6.52739 5.65072
#
# Compressibility (1/GPa) = 0.03888954
#
# Stress axis : x y z
#
# Youngs Moduli (GPa) = 36.47198 169.34475 39.25162
#
# Poissons Ratio (x) = 0.81845 0.27786
# Poissons Ratio (y) = 0.17627 -0.07680
# Poissons Ratio (z) = 0.25818 -0.33136
#
# Static dielectric constant tensor:
#      x y z
#    x 1.853970 0.000000 -0.019850 
#    y 0.000000 1.933350 0.000000 
#    z -0.019850 0.000000 1.874040 
# 
# From -- ./inp_files/154389.got.cif
#   From: 2010.05.17/outbox.cif.g08.bks.cpg/sg12_78_cif.got.tgz:154389.got - 2010.06.03 13:09:07.
