data_PCOD9215113
_publ_section_title
;
Structure prediction by ZEFSAII (Michael W. Deem and Ramdas Pophale) SiO2 
 PCOD9215113
Probable space group: C 2/M
;
_chemical_formula_sum "Si O2"
_cell_formula_units_Z 40
_cell_length_a 11.857947
_cell_length_b 15.043584
_cell_length_c 12.107441
_cell_angle_alpha 90.000000
_cell_angle_beta 57.905941
_cell_angle_gamma 90.000000
_cell_volume 1829.731426
_symmetry_space_group_name_H-M "C 2/M"
_symmetry_group_IT_number 12
_symmetry_cell_setting 'monoclinic'
loop_
_space_group_symop_operation_xyz
x,y,z
-x,y,-z
-x,-y,-z
x,-y,z
1/2+x,1/2+y,z
1/2-x,1/2+y,-z
1/2-x,1/2-y,-z
1/2+x,1/2-y,z
loop_
_atom_site_type_symbol
_atom_site_label
_atom_site_fract_x
_atom_site_fract_y
_atom_site_fract_z
Si Si1 0.654705 0.334447 0.056649
Si Si2 0.459411 0.898503 0.393161
Si Si3 0.123074 0.247900 0.717575
Si Si4 0.257282 0.600561 0.217287
Si Si5 0.649159 0.904605 0.873881
O O1 0.518188 0.298847 0.180052
O O2 0.736239 0.399534 0.094059
O O3 0.750000 0.250000 0.000000
O O4 0.651766 0.372735 0.934241
O O5 0.500000 0.891893 0.500000
O O6 0.385354 0.810895 0.385669
O O7 0.603982 0.895787 0.257012
O O8 0.404426 0.000000 0.407101
O O9 0.222047 0.166543 0.690632
O O10 0.161609 0.320499 0.789479
O O11 0.286151 0.500000 0.236243
O O12 0.659266 0.000000 0.810593
O O13 0.500000 0.899376 0.000000
#
# Coordination Sequence:
#
# PCOD9215113 Si02
#       5
#     8   8   8   8   8
#     4  12  20  34  53  81 119 151 177 223 276 339
#     4  10  22  41  62  83 109 146 192 241 288 331
#     4  12  21  36  58  82 113 147 188 230 281 335
#     4  11  23  38  57  84 118 153 188 229 278 338
#     4  11  20  31  50  77 108 145 183 223 269 324
#
# _framework density 21.861132000000001
#
# number of rings (size 3 to 8) (size 9 to 14) (size 15 to 20)
#    0.000    0.800    6.000    1.800    0.000    6.400 
#    0.000    0.000    0.000    0.600    0.000    0.000 
#    0.000    0.000    0.000    0.000    0.000    0.000 
#
# Total GULP energy -111620.254126 kJ/mol
# GULP energy per Si atom -5581.012706 kJ/mol
# Density = 2.181137 g / cm^3
# Si number density = 21.861132 Si / 1000 Ang^3
#
#
#
# Elastic Constant Matrix: (Units=GPa)
#
#
# Indices 1 2 3 4 5 6 
#
# 1 68.0096 38.8161 18.5005 0.0000 12.3909 0.0000
# 2 38.8161 196.6181 30.1632 0.0000 26.6038 0.0000
# 3 18.5005 30.1632 72.2471 0.0000 25.0759 0.0000
# 4 0.0000 0.0000 0.0000 10.7128 0.0000 -0.2129
# 5 12.3909 26.6038 25.0759 0.0000 36.7534 0.0000
# 6 0.0000 0.0000 0.0000 -0.2129 0.0000 103.4988
#
#
#
# Elastic Compliance Matrix: (Units=1/GPa)
#
#
# Indices 1 2 3 4 5 6 
#
# 1 0.017354 -0.002747 -0.002564 0.000000 -0.002113 0.000000
# 2 -0.002747 0.006157 -0.000841 0.000000 -0.002957 0.000000
# 3 -0.002564 -0.000841 0.018786 0.000000 -0.011345 0.000000
# 4 0.000000 0.000000 0.000000 0.093350 0.000000 0.000192
# 5 -0.002113 -0.002957 -0.011345 0.000000 0.037801 0.000000
# 6 0.000000 0.000000 0.000000 0.000192 0.000000 0.009662
#
#
# Mechanical properties :
#
#
# Convention : Reuss Voigt Hill
#
# Bulk Modulus (GPa) = 33.33865 56.87050 45.10458
# Shear Modulus (GPa) = 24.34126 46.81934 35.58030
#
# Velocity S-wave (km/s) = 3.34046 4.63284 4.03868
# Velocity P-wave (km/s) = 5.49195 7.39517 6.51345
#
# Compressibility (1/GPa) = 0.02999522
#
# Stress axis : x y z
#
# Youngs Moduli (GPa) = 57.62391 162.40612 53.22979
#
# Poissons Ratio (x) = 0.44609 0.13646
# Poissons Ratio (y) = 0.15828 0.04476
# Poissons Ratio (z) = 0.14772 0.13657
#
# Static dielectric constant tensor:
#      x y z
#    x 1.862020 0.000000 0.022860 
#    y 0.000000 1.815420 0.000000 
#    z 0.022860 0.000000 1.852490 
# 
# From -- ./inp_files/129109.got.cif
#   From: 2010.05.17/outbox.cif.g08.bks.cpg/sg12_65_cif.got.tgz:129109.got - 2010.06.03 13:09:07.
