data_PCOD9215347
_publ_section_title
;
Structure prediction by ZEFSAII (Michael W. Deem and Ramdas Pophale) SiO2 
 PCOD9215347
Probable space group: C 2/M
;
_chemical_formula_sum "Si O2"
_cell_formula_units_Z 64
_cell_length_a 33.265530
_cell_length_b 8.767257
_cell_length_c 16.904939
_cell_angle_alpha 90.000000
_cell_angle_beta 42.132485
_cell_angle_gamma 90.000000
_cell_volume 3307.466067
_symmetry_space_group_name_H-M "C 2/M"
_symmetry_group_IT_number 12
_symmetry_cell_setting 'monoclinic'
loop_
_space_group_symop_operation_xyz
x,y,z
-x,y,-z
-x,-y,-z
x,-y,z
1/2+x,1/2+y,z
1/2-x,1/2+y,-z
1/2-x,1/2-y,-z
1/2+x,1/2-y,z
loop_
_atom_site_type_symbol
_atom_site_label
_atom_site_fract_x
_atom_site_fract_y
_atom_site_fract_z
Si Si1 0.224167 0.682102 0.456774
Si Si2 0.408331 0.317953 0.353643
Si Si3 0.092035 0.818135 0.233641
Si Si4 0.233504 0.316131 0.766723
Si Si5 0.645861 0.683107 0.316112
Si Si6 0.535265 0.181772 0.574237
Si Si7 0.997282 0.817328 0.913510
Si Si8 0.110095 0.682519 0.033669
O O1 0.224439 0.500000 0.459530
O O2 0.250000 0.750000 0.500000
O O3 0.156723 0.744319 0.545784
O O4 0.260799 0.739416 0.327096
O O5 0.404102 0.500000 0.372887
O O6 0.449870 0.244430 0.360078
O O7 0.440364 0.290161 0.223153
O O8 0.140686 0.782758 0.230478
O O9 0.105963 0.749068 0.127880
O O10 0.028399 0.752624 0.356035
O O11 0.086816 0.000000 0.233792
O O12 0.234514 0.500000 0.755225
O O13 0.291831 0.273303 0.733594
O O14 0.172714 0.274660 0.900667
O O15 0.638833 0.500000 0.335827
O O16 0.590417 0.762856 0.440454
O O17 0.531364 0.000000 0.579627
O O18 0.944320 0.742071 0.940663
O O19 0.987197 0.000000 0.928072
O O20 0.000000 0.764217 0.000000
O O21 0.106900 0.500000 0.043450
#
# Coordination Sequence:
#
# PCOD9215347 Si02
#       8
#     8   8   8   8   8   8   8   8
#     4  12  26  43  66  96 128 167 211 259 311 369
#     4  11  22  40  66  94 129 167 203 258 314 369
#     4  11  23  40  63  91 122 168 213 253 311 377
#     4  10  23  44  65  90 125 165 208 260 317 372
#     4  10  22  41  65  89 123 167 211 254 311 378
#     4  12  23  37  61  95 129 162 204 260 316 369
#     4  10  23  42  65  93 124 164 208 252 309 375
#     4  11  24  41  63  92 125 162 206 262 315 366
#
# _framework density 19.350161
#
# number of rings (size 3 to 8) (size 9 to 14) (size 15 to 20)
#    0.000    1.125    2.500    3.750    1.750    4.750 
#    0.000    0.000    0.000    0.000    0.000    0.000 
#    0.000    0.000    0.000    0.000    0.000    0.000 
#
# Total GULP energy -178970.623368 kJ/mol
# GULP energy per Si atom -5592.831980 kJ/mol
# Density = 1.930612 g / cm^3
# Si number density = 19.350161 Si / 1000 Ang^3
#
#
#
# Elastic Constant Matrix: (Units=GPa)
#
#
# Indices 1 2 3 4 5 6 
#
# 1 65.5978 23.0322 32.6856 -0.0001 14.7707 -0.0001
# 2 23.0322 55.5369 45.3392 -0.0008 5.2645 0.0001
# 3 32.6856 45.3392 123.4310 -0.0002 7.5878 -0.0002
# 4 -0.0001 -0.0008 -0.0002 27.6834 0.0000 -1.6014
# 5 14.7707 5.2645 7.5878 0.0000 35.6148 -0.0001
# 6 -0.0001 0.0001 -0.0002 -1.6014 -0.0001 20.9740
#
#
#
# Elastic Compliance Matrix: (Units=1/GPa)
#
#
# Indices 1 2 3 4 5 6 
#
# 1 0.020137 -0.005268 -0.002971 0.000000 -0.006940 0.000000
# 2 -0.005268 0.027213 -0.008600 0.000001 -0.000005 0.000000
# 3 -0.002971 -0.008600 0.012051 0.000000 -0.000064 0.000000
# 4 0.000000 0.000001 0.000000 0.036283 0.000000 0.002770
# 5 -0.006940 -0.000005 -0.000064 0.000000 0.030971 0.000000
# 6 0.000000 0.000000 0.000000 0.002770 0.000000 0.047890
#
#
# Mechanical properties :
#
#
# Convention : Reuss Voigt Hill
#
# Bulk Modulus (GPa) = 38.87653 49.63107 44.25380
# Shear Modulus (GPa) = 23.06303 26.42170 24.74236
#
# Velocity S-wave (km/s) = 3.45610 3.69921 3.57972
# Velocity P-wave (km/s) = 6.00507 6.62949 6.32499
#
# Compressibility (1/GPa) = 0.02572246
#
# Stress axis : x y z
#
# Youngs Moduli (GPa) = 49.65980 36.74776 82.97738
#
# Poissons Ratio (x) = 0.19359 0.24650
# Poissons Ratio (y) = 0.26161 0.71364
# Poissons Ratio (z) = 0.14753 0.31605
#
# Static dielectric constant tensor:
#      x y z
#    x 1.620860 0.000000 0.001360 
#    y 0.000000 1.647370 0.000000 
#    z 0.001360 0.000000 1.660700 
# 
# From -- ./inp_files/249706.got.cif
#   From: 2010.05.17/outbox.cif.g08.bks.cpg/sg12_125_cif.got.tgz:249706.got - 2010.06.03 13:09:07.
