data_PCOD9215544
_publ_section_title
;
Structure prediction by ZEFSAII (Michael W. Deem and Ramdas Pophale) SiO2 
 PCOD9215544
Probable space group: C 2/M
;
_chemical_formula_sum "Si O2"
_cell_formula_units_Z 40
_cell_length_a 19.897924
_cell_length_b 21.324312
_cell_length_c 8.915375
_cell_angle_alpha 90.000000
_cell_angle_beta 149.685493
_cell_angle_gamma 90.000000
_cell_volume 1909.393686
_symmetry_space_group_name_H-M "C 2/M"
_symmetry_group_IT_number 12
_symmetry_cell_setting 'monoclinic'
loop_
_space_group_symop_operation_xyz
x,y,z
-x,y,-z
-x,-y,-z
x,-y,z
1/2+x,1/2+y,z
1/2-x,1/2+y,-z
1/2-x,1/2-y,-z
1/2+x,1/2-y,z
loop_
_atom_site_type_symbol
_atom_site_label
_atom_site_fract_x
_atom_site_fract_y
_atom_site_fract_z
Si Si1 0.234497 0.926786 0.840848
Si Si2 0.629551 0.744113 0.150231
Si Si3 0.025974 0.619468 0.877569
Si Si4 0.007620 0.071874 0.181547
Si Si5 0.759808 0.130701 0.828372
O O1 0.115278 0.901656 0.504807
O O2 0.207516 0.000000 0.832189
O O3 0.370311 0.924212 0.008201
O O4 0.247243 0.881615 0.008442
O O5 0.750000 0.750000 0.500000
O O6 0.672356 0.694253 0.105659
O O7 0.500000 0.727755 0.000000
O O8 0.594069 0.811803 0.013730
O O9 0.885283 0.624108 0.523031
O O10 0.000000 0.600664 0.000000
O O11 0.050528 0.000000 0.247901
O O12 0.000000 0.098391 0.000000
O O13 0.861097 0.077817 0.964932
#
# Coordination Sequence:
#
# PCOD9215544 Si02
#       5
#     8   8   8   8   8
#     4  11  26  45  66 100 141 178 226 285 343 406
#     4  11  23  44  70 102 136 176 228 287 335 402
#     4  11  24  43  68  99 132 178 233 281 336 408
#     4  10  22  41  67  97 129 176 232 279 333 403
#     4  12  23  40  68  97 138 178 217 279 351 399
#
# _framework density 20.949059999999999
#
# number of rings (size 3 to 8) (size 9 to 14) (size 15 to 20)
#    0.000    1.000    4.000    3.600    2.800    5.200 
#    0.000    2.000    0.000    0.000    0.000    0.000 
#    0.000    0.000    0.000    0.000    0.000    0.000 
#
# Total GULP energy -111719.776055 kJ/mol
# GULP energy per Si atom -5585.988803 kJ/mol
# Density = 2.090138 g / cm^3
# Si number density = 20.949060 Si / 1000 Ang^3
#
#
#
# Elastic Constant Matrix: (Units=GPa)
#
#
# Indices 1 2 3 4 5 6 
#
# 1 126.2279 47.8535 73.2119 0.0000 -31.9023 0.0000
# 2 47.8535 57.2255 26.0480 0.0000 -3.2848 0.0000
# 3 73.2119 26.0480 206.9576 0.0000 -13.1727 0.0000
# 4 0.0000 0.0000 0.0000 -7.0692 0.0000 26.4960
# 5 -31.9023 -3.2848 -13.1727 0.0000 35.4572 0.0000
# 6 0.0000 0.0000 0.0000 26.4960 0.0000 24.9000
#
#
#
# Elastic Compliance Matrix: (Units=1/GPa)
#
#
# Indices 1 2 3 4 5 6 
#
# 1 0.018874 -0.013089 -0.004123 0.000000 0.014237 0.000000
# 2 -0.013089 0.027640 0.000579 0.000000 -0.009001 0.000000
# 3 -0.004123 0.000579 0.006130 0.000000 -0.001379 0.000000
# 4 0.000000 0.000000 0.000000 -0.028358 0.000000 0.030176
# 5 0.014237 -0.009001 -0.001379 0.000000 0.039667 0.000000
# 6 0.000000 0.000000 0.000000 0.030176 0.000000 0.008051
#
#
# Mechanical properties :
#
#
# Convention : Reuss Voigt Hill
#
# Bulk Modulus (GPa) = 51.60802 76.07085 63.83943
# Shear Modulus (GPa) = 44.75095 26.87743 35.81419
#
# Velocity S-wave (km/s) = 4.62690 3.58577 4.13920
# Velocity P-wave (km/s) = 7.29607 7.31675 7.30642
#
# Compressibility (1/GPa) = 0.01937683
#
# Stress axis : x y z
#
# Youngs Moduli (GPa) = 52.98326 36.17947 163.13462
#
# Poissons Ratio (x) = 0.47355 0.67263
# Poissons Ratio (y) = 0.69349 -0.09437
# Poissons Ratio (z) = 0.21846 -0.02093
#
# Static dielectric constant tensor:
#      x y z
#    x 1.774300 0.000000 -0.004790 
#    y 0.000000 1.779130 0.000000 
#    z -0.004790 0.000000 1.715700 
# 
# From -- ./inp_files/39323.got.cif
#   From: 2010.05.17/outbox.cif.g08.bks.cpg/sg12_20_cif.got.tgz:39323.got - 2010.06.03 13:09:07.
