data_PCOD9215593
_publ_section_title
;
Structure prediction by ZEFSAII (Michael W. Deem and Ramdas Pophale) SiO2 
 PCOD9215593
Probable space group: C 2/M
;
_chemical_formula_sum "Si O2"
_cell_formula_units_Z 56
_cell_length_a 19.501453
_cell_length_b 27.581675
_cell_length_c 5.024728
_cell_angle_alpha 90.000000
_cell_angle_beta 115.801843
_cell_angle_gamma 90.000000
_cell_volume 2433.266721
_symmetry_space_group_name_H-M "C 2/M"
_symmetry_group_IT_number 12
_symmetry_cell_setting 'monoclinic'
loop_
_space_group_symop_operation_xyz
x,y,z
-x,y,-z
-x,-y,-z
x,-y,z
1/2+x,1/2+y,z
1/2-x,1/2+y,-z
1/2-x,1/2-y,-z
1/2+x,1/2-y,z
loop_
_atom_site_type_symbol
_atom_site_label
_atom_site_fract_x
_atom_site_fract_y
_atom_site_fract_z
Si Si1 0.413320 0.699162 0.423418
Si Si2 0.919029 0.557835 0.732862
Si Si3 0.204988 0.859935 0.087754
Si Si4 0.792606 0.272335 0.328397
Si Si5 0.174252 0.419339 0.899230
Si Si6 0.135562 0.000000 0.597154
Si Si7 0.584881 0.598121 0.256409
Si Si8 0.730655 0.500000 0.247231
O O1 0.500000 0.707760 0.500000
O O2 0.375906 0.748638 0.465341
O O3 0.411578 0.650951 0.601671
O O4 0.359349 0.679326 0.096286
O O5 0.923884 0.500000 0.671912
O O6 0.895990 0.588159 0.428855
O O7 0.859685 0.564504 0.877721
O O8 0.000000 0.571570 0.000000
O O9 0.274715 0.829168 0.330024
O O10 0.254326 0.882737 0.930000
O O11 0.155646 0.898336 0.170429
O O12 0.750000 0.250000 0.500000
O O13 0.750000 0.250000 0.000000
O O14 0.219432 0.456416 0.784578
O O15 0.095599 0.949255 0.457310
O O16 0.154521 0.000000 0.939392
O O17 0.209147 0.000000 0.520974
O O18 0.500000 0.594052 0.000000
#
# Coordination Sequence:
#
# PCOD9215593 Si02
#       8
#     8   8   8   8   8   4   8   4
#     4  11  23  43  69  97 131 175 222 277 333 402
#     4  11  23  41  63  90 122 169 223 276 330 391
#     4  11  24  40  65  97 130 173 218 275 332 398
#     4  10  22  41  68  97 125 160 215 272 328 391
#     4  12  23  38  65  93 130 168 222 275 326 397
#     4  12  27  40  60  92 145 183 225 284 319 383
#     4  12  24  41  63  95 136 182 232 274 333 389
#     4  12  22  40  60  94 126 179 233 268 330 380
#
# _framework density 23.014330999999999
#
# number of rings (size 3 to 8) (size 9 to 14) (size 15 to 20)
#    0.000    0.714    5.714    2.357    2.000    1.143 
#    0.000    2.500    0.000    0.857    0.000    0.000 
#    0.000    0.000    0.000    0.000    0.000    0.000 
#
# Total GULP energy -156053.204111 kJ/mol
# GULP energy per Si atom -5573.328718 kJ/mol
# Density = 2.296195 g / cm^3
# Si number density = 23.014331 Si / 1000 Ang^3
#
#
#
# Elastic Constant Matrix: (Units=GPa)
#
#
# Indices 1 2 3 4 5 6 
#
# 1 130.4150 41.7166 30.2654 0.0000 14.5832 0.0000
# 2 41.7166 56.4663 21.5120 0.0000 21.6862 0.0000
# 3 30.2654 21.5120 94.4665 0.0000 6.1193 0.0000
# 4 0.0000 0.0000 0.0000 26.7318 0.0000 7.0529
# 5 14.5832 21.6862 6.1193 0.0000 43.0525 0.0000
# 6 0.0000 0.0000 0.0000 7.0529 0.0000 39.7368
#
#
#
# Elastic Compliance Matrix: (Units=1/GPa)
#
#
# Indices 1 2 3 4 5 6 
#
# 1 0.010292 -0.007076 -0.001707 0.000000 0.000321 0.000000
# 2 -0.007076 0.028724 -0.003524 0.000000 -0.011571 0.000000
# 3 -0.001707 -0.003524 0.011892 0.000000 0.000663 0.000000
# 4 0.000000 0.000000 0.000000 0.039247 0.000000 -0.006966
# 5 0.000321 -0.011571 0.000663 0.000000 0.028853 0.000000
# 6 0.000000 0.000000 0.000000 -0.006966 0.000000 0.026402
#
#
# Mechanical properties :
#
#
# Convention : Reuss Voigt Hill
#
# Bulk Modulus (GPa) = 38.03279 52.03733 45.03506
# Shear Modulus (GPa) = 27.96601 34.42780 31.19690
#
# Velocity S-wave (km/s) = 3.48969 3.87192 3.68576
# Velocity P-wave (km/s) = 5.72703 6.53062 6.14198
#
# Compressibility (1/GPa) = 0.02629310
#
# Stress axis : x y z
#
# Youngs Moduli (GPa) = 97.16709 34.81385 84.08903
#
# Poissons Ratio (x) = 0.24636 0.14350
# Poissons Ratio (y) = 0.68759 0.29637
# Poissons Ratio (z) = 0.16582 0.12270
#
# Static dielectric constant tensor:
#      x y z
#    x 1.860140 0.000000 0.116970 
#    y 0.000000 1.869890 0.000000 
#    z 0.116970 0.000000 1.612800 
# 
# From -- ./inp_files/18416.got.cif
#   From: 2010.05.17/outbox.cif.g08.bks.cpg/sg12_10_cif.got.tgz:18416.got - 2010.06.03 13:09:07.
