data_PCOD9215056
_publ_section_title
;
Structure prediction by ZEFSAII (Michael W. Deem and Ramdas Pophale) SiO2 
 PCOD9215056
Probable space group: C 2/M
;
_chemical_formula_sum "Si O2"
_cell_formula_units_Z 44
_cell_length_a 31.396321
_cell_length_b 9.775714
_cell_length_c 24.070434
_cell_angle_alpha 90.000000
_cell_angle_beta 164.196266
_cell_angle_gamma 90.000000
_cell_volume 2011.996931
_symmetry_space_group_name_H-M "C 2/M"
_symmetry_group_IT_number 12
_symmetry_cell_setting 'monoclinic'
loop_
_space_group_symop_operation_xyz
x,y,z
-x,y,-z
-x,-y,-z
x,-y,z
1/2+x,1/2+y,z
1/2-x,1/2+y,-z
1/2-x,1/2-y,-z
1/2+x,1/2-y,z
loop_
_atom_site_type_symbol
_atom_site_label
_atom_site_fract_x
_atom_site_fract_y
_atom_site_fract_z
Si Si1 0.367367 0.842600 0.550556
Si Si2 0.732021 0.336248 0.802991
Si Si3 0.778066 0.658705 0.981765
Si Si4 0.500000 0.248233 0.000000
Si Si5 0.172614 0.343838 0.625224
Si Si6 0.405668 0.151741 0.766884
O O1 0.533854 0.837730 0.789038
O O2 0.391588 0.798904 0.516073
O O3 0.236796 0.755835 0.418242
O O4 0.314289 0.000000 0.480515
O O5 0.706322 0.500000 0.764414
O O6 0.696518 0.296216 0.822069
O O7 0.919745 0.312847 0.033646
O O8 0.651690 0.253970 0.652156
O O9 0.735176 0.500000 0.938162
O O10 0.750000 0.750000 0.000000
O O11 0.639923 0.337771 0.150844
O O12 0.571300 0.155471 0.137523
O O13 0.122683 0.500000 0.573649
O O14 0.365873 0.000000 0.696733
#
# Coordination Sequence:
#
# PCOD9215056 Si02
#       6
#     8   8   8   4   8   8
#     4   9  19  34  52  76 107 137 165 206 254 297
#     4   9  19  34  52  76 107 137 165 206 254 297
#     4  10  22  41  58  72  96 133 175 216 259 302
#     4   8  14  24  42  70 108 142 166 196 240 288
#     4   9  16  28  49  76 103 133 169 204 244 298
#     4   9  16  27  47  76 107 137 167 198 242 302
#
# _framework density 21.868819999999999
#
# number of rings (size 3 to 8) (size 9 to 14) (size 15 to 20)
#    0.000    2.909    0.000    0.545    0.000   10.909 
#    0.000    0.909    0.000    5.455    0.000    0.000 
#    0.000    0.000    0.000    0.000    0.000    0.000 
#
# Total GULP energy -122699.742295 kJ/mol
# GULP energy per Si atom -5577.261013 kJ/mol
# Density = 2.181905 g / cm^3
# Si number density = 21.868820 Si / 1000 Ang^3
#
#
#
# Elastic Constant Matrix: (Units=GPa)
#
#
# Indices 1 2 3 4 5 6 
#
# 1 138.4647 53.3177 32.9684 0.0004 -39.5922 0.0002
# 2 53.3177 54.9500 21.2571 -0.0001 -11.2153 0.0000
# 3 32.9684 21.2571 59.9076 0.0001 -7.6878 0.0001
# 4 0.0004 -0.0001 0.0001 15.0854 0.0003 -0.0195
# 5 -39.5922 -11.2153 -7.6878 0.0003 34.6724 0.0002
# 6 0.0002 0.0000 0.0001 -0.0195 0.0002 24.8014
#
#
#
# Elastic Compliance Matrix: (Units=1/GPa)
#
#
# Indices 1 2 3 4 5 6 
#
# 1 0.016788 -0.012131 -0.003065 -0.000001 0.014567 0.000000
# 2 -0.012131 0.030855 -0.004909 0.000001 -0.004960 0.000000
# 3 -0.003065 -0.004909 0.020038 0.000000 -0.000645 0.000000
# 4 -0.000001 0.000001 0.000000 0.066289 -0.000001 0.000052
# 5 0.014567 -0.004960 -0.000645 -0.000001 0.043728 0.000000
# 6 0.000000 0.000000 0.000000 0.000052 0.000000 0.040320
#
#
# Mechanical properties :
#
#
# Convention : Reuss Voigt Hill
#
# Bulk Modulus (GPa) = 36.40087 52.04540 44.22313
# Shear Modulus (GPa) = 18.69952 24.63046 21.66499
#
# Velocity S-wave (km/s) = 2.92734 3.35965 3.15092
# Velocity P-wave (km/s) = 5.30160 6.23701 5.78823
#
# Compressibility (1/GPa) = 0.02747187
#
# Stress axis : x y z
#
# Youngs Moduli (GPa) = 59.56607 32.40926 49.90421
#
# Poissons Ratio (x) = 0.39314 0.15297
# Poissons Ratio (y) = 0.72257 0.24499
# Poissons Ratio (z) = 0.18258 0.15910
#
# Static dielectric constant tensor:
#      x y z
#    x 1.858580 0.000000 0.007460 
#    y 0.000000 1.787060 0.000000 
#    z 0.007460 0.000000 1.816470 
# 
# From -- ./inp_files/353607.got.cif
#   From: 2010.05.17/outbox.cif.g08.bks.cpg/sg12_177_cif.got.tgz:353607.got - 2010.06.03 13:09:07.
