data_PCOD9215709
_publ_section_title
;
Structure prediction by ZEFSAII (Michael W. Deem and Ramdas Pophale) SiO2 
 PCOD9215709
Probable space group: C 2/M
;
_chemical_formula_sum "Si O2"
_cell_formula_units_Z 40
_cell_length_a 30.243999
_cell_length_b 14.386438
_cell_length_c 4.915242
_cell_angle_alpha 90.000000
_cell_angle_beta 119.996379
_cell_angle_gamma 90.000000
_cell_volume 1852.182921
_symmetry_space_group_name_H-M "C 2/M"
_symmetry_group_IT_number 12
_symmetry_cell_setting 'monoclinic'
loop_
_space_group_symop_operation_xyz
x,y,z
-x,y,-z
-x,-y,-z
x,-y,z
1/2+x,1/2+y,z
1/2-x,1/2+y,-z
1/2-x,1/2-y,-z
1/2+x,1/2-y,z
loop_
_atom_site_type_symbol
_atom_site_label
_atom_site_fract_x
_atom_site_fract_y
_atom_site_fract_z
Si Si1 0.658276 0.893990 0.123099
Si Si2 0.722004 0.840147 0.796701
Si Si3 0.132409 0.000000 0.345751
Si Si4 0.298453 0.500000 0.944286
Si Si5 0.442679 0.330803 0.875568
Si Si6 0.942985 0.297379 0.374884
O O1 0.680698 0.827615 0.428812
O O2 0.658570 0.000000 0.227115
O O3 0.693886 0.885845 0.967596
O O4 0.602122 0.864504 0.854377
O O5 0.750000 0.750000 0.000000
O O6 0.763878 0.909397 0.799519
O O7 0.098865 0.090812 0.300797
O O8 0.181681 0.000000 0.687534
O O9 0.153103 0.000000 0.103077
O O10 0.436863 0.241625 0.660029
O O11 0.500000 0.367180 0.000000
O O12 0.439398 0.293299 0.171224
O O13 0.000000 0.335920 0.500000
#
# Coordination Sequence:
#
# PCOD9215709 Si02
#       6
#     8   8   4   4   8   8
#     4  12  24  46  70  94 132 170 215 271 331 389
#     4  12  27  46  68  94 133 178 218 271 329 383
#     4  12  25  38  68  94 134 174 217 266 320 381
#     4  12  26  44  63 102 133 162 228 278 312 389
#     4  10  22  42  63  95 135 172 214 263 322 389
#     4  10  23  41  67  98 129 166 218 269 323 392
#
# _framework density 21.596138
#
# number of rings (size 3 to 8) (size 9 to 14) (size 15 to 20)
#    0.000    0.800    2.000    4.500    8.400    0.400 
#    0.000    4.000    0.000    6.000    0.000    0.000 
#    0.000    0.000    0.000    0.000    0.000    0.000 
#
# Total GULP energy -111924.022258 kJ/mol
# GULP energy per Si atom -5596.201113 kJ/mol
# Density = 2.154698 g / cm^3
# Si number density = 21.596138 Si / 1000 Ang^3
#
#
#
# Elastic Constant Matrix: (Units=GPa)
#
#
# Indices 1 2 3 4 5 6 
#
# 1 81.5235 33.0721 18.0013 0.0000 12.3931 0.0000
# 2 33.0721 66.8474 18.9609 0.0000 26.2452 0.0000
# 3 18.0013 18.9609 111.5774 0.0000 14.1762 0.0000
# 4 0.0000 0.0000 0.0000 39.8741 0.0000 14.2472
# 5 12.3931 26.2452 14.1762 0.0000 45.4847 0.0000
# 6 0.0000 0.0000 0.0000 14.2472 0.0000 28.6158
#
#
#
# Elastic Compliance Matrix: (Units=1/GPa)
#
#
# Indices 1 2 3 4 5 6 
#
# 1 0.015522 -0.007512 -0.001292 0.000000 0.000508 0.000000
# 2 -0.007512 0.023391 -0.001362 0.000000 -0.011026 0.000000
# 3 -0.001292 -0.001362 0.009639 0.000000 -0.001866 0.000000
# 4 0.000000 0.000000 0.000000 0.030506 0.000000 -0.015188
# 5 0.000508 -0.011026 -0.001866 0.000000 0.028791 0.000000
# 6 0.000000 0.000000 0.000000 -0.015188 0.000000 0.042508
#
#
# Mechanical properties :
#
#
# Convention : Reuss Voigt Hill
#
# Bulk Modulus (GPa) = 35.43670 44.44631 39.94151
# Shear Modulus (GPa) = 27.76284 35.45584 31.60934
#
# Velocity S-wave (km/s) = 3.58934 4.05627 3.82993
# Velocity P-wave (km/s) = 5.79847 6.52404 6.17193
#
# Compressibility (1/GPa) = 0.02821933
#
# Stress axis : x y z
#
# Youngs Moduli (GPa) = 64.42437 42.75094 103.74032
#
# Poissons Ratio (x) = 0.32116 0.13405
# Poissons Ratio (y) = 0.48398 0.14131
# Poissons Ratio (z) = 0.08325 0.05823
#
# Static dielectric constant tensor:
#      x y z
#    x 1.757210 0.000000 0.020410 
#    y 0.000000 1.736900 0.000000 
#    z 0.020410 0.000000 1.767340 
# 
# From -- ./inp_files/31137.got.cif
#   From: 2010.05.17/outbox.cif.g08.bks.cpg/sg12_16_cif.got.tgz:31137.got - 2010.06.03 13:09:07.
