data_PCOD9215514
_publ_section_title
;
Structure prediction by ZEFSAII (Michael W. Deem and Ramdas Pophale) SiO2 
 PCOD9215514
Probable space group: C 2/M
;
_chemical_formula_sum "Si O2"
_cell_formula_units_Z 42
_cell_length_a 26.792026
_cell_length_b 14.054446
_cell_length_c 23.898837
_cell_angle_alpha 90.000000
_cell_angle_beta 168.177829
_cell_angle_gamma 90.000000
_cell_volume 1843.676122
_symmetry_space_group_name_H-M "C 2/M"
_symmetry_group_IT_number 12
_symmetry_cell_setting 'monoclinic'
loop_
_space_group_symop_operation_xyz
x,y,z
-x,y,-z
-x,-y,-z
x,-y,z
1/2+x,1/2+y,z
1/2-x,1/2+y,-z
1/2-x,1/2-y,-z
1/2+x,1/2-y,z
loop_
_atom_site_type_symbol
_atom_site_label
_atom_site_fract_x
_atom_site_fract_y
_atom_site_fract_z
Si Si1 0.852540 0.500000 0.692171
Si Si2 0.401782 0.106907 0.540985
Si Si3 0.043564 0.000000 0.642108
Si Si4 0.098438 0.835097 0.048162
Si Si5 0.000000 0.500000 0.500000
Si Si6 0.559683 0.164565 0.291125
Si Si7 0.632754 0.291351 0.739209
O O1 0.648555 0.500000 0.516304
O O2 0.812569 0.590088 0.609445
O O3 0.152608 0.500000 0.029752
O O4 0.482195 0.122391 0.693107
O O5 0.491333 0.195624 0.602217
O O6 0.471372 0.000000 0.596242
O O7 0.112117 0.117919 0.220521
O O8 0.000393 0.889358 0.576342
O O9 0.291672 0.916645 0.271159
O O10 0.200528 0.744231 0.128229
O O11 0.000000 0.804882 0.000000
O O12 0.750000 0.250000 0.500000
O O13 0.302805 0.187630 0.979890
#
# Coordination Sequence:
#
# PCOD9215514 Si02
#       7
#     4   8   4   8   2   8   8
#     4  10  22  41  67 102 149 203 242 306 369 455
#     4  12  25  44  72 115 153 198 256 316 392 473
#     4  10  24  46  75 104 151 202 255 305 378 453
#     4  12  27  47  74 107 151 200 259 326 392 468
#     4  12  26  50  74 106 152 198 250 324 406 454
#     4  11  21  43  66 106 155 196 252 310 383 471
#     4  11  26  45  75 108 152 208 252 320 388 471
#
# _framework density 22.780573
#
# number of rings (size 3 to 8) (size 9 to 14) (size 15 to 20)
#    0.000    0.762    3.810    3.143    6.667    1.524 
#    1.714    0.476    0.000    4.000    0.000    0.000 
#    0.000    0.000    0.000    0.000    0.000    0.000 
#
# Total GULP energy -116941.020467 kJ/mol
# GULP energy per Si atom -5568.620022 kJ/mol
# Density = 2.272872 g / cm^3
# Si number density = 22.780573 Si / 1000 Ang^3
#
#
#
# Elastic Constant Matrix: (Units=GPa)
#
#
# Indices 1 2 3 4 5 6 
#
# 1 98.4178 37.9760 38.9872 -0.0652 10.7545 -0.0804
# 2 37.9760 191.7185 33.3009 0.1092 16.3756 0.0283
# 3 38.9872 33.3009 65.2226 0.2259 8.9436 0.1161
# 4 -0.0652 0.1092 0.2259 24.2006 -0.1153 30.7414
# 5 10.7545 16.3756 8.9436 -0.1153 22.7280 -0.1056
# 6 -0.0804 0.0283 0.1161 30.7414 -0.1056 43.4720
#
#
#
# Elastic Compliance Matrix: (Units=1/GPa)
#
#
# Indices 1 2 3 4 5 6 
#
# 1 0.013813 -0.001240 -0.007242 0.000469 -0.002792 -0.000292
# 2 -0.001240 0.006056 -0.001937 -0.000160 -0.003014 0.000105
# 3 -0.007242 -0.001937 0.021132 -0.001246 -0.003496 0.000804
# 4 0.000469 -0.000160 -0.001246 0.406307 0.001111 -0.287315
# 5 -0.002792 -0.003014 -0.003496 0.001111 0.048870 -0.000661
# 6 -0.000292 0.000105 0.000804 -0.287315 -0.000661 0.226174
#
#
# Mechanical properties :
#
#
# Convention : Reuss Voigt Hill
#
# Bulk Modulus (GPa) = 49.59532 63.98745 56.79138
# Shear Modulus (GPa) = 6.66745 34.41977 20.54361
#
# Velocity S-wave (km/s) = 1.71265 3.89128 3.00626
# Velocity P-wave (km/s) = 5.07238 6.95263 6.08556
#
# Compressibility (1/GPa) = 0.02016319
#
# Stress axis : x y z
#
# Youngs Moduli (GPa) = 72.39407 165.13682 47.32088
#
# Poissons Ratio (x) = 0.20477 0.34270
# Poissons Ratio (y) = 0.08977 0.09166
# Poissons Ratio (z) = 0.52429 0.31985
#
# Static dielectric constant tensor:
#      x y z
#    x 1.891600 0.000080 -0.015420 
#    y 0.000080 1.809820 -0.000110 
#    z -0.015420 -0.000110 1.909080 
# 
# From -- ./inp_files/371057.got.cif
#   From: 2010.05.17/outbox.cif.g08.bks.cpg/sg12_186_cif.got.tgz:371057.got - 2010.06.03 13:09:07.
