data_PCOD9215631
_publ_section_title
;
Structure prediction by ZEFSAII (Michael W. Deem and Ramdas Pophale) SiO2 
 PCOD9215631
Probable space group: C 2/M
;
_chemical_formula_sum "Si O2"
_cell_formula_units_Z 24
_cell_length_a 5.486832
_cell_length_b 18.746599
_cell_length_c 12.737958
_cell_angle_alpha 90.000000
_cell_angle_beta 134.232298
_cell_angle_gamma 90.000000
_cell_volume 938.794995
_symmetry_space_group_name_H-M "C 2/M"
_symmetry_group_IT_number 12
_symmetry_cell_setting 'monoclinic'
loop_
_space_group_symop_operation_xyz
x,y,z
-x,y,-z
-x,-y,-z
x,-y,z
1/2+x,1/2+y,z
1/2-x,1/2+y,-z
1/2-x,1/2-y,-z
1/2+x,1/2-y,z
loop_
_atom_site_type_symbol
_atom_site_label
_atom_site_fract_x
_atom_site_fract_y
_atom_site_fract_z
Si Si1 0.886183 0.084853 0.148268
Si Si2 0.623002 0.206148 0.727168
Si Si3 0.676863 0.605495 0.454998
O O1 0.161797 0.135808 0.174389
O O2 0.923464 0.107582 0.281740
O O3 0.956376 0.000000 0.156851
O O4 0.500000 0.098254 0.000000
O O5 0.405058 0.245461 0.751460
O O6 0.349871 0.175618 0.560061
O O7 0.500000 0.571234 0.500000
O O8 0.000000 0.569948 0.500000
#
# Coordination Sequence:
#
# PCOD9215631 Si02
#       3
#     8   8   8
#     4  10  24  46  70 101 142 184 228 282 344 409
#     4  11  24  44  71 103 137 177 228 285 341 404
#     4  10  22  41  70 100 134 175 226 280 337 398
#
# _framework density 25.564688
#
# number of rings (size 3 to 8) (size 9 to 14) (size 15 to 20)
#    0.000    1.667    0.000    4.000    0.000   25.333 
#    0.000   21.667    0.000   38.000    0.000    0.000 
#    0.000    0.000    0.000    0.000    0.000    0.000 
#
# Total GULP energy -67038.959671 kJ/mol
# GULP energy per Si atom -5586.579973 kJ/mol
# Density = 2.550650 g / cm^3
# Si number density = 25.564688 Si / 1000 Ang^3
#
#
#
# Elastic Constant Matrix: (Units=GPa)
#
#
# Indices 1 2 3 4 5 6 
#
# 1 223.0504 72.3697 50.3568 0.0001 38.7728 0.0001
# 2 72.3697 201.6623 55.5420 0.0000 45.8396 0.0000
# 3 50.3568 55.5420 194.9437 0.0003 32.2650 -0.0002
# 4 0.0001 0.0000 0.0003 46.1942 0.0002 41.3569
# 5 38.7728 45.8396 32.2650 0.0002 30.0473 0.0000
# 6 0.0001 0.0000 -0.0002 41.3569 0.0000 81.6459
#
#
#
# Elastic Compliance Matrix: (Units=1/GPa)
#
#
# Indices 1 2 3 4 5 6 
#
# 1 0.005838 -0.000572 -0.000295 0.000000 -0.006345 0.000000
# 2 -0.000572 0.007662 -0.000271 0.000000 -0.010660 0.000000
# 3 -0.000295 -0.000271 0.006265 0.000000 -0.005933 0.000000
# 4 0.000000 0.000000 0.000000 0.039611 -0.000001 -0.020065
# 5 -0.006345 -0.010660 -0.005933 -0.000001 0.064102 0.000000
# 6 0.000000 0.000000 0.000000 -0.020065 0.000000 0.022412
#
#
# Mechanical properties :
#
#
# Convention : Reuss Voigt Hill
#
# Bulk Modulus (GPa) = 57.17705 108.46593 82.82149
# Shear Modulus (GPa) = 32.46862 61.00335 46.73599
#
# Velocity S-wave (km/s) = 3.56765 4.89021 4.28032
# Velocity P-wave (km/s) = 6.27575 8.62587 7.54290
#
# Compressibility (1/GPa) = 0.01748954
#
# Stress axis : x y z
#
# Youngs Moduli (GPa) = 171.28309 130.52040 159.61328
#
# Poissons Ratio (x) = 0.07462 0.04711
# Poissons Ratio (y) = 0.09792 0.04324
# Poissons Ratio (z) = 0.05055 0.03536
#
# Static dielectric constant tensor:
#      x y z
#    x 2.014750 0.000000 0.006010 
#    y 0.000000 2.060180 0.000000 
#    z 0.006010 0.000000 2.003990 
# 
# From -- ./inp_files/191274.got.cif
#   From: 2010.05.17/outbox.cif.g08.bks.cpg/sg12_96_cif.got.tgz:191274.got - 2010.06.03 13:09:07.
