data_PCOD9215335
_publ_section_title
;
Structure prediction by ZEFSAII (Michael W. Deem and Ramdas Pophale) SiO2 
 PCOD9215335
Probable space group: C 2/M
;
_chemical_formula_sum "Si O2"
_cell_formula_units_Z 56
_cell_length_a 29.772589
_cell_length_b 8.733403
_cell_length_c 12.844340
_cell_angle_alpha 90.000000
_cell_angle_beta 121.348943
_cell_angle_gamma 90.000000
_cell_volume 2852.182174
_symmetry_space_group_name_H-M "C 2/M"
_symmetry_group_IT_number 12
_symmetry_cell_setting 'monoclinic'
loop_
_space_group_symop_operation_xyz
x,y,z
-x,y,-z
-x,-y,-z
x,-y,z
1/2+x,1/2+y,z
1/2-x,1/2+y,-z
1/2-x,1/2-y,-z
1/2+x,1/2-y,z
loop_
_atom_site_type_symbol
_atom_site_label
_atom_site_fract_x
_atom_site_fract_y
_atom_site_fract_z
Si Si1 0.191572 0.816136 0.920618
Si Si2 0.537271 0.179251 0.444969
Si Si3 0.501717 0.682390 0.815498
Si Si4 0.149297 0.815027 0.642070
Si Si5 0.608374 0.315392 0.219021
Si Si6 0.801783 0.183729 0.510434
Si Si7 0.384814 0.181870 0.995705
O O1 0.168010 0.771748 0.779527
O O2 0.154292 0.754552 0.967036
O O3 0.193320 0.000000 0.927524
O O4 0.250000 0.750000 0.000000
O O5 0.500000 0.195099 0.500000
O O6 0.514976 0.275643 0.321839
O O7 0.594322 0.238984 0.546184
O O8 0.539175 0.000000 0.417725
O O9 0.509521 0.500000 0.835394
O O10 0.451779 0.727132 0.826586
O O11 0.555625 0.765737 0.908202
O O12 0.189933 0.771168 0.599652
O O13 0.143179 0.000000 0.631582
O O14 0.609775 0.500000 0.210701
O O15 0.646802 0.271655 0.360268
O O16 0.627036 0.240619 0.134722
O O17 0.750000 0.250000 0.500000
O O18 0.798674 0.000000 0.510090
O O19 0.380637 0.000000 0.995709
#
# Coordination Sequence:
#
# PCOD9215335 Si02
#       7
#     8   8   8   8   8   8   8
#     4  11  25  45  69  95 127 169 217 265 318 376
#     4  11  23  37  59  93 130 165 206 258 312 373
#     4  11  22  41  66  92 126 168 212 261 319 383
#     4  10  22  43  66  91 124 164 210 257 310 376
#     4  10  22  42  66  93 127 167 211 260 318 385
#     4  10  22  41  64  95 127 161 207 259 317 377
#     4  12  26  42  63  94 132 169 213 265 315 379
#
# _framework density 19.634087999999998
#
# number of rings (size 3 to 8) (size 9 to 14) (size 15 to 20)
#    0.000    1.286    1.429    3.857    2.000    8.571 
#    0.000    0.000    0.000    0.000    0.000    0.000 
#    0.000    0.000    0.000    0.000    0.000    0.000 
#
# Total GULP energy -156614.967649 kJ/mol
# GULP energy per Si atom -5593.391702 kJ/mol
# Density = 1.958940 g / cm^3
# Si number density = 19.634088 Si / 1000 Ang^3
#
#
#
# Elastic Constant Matrix: (Units=GPa)
#
#
# Indices 1 2 3 4 5 6 
#
# 1 123.6200 32.5017 30.1977 0.0000 -19.8115 0.0000
# 2 32.5017 34.3473 25.2002 0.0000 -10.3346 0.0000
# 3 30.1977 25.2002 82.2558 0.0000 -24.4627 0.0000
# 4 0.0000 0.0000 0.0000 17.1426 0.0000 1.2796
# 5 -19.8115 -10.3346 -24.4627 0.0000 35.3412 0.0000
# 6 0.0000 0.0000 0.0000 1.2796 0.0000 37.2533
#
#
#
# Elastic Compliance Matrix: (Units=1/GPa)
#
#
# Indices 1 2 3 4 5 6 
#
# 1 0.011146 -0.009375 -0.000223 0.000000 0.003352 0.000000
# 2 -0.009375 0.045851 -0.010301 0.000000 0.001022 0.000000
# 3 -0.000223 -0.010301 0.018211 0.000000 0.009468 0.000000
# 4 0.000000 0.000000 0.000000 0.058484 0.000000 -0.002009
# 5 0.003352 0.001022 0.009468 0.000000 0.037027 0.000000
# 6 0.000000 0.000000 0.000000 -0.002009 0.000000 0.026912
#
#
# Mechanical properties :
#
#
# Convention : Reuss Voigt Hill
#
# Bulk Modulus (GPa) = 28.24089 46.22470 37.23279
# Shear Modulus (GPa) = 20.06163 28.10231 24.08197
#
# Velocity S-wave (km/s) = 3.19999 3.78736 3.50600
# Velocity P-wave (km/s) = 5.29793 6.53603 5.94927
#
# Compressibility (1/GPa) = 0.03540965
#
# Stress axis : x y z
#
# Youngs Moduli (GPa) = 89.72030 21.80984 54.91279
#
# Poissons Ratio (x) = 0.20446 0.01223
# Poissons Ratio (y) = 0.84110 0.56568
# Poissons Ratio (z) = 0.01998 0.22467
#
# Static dielectric constant tensor:
#      x y z
#    x 1.659960 0.000000 -0.010410 
#    y 0.000000 1.662240 0.000000 
#    z -0.010410 0.000000 1.673610 
# 
# From -- ./inp_files/181143.got.cif
#   From: 2010.05.17/outbox.cif.g08.bks.cpg/sg12_91_cif.got.tgz:181143.got - 2010.06.03 13:09:07.
