data_PCOD9215294
_publ_section_title
;
Structure prediction by ZEFSAII (Michael W. Deem and Ramdas Pophale) SiO2 
 PCOD9215294
Probable space group: C 2/M
;
_chemical_formula_sum "Si O2"
_cell_formula_units_Z 48
_cell_length_a 15.115989
_cell_length_b 17.938979
_cell_length_c 8.395217
_cell_angle_alpha 90.000000
_cell_angle_beta 84.614940
_cell_angle_gamma 90.000000
_cell_volume 2266.445085
_symmetry_space_group_name_H-M "C 2/M"
_symmetry_group_IT_number 12
_symmetry_cell_setting 'monoclinic'
loop_
_space_group_symop_operation_xyz
x,y,z
-x,y,-z
-x,-y,-z
x,-y,z
1/2+x,1/2+y,z
1/2-x,1/2+y,-z
1/2-x,1/2-y,-z
1/2+x,1/2-y,z
loop_
_atom_site_type_symbol
_atom_site_label
_atom_site_fract_x
_atom_site_fract_y
_atom_site_fract_z
Si Si1 0.554063 0.213680 0.337936
Si Si2 0.080513 0.876568 0.268772
Si Si3 0.243681 0.307645 0.238393
Si Si4 0.953866 0.418618 0.180467
Si Si5 0.733060 0.859180 0.879658
Si Si6 0.612621 0.584828 0.635138
O O1 0.500000 0.238847 0.500000
O O2 0.566115 0.288690 0.233639
O O3 0.653949 0.187256 0.356922
O O4 0.498438 0.148243 0.268495
O O5 0.170519 0.896967 0.161326
O O6 0.101653 0.891807 0.451807
O O7 0.984235 0.912897 0.264400
O O8 0.266886 0.220626 0.211735
O O9 0.322533 0.355688 0.296791
O O10 0.220612 0.339785 0.067433
O O11 0.969491 0.500000 0.251672
O O12 0.849474 0.405391 0.171499
O O13 0.000000 0.417897 0.000000
O O14 0.646466 0.500000 0.636879
#
# Coordination Sequence:
#
# PCOD9215294 Si02
#       6
#     8   8   8   8   8   8
#     4  11  22  40  66  91 120 159 204 255 296 360
#     4  10  22  41  64  92 117 162 207 251 301 356
#     4  10  23  40  62  96 119 158 206 254 300 351
#     4  11  24  41  61  89 128 164 196 247 311 367
#     4  10  22  41  65  89 122 159 210 250 294 361
#     4  11  23  41  62  91 130 160 196 251 311 364
#
# _framework density 21.178542
#
# number of rings (size 3 to 8) (size 9 to 14) (size 15 to 20)
#    0.000    1.500    3.333    2.000    2.333    5.000 
#    0.000    0.833    0.000    0.000    0.000    0.000 
#    0.000    0.000    0.000    0.000    0.000    0.000 
#
# Total GULP energy -134081.215831 kJ/mol
# GULP energy per Si atom -5586.717326 kJ/mol
# Density = 2.113034 g / cm^3
# Si number density = 21.178542 Si / 1000 Ang^3
#
#
#
# Elastic Constant Matrix: (Units=GPa)
#
#
# Indices 1 2 3 4 5 6 
#
# 1 126.3061 11.9394 14.4156 0.0000 -21.1496 0.0000
# 2 11.9394 61.5992 -0.5709 0.0000 1.2298 0.0000
# 3 14.4156 -0.5709 7.6061 0.0000 -9.4048 0.0000
# 4 0.0000 0.0000 0.0000 -11.3837 0.0000 61.0373
# 5 -21.1496 1.2298 -9.4048 0.0000 30.7686 0.0000
# 6 0.0000 0.0000 0.0000 61.0373 0.0000 34.9651
#
#
#
# Elastic Compliance Matrix: (Units=1/GPa)
#
#
# Indices 1 2 3 4 5 6 
#
# 1 0.010459 -0.002228 -0.017668 0.000000 0.001878 0.000000
# 2 -0.002228 0.016724 0.004434 0.000000 -0.000845 0.000000
# 3 -0.017668 0.004434 0.241228 0.000000 0.061413 0.000000
# 4 0.000000 0.000000 0.000000 -0.008479 0.000000 0.014802
# 5 0.001878 -0.000845 0.061413 0.000000 0.052597 0.000000
# 6 0.000000 0.000000 0.000000 0.014802 0.000000 0.002761
#
#
# Mechanical properties :
#
#
# Convention : Reuss Voigt Hill
#
# Bulk Modulus (GPa) = 4.21076 27.45329 15.83203
# Shear Modulus (GPa) = 11.75433 22.18515 16.96974
#
# Velocity S-wave (km/s) = 2.35842 3.24007 2.83374
# Velocity P-wave (km/s) = 3.06737 5.19503 4.26597
#
# Compressibility (1/GPa) = 0.23748657
#
# Stress axis : x y z
#
# Youngs Moduli (GPa) = 95.61323 59.79487 4.14545
#
# Poissons Ratio (x) = 0.13325 0.07324
# Poissons Ratio (y) = 0.21306 -0.01838
# Poissons Ratio (z) = 1.68926 -0.26513
#
# Static dielectric constant tensor:
#      x y z
#    x 1.759370 0.000000 -0.018910 
#    y 0.000000 1.760350 0.000000 
#    z -0.018910 0.000000 1.743220 
# 
# From -- ./inp_files/61683.got.cif
#   From: 2010.05.17/outbox.cif.g08.bks.cpg/sg12_31_cif.got.tgz:61683.got - 2010.06.03 13:09:07.
