data_PCOD9215944
_publ_section_title
;
Structure prediction by ZEFSAII (Michael W. Deem and Ramdas Pophale) SiO2 
 PCOD9215944
Probable space group: C 2/M
;
_chemical_formula_sum "Si O2"
_cell_formula_units_Z 28
_cell_length_a 12.468527
_cell_length_b 14.907664
_cell_length_c 10.503831
_cell_angle_alpha 90.000000
_cell_angle_beta 34.057449
_cell_angle_gamma 90.000000
_cell_volume 1093.399863
_symmetry_space_group_name_H-M "C 2/M"
_symmetry_group_IT_number 12
_symmetry_cell_setting 'monoclinic'
loop_
_space_group_symop_operation_xyz
x,y,z
-x,y,-z
-x,-y,-z
x,-y,z
1/2+x,1/2+y,z
1/2-x,1/2+y,-z
1/2-x,1/2-y,-z
1/2+x,1/2-y,z
loop_
_atom_site_type_symbol
_atom_site_label
_atom_site_fract_x
_atom_site_fract_y
_atom_site_fract_z
Si Si1 0.127623 0.340190 0.638194
Si Si2 0.000000 0.756946 0.000000
Si Si3 0.263135 0.893551 0.856242
Si Si4 0.987227 0.099087 0.651330
O O1 0.250000 0.250000 0.500000
O O2 0.983276 0.374919 0.673776
O O3 0.295758 0.406376 0.512923
O O4 0.998966 0.310588 0.883713
O O5 0.177671 0.826157 0.835645
O O6 0.234012 0.000000 0.858006
O O7 0.137670 0.868130 0.106439
O O8 0.000000 0.146513 0.500000
O O9 0.904560 0.000000 0.707136
#
# Coordination Sequence:
#
# PCOD9215944 Si02
#       4
#     8   4   8   8
#     4  12  25  41  68  98 138 173 224 271 340 393
#     4  12  25  44  71 104 138 172 226 284 335 392
#     4  11  25  47  68  99 138 179 225 276 336 404
#     4  10  22  42  68  96 133 179 224 271 332 404
#
# _framework density 25.608197000000001
#
# number of rings (size 3 to 8) (size 9 to 14) (size 15 to 20)
#    0.000    0.857    2.857    3.857    4.000    0.000 
#    0.000    7.143    0.000    0.000    0.000    0.000 
#    0.000    0.000    0.000    0.000    0.000    0.000 
#
# Total GULP energy -78245.388738 kJ/mol
# GULP energy per Si atom -5588.956338 kJ/mol
# Density = 2.554991 g / cm^3
# Si number density = 25.608197 Si / 1000 Ang^3
#
#
#
# Elastic Constant Matrix: (Units=GPa)
#
#
# Indices 1 2 3 4 5 6 
#
# 1 172.9351 19.0917 4.6214 -0.0008 -17.2640 0.0017
# 2 19.0917 82.6631 21.2307 0.0001 -1.7988 0.0004
# 3 4.6214 21.2307 43.9831 -0.0003 -1.0138 0.0003
# 4 -0.0008 0.0001 -0.0003 4.0313 0.0005 -0.4944
# 5 -17.2640 -1.7988 -1.0138 0.0005 33.6006 -0.0009
# 6 0.0017 0.0004 0.0003 -0.4944 -0.0009 40.7999
#
#
#
# Elastic Compliance Matrix: (Units=1/GPa)
#
#
# Indices 1 2 3 4 5 6 
#
# 1 0.006248 -0.001398 0.000091 0.000001 0.003138 0.000000
# 2 -0.001398 0.014132 -0.006678 -0.000001 -0.000163 0.000000
# 3 0.000091 -0.006678 0.025961 0.000002 0.000472 0.000000
# 4 0.000001 -0.000001 0.000002 0.248427 -0.000003 0.003010
# 5 0.003138 -0.000163 0.000472 -0.000003 0.031379 0.000000
# 6 0.000000 0.000000 0.000000 0.003010 0.000000 0.024546
#
#
# Mechanical properties :
#
#
# Convention : Reuss Voigt Hill
#
# Bulk Modulus (GPa) = 32.92802 43.27432 38.10117
# Shear Modulus (GPa) = 13.27008 32.66220 22.96614
#
# Velocity S-wave (km/s) = 2.27886 3.57523 2.99796
# Velocity P-wave (km/s) = 4.45091 5.82909 5.18599
#
# Compressibility (1/GPa) = 0.03036927
#
# Stress axis : x y z
#
# Youngs Moduli (GPa) = 160.05932 70.76228 38.51937
#
# Poissons Ratio (x) = 0.09892 -0.00349
# Poissons Ratio (y) = 0.22375 0.25724
# Poissons Ratio (z) = -0.01451 0.47257
#
# Static dielectric constant tensor:
#      x y z
#    x 1.965900 0.000000 0.019810 
#    y 0.000000 2.058640 0.000000 
#    z 0.019810 0.000000 2.131540 
# 
# From -- ./inp_files/72711.got.cif
#   From: 2010.05.17/outbox.cif.g08.bks.cpg/sg12_37_cif.got.tgz:72711.got - 2010.06.03 13:09:07.
