data_PCOD9215211
_publ_section_title
;
Structure prediction by ZEFSAII (Michael W. Deem and Ramdas Pophale) SiO2 
 PCOD9215211
Probable space group: C 2/M
;
_chemical_formula_sum "Si O2"
_cell_formula_units_Z 56
_cell_length_a 19.588204
_cell_length_b 22.508828
_cell_length_c 15.947695
_cell_angle_alpha 90.000000
_cell_angle_beta 159.362880
_cell_angle_gamma 90.000000
_cell_volume 2478.223621
_symmetry_space_group_name_H-M "C 2/M"
_symmetry_group_IT_number 12
_symmetry_cell_setting 'monoclinic'
loop_
_space_group_symop_operation_xyz
x,y,z
-x,y,-z
-x,-y,-z
x,-y,z
1/2+x,1/2+y,z
1/2-x,1/2+y,-z
1/2-x,1/2-y,-z
1/2+x,1/2-y,z
loop_
_atom_site_type_symbol
_atom_site_label
_atom_site_fract_x
_atom_site_fract_y
_atom_site_fract_z
Si Si1 0.696699 0.157272 0.557148
Si Si2 0.196946 0.569261 0.264954
Si Si3 0.992302 0.432556 0.202070
Si Si4 0.131673 0.258029 0.777110
Si Si5 0.413064 0.358364 0.082936
Si Si6 0.599727 0.626565 0.730458
Si Si7 0.727813 0.933383 0.739266
O O1 0.545265 0.115473 0.332930
O O2 0.581923 0.216434 0.450699
O O3 0.763792 0.117265 0.712105
O O4 0.881256 0.166602 0.710506
O O5 0.210843 0.500000 0.256073
O O6 0.393282 0.601422 0.466457
O O7 0.154099 0.570674 0.315475
O O8 0.000000 0.595053 0.000000
O O9 0.986599 0.500000 0.228149
O O10 0.783360 0.415181 0.924346
O O11 0.132251 0.193625 0.736658
O O12 0.250000 0.250000 0.000000
O O13 0.249560 0.310494 0.868471
O O14 0.411287 0.368928 0.180109
O O15 0.355529 0.417821 0.967297
O O16 0.500000 0.930661 0.500000
O O17 0.768501 0.000000 0.755228
#
# Coordination Sequence:
#
# PCOD9215211 Si02
#       7
#     8   8   8   8   8   8   8
#     4  12  22  40  64  95 128 174 218 258 317 375
#     4  10  23  43  65  93 126 157 203 268 333 388
#     4  11  22  38  64  94 124 160 209 261 316 391
#     4  10  22  41  63  90 123 168 218 263 308 369
#     4  11  23  39  63  93 129 171 217 261 314 375
#     4  11  22  42  68  92 124 172 214 261 323 383
#     4  11  23  41  65  94 139 180 214 265 320 379
#
# _framework density 22.596830000000001
#
# number of rings (size 3 to 8) (size 9 to 14) (size 15 to 20)
#    0.000    1.143    5.714    1.286    0.000    8.000 
#    0.000    6.429    0.000    0.000    0.000    0.000 
#    0.000    0.000    0.000    0.000    0.000    0.000 
#
# Total GULP energy -156644.434851 kJ/mol
# GULP energy per Si atom -5594.444102 kJ/mol
# Density = 2.254540 g / cm^3
# Si number density = 22.596830 Si / 1000 Ang^3
#
#
#
# Elastic Constant Matrix: (Units=GPa)
#
#
# Indices 1 2 3 4 5 6 
#
# 1 46.1731 -5.5947 0.7770 0.0000 6.1946 0.0000
# 2 -5.5947 63.8029 10.5298 0.0001 7.3259 0.0001
# 3 0.7770 10.5298 105.2381 -0.0001 20.7563 -0.0001
# 4 0.0000 0.0001 -0.0001 28.1044 -0.0001 -12.2562
# 5 6.1946 7.3259 20.7563 -0.0001 49.3170 -0.0001
# 6 0.0000 0.0001 -0.0001 -12.2562 -0.0001 7.0636
#
#
#
# Elastic Compliance Matrix: (Units=1/GPa)
#
#
# Indices 1 2 3 4 5 6 
#
# 1 0.022368 0.002294 0.000247 0.000000 -0.003254 0.000000
# 2 0.002294 0.016328 -0.001216 -0.000001 -0.002202 -0.000001
# 3 0.000247 -0.001216 0.010461 0.000000 -0.004253 0.000001
# 4 0.000000 -0.000001 0.000000 0.146229 0.000000 0.253724
# 5 -0.003254 -0.002202 -0.004253 0.000000 0.022803 0.000001
# 6 0.000000 -0.000001 0.000001 0.253724 0.000001 0.581809
#
#
# Mechanical properties :
#
#
# Convention : Reuss Voigt Hill
#
# Bulk Modulus (GPa) = 19.30234 25.18204 22.24219
# Shear Modulus (GPa) = 6.13785 30.86382 18.50084
#
# Velocity S-wave (km/s) = 1.64989 3.69975 2.86446
# Velocity P-wave (km/s) = 3.49144 5.42394 4.56121
#
# Compressibility (1/GPa) = 0.05180719
#
# Stress axis : x y z
#
# Youngs Moduli (GPa) = 44.70653 61.24448 95.59316
#
# Poissons Ratio (x) = -0.14051 -0.02363
# Poissons Ratio (y) = -0.10257 0.11628
# Poissons Ratio (z) = -0.01105 0.07450
#
# Static dielectric constant tensor:
#      x y z
#    x 1.878460 0.000000 -0.023010 
#    y 0.000000 1.831520 0.000000 
#    z -0.023010 0.000000 1.840240 
# 
# From -- ./inp_files/286004.got.cif
#   From: 2010.05.17/outbox.cif.g08.bks.cpg/sg12_144_cif.got.tgz:286004.got - 2010.06.03 13:09:07.
