data_PCOD9215810
_publ_section_title
;
Structure prediction by ZEFSAII (Michael W. Deem and Ramdas Pophale) SiO2 
 PCOD9215810
Probable space group: C 2/M
;
_chemical_formula_sum "Si O2"
_cell_formula_units_Z 56
_cell_length_a 17.174173
_cell_length_b 23.007041
_cell_length_c 8.856081
_cell_angle_alpha 90.000000
_cell_angle_beta 55.641219
_cell_angle_gamma 90.000000
_cell_volume 2888.721243
_symmetry_space_group_name_H-M "C 2/M"
_symmetry_group_IT_number 12
_symmetry_cell_setting 'monoclinic'
loop_
_space_group_symop_operation_xyz
x,y,z
-x,y,-z
-x,-y,-z
x,-y,z
1/2+x,1/2+y,z
1/2-x,1/2+y,-z
1/2-x,1/2-y,-z
1/2+x,1/2-y,z
loop_
_atom_site_type_symbol
_atom_site_label
_atom_site_fract_x
_atom_site_fract_y
_atom_site_fract_z
Si Si1 0.387189 0.434790 0.105715
Si Si2 0.547403 0.855507 0.606944
Si Si3 0.185563 0.178378 0.974470
Si Si4 0.311759 0.243205 0.584061
Si Si5 0.248089 0.148113 0.231317
Si Si6 0.723478 0.067358 0.533045
Si Si7 0.925763 0.711761 0.961606
O O1 0.361428 0.500000 0.073566
O O2 0.367253 0.377457 0.031429
O O3 0.317941 0.426783 0.326862
O O4 0.500000 0.436201 0.000000
O O5 0.500000 0.873530 0.500000
O O6 0.593715 0.792023 0.541747
O O7 0.634261 0.896805 0.562769
O O8 0.468238 0.841369 0.818397
O O9 0.255398 0.205385 0.771794
O O10 0.237485 0.152779 0.063933
O O11 0.119382 0.234459 0.080694
O O12 0.250000 0.250000 0.500000
O O13 0.330457 0.308429 0.618219
O O14 0.253297 0.090958 0.324795
O O15 0.345053 0.182810 0.152456
O O16 0.697832 0.000000 0.564786
O O17 0.000000 0.736514 0.000000
#
# Coordination Sequence:
#
# PCOD9215810 Si02
#       7
#     8   8   8   8   8   8   8
#     4  10  22  42  66  90 118 159 215 269 320 378
#     4  12  22  38  63  94 128 164 213 261 314 382
#     4  11  21  36  61  92 123 160 211 256 322 372
#     4  11  19  37  61  88 125 169 204 258 321 368
#     4  11  22  39  58  88 130 165 206 259 311 383
#     4  11  24  44  65  88 125 176 216 258 321 382
#     4  11  21  36  58  92 129 162 202 249 310 383
#
# _framework density 19.385739000000001
#
# number of rings (size 3 to 8) (size 9 to 14) (size 15 to 20)
#    0.000    1.000    4.286    4.714    0.000    2.000 
#    0.000    3.571    0.000    2.571    0.000    0.000 
#    0.000    0.000    0.000    0.000    0.000    0.000 
#
# Total GULP energy -156011.190067 kJ/mol
# GULP energy per Si atom -5571.828217 kJ/mol
# Density = 1.934162 g / cm^3
# Si number density = 19.385739 Si / 1000 Ang^3
#
#
#
# Elastic Constant Matrix: (Units=GPa)
#
#
# Indices 1 2 3 4 5 6 
#
# 1 83.2691 24.1653 38.1507 0.0000 12.8284 0.0000
# 2 24.1653 91.5740 33.1283 0.0000 -2.2194 0.0000
# 3 38.1507 33.1283 74.0014 0.0000 5.0328 0.0000
# 4 0.0000 0.0000 0.0000 13.7173 0.0000 -1.1411
# 5 12.8284 -2.2194 5.0328 0.0000 30.3182 0.0000
# 6 0.0000 0.0000 0.0000 -1.1411 0.0000 18.1655
#
#
#
# Elastic Compliance Matrix: (Units=1/GPa)
#
#
# Indices 1 2 3 4 5 6 
#
# 1 0.016911 -0.001915 -0.007449 0.000000 -0.006059 0.000000
# 2 -0.001915 0.013362 -0.005175 0.000000 0.002647 0.000000
# 3 -0.007449 -0.005175 0.019704 0.000000 -0.000498 0.000000
# 4 0.000000 0.000000 0.000000 0.073284 0.000000 0.004604
# 5 -0.006059 0.002647 -0.000498 0.000000 0.035824 0.000000
# 6 0.000000 0.000000 0.000000 0.004604 0.000000 0.055339
#
#
# Mechanical properties :
#
#
# Convention : Reuss Voigt Hill
#
# Bulk Modulus (GPa) = 47.84698 48.85923 48.35310
# Shear Modulus (GPa) = 19.96277 22.66689 21.31483
#
# Velocity S-wave (km/s) = 3.21248 3.42315 3.31948
# Velocity P-wave (km/s) = 6.20444 6.39393 6.29990
#
# Compressibility (1/GPa) = 0.02089996
#
# Stress axis : x y z
#
# Youngs Moduli (GPa) = 59.13182 74.84187 50.75111
#
# Poissons Ratio (x) = 0.14330 0.37806
# Poissons Ratio (y) = 0.11322 0.26261
# Poissons Ratio (z) = 0.44049 0.38727
#
# Static dielectric constant tensor:
#      x y z
#    x 1.738120 0.000000 0.000430 
#    y 0.000000 1.677840 0.000000 
#    z 0.000430 0.000000 1.738600 
# 
# From -- ./inp_files/65783.got.cif
#   From: 2010.05.17/outbox.cif.g08.bks.cpg/sg12_33_cif.got.tgz:65783.got - 2010.06.03 13:09:07.
