data_PCOD9215146
_publ_section_title
;
Structure prediction by ZEFSAII (Michael W. Deem and Ramdas Pophale) SiO2 
 PCOD9215146
Probable space group: C 2/M
;
_chemical_formula_sum "Si O2"
_cell_formula_units_Z 56
_cell_length_a 16.481476
_cell_length_b 19.165898
_cell_length_c 8.883575
_cell_angle_alpha 90.000000
_cell_angle_beta 112.640327
_cell_angle_gamma 90.000000
_cell_volume 2589.919613
_symmetry_space_group_name_H-M "C 2/M"
_symmetry_group_IT_number 12
_symmetry_cell_setting 'monoclinic'
loop_
_space_group_symop_operation_xyz
x,y,z
-x,y,-z
-x,-y,-z
x,-y,z
1/2+x,1/2+y,z
1/2-x,1/2+y,-z
1/2-x,1/2-y,-z
1/2+x,1/2-y,z
loop_
_atom_site_type_symbol
_atom_site_label
_atom_site_fract_x
_atom_site_fract_y
_atom_site_fract_z
Si Si1 0.463711 0.347029 0.830701
Si Si2 0.179048 0.919962 0.482560
Si Si3 0.648544 0.775660 0.104988
Si Si4 0.915667 0.154755 0.353454
Si Si5 0.371652 0.079000 0.473767
Si Si6 0.081668 0.580899 0.173987
Si Si7 0.342228 0.207440 0.245171
O O1 0.385883 0.380329 0.678212
O O2 0.422723 0.274444 0.864082
O O3 0.551497 0.343920 0.792471
O O4 0.500000 0.388531 0.000000
O O5 0.164721 0.888498 0.638772
O O6 0.277168 0.915576 0.490424
O O7 0.152584 0.000000 0.467635
O O8 0.640750 0.852635 0.170645
O O9 0.741385 0.734721 0.189072
O O10 0.636843 0.788170 0.917365
O O11 0.896964 0.234928 0.376867
O O12 0.000000 0.126291 0.500000
O O13 0.438247 0.091048 0.661387
O O14 0.364654 0.134193 0.335823
O O15 0.383569 0.000000 0.426970
O O16 0.116527 0.500000 0.187883
O O17 0.000000 0.584129 0.000000
#
# Coordination Sequence:
#
# PCOD9215146 Si02
#       7
#     8   8   8   8   8   8   8
#     4  11  21  39  61  90 129 164 210 267 328 379
#     4  10  22  41  62  90 128 173 216 263 319 390
#     4  11  23  39  65  91 128 170 213 275 322 390
#     4  10  23  36  59  92 122 161 207 264 315 382
#     4  10  22  41  66  95 131 174 223 270 324 393
#     4  10  23  41  64  93 126 170 215 267 335 390
#     4  11  23  39  63  97 125 167 222 264 328 385
#
# _framework density 21.622292999999999
#
# number of rings (size 3 to 8) (size 9 to 14) (size 15 to 20)
#    0.000    1.571    2.857    1.286    4.000    4.571 
#    0.000    0.000    0.000    3.857    0.000    0.000 
#    0.000    0.000    0.000    0.000    0.000    0.000 
#
# Total GULP energy -156078.834598 kJ/mol
# GULP energy per Si atom -5574.244093 kJ/mol
# Density = 2.157308 g / cm^3
# Si number density = 21.622293 Si / 1000 Ang^3
#
#
#
# Elastic Constant Matrix: (Units=GPa)
#
#
# Indices 1 2 3 4 5 6 
#
# 1 77.3623 44.9635 36.2318 0.0000 -11.5848 0.0000
# 2 44.9635 141.4004 62.3217 0.0000 -18.0646 0.0000
# 3 36.2318 62.3217 109.8545 0.0000 -5.0697 0.0000
# 4 0.0000 0.0000 0.0000 31.7793 0.0000 -1.7825
# 5 -11.5848 -18.0646 -5.0697 0.0000 33.0365 0.0000
# 6 0.0000 0.0000 0.0000 -1.7825 0.0000 20.6856
#
#
#
# Elastic Compliance Matrix: (Units=1/GPa)
#
#
# Indices 1 2 3 4 5 6 
#
# 1 0.017109 -0.003425 -0.003535 0.000000 0.003584 0.000000
# 2 -0.003425 0.010785 -0.004806 0.000000 0.003959 0.000000
# 3 -0.003535 -0.004806 0.012908 0.000000 -0.001887 0.000000
# 4 0.000000 0.000000 0.000000 0.031620 0.000000 0.002725
# 5 0.003584 0.003959 -0.001887 0.000000 0.033402 0.000000
# 6 0.000000 0.000000 0.000000 0.002725 0.000000 0.048578
#
#
# Mechanical properties :
#
#
# Convention : Reuss Voigt Hill
#
# Bulk Modulus (GPa) = 57.89951 68.40568 63.15259
# Shear Modulus (GPa) = 27.21981 29.44028 28.33004
#
# Velocity S-wave (km/s) = 3.55191 3.69395 3.62363
# Velocity P-wave (km/s) = 6.60737 7.06392 6.83946
#
# Compressibility (1/GPa) = 0.01727130
#
# Stress axis : x y z
#
# Youngs Moduli (GPa) = 58.44975 92.71885 77.46918
#
# Poissons Ratio (x) = 0.31752 0.27382
# Poissons Ratio (y) = 0.20017 0.37235
# Poissons Ratio (z) = 0.20659 0.44565
#
# Static dielectric constant tensor:
#      x y z
#    x 1.872310 0.000000 0.015700 
#    y 0.000000 1.757850 0.000000 
#    z 0.015700 0.000000 1.823800 
# 
# From -- ./inp_files/76018.got.cif
#   From: 2010.05.17/outbox.cif.g08.bks.cpg/sg12_39_cif.got.tgz:76018.got - 2010.06.03 13:09:07.
