data_PCOD9215322
_publ_section_title
;
Structure prediction by ZEFSAII (Michael W. Deem and Ramdas Pophale) SiO2 
 PCOD9215322
Probable space group: C 2/M
;
_chemical_formula_sum "Si O2"
_cell_formula_units_Z 48
_cell_length_a 14.318732
_cell_length_b 9.957760
_cell_length_c 14.639533
_cell_angle_alpha 90.000000
_cell_angle_beta 100.947867
_cell_angle_gamma 90.000000
_cell_volume 2049.352377
_symmetry_space_group_name_H-M "C 2/M"
_symmetry_group_IT_number 12
_symmetry_cell_setting 'monoclinic'
loop_
_space_group_symop_operation_xyz
x,y,z
-x,y,-z
-x,-y,-z
x,-y,z
1/2+x,1/2+y,z
1/2-x,1/2+y,-z
1/2-x,1/2-y,-z
1/2+x,1/2-y,z
loop_
_atom_site_type_symbol
_atom_site_label
_atom_site_fract_x
_atom_site_fract_y
_atom_site_fract_z
Si Si1 0.167203 0.150912 0.015635
Si Si2 0.581222 0.348530 0.352093
Si Si3 0.562166 0.141198 0.103604
Si Si4 0.656792 0.158883 0.504696
Si Si5 0.921488 0.216382 0.187440
Si Si6 0.275755 0.844878 0.284845
O O1 0.098095 0.147876 0.913932
O O2 0.198151 0.000000 0.040507
O O3 0.250000 0.250000 0.000000
O O4 0.322680 0.243829 0.215440
O O5 0.601948 0.500000 0.391572
O O6 0.578388 0.237574 0.431109
O O7 0.487093 0.354876 0.273821
O O8 0.671017 0.310263 0.303623
O O9 0.487746 0.157870 0.171238
O O10 0.620207 0.276311 0.093851
O O11 0.617299 0.000000 0.122954
O O12 0.500000 0.130852 0.000000
O O13 0.750000 0.250000 0.500000
O O14 0.654514 0.163648 0.613878
O O15 0.664174 0.000000 0.481074
O O16 0.272607 0.000000 0.255654
#
# Coordination Sequence:
#
# PCOD9215322 Si02
#       6
#     8   8   8   8   8   8
#     4  11  25  44  66  92 125 169 216 266 328 391
#     4  10  22  41  64  93 131 173 215 265 323 381
#     4   9  20  39  62  89 123 159 202 255 317 384
#     4   9  18  37  63  93 129 173 218 262 317 379
#     4  11  23  39  65  99 128 166 213 273 319 387
#     4   9  20  39  64  93 129 171 212 257 316 383
#
# _framework density 23.422032000000002
#
# number of rings (size 3 to 8) (size 9 to 14) (size 15 to 20)
#    0.000    2.167    0.000    3.000    2.333    7.667 
#    0.000   10.833    0.000    0.000    0.000    0.000 
#    0.000    0.000    0.000    0.000    0.000    0.000 
#
# Total GULP energy -133936.447312 kJ/mol
# GULP energy per Si atom -5580.685305 kJ/mol
# Density = 2.336872 g / cm^3
# Si number density = 23.422032 Si / 1000 Ang^3
#
#
#
# Elastic Constant Matrix: (Units=GPa)
#
#
# Indices 1 2 3 4 5 6 
#
# 1 80.1467 34.5232 7.8546 0.0000 2.5474 0.0000
# 2 34.5232 158.6221 27.2854 0.0000 -9.3178 0.0000
# 3 7.8546 27.2854 121.3926 0.0000 1.0570 0.0000
# 4 0.0000 0.0000 0.0000 -153.9063 0.0000 -17.3674
# 5 2.5474 -9.3178 1.0570 0.0000 35.7216 0.0000
# 6 0.0000 0.0000 0.0000 -17.3674 0.0000 9.5047
#
#
#
# Elastic Compliance Matrix: (Units=1/GPa)
#
#
# Indices 1 2 3 4 5 6 
#
# 1 0.013886 -0.003095 -0.000187 0.000000 -0.001792 0.000000
# 2 -0.003095 0.007360 -0.001473 0.000000 0.002184 0.000000
# 3 -0.000187 -0.001473 0.008586 0.000000 -0.000625 0.000000
# 4 0.000000 0.000000 0.000000 -0.005387 0.000000 -0.009843
# 5 -0.001792 0.002184 -0.000625 0.000000 0.028710 0.000000
# 6 0.000000 0.000000 0.000000 -0.009843 0.000000 0.087226
#
#
# Mechanical properties :
#
#
# Convention : Reuss Voigt Hill
#
# Bulk Modulus (GPa) = 49.21015 55.49866 52.35441
# Shear Modulus (GPa) = 31.91523 -2.36945 14.77289
#
# Velocity S-wave (km/s) = 3.69537 -1.00689 2.51415
# Velocity P-wave (km/s) = 6.26606 4.73231 5.55240
#
# Compressibility (1/GPa) = 0.02032101
#
# Stress axis : x y z
#
# Youngs Moduli (GPa) = 72.01654 135.87661 116.46375
#
# Poissons Ratio (x) = 0.42057 0.02180
# Poissons Ratio (y) = 0.22291 0.17155
# Poissons Ratio (z) = 0.01348 0.20014
#
# Static dielectric constant tensor:
#      x y z
#    x 1.881040 0.000000 0.054420 
#    y 0.000000 1.898690 0.000000 
#    z 0.054420 0.000000 1.962660 
# 
# From -- ./inp_files/352751.got.cif
#   From: 2010.05.17/outbox.cif.g08.bks.cpg/sg12_177_cif.got.tgz:352751.got - 2010.06.03 13:09:07.
