data_PCOD9215377
_publ_section_title
;
Structure prediction by ZEFSAII (Michael W. Deem and Ramdas Pophale) SiO2 
 PCOD9215377
Probable space group: C 2/M
;
_chemical_formula_sum "Si O2"
_cell_formula_units_Z 36
_cell_length_a 12.195676
_cell_length_b 18.966205
_cell_length_c 10.943059
_cell_angle_alpha 90.000000
_cell_angle_beta 44.744404
_cell_angle_gamma 90.000000
_cell_volume 1781.820736
_symmetry_space_group_name_H-M "C 2/M"
_symmetry_group_IT_number 12
_symmetry_cell_setting 'monoclinic'
loop_
_space_group_symop_operation_xyz
x,y,z
-x,y,-z
-x,-y,-z
x,-y,z
1/2+x,1/2+y,z
1/2-x,1/2+y,-z
1/2-x,1/2-y,-z
1/2+x,1/2-y,z
loop_
_atom_site_type_symbol
_atom_site_label
_atom_site_fract_x
_atom_site_fract_y
_atom_site_fract_z
Si Si1 0.384726 0.081107 0.475120
Si Si2 0.525907 0.416471 0.838687
Si Si3 0.000000 0.298196 0.000000
Si Si4 0.686314 0.311612 0.140366
Si Si5 0.079720 0.274531 0.669300
O O1 0.500000 0.086349 0.500000
O O2 0.205647 0.095341 0.657024
O O3 0.433783 0.141907 0.342119
O O4 0.393798 0.000000 0.423183
O O5 0.498245 0.500000 0.849751
O O6 0.401017 0.374800 0.857221
O O7 0.500000 0.396696 0.000000
O O8 0.837906 0.336082 0.093769
O O9 0.950318 0.257888 0.163501
O O10 0.545999 0.267617 0.312817
O O11 0.750000 0.250000 0.000000
O O12 0.250000 0.250000 0.500000
#
# Coordination Sequence:
#
# PCOD9215377 Si02
#       5
#     8   8   4   8   8
#     4  10  23  40  63  95 126 162 215 269 318 376
#     4  10  22  41  65  92 126 168 213 263 320 372
#     4  10  26  42  57  98 127 168 216 254 320 388
#     4  10  23  38  62  92 131 164 210 261 309 387
#     4  11  23  40  66  91 127 171 211 264 319 378
#
# _framework density 20.204052999999998
#
# number of rings (size 3 to 8) (size 9 to 14) (size 15 to 20)
#    0.000    1.778    2.222    0.000   15.556    0.000 
#    0.000    2.222    0.000    2.667    0.000    0.000 
#    0.000    0.000    0.000    0.000    0.000    0.000 
#
# Total GULP energy -100295.349139 kJ/mol
# GULP energy per Si atom -5571.963841 kJ/mol
# Density = 2.015807 g / cm^3
# Si number density = 20.204053 Si / 1000 Ang^3
#
#
#
# Elastic Constant Matrix: (Units=GPa)
#
#
# Indices 1 2 3 4 5 6 
#
# 1 158.3578 54.4520 46.9090 0.0000 -47.3323 0.0000
# 2 54.4520 112.2656 30.5491 0.0000 -3.5607 0.0000
# 3 46.9090 30.5491 86.3341 0.0000 -13.4294 0.0000
# 4 0.0000 0.0000 0.0000 27.2299 0.0000 -0.6287
# 5 -47.3323 -3.5607 -13.4294 0.0000 41.6524 0.0000
# 6 0.0000 0.0000 0.0000 -0.6287 0.0000 24.1263
#
#
#
# Elastic Compliance Matrix: (Units=1/GPa)
#
#
# Indices 1 2 3 4 5 6 
#
# 1 0.012934 -0.004981 -0.003206 0.000000 0.013239 0.000000
# 2 -0.004981 0.011778 -0.002300 0.000000 -0.005395 0.000000
# 3 -0.003206 -0.002300 0.014257 0.000000 0.000757 0.000000
# 4 0.000000 0.000000 0.000000 0.036746 0.000000 0.000958
# 5 0.013239 -0.005395 0.000757 0.000000 0.038835 0.000000
# 6 0.000000 0.000000 0.000000 0.000958 0.000000 0.041473
#
#
# Mechanical properties :
#
#
# Convention : Reuss Voigt Hill
#
# Bulk Modulus (GPa) = 55.57406 68.97529 62.27468
# Shear Modulus (GPa) = 27.32289 33.60490 30.46389
#
# Velocity S-wave (km/s) = 3.68142 4.08275 3.88727
# Velocity P-wave (km/s) = 6.75548 7.51256 7.14406
#
# Compressibility (1/GPa) = 0.01799401
#
# Stress axis : x y z
#
# Youngs Moduli (GPa) = 77.31447 84.90152 70.14334
#
# Poissons Ratio (x) = 0.42291 0.22487
# Poissons Ratio (y) = 0.38512 0.16136
# Poissons Ratio (z) = 0.24786 0.19531
#
# Static dielectric constant tensor:
#      x y z
#    x 1.751430 0.000000 -0.007170 
#    y 0.000000 1.731110 0.000000 
#    z -0.007170 0.000000 1.747400 
# 
# From -- ./inp_files/130799.got.cif
#   From: 2010.05.17/outbox.cif.g08.bks.cpg/sg12_66_cif.got.tgz:130799.got - 2010.06.03 13:09:07.
