data_PCOD9215273
_publ_section_title
;
Structure prediction by ZEFSAII (Michael W. Deem and Ramdas Pophale) SiO2 
 PCOD9215273
Probable space group: C 2/M
;
_chemical_formula_sum "Si O2"
_cell_formula_units_Z 40
_cell_length_a 5.093388
_cell_length_b 17.236091
_cell_length_c 19.080668
_cell_angle_alpha 90.000000
_cell_angle_beta 86.465951
_cell_angle_gamma 90.000000
_cell_volume 1671.908280
_symmetry_space_group_name_H-M "C 2/M"
_symmetry_group_IT_number 12
_symmetry_cell_setting 'monoclinic'
loop_
_space_group_symop_operation_xyz
x,y,z
-x,y,-z
-x,-y,-z
x,-y,z
1/2+x,1/2+y,z
1/2-x,1/2+y,-z
1/2-x,1/2-y,-z
1/2+x,1/2-y,z
loop_
_atom_site_type_symbol
_atom_site_label
_atom_site_fract_x
_atom_site_fract_y
_atom_site_fract_z
Si Si1 0.385996 0.905451 0.576222
Si Si2 0.996507 0.305633 0.863426
Si Si3 0.834460 0.089366 0.209077
Si Si4 0.322853 0.589831 0.940236
Si Si5 0.863370 0.094379 0.659208
O O1 0.500000 0.879103 0.500000
O O2 0.087218 0.884657 0.598506
O O3 0.582732 0.879427 0.634859
O O4 0.391932 0.000000 0.575195
O O5 0.247523 0.250584 0.865224
O O6 0.057433 0.365304 0.925132
O O7 0.928352 0.361837 0.799777
O O8 0.014523 0.120299 0.268885
O O9 0.002003 0.091120 0.134151
O O10 0.763128 0.000000 0.224884
O O11 0.267715 0.500000 0.956802
O O12 0.500000 0.623266 0.000000
O O13 0.850058 0.000000 0.663997
#
# Coordination Sequence:
#
# PCOD9215273 Si02
#       5
#     8   8   8   8   8
#     4   9  16  27  44  74 116 155 189 231 294 365
#     4  12  25  44  65  91 126 162 206 259 319 371
#     4  10  22  41  64  90 124 164 213 258 305 370
#     4  10  23  44  68  93 124 166 212 258 310 369
#     4   9  18  29  50  78 110 156 197 238 294 356
#
# _framework density 23.924758000000001
#
# number of rings (size 3 to 8) (size 9 to 14) (size 15 to 20)
#    0.000    2.000    2.000    1.200    2.800    4.000 
#    0.000    3.000    0.000    0.000    0.000    0.000 
#    0.000   16.000    0.000    0.000    0.000    0.000 
#
# Total GULP energy -111785.965424 kJ/mol
# GULP energy per Si atom -5589.298271 kJ/mol
# Density = 2.387030 g / cm^3
# Si number density = 23.924758 Si / 1000 Ang^3
#
#
#
# Elastic Constant Matrix: (Units=GPa)
#
#
# Indices 1 2 3 4 5 6 
#
# 1 145.6036 34.5215 5.9493 0.0000 16.9345 0.0000
# 2 34.5215 59.8917 -5.9200 0.0000 18.4018 0.0000
# 3 5.9493 -5.9200 94.7484 0.0000 14.2410 0.0000
# 4 0.0000 0.0000 0.0000 -0.5545 0.0000 20.7364
# 5 16.9345 18.4018 14.2410 0.0000 41.2617 0.0000
# 6 0.0000 0.0000 0.0000 20.7364 0.0000 34.7386
#
#
#
# Elastic Compliance Matrix: (Units=1/GPa)
#
#
# Indices 1 2 3 4 5 6 
#
# 1 0.008058 -0.004348 -0.000603 0.000000 -0.001160 0.000000
# 2 -0.004348 0.022343 0.003057 0.000000 -0.009235 0.000000
# 3 -0.000603 0.003057 0.011550 0.000000 -0.005102 0.000000
# 4 0.000000 0.000000 0.000000 -0.077324 0.000000 0.046157
# 5 -0.001160 -0.009235 -0.005102 0.000000 0.030591 0.000000
# 6 0.000000 0.000000 0.000000 0.046157 0.000000 0.001234
#
#
# Mechanical properties :
#
#
# Convention : Reuss Voigt Hill
#
# Bulk Modulus (GPa) = 26.20386 41.03837 33.62111
# Shear Modulus (GPa) = 385.73980 32.80202 209.27091
#
# Velocity S-wave (km/s) = 12.71143 3.70679 9.36271
# Velocity P-wave (km/s) = 15.04716 5.95908 11.44394
#
# Compressibility (1/GPa) = 0.03816232
#
# Stress axis : x y z
#
# Youngs Moduli (GPa) = 124.09379 44.75743 86.57990
#
# Poissons Ratio (x) = 0.19461 0.05224
# Poissons Ratio (y) = 0.53957 -0.26468
# Poissons Ratio (z) = 0.07487 -0.13683
#
# Static dielectric constant tensor:
#      x y z
#    x 1.937110 0.000000 -0.070120 
#    y 0.000000 1.940670 0.000000 
#    z -0.070120 0.000000 2.000100 
# 
# From -- ./inp_files/252823.got.cif
#   From: 2010.05.17/outbox.cif.g08.bks.cpg/sg12_127_cif.got.tgz:252823.got - 2010.06.03 13:09:07.
