data_PCOD9215924
_publ_section_title
;
Structure prediction by ZEFSAII (Michael W. Deem and Ramdas Pophale) SiO2 
 PCOD9215924
Probable space group: C 2/M
;
_chemical_formula_sum "Si O2"
_cell_formula_units_Z 58
_cell_length_a 28.402443
_cell_length_b 7.600866
_cell_length_c 26.868125
_cell_angle_alpha 90.000000
_cell_angle_beta 26.121477
_cell_angle_gamma 90.000000
_cell_volume 2553.764868
_symmetry_space_group_name_H-M "C 2/M"
_symmetry_group_IT_number 12
_symmetry_cell_setting 'monoclinic'
loop_
_space_group_symop_operation_xyz
x,y,z
-x,y,-z
-x,-y,-z
x,-y,z
1/2+x,1/2+y,z
1/2-x,1/2+y,-z
1/2-x,1/2-y,-z
1/2+x,1/2-y,z
loop_
_atom_site_type_symbol
_atom_site_label
_atom_site_fract_x
_atom_site_fract_y
_atom_site_fract_z
Si Si1 0.500000 0.500000 0.000000
Si Si2 0.870652 0.200825 0.503479
Si Si3 0.336577 0.710548 0.875605
Si Si4 0.642286 0.212995 0.701035
Si Si5 0.248830 0.704665 0.853253
Si Si6 0.491103 0.211803 0.933694
Si Si7 0.944081 0.700067 0.601876
Si Si8 0.921023 0.702974 0.345801
O O1 0.547539 0.341571 0.918485
O O2 0.751707 0.275050 0.622601
O O3 0.890851 0.202105 0.425234
O O4 0.965819 0.297627 0.440936
O O5 0.874540 0.000000 0.518093
O O6 0.351886 0.500000 0.857446
O O7 0.296107 0.777576 0.860099
O O8 0.450862 0.790161 0.780630
O O9 0.250000 0.750000 0.000000
O O10 0.540909 0.244024 0.832057
O O11 0.628142 0.278052 0.658269
O O12 0.652368 0.000000 0.687739
O O13 0.227417 0.500000 0.883888
O O14 0.337849 0.717683 0.726115
O O15 0.132766 0.775039 0.948553
O O16 0.500249 0.000000 0.935613
O O17 0.914664 0.500000 0.616993
O O18 0.000000 0.780400 0.500000
O O19 0.887642 0.500000 0.383029
#
# Coordination Sequence:
#
# PCOD9215924 Si02
#       8
#     2   8   8   8   8   8   8   8
#     4  12  26  44  68 106 126 176 226 280 342 392
#     4  11  22  40  64  94 130 174 222 264 324 402
#     4  11  22  37  60  94 130 171 216 263 322 393
#     4   9  21  42  66  92 132 177 218 265 328 404
#     4  10  22  42  68  92 129 173 216 267 328 400
#     4  10  23  47  70  97 135 175 222 280 341 400
#     4  11  25  43  64  94 131 169 219 280 333 385
#     4  11  21  38  62  93 132 173 214 266 329 385
#
# _framework density 22.711565
#
# number of rings (size 3 to 8) (size 9 to 14) (size 15 to 20)
#    0.000    1.517    1.379    3.103    0.966    4.966 
#    9.931    2.759    0.000    0.000    0.000    0.000 
#    0.000    0.000    0.000    0.000    0.000    0.000 
#
# Total GULP energy -161810.738020 kJ/mol
# GULP energy per Si atom -5579.680621 kJ/mol
# Density = 2.265987 g / cm^3
# Si number density = 22.711565 Si / 1000 Ang^3
#
#
#
# Elastic Constant Matrix: (Units=GPa)
#
#
# Indices 1 2 3 4 5 6 
#
# 1 44.4003 4.5635 33.8590 -0.0003 7.5864 0.0501
# 2 4.5635 80.2486 -8.1909 0.0289 4.3639 -0.0934
# 3 33.8590 -8.1909 127.5236 0.0148 -3.6011 -0.0209
# 4 -0.0003 0.0289 0.0148 13.2426 -0.0103 31.1119
# 5 7.5864 4.3639 -3.6011 -0.0103 42.7683 0.0375
# 6 0.0501 -0.0934 -0.0209 31.1119 0.0375 63.8689
#
#
#
# Elastic Compliance Matrix: (Units=1/GPa)
#
#
# Indices 1 2 3 4 5 6 
#
# 1 0.030066 -0.002240 -0.008291 -0.000498 -0.005803 0.000216
# 2 -0.002240 0.012773 0.001393 0.000556 -0.000788 -0.000249
# 3 -0.008291 0.001393 0.010194 0.000262 0.002187 -0.000117
# 4 -0.000498 0.000556 0.000262 -0.522809 -0.000295 0.254672
# 5 -0.005803 -0.000788 0.002187 -0.000295 0.024676 0.000133
# 6 0.000216 -0.000249 -0.000117 0.254672 0.000133 -0.108400
#
#
# Mechanical properties :
#
#
# Convention : Reuss Voigt Hill
#
# Bulk Modulus (GPa) = 28.77037 34.73727 31.75382
# Shear Modulus (GPa) = -9.54858 38.77204 14.61173
#
# Velocity S-wave (km/s) = -2.05266 4.13625 2.53921
# Velocity P-wave (km/s) = 2.66033 6.17573 4.75484
#
# Compressibility (1/GPa) = 0.03475798
#
# Stress axis : x y z
#
# Youngs Moduli (GPa) = 33.26005 78.28894 98.09605
#
# Poissons Ratio (x) = 0.17536 0.81327
# Poissons Ratio (y) = 0.07450 -0.13663
# Poissons Ratio (z) = 0.27574 -0.10904
#
# Static dielectric constant tensor:
#      x y z
#    x 1.872870 0.000000 -0.011170 
#    y 0.000000 1.843420 0.000010 
#    z -0.011170 0.000010 1.833970 
# 
# From -- ./inp_files/351413.got.cif
#   From: 2010.05.17/outbox.cif.g08.bks.cpg/sg12_176_cif.got.tgz:351413.got - 2010.06.03 13:09:07.
