data_PCOD9215935
_publ_section_title
;
Structure prediction by ZEFSAII (Michael W. Deem and Ramdas Pophale) SiO2 
 PCOD9215935
Probable space group: C 2/M
;
_chemical_formula_sum "Si O2"
_cell_formula_units_Z 38
_cell_length_a 9.554728
_cell_length_b 22.736801
_cell_length_c 8.951739
_cell_angle_alpha 90.000000
_cell_angle_beta 76.617117
_cell_angle_gamma 90.000000
_cell_volume 1891.902636
_symmetry_space_group_name_H-M "C 2/M"
_symmetry_group_IT_number 12
_symmetry_cell_setting 'monoclinic'
loop_
_space_group_symop_operation_xyz
x,y,z
-x,y,-z
-x,-y,-z
x,-y,z
1/2+x,1/2+y,z
1/2-x,1/2+y,-z
1/2-x,1/2-y,-z
1/2+x,1/2-y,z
loop_
_atom_site_type_symbol
_atom_site_label
_atom_site_fract_x
_atom_site_fract_y
_atom_site_fract_z
Si Si1 0.145071 0.842299 0.362380
Si Si2 0.284111 0.103238 0.604913
Si Si3 0.205571 0.715833 0.207090
Si Si4 0.500000 0.000000 0.500000
Si Si5 0.516936 0.432188 0.173137
Si Si6 0.500000 0.745155 0.000000
O O1 0.255637 0.875671 0.442667
O O2 0.192565 0.778013 0.296397
O O3 0.000000 0.836134 0.500000
O O4 0.117735 0.883655 0.225907
O O5 0.330167 0.161302 0.681276
O O6 0.394548 0.051381 0.590130
O O7 0.134985 0.079317 0.709662
O O8 0.372456 0.709843 0.114267
O O9 0.093859 0.718931 0.097288
O O10 0.563196 0.500000 0.190978
O O11 0.500000 0.425112 0.000000
#
# Coordination Sequence:
#
# PCOD9215935 Si02
#       6
#     8   8   8   2   8   4
#     4  10  23  39  70  97 129 168 221 272 331 387
#     4  11  25  42  66  90 136 167 221 267 331 391
#     4  11  24  42  67 100 134 174 214 279 330 400
#     4  12  28  44  60  94 130 184 208 268 330 406
#     4  10  22  42  68  95 126 172 224 273 319 389
#     4  10  24  40  66 106 136 166 218 264 352 380
#
# _framework density 20.085601
#
# number of rings (size 3 to 8) (size 9 to 14) (size 15 to 20)
#    0.000    1.474    1.053    3.158   14.737    1.263 
#    0.000    0.000    0.000    1.895    0.000    0.000 
#    0.000    0.000    0.000    0.000    0.000    0.000 
#
# Total GULP energy -105930.775160 kJ/mol
# GULP energy per Si atom -5575.303956 kJ/mol
# Density = 2.003988 g / cm^3
# Si number density = 20.085601 Si / 1000 Ang^3
#
#
#
# Elastic Constant Matrix: (Units=GPa)
#
#
# Indices 1 2 3 4 5 6 
#
# 1 61.3191 32.1627 28.4501 0.0000 -4.1447 0.0000
# 2 32.1627 198.9313 67.4297 0.0000 -3.8785 0.0000
# 3 28.4501 67.4297 96.7347 0.0000 10.8728 0.0000
# 4 0.0000 0.0000 0.0000 -50.4605 0.0000 42.7144
# 5 -4.1447 -3.8785 10.8728 0.0000 17.8532 0.0000
# 6 0.0000 0.0000 0.0000 42.7144 0.0000 -24.3140
#
#
#
# Elastic Compliance Matrix: (Units=1/GPa)
#
#
# Indices 1 2 3 4 5 6 
#
# 1 0.020266 -0.001023 -0.006173 0.000000 0.008242 0.000000
# 2 -0.001023 0.006994 -0.005065 0.000000 0.004367 0.000000
# 3 -0.006173 -0.005065 0.017142 0.000000 -0.012973 0.000000
# 4 0.000000 0.000000 0.000000 0.040685 0.000000 0.071474
# 5 0.008242 0.004367 -0.012973 0.000000 0.066775 0.000000
# 6 0.000000 0.000000 0.000000 0.071474 0.000000 0.084436
#
#
# Mechanical properties :
#
#
# Convention : Reuss Voigt Hill
#
# Bulk Modulus (GPa) = 50.30545 68.11889 59.21217
# Shear Modulus (GPa) = 18.69515 3.87859 11.28687
#
# Velocity S-wave (km/s) = 3.05417 1.39112 2.37310
# Velocity P-wave (km/s) = 6.12676 6.04717 6.08709
#
# Compressibility (1/GPa) = 0.01987856
#
# Stress axis : x y z
#
# Youngs Moduli (GPa) = 49.34303 142.97149 58.33545
#
# Poissons Ratio (x) = 0.14631 0.36013
# Poissons Ratio (y) = 0.05049 0.29549
# Poissons Ratio (z) = 0.30462 0.72420
#
# Static dielectric constant tensor:
#      x y z
#    x 1.736200 0.000000 0.009180 
#    y 0.000000 1.677230 0.000000 
#    z 0.009180 0.000000 1.724150 
# 
# From -- ./inp_files/39367.got.cif
#   From: 2010.05.17/outbox.cif.g08.bks.cpg/sg12_20_cif.got.tgz:39367.got - 2010.06.03 13:09:07.
