data_PCOD9215921
_publ_section_title
;
Structure prediction by ZEFSAII (Michael W. Deem and Ramdas Pophale) SiO2 
 PCOD9215921
Probable space group: C 2/M
;
_chemical_formula_sum "Si O2"
_cell_formula_units_Z 24
_cell_length_a 5.383215
_cell_length_b 22.034465
_cell_length_c 9.632938
_cell_angle_alpha 90.000000
_cell_angle_beta 107.370527
_cell_angle_gamma 90.000000
_cell_volume 1090.512667
_symmetry_space_group_name_H-M "C 2/M"
_symmetry_group_IT_number 12
_symmetry_cell_setting 'monoclinic'
loop_
_space_group_symop_operation_xyz
x,y,z
-x,y,-z
-x,-y,-z
x,-y,z
1/2+x,1/2+y,z
1/2-x,1/2+y,-z
1/2-x,1/2-y,-z
1/2+x,1/2-y,z
loop_
_atom_site_type_symbol
_atom_site_label
_atom_site_fract_x
_atom_site_fract_y
_atom_site_fract_z
Si Si1 0.740330 0.632728 0.150787
Si Si2 0.199934 0.500000 0.900763
Si Si3 0.217279 0.180381 0.439676
Si Si4 0.000000 0.289420 0.000000
O O1 0.650937 0.671775 0.267891
O O2 0.996298 0.665413 0.130179
O O3 0.500000 0.632546 0.000000
O O4 0.820696 0.563000 0.186097
O O5 0.500000 0.500000 0.000000
O O6 0.000000 0.500000 0.000000
O O7 0.500000 0.151415 0.500000
O O8 0.250000 0.250000 0.500000
O O9 0.000000 0.151934 0.500000
O O10 0.250000 0.250000 0.000000
#
# Coordination Sequence:
#
# PCOD9215921 Si02
#       4
#     8   4   8   4
#     4  11  25  45  72 100 137 181 231 284 338 402
#     4  10  22  42  68 104 132 172 229 291 334 390
#     4  10  25  42  62  91 138 179 219 270 341 403
#     4  12  26  35  64 103 136 164 228 274 346 394
#
# _framework density 22.007997
#
# number of rings (size 3 to 8) (size 9 to 14) (size 15 to 20)
#    0.000    1.333    3.333    0.000   14.000    0.000 
#    0.000    1.667    0.000    0.000    0.000    0.000 
#    0.000    0.000    0.000    0.000    0.000    0.000 
#
# Total GULP energy -66871.692416 kJ/mol
# GULP energy per Si atom -5572.641035 kJ/mol
# Density = 2.195791 g / cm^3
# Si number density = 22.007997 Si / 1000 Ang^3
#
#
#
# Elastic Constant Matrix: (Units=GPa)
#
#
# Indices 1 2 3 4 5 6 
#
# 1 177.4364 27.2246 49.7282 0.0000 -36.4392 0.0000
# 2 27.2246 162.5269 39.8929 0.0000 -16.1014 0.0000
# 3 49.7282 39.8929 143.4890 0.0000 -27.2508 0.0000
# 4 0.0000 0.0000 0.0000 22.5822 0.0000 3.3127
# 5 -36.4392 -16.1014 -27.2508 0.0000 46.8675 0.0000
# 6 0.0000 0.0000 0.0000 3.3127 0.0000 11.6324
#
#
#
# Elastic Compliance Matrix: (Units=1/GPa)
#
#
# Indices 1 2 3 4 5 6 
#
# 1 0.007027 -0.000370 -0.001483 0.000000 0.004474 0.000000
# 2 -0.000370 0.006700 -0.001520 0.000000 0.001130 0.000000
# 3 -0.001483 -0.001520 0.008529 0.000000 0.003284 0.000000
# 4 0.000000 0.000000 0.000000 0.046213 0.000000 -0.013161
# 5 0.004474 0.001130 0.003284 0.000000 0.027113 0.000000
# 6 0.000000 0.000000 0.000000 -0.013161 0.000000 0.089715
#
#
# Mechanical properties :
#
#
# Convention : Reuss Voigt Hill
#
# Bulk Modulus (GPa) = 64.46919 79.68262 72.07591
# Shear Modulus (GPa) = 25.35332 40.65688 33.00510
#
# Velocity S-wave (km/s) = 3.39780 4.30277 3.87678
# Velocity P-wave (km/s) = 6.68958 7.80832 7.27050
#
# Compressibility (1/GPa) = 0.01551128
#
# Stress axis : x y z
#
# Youngs Moduli (GPa) = 142.30874 149.25765 117.24248
#
# Poissons Ratio (x) = 0.05521 0.17384
# Poissons Ratio (y) = 0.05264 0.17819
# Poissons Ratio (z) = 0.21101 0.22684
#
# Static dielectric constant tensor:
#      x y z
#    x 1.911570 0.000000 -0.168680 
#    y 0.000000 1.881220 0.000000 
#    z -0.168680 0.000000 3.032250 
# 
# From -- ./inp_files/33594.got.cif
#   From: 2010.05.17/outbox.cif.g08.bks.cpg/sg12_17_cif.got.tgz:33594.got - 2010.06.03 13:09:07.
