data_PCOD9215794
_publ_section_title
;
Structure prediction by ZEFSAII (Michael W. Deem and Ramdas Pophale) SiO2 
 PCOD9215794
Probable space group: C 2/M
;
_chemical_formula_sum "Si O2"
_cell_formula_units_Z 44
_cell_length_a 18.169165
_cell_length_b 22.245002
_cell_length_c 14.102861
_cell_angle_alpha 90.000000
_cell_angle_beta 21.340718
_cell_angle_gamma 90.000000
_cell_volume 2074.304553
_symmetry_space_group_name_H-M "C 2/M"
_symmetry_group_IT_number 12
_symmetry_cell_setting 'monoclinic'
loop_
_space_group_symop_operation_xyz
x,y,z
-x,y,-z
-x,-y,-z
x,-y,z
1/2+x,1/2+y,z
1/2-x,1/2+y,-z
1/2-x,1/2-y,-z
1/2+x,1/2-y,z
loop_
_atom_site_type_symbol
_atom_site_label
_atom_site_fract_x
_atom_site_fract_y
_atom_site_fract_z
Si Si1 0.758979 0.797234 0.305412
Si Si2 0.317795 0.072303 0.040776
Si Si3 0.258725 0.835417 0.278054
Si Si4 0.366491 0.567465 0.940551
Si Si5 0.249339 0.134713 0.503587
Si Si6 0.500000 0.892405 0.500000
O O1 0.688662 0.733033 0.347726
O O2 0.716713 0.808725 0.468039
O O3 0.636582 0.849853 0.401817
O O4 0.000000 0.801186 0.000000
O O5 0.549259 0.093651 0.742721
O O6 0.311157 0.000000 0.068400
O O7 0.233486 0.113869 0.227835
O O8 0.192815 0.085777 0.095447
O O9 0.194591 0.851597 0.460772
O O10 0.500000 0.830871 0.000000
O O11 0.443153 0.500000 0.840601
O O12 0.542767 0.602737 0.783367
O O13 0.157618 0.570788 0.248380
#
# Coordination Sequence:
#
# PCOD9215794 Si02
#       6
#     8   8   8   8   8   4
#     4  11  22  41  63  91 127 162 212 258 310 375
#     4  10  22  42  65  94 131 165 207 258 313 377
#     4   9  22  40  64  93 127 167 203 256 316 370
#     4  11  24  40  63  93 124 163 211 261 316 375
#     4  11  21  40  64  93 124 164 209 254 314 370
#     4  12  23  42  62  88 125 168 208 262 318 372
#
# _framework density 21.211928
#
# number of rings (size 3 to 8) (size 9 to 14) (size 15 to 20)
#    0.000    1.455    3.636    1.364    0.000    6.182 
#    0.000    4.545    0.000    0.000    0.000    0.000 
#    0.000    0.000    0.000    0.000    0.000    0.000 
#
# Total GULP energy -122664.498468 kJ/mol
# GULP energy per Si atom -5575.659021 kJ/mol
# Density = 2.116365 g / cm^3
# Si number density = 21.211928 Si / 1000 Ang^3
#
#
#
# Elastic Constant Matrix: (Units=GPa)
#
#
# Indices 1 2 3 4 5 6 
#
# 1 100.6924 53.1299 24.2394 -0.0734 17.1621 0.1467
# 2 53.1299 100.9287 28.0865 -0.0518 -0.3844 0.1771
# 3 24.2394 28.0865 78.9553 0.0254 -5.4191 0.0066
# 4 -0.0734 -0.0518 0.0254 -65.6247 0.1116 58.7600
# 5 17.1621 -0.3844 -5.4191 0.1116 33.0007 -0.2475
# 6 0.1467 0.1771 0.0066 58.7600 -0.2475 3.1404
#
#
#
# Elastic Compliance Matrix: (Units=1/GPa)
#
#
# Indices 1 2 3 4 5 6 
#
# 1 0.016273 -0.007811 -0.002836 -0.000053 -0.009019 -0.000028
# 2 -0.007811 0.014755 -0.002589 -0.000008 0.003809 -0.000012
# 3 -0.002836 -0.002589 0.014722 0.000029 0.003862 0.000013
# 4 -0.000053 -0.000008 0.000029 -0.000858 0.000156 0.016060
# 5 -0.009019 0.003809 0.003862 0.000156 0.035672 0.000097
# 6 -0.000028 -0.000012 0.000013 0.016060 0.000097 0.017936
#
#
# Mechanical properties :
#
#
# Convention : Reuss Voigt Hill
#
# Bulk Modulus (GPa) = 51.87598 54.60979 53.24288
# Shear Modulus (GPa) = 38.05187 5.77799 21.91493
#
# Velocity S-wave (km/s) = 4.24003 1.65222 3.21774
# Velocity P-wave (km/s) = 6.96273 5.42591 6.24180
#
# Compressibility (1/GPa) = 0.01927674
#
# Stress axis : x y z
#
# Youngs Moduli (GPa) = 61.45208 67.77369 67.92454
#
# Poissons Ratio (x) = 0.52940 0.19264
# Poissons Ratio (y) = 0.48002 0.17587
# Poissons Ratio (z) = 0.17429 0.17548
#
# Static dielectric constant tensor:
#      x y z
#    x 1.792390 0.000010 0.058560 
#    y 0.000010 1.753220 0.000110 
#    z 0.058560 0.000110 1.850800 
# 
# From -- ./inp_files/228075.got.cif
#   From: 2010.05.17/outbox.cif.g08.bks.cpg/sg12_115_cif.got.tgz:228075.got - 2010.06.03 13:09:07.
