data_PCOD9215615
_publ_section_title
;
Structure prediction by ZEFSAII (Michael W. Deem and Ramdas Pophale) SiO2 
 PCOD9215615
Probable space group: C 2/M
;
_chemical_formula_sum "Si O2"
_cell_formula_units_Z 48
_cell_length_a 13.030538
_cell_length_b 26.871609
_cell_length_c 7.286329
_cell_angle_alpha 90.000000
_cell_angle_beta 133.188028
_cell_angle_gamma 90.000000
_cell_volume 1860.196540
_symmetry_space_group_name_H-M "C 2/M"
_symmetry_group_IT_number 12
_symmetry_cell_setting 'monoclinic'
loop_
_space_group_symop_operation_xyz
x,y,z
-x,y,-z
-x,-y,-z
x,-y,z
1/2+x,1/2+y,z
1/2-x,1/2+y,-z
1/2-x,1/2-y,-z
1/2+x,1/2-y,z
loop_
_atom_site_type_symbol
_atom_site_label
_atom_site_fract_x
_atom_site_fract_y
_atom_site_fract_z
Si Si1 0.696261 0.142562 0.028194
Si Si2 0.836031 0.074289 0.661478
Si Si3 0.485766 0.942986 0.706158
Si Si4 0.611663 0.446591 0.858436
Si Si5 0.024827 0.280226 0.248502
Si Si6 0.328164 0.682598 0.562206
O O1 0.815671 0.105745 0.096246
O O2 0.772086 0.166846 0.294406
O O3 0.576641 0.100367 0.907798
O O4 0.603010 0.187613 0.821687
O O5 0.673697 0.064814 0.425995
O O6 0.865972 0.132637 0.711636
O O7 0.942891 0.056315 0.636346
O O8 0.862372 0.050928 0.890780
O O9 0.500000 0.936479 0.500000
O O10 0.525489 0.000000 0.794139
O O11 0.662567 0.500000 0.846521
O O12 0.185078 0.297534 0.485819
O O13 0.043439 0.221210 0.298306
O O14 0.000000 0.287496 0.000000
#
# Coordination Sequence:
#
# PCOD9215615 Si02
#       6
#     8   8   8   8   8   8
#     4  11  22  42  71 102 140 175 227 299 348 397
#     4  11  22  40  69  95 142 186 230 276 340 415
#     4  11  21  38  68 104 141 184 233 282 337 412
#     4  11  24  43  67 101 142 187 233 278 341 417
#     4   9  20  41  72  98 135 179 231 286 352 415
#     4  10  22  41  69 101 134 176 227 294 352 407
#
# _framework density 25.803723999999999
#
# number of rings (size 3 to 8) (size 9 to 14) (size 15 to 20)
#    0.000    1.500    3.333    2.500    2.333    0.667 
#    0.000    7.500   11.000    0.000    0.000    0.000 
#    0.000    0.000    0.000    0.000    0.000    0.000 
#
# Total GULP energy -134040.511625 kJ/mol
# GULP energy per Si atom -5585.021318 kJ/mol
# Density = 2.574499 g / cm^3
# Si number density = 25.803724 Si / 1000 Ang^3
#
#
#
# Elastic Constant Matrix: (Units=GPa)
#
#
# Indices 1 2 3 4 5 6 
#
# 1 111.9461 42.1211 37.6196 0.0000 31.4473 0.0000
# 2 42.1211 206.0676 29.7414 0.0000 8.1209 0.0000
# 3 37.6196 29.7414 69.0103 0.0000 22.5993 0.0000
# 4 0.0000 0.0000 0.0000 52.0707 0.0000 -4.5839
# 5 31.4473 8.1209 22.5993 0.0000 42.6356 0.0000
# 6 0.0000 0.0000 0.0000 -4.5839 0.0000 -6.7292
#
#
#
# Elastic Compliance Matrix: (Units=1/GPa)
#
#
# Indices 1 2 3 4 5 6 
#
# 1 0.012930 -0.001793 -0.003950 0.000000 -0.007102 0.000000
# 2 -0.001793 0.005425 -0.001761 0.000000 0.001223 0.000000
# 3 -0.003950 -0.001761 0.019771 0.000000 -0.007231 0.000000
# 4 0.000000 0.000000 0.000000 0.018118 0.000000 -0.012342
# 5 -0.007102 0.001223 -0.007231 0.000000 0.032292 0.000000
# 6 0.000000 0.000000 0.000000 -0.012342 0.000000 -0.140198
#
#
# Mechanical properties :
#
#
# Convention : Reuss Voigt Hill
#
# Bulk Modulus (GPa) = 43.25726 67.33203 55.29464
# Shear Modulus (GPa) = -172.72541 36.09822 -68.31360
#
# Velocity S-wave (km/s) = -8.19045 3.74432 -5.15090
# Velocity P-wave (km/s) = 8.52316 6.69655 3.72831
#
# Compressibility (1/GPa) = 0.02311751
#
# Stress axis : x y z
#
# Youngs Moduli (GPa) = 77.34036 184.32298 50.57964
#
# Poissons Ratio (x) = 0.33048 0.19980
# Poissons Ratio (y) = 0.13867 0.08908
# Poissons Ratio (z) = 0.30551 0.32461
#
# Static dielectric constant tensor:
#      x y z
#    x 2.096790 0.000000 0.013960 
#    y 0.000000 2.040060 0.000000 
#    z 0.013960 0.000000 2.069500 
# 
# From -- ./inp_files/67421.got.cif
#   From: 2010.05.17/outbox.cif.g08.bks.cpg/sg12_34_cif.got.tgz:67421.got - 2010.06.03 13:09:07.
