data_PCOD9215453
_publ_section_title
;
Structure prediction by ZEFSAII (Michael W. Deem and Ramdas Pophale) SiO2 
 PCOD9215453
Probable space group: C 2/M
;
_chemical_formula_sum "Si O2"
_cell_formula_units_Z 40
_cell_length_a 20.251252
_cell_length_b 14.556447
_cell_length_c 18.927771
_cell_angle_alpha 90.000000
_cell_angle_beta 20.317515
_cell_angle_gamma 90.000000
_cell_volume 1937.378150
_symmetry_space_group_name_H-M "C 2/M"
_symmetry_group_IT_number 12
_symmetry_cell_setting 'monoclinic'
loop_
_space_group_symop_operation_xyz
x,y,z
-x,y,-z
-x,-y,-z
x,-y,z
1/2+x,1/2+y,z
1/2-x,1/2+y,-z
1/2-x,1/2-y,-z
1/2+x,1/2-y,z
loop_
_atom_site_type_symbol
_atom_site_label
_atom_site_fract_x
_atom_site_fract_y
_atom_site_fract_z
Si Si1 0.102554 0.389733 0.740563
Si Si2 0.902959 0.219246 0.528896
Si Si3 0.867377 0.104792 0.352990
Si Si4 0.808036 0.821400 0.881818
Si Si5 0.158087 0.890574 0.781524
O O1 0.126420 0.500000 0.721775
O O2 0.225987 0.339933 0.676923
O O3 0.196538 0.354647 0.571796
O O4 0.881249 0.365044 0.960844
O O5 0.828881 0.320482 0.622668
O O6 0.000000 0.175658 0.500000
O O7 0.061404 0.223361 0.309157
O O8 0.905363 0.137088 0.235088
O O9 0.052741 0.109870 0.215862
O O10 0.809800 0.000000 0.400583
O O11 0.750000 0.750000 0.000000
O O12 0.202948 0.000000 0.739065
O O13 0.000000 0.874587 0.000000
#
# Coordination Sequence:
#
# PCOD9215453 Si02
#       5
#     8   8   8   8   8
#     4  10  22  42  67  93 127 168 212 263 318 373
#     4  11  26  41  62  93 131 165 211 267 314 373
#     4   9  19  38  61  91 124 155 204 260 307 371
#     4  11  22  37  64  94 121 168 210 258 312 378
#     4  10  22  41  66  92 128 170 208 256 319 384
#
# _framework density 20.646460000000001
#
# number of rings (size 3 to 8) (size 9 to 14) (size 15 to 20)
#    0.000    1.800    0.000    3.000    5.600    4.800 
#    0.000    2.000    0.000    0.000    0.000    0.000 
#    0.000    0.000    0.000    0.000    0.000    0.000 
#
# Total GULP energy -111591.657071 kJ/mol
# GULP energy per Si atom -5579.582854 kJ/mol
# Density = 2.059947 g / cm^3
# Si number density = 20.646460 Si / 1000 Ang^3
#
#
#
# Elastic Constant Matrix: (Units=GPa)
#
#
# Indices 1 2 3 4 5 6 
#
# 1 103.1841 28.7329 43.1842 -0.0139 -17.2562 0.0030
# 2 28.7329 85.0179 48.9758 0.0031 -0.3341 0.0057
# 3 43.1842 48.9758 105.0689 0.0102 -23.6687 -0.0095
# 4 -0.0139 0.0031 0.0102 19.6671 -0.0124 0.6061
# 5 -17.2562 -0.3341 -23.6687 -0.0124 27.1982 0.0012
# 6 0.0030 0.0057 -0.0095 0.6061 0.0012 20.0283
#
#
#
# Elastic Compliance Matrix: (Units=1/GPa)
#
#
# Indices 1 2 3 4 5 6 
#
# 1 0.012470 -0.002690 -0.002608 0.000014 0.005609 -0.000003
# 2 -0.002690 0.018138 -0.009557 -0.000006 -0.009801 -0.000009
# 3 -0.002608 -0.009557 0.018216 -0.000001 0.014080 0.000011
# 4 0.000014 -0.000006 -0.000001 0.050894 0.000031 -0.001540
# 5 0.005609 -0.009801 0.014080 0.000031 0.052459 0.000005
# 6 -0.000003 -0.000009 0.000011 -0.001540 0.000005 0.049976
#
#
# Mechanical properties :
#
#
# Convention : Reuss Voigt Hill
#
# Bulk Modulus (GPa) = 52.31585 59.45076 55.88331
# Shear Modulus (GPa) = 20.98779 24.87058 22.92918
#
# Velocity S-wave (km/s) = 3.19177 3.47449 3.33613
# Velocity P-wave (km/s) = 6.24316 6.70472 6.47805
#
# Compressibility (1/GPa) = 0.01911467
#
# Stress axis : x y z
#
# Youngs Moduli (GPa) = 80.19264 55.13198 54.89700
#
# Poissons Ratio (x) = 0.14831 0.14315
# Poissons Ratio (y) = 0.21573 0.52465
# Poissons Ratio (z) = 0.20912 0.52689
#
# Static dielectric constant tensor:
#      x y z
#    x 1.770420 0.000010 0.014920 
#    y 0.000010 1.765950 0.000000 
#    z 0.014920 0.000000 1.727000 
# 
# From -- ./inp_files/15121.got.cif
#   From: 2010.05.17/outbox.cif.g08.bks.cpg/sg12_8_cif.got.tgz:15121.got - 2010.06.03 13:09:07.
