data_PCOD9215877
_publ_section_title
;
Structure prediction by ZEFSAII (Michael W. Deem and Ramdas Pophale) SiO2 
 PCOD9215877
Probable space group: C 2/M
;
_chemical_formula_sum "Si O2"
_cell_formula_units_Z 56
_cell_length_a 27.989339
_cell_length_b 8.748270
_cell_length_c 12.790749
_cell_angle_alpha 90.000000
_cell_angle_beta 66.284154
_cell_angle_gamma 90.000000
_cell_volume 2867.434625
_symmetry_space_group_name_H-M "C 2/M"
_symmetry_group_IT_number 12
_symmetry_cell_setting 'monoclinic'
loop_
_space_group_symop_operation_xyz
x,y,z
-x,y,-z
-x,-y,-z
x,-y,z
1/2+x,1/2+y,z
1/2-x,1/2+y,-z
1/2-x,1/2-y,-z
1/2+x,1/2-y,z
loop_
_atom_site_type_symbol
_atom_site_label
_atom_site_fract_x
_atom_site_fract_y
_atom_site_fract_z
Si Si1 0.103989 0.683286 0.488386
Si Si2 0.656180 0.319209 0.828982
Si Si3 0.102556 0.316264 0.248931
Si Si4 0.450918 0.823654 0.120030
Si Si5 0.693526 0.183567 0.576274
Si Si6 0.804598 0.683499 0.990607
Si Si7 0.488799 0.681908 0.304559
O O1 0.096397 0.500000 0.504213
O O2 0.117195 0.717229 0.356377
O O3 0.150374 0.727268 0.526885
O O4 0.050628 0.764387 0.569896
O O5 0.664257 0.500000 0.821789
O O6 0.595189 0.277043 0.886464
O O7 0.676261 0.248320 0.703109
O O8 0.683456 0.244848 0.904689
O O9 0.095490 0.500000 0.245697
O O10 0.047535 0.237871 0.272526
O O11 0.148208 0.270506 0.128894
O O12 0.467465 0.760314 0.217844
O O13 0.432969 0.000000 0.146377
O O14 0.500000 0.820784 0.000000
O O15 0.750000 0.250000 0.500000
O O16 0.695677 0.000000 0.577394
O O17 0.802495 0.500000 0.993054
O O18 0.750000 0.750000 0.000000
O O19 0.487207 0.500000 0.295570
#
# Coordination Sequence:
#
# PCOD9215877 Si02
#       7
#     8   8   8   8   8   8   8
#     4  10  22  42  67  93 128 173 216 259 319 388
#     4  12  25  43  67  96 132 170 216 268 321 385
#     4  10  23  43  66  92 127 173 217 262 320 388
#     4  11  23  40  64  92 126 169 215 265 323 387
#     4  11  24  42  68  99 132 171 217 268 325 387
#     4  11  25  45  69  97 129 170 218 269 327 387
#     4  12  24  38  61  96 132 167 211 264 321 383
#
# _framework density 19.529651000000001
#
# number of rings (size 3 to 8) (size 9 to 14) (size 15 to 20)
#    0.000    1.000    1.429    5.143    2.000    8.571 
#    0.000    0.000    0.000    0.000    0.000    0.000 
#    0.000    0.000    0.000    0.000    0.000    0.000 
#
# Total GULP energy -156692.132390 kJ/mol
# GULP energy per Si atom -5596.147585 kJ/mol
# Density = 1.948520 g / cm^3
# Si number density = 19.529651 Si / 1000 Ang^3
#
#
#
# Elastic Constant Matrix: (Units=GPa)
#
#
# Indices 1 2 3 4 5 6 
#
# 1 121.2228 24.9870 7.1697 0.0000 8.4103 0.0000
# 2 24.9870 57.4767 -3.2877 0.0000 4.4262 0.0000
# 3 7.1697 -3.2877 -47.4200 0.0000 25.0665 0.0000
# 4 0.0000 0.0000 0.0000 22.0454 0.0000 -3.7990
# 5 8.4103 4.4262 25.0665 0.0000 38.2472 0.0000
# 6 0.0000 0.0000 0.0000 -3.7990 0.0000 36.7155
#
#
#
# Elastic Compliance Matrix: (Units=1/GPa)
#
#
# Indices 1 2 3 4 5 6 
#
# 1 0.009130 -0.003783 0.000604 0.000000 -0.001965 0.000000
# 2 -0.003783 0.018939 -0.001934 0.000000 -0.000092 0.000000
# 3 0.000604 -0.001934 -0.015459 0.000000 0.010223 0.000000
# 4 0.000000 0.000000 0.000000 0.046184 0.000000 0.004779
# 5 -0.001965 -0.000092 0.010223 0.000000 0.019889 0.000000
# 6 0.000000 0.000000 0.000000 0.004779 0.000000 0.027731
#
#
# Mechanical properties :
#
#
# Convention : Reuss Voigt Hill
#
# Bulk Modulus (GPa) = 419.55563 21.00196 220.27880
# Shear Modulus (GPa) = 42.57654 26.22897 34.40276
#
# Velocity S-wave (km/s) = 4.67422 3.66872 4.20165
# Velocity P-wave (km/s) = 15.63418 5.35940 11.68655
#
# Compressibility (1/GPa) = 0.00238347
#
# Stress axis : x y z
#
# Youngs Moduli (GPa) = 109.53244 52.79979 -64.68702
#
# Poissons Ratio (x) = 0.19975 0.03905
# Poissons Ratio (y) = 0.41437 -0.12510
# Poissons Ratio (z) = -0.06613 0.10211
#
# Static dielectric constant tensor:
#      x y z
#    x 1.654560 0.000000 -0.006400 
#    y 0.000000 1.660670 0.000000 
#    z -0.006400 0.000000 2.631220 
# 
# From -- ./inp_files/180766.got.cif
#   From: 2010.05.17/outbox.cif.g08.bks.cpg/sg12_91_cif.got.tgz:180766.got - 2010.06.03 13:09:07.
