data_PCOD9215840
_publ_section_title
;
Structure prediction by ZEFSAII (Michael W. Deem and Ramdas Pophale) SiO2 
 PCOD9215840
Probable space group: C 2/M
;
_chemical_formula_sum "Si O2"
_cell_formula_units_Z 48
_cell_length_a 15.939845
_cell_length_b 8.810296
_cell_length_c 16.999129
_cell_angle_alpha 90.000000
_cell_angle_beta 92.916569
_cell_angle_gamma 90.000000
_cell_volume 2384.176211
_symmetry_space_group_name_H-M "C 2/M"
_symmetry_group_IT_number 12
_symmetry_cell_setting 'monoclinic'
loop_
_space_group_symop_operation_xyz
x,y,z
-x,y,-z
-x,-y,-z
x,-y,z
1/2+x,1/2+y,z
1/2-x,1/2+y,-z
1/2-x,1/2-y,-z
1/2+x,1/2-y,z
loop_
_atom_site_type_symbol
_atom_site_label
_atom_site_fract_x
_atom_site_fract_y
_atom_site_fract_z
Si Si1 0.769045 0.316722 0.915884
Si Si2 0.099048 0.174590 0.488069
Si Si3 0.157497 0.678448 0.331200
Si Si4 0.607259 0.681071 0.804823
Si Si5 0.937319 0.680500 0.835322
Si Si6 0.663876 0.179099 0.650623
O O1 0.769797 0.500000 0.919179
O O2 0.692911 0.273975 0.853766
O O3 0.860029 0.269265 0.886833
O O4 0.750000 0.250000 0.000000
O O5 0.118475 0.272578 0.412117
O O6 0.143581 0.241551 0.566998
O O7 0.000000 0.176042 0.500000
O O8 0.126120 0.000000 0.476240
O O9 0.180141 0.500000 0.332460
O O10 0.095371 0.703450 0.255437
O O11 0.241128 0.776052 0.323699
O O12 0.607131 0.500000 0.795485
O O13 0.525173 0.734284 0.848112
O O14 0.607603 0.757163 0.718931
O O15 0.950329 0.500000 0.847507
O O16 0.652867 0.000000 0.642840
#
# Coordination Sequence:
#
# PCOD9215840 Si02
#       6
#     8   8   8   8   8   8
#     4  10  23  44  67  94 130 167 206 257 317 377
#     4  11  24  40  58  86 123 163 212 263 313 370
#     4  11  22  40  63  87 124 166 210 262 315 370
#     4  11  23  42  66  95 130 167 210 262 317 373
#     4  10  22  42  66  94 129 169 211 258 315 377
#     4  12  24  39  62  90 122 165 214 259 314 374
#
# _framework density 20.132739000000001
#
# number of rings (size 3 to 8) (size 9 to 14) (size 15 to 20)
#    0.000    1.167    1.667    4.500    0.000    8.000 
#    0.000    3.333    0.000    0.000    0.000    0.000 
#    0.000    0.000    0.000    0.000    0.000    0.000 
#
# Total GULP energy -134256.704912 kJ/mol
# GULP energy per Si atom -5594.029371 kJ/mol
# Density = 2.008692 g / cm^3
# Si number density = 20.132739 Si / 1000 Ang^3
#
#
#
# Elastic Constant Matrix: (Units=GPa)
#
#
# Indices 1 2 3 4 5 6 
#
# 1 75.0783 3.9355 1.3048 0.0000 -28.8534 0.0000
# 2 3.9355 36.2088 3.4890 0.0000 0.9339 0.0000
# 3 1.3048 3.4890 82.8274 0.0000 -27.1578 0.0000
# 4 0.0000 0.0000 0.0000 44.4655 0.0000 5.5354
# 5 -28.8534 0.9339 -27.1578 0.0000 24.5372 0.0000
# 6 0.0000 0.0000 0.0000 5.5354 0.0000 44.9537
#
#
#
# Elastic Compliance Matrix: (Units=1/GPa)
#
#
# Indices 1 2 3 4 5 6 
#
# 1 0.046017 -0.009849 0.027555 0.000000 0.084984 0.000000
# 2 -0.009849 0.030052 -0.008292 0.000000 -0.021903 0.000000
# 3 0.027555 -0.008292 0.035656 0.000000 0.072181 0.000000
# 4 0.000000 0.000000 0.000000 0.022839 0.000000 -0.002812
# 5 0.084984 -0.021903 0.072181 0.000000 0.221412 0.000000
# 6 0.000000 0.000000 0.000000 -0.002812 0.000000 0.022591
#
#
# Mechanical properties :
#
#
# Convention : Reuss Voigt Hill
#
# Bulk Modulus (GPa) = 7.65972 23.50812 15.58392
# Shear Modulus (GPa) = 12.39905 35.15029 23.77467
#
# Velocity S-wave (km/s) = 2.48436 4.18296 3.44014
# Velocity P-wave (km/s) = 3.47019 5.91874 4.85148
#
# Compressibility (1/GPa) = 0.13055314
#
# Stress axis : x y z
#
# Youngs Moduli (GPa) = 21.73100 33.27569 28.04608
#
# Poissons Ratio (x) = 0.32772 -0.77281
# Poissons Ratio (y) = 0.21402 0.23257
# Poissons Ratio (z) = -0.59880 0.27593
#
# Static dielectric constant tensor:
#      x y z
#    x 1.727900 0.000000 -0.006110 
#    y 0.000000 1.678870 0.000000 
#    z -0.006110 0.000000 1.689800 
# 
# From -- ./inp_files/221536.got.cif
#   From: 2010.05.17/outbox.cif.g08.bks.cpg/sg12_111_cif.got.tgz:221536.got - 2010.06.03 13:09:07.
