data_PCOD9215288
_publ_section_title
;
Structure prediction by ZEFSAII (Michael W. Deem and Ramdas Pophale) SiO2 
 PCOD9215288
Probable space group: C 2/M
;
_chemical_formula_sum "Si O2"
_cell_formula_units_Z 56
_cell_length_a 7.887811
_cell_length_b 14.863504
_cell_length_c 23.787327
_cell_angle_alpha 90.000000
_cell_angle_beta 108.952790
_cell_angle_gamma 90.000000
_cell_volume 2637.645705
_symmetry_space_group_name_H-M "C 2/M"
_symmetry_group_IT_number 12
_symmetry_cell_setting 'monoclinic'
loop_
_space_group_symop_operation_xyz
x,y,z
-x,y,-z
-x,-y,-z
x,-y,z
1/2+x,1/2+y,z
1/2-x,1/2+y,-z
1/2-x,1/2-y,-z
1/2+x,1/2-y,z
loop_
_atom_site_type_symbol
_atom_site_label
_atom_site_fract_x
_atom_site_fract_y
_atom_site_fract_z
Si Si1 0.420274 0.609547 0.932588
Si Si2 0.133117 0.892377 0.843335
Si Si3 0.483589 0.102156 0.434634
Si Si4 0.530598 0.107487 0.848985
Si Si5 0.889192 0.102728 0.434076
Si Si6 0.041790 0.747319 0.252825
Si Si7 0.620144 0.248075 0.658715
O O1 0.423218 0.500000 0.934741
O O2 0.542363 0.635242 0.892424
O O3 0.213622 0.635143 0.899715
O O4 0.500000 0.642818 0.000000
O O5 0.346179 0.873906 0.862677
O O6 0.033028 0.837118 0.783995
O O7 0.109258 0.000000 0.833695
O O8 0.500000 0.136779 0.500000
O O9 0.682998 0.100884 0.430869
O O10 0.368757 0.164231 0.381727
O O11 0.414376 0.000000 0.429933
O O12 0.518462 0.161842 0.789670
O O13 0.538229 0.000000 0.839819
O O14 0.908060 0.163781 0.381512
O O15 0.000000 0.136749 0.500000
O O16 0.948093 0.000000 0.429414
O O17 0.061333 0.736329 0.322681
O O18 0.261128 0.751972 0.271041
#
# Coordination Sequence:
#
# PCOD9215288 Si02
#       7
#     8   8   8   8   8   8   8
#     4   9  19  38  66  97 125 161 212 262 311 370
#     4  10  22  41  64  91 127 169 209 256 314 371
#     4  10  23  42  62  87 119 154 198 254 315 370
#     4  10  22  41  65  90 127 172 206 256 318 367
#     4  10  23  42  62  85 118 156 196 249 309 369
#     4  12  24  40  61  89 126 160 209 254 301 368
#     4  12  24  38  62  89 116 161 202 255 302 365
#
# _framework density 21.231055000000001
#
# number of rings (size 3 to 8) (size 9 to 14) (size 15 to 20)
#    0.000    1.571    2.857    1.286    2.000    4.000 
#    0.000    3.571    0.000    0.000    0.000    0.000 
#    0.000    0.000    0.000    0.000    0.000    0.000 
#
# Total GULP energy -156188.425483 kJ/mol
# GULP energy per Si atom -5578.158053 kJ/mol
# Density = 2.118273 g / cm^3
# Si number density = 21.231055 Si / 1000 Ang^3
#
#
#
# Elastic Constant Matrix: (Units=GPa)
#
#
# Indices 1 2 3 4 5 6 
#
# 1 46.7390 39.5621 68.8835 0.0000 -2.4754 0.0000
# 2 39.5621 75.5772 67.8678 0.0000 4.0396 0.0000
# 3 68.8835 67.8678 175.7772 0.0000 9.1229 0.0000
# 4 0.0000 0.0000 0.0000 -37.7796 0.0000 13.2747
# 5 -2.4754 4.0396 9.1229 0.0000 40.7893 0.0000
# 6 0.0000 0.0000 0.0000 13.2747 0.0000 22.8718
#
#
#
# Elastic Compliance Matrix: (Units=1/GPa)
#
#
# Indices 1 2 3 4 5 6 
#
# 1 0.064975 -0.017168 -0.019352 0.000000 0.009972 0.000000
# 2 -0.017168 0.024793 -0.002695 0.000000 -0.002895 0.000000
# 3 -0.019352 -0.002695 0.014529 0.000000 -0.004157 0.000000
# 4 0.000000 0.000000 0.000000 -0.021986 0.000000 0.012760
# 5 0.009972 -0.002895 -0.004157 0.000000 0.026338 0.000000
# 6 0.000000 0.000000 0.000000 0.012760 0.000000 0.036316
#
#
# Mechanical properties :
#
#
# Convention : Reuss Voigt Hill
#
# Bulk Modulus (GPa) = 38.65653 72.30223 55.47938
# Shear Modulus (GPa) = 21.55029 13.29496 17.42262
#
# Velocity S-wave (km/s) = 3.18942 2.50512 2.86775
# Velocity P-wave (km/s) = 5.64006 6.51892 6.09535
#
# Compressibility (1/GPa) = 0.02586885
#
# Stress axis : x y z
#
# Youngs Moduli (GPa) = 15.39045 40.33448 68.82972
#
# Poissons Ratio (x) = 0.69246 1.33196
# Poissons Ratio (y) = 0.26422 0.18546
# Poissons Ratio (z) = 0.29783 0.10868
#
# Static dielectric constant tensor:
#      x y z
#    x 1.887220 0.000000 0.018680 
#    y 0.000000 1.745200 0.000000 
#    z 0.018680 0.000000 1.689280 
# 
# From -- ./inp_files/300146.got.cif
#   From: 2010.05.17/outbox.cif.g08.bks.cpg/sg12_151_cif.got.tgz:300146.got - 2010.06.03 13:09:07.
