data_PCOD9215627
_publ_section_title
;
Structure prediction by ZEFSAII (Michael W. Deem and Ramdas Pophale) SiO2 
 PCOD9215627
Probable space group: C 2/M
;
_chemical_formula_sum "Si O2"
_cell_formula_units_Z 26
_cell_length_a 13.439976
_cell_length_b 19.542029
_cell_length_c 4.906738
_cell_angle_alpha 90.000000
_cell_angle_beta 130.724272
_cell_angle_gamma 90.000000
_cell_volume 976.672294
_symmetry_space_group_name_H-M "C 2/M"
_symmetry_group_IT_number 12
_symmetry_cell_setting 'monoclinic'
loop_
_space_group_symop_operation_xyz
x,y,z
-x,y,-z
-x,-y,-z
x,-y,z
1/2+x,1/2+y,z
1/2-x,1/2+y,-z
1/2-x,1/2-y,-z
1/2+x,1/2-y,z
loop_
_atom_site_type_symbol
_atom_site_label
_atom_site_fract_x
_atom_site_fract_y
_atom_site_fract_z
Si Si1 0.679609 0.104089 0.499315
Si Si2 0.371421 0.755991 0.426343
Si Si3 0.500000 0.000000 0.500000
Si Si4 0.637398 0.396713 0.644857
O O1 0.650544 0.184808 0.391132
O O2 0.559487 0.059749 0.397011
O O3 0.762135 0.073596 0.396957
O O4 0.777520 0.106695 0.930917
O O5 0.500000 0.780894 0.500000
O O6 0.399831 0.677421 0.551276
O O7 0.250000 0.750000 0.000000
O O8 0.500000 0.427426 0.500000
#
# Coordination Sequence:
#
# PCOD9215627 Si02
#       4
#     8   8   2   8
#     4  11  23  42  63  96 131 177 217 266 327 397
#     4   9  18  37  63  98 131 169 217 280 340 393
#     4  12  28  46  66  94 140 182 228 258 320 410
#     4  10  22  41  69  96 128 164 221 281 336 384
#
# _framework density 26.621006000000001
#
# number of rings (size 3 to 8) (size 9 to 14) (size 15 to 20)
#    0.000    1.846    1.538    1.846    0.000    3.692 
#    0.000   10.769    0.000    0.000    0.000    0.000 
#    0.000    0.000    0.000    0.000    0.000    0.000 
#
# Total GULP energy -72418.235828 kJ/mol
# GULP energy per Si atom -5570.633525 kJ/mol
# Density = 2.656042 g / cm^3
# Si number density = 26.621006 Si / 1000 Ang^3
#
#
#
# Elastic Constant Matrix: (Units=GPa)
#
#
# Indices 1 2 3 4 5 6 
#
# 1 265.4423 20.9024 24.3443 0.0000 -1.6931 0.0000
# 2 20.9024 164.0109 -8.2535 0.0000 8.1506 0.0000
# 3 24.3443 -8.2535 98.3180 0.0000 -2.6065 0.0000
# 4 0.0000 0.0000 0.0000 14.1681 0.0000 74.1091
# 5 -1.6931 8.1506 -2.6065 0.0000 36.1701 0.0000
# 6 0.0000 0.0000 0.0000 74.1091 0.0000 98.1767
#
#
#
# Elastic Compliance Matrix: (Units=1/GPa)
#
#
# Indices 1 2 3 4 5 6 
#
# 1 0.003905 -0.000560 -0.001008 0.000000 0.000236 0.000000
# 2 -0.000560 0.006269 0.000628 0.000000 -0.001394 0.000000
# 3 -0.001008 0.000628 0.010488 0.000000 0.000567 0.000000
# 4 0.000000 0.000000 0.000000 -0.023939 0.000000 0.018070
# 5 0.000236 -0.001394 0.000567 0.000000 0.028013 0.000000
# 6 0.000000 0.000000 0.000000 0.018070 0.000000 -0.003455
#
#
# Mechanical properties :
#
#
# Convention : Reuss Voigt Hill
#
# Bulk Modulus (GPa) = 53.23860 66.86195 60.05028
# Shear Modulus (GPa) = 169.93061 62.42154 116.17607
#
# Velocity S-wave (km/s) = 7.99824 4.84759 6.61328
# Velocity P-wave (km/s) = 10.26343 7.51684 8.99558
#
# Compressibility (1/GPa) = 0.01878336
#
# Stress axis : x y z
#
# Youngs Moduli (GPa) = 256.05971 159.50457 95.34379
#
# Poissons Ratio (x) = 0.08935 0.09608
# Poissons Ratio (y) = 0.14344 -0.05988
# Poissons Ratio (z) = 0.25804 -0.10018
#
# Static dielectric constant tensor:
#      x y z
#    x 2.059980 0.000000 0.025420 
#    y 0.000000 2.137960 0.000000 
#    z 0.025420 0.000000 2.004920 
# 
# From -- ./inp_files/5580.got.cif
#   From: 2010.05.17/outbox.cif.g08.bks.cpg/sg12_3_cif.got.tgz:5580.got - 2010.06.03 13:09:07.
