data_PCOD9215781
_publ_section_title
;
Structure prediction by ZEFSAII (Michael W. Deem and Ramdas Pophale) SiO2 
 PCOD9215781
Probable space group: C 2/M
;
_chemical_formula_sum "Si O2"
_cell_formula_units_Z 56
_cell_length_a 19.233053
_cell_length_b 8.597211
_cell_length_c 16.973784
_cell_angle_alpha 90.000000
_cell_angle_beta 74.063292
_cell_angle_gamma 90.000000
_cell_volume 2698.754629
_symmetry_space_group_name_H-M "C 2/M"
_symmetry_group_IT_number 12
_symmetry_cell_setting 'monoclinic'
loop_
_space_group_symop_operation_xyz
x,y,z
-x,y,-z
-x,-y,-z
x,-y,z
1/2+x,1/2+y,z
1/2-x,1/2+y,-z
1/2-x,1/2-y,-z
1/2+x,1/2-y,z
loop_
_atom_site_type_symbol
_atom_site_label
_atom_site_fract_x
_atom_site_fract_y
_atom_site_fract_z
Si Si1 0.417160 0.183195 0.172402
Si Si2 0.682738 0.321647 0.923670
Si Si3 0.322530 0.680155 0.822423
Si Si4 0.707530 0.813452 0.339847
Si Si5 0.580708 0.812365 0.501535
Si Si6 0.581335 0.819255 0.085443
Si Si7 0.368544 0.685606 0.346795
O O1 0.359651 0.286866 0.143973
O O2 0.496316 0.212642 0.112410
O O3 0.413356 0.228049 0.264783
O O4 0.400328 0.000000 0.167089
O O5 0.706088 0.500000 0.920545
O O6 0.753028 0.213722 0.899127
O O7 0.626795 0.280809 0.009685
O O8 0.341860 0.500000 0.819021
O O9 0.301626 0.730877 0.741112
O O10 0.386855 0.782034 0.838479
O O11 0.640552 0.772688 0.417126
O O12 0.784056 0.774383 0.357075
O O13 0.706862 0.000000 0.327122
O O14 0.500000 0.765765 0.500000
O O15 0.604701 0.737633 0.576209
O O16 0.581065 0.000000 0.510468
O O17 0.592069 0.000000 0.062322
O O18 0.376236 0.500000 0.335854
#
# Coordination Sequence:
#
# PCOD9215781 Si02
#       7
#     8   8   8   8   8   8   8
#     4  11  24  42  66  94 127 171 217 261 317 384
#     4  12  24  42  66  94 129 167 214 268 320 377
#     4  12  25  41  65  95 128 170 217 263 318 381
#     4  10  22  42  65  92 127 170 214 259 315 376
#     4  10  23  42  66  95 129 168 209 257 317 382
#     4  11  25  43  64  91 129 171 214 267 323 379
#     4  11  23  40  65  94 128 168 212 264 313 371
#
# _framework density 20.750312999999998
#
# number of rings (size 3 to 8) (size 9 to 14) (size 15 to 20)
#    0.000    1.000    1.429    5.143    2.000    5.429 
#    0.000    0.000    0.000    0.000    0.000    0.000 
#    0.000    0.000    0.000    0.000    0.000    0.000 
#
# Total GULP energy -156719.292984 kJ/mol
# GULP energy per Si atom -5597.117607 kJ/mol
# Density = 2.070308 g / cm^3
# Si number density = 20.750313 Si / 1000 Ang^3
#
#
#
# Elastic Constant Matrix: (Units=GPa)
#
#
# Indices 1 2 3 4 5 6 
#
# 1 41.1181 -0.0487 5.5369 0.0000 -0.6526 0.0000
# 2 -0.0487 21.5607 11.9371 0.0000 -6.5383 0.0000
# 3 5.5369 11.9371 88.3935 0.0000 -3.4468 0.0000
# 4 0.0000 0.0000 0.0000 34.5911 0.0000 7.5981
# 5 -0.6526 -6.5383 -3.4468 0.0000 26.6268 0.0000
# 6 0.0000 0.0000 0.0000 7.5981 0.0000 27.5993
#
#
#
# Elastic Compliance Matrix: (Units=1/GPa)
#
#
# Indices 1 2 3 4 5 6 
#
# 1 0.024557 0.001186 -0.001672 0.000000 0.000677 0.000000
# 2 0.001186 0.053947 -0.006877 0.000000 0.012386 0.000000
# 3 -0.001672 -0.006877 0.012341 0.000000 -0.000132 0.000000
# 4 0.000000 0.000000 0.000000 0.030770 0.000000 -0.008471
# 5 0.000677 0.012386 -0.000132 0.000000 0.040597 0.000000
# 6 0.000000 0.000000 0.000000 -0.008471 0.000000 0.038565
#
#
# Mechanical properties :
#
#
# Convention : Reuss Voigt Hill
#
# Bulk Modulus (GPa) = 13.13699 20.65809 16.89754
# Shear Modulus (GPa) = 20.75765 26.67325 23.71545
#
# Velocity S-wave (km/s) = 3.16627 3.58919 3.38434
# Velocity P-wave (km/s) = 4.43979 5.21091 4.84073
#
# Compressibility (1/GPa) = 0.07612094
#
# Stress axis : x y z
#
# Youngs Moduli (GPa) = 40.72077 18.53686 81.02880
#
# Poissons Ratio (x) = -0.02199 0.13549
# Poissons Ratio (y) = -0.04831 0.55720
# Poissons Ratio (z) = 0.06809 0.12747
#
# Static dielectric constant tensor:
#      x y z
#    x 1.736130 0.000000 0.006280 
#    y 0.000000 1.699090 0.000000 
#    z 0.006280 0.000000 1.733590 
# 
# From -- ./inp_files/275043.got.cif
#   From: 2010.05.17/outbox.cif.g08.bks.cpg/sg12_138_cif.got.tgz:275043.got - 2010.06.03 13:09:07.
