data_PCOD9215267
_publ_section_title
;
Structure prediction by ZEFSAII (Michael W. Deem and Ramdas Pophale) SiO2 
 PCOD9215267
Probable space group: C 2/M
;
_chemical_formula_sum "Si O2"
_cell_formula_units_Z 28
_cell_length_a 9.771307
_cell_length_b 13.578225
_cell_length_c 10.641899
_cell_angle_alpha 90.000000
_cell_angle_beta 60.128665
_cell_angle_gamma 90.000000
_cell_volume 1224.354083
_symmetry_space_group_name_H-M "C 2/M"
_symmetry_group_IT_number 12
_symmetry_cell_setting 'monoclinic'
loop_
_space_group_symop_operation_xyz
x,y,z
-x,y,-z
-x,-y,-z
x,-y,z
1/2+x,1/2+y,z
1/2-x,1/2+y,-z
1/2-x,1/2-y,-z
1/2+x,1/2-y,z
loop_
_atom_site_type_symbol
_atom_site_label
_atom_site_fract_x
_atom_site_fract_y
_atom_site_fract_z
Si Si1 0.500000 0.760819 0.000000
Si Si2 0.238317 0.617139 0.721628
Si Si3 0.169661 0.619457 0.469152
Si Si4 0.500058 0.384575 0.791480
O O1 0.378648 0.828897 0.129811
O O2 0.571440 0.686594 0.071194
O O3 0.206427 0.500000 0.739000
O O4 0.212135 0.651263 0.591048
O O5 0.412781 0.630233 0.698675
O O6 0.160510 0.500000 0.478733
O O7 0.314912 0.638501 0.309376
O O8 0.000000 0.656017 0.500000
O O9 0.481748 0.500000 0.833215
#
# Coordination Sequence:
#
# PCOD9215267 Si02
#       4
#     4   8   8   8
#     4  12  24  38  60  92 126 162 202 246 298 360
#     4  10  22  41  64  90 122 160 202 249 301 358
#     4   9  19  38  65  92 118 154 202 254 303 353
#     4  10  22  41  64  90 122 160 202 249 301 358
#
# _framework density 22.869202999999999
#
# number of rings (size 3 to 8) (size 9 to 14) (size 15 to 20)
#    0.000    2.000    0.000    2.571    0.000    9.143 
#    0.000    5.714    0.000    0.000    0.000    0.000 
#    0.000    0.000    0.000    0.000    0.000    0.000 
#
# Total GULP energy -78320.580207 kJ/mol
# GULP energy per Si atom -5594.327158 kJ/mol
# Density = 2.281715 g / cm^3
# Si number density = 22.869203 Si / 1000 Ang^3
#
#
#
# Elastic Constant Matrix: (Units=GPa)
#
#
# Indices 1 2 3 4 5 6 
#
# 1 95.7136 20.2388 29.5465 0.0000 14.2695 0.0000
# 2 20.2388 96.8796 29.0535 0.0000 8.2517 0.0000
# 3 29.5465 29.0535 100.4108 0.0000 10.3936 0.0000
# 4 0.0000 0.0000 0.0000 48.2908 0.0000 9.1351
# 5 14.2695 8.2517 10.3936 0.0000 36.4941 0.0000
# 6 0.0000 0.0000 0.0000 9.1351 0.0000 12.6060
#
#
#
# Elastic Compliance Matrix: (Units=1/GPa)
#
#
# Indices 1 2 3 4 5 6 
#
# 1 0.012147 -0.001389 -0.002796 0.000000 -0.003639 0.000000
# 2 -0.001389 0.011562 -0.002805 0.000000 -0.001272 0.000000
# 3 -0.002796 -0.002805 0.011761 0.000000 -0.001622 0.000000
# 4 0.000000 0.000000 0.000000 0.023998 0.000000 -0.017390
# 5 -0.003639 -0.001272 -0.001622 0.000000 0.029574 0.000000
# 6 0.000000 0.000000 0.000000 -0.017390 0.000000 0.091929
#
#
# Mechanical properties :
#
#
# Convention : Reuss Voigt Hill
#
# Bulk Modulus (GPa) = 46.53197 50.07574 48.30385
# Shear Modulus (GPa) = 24.73843 33.75585 29.24714
#
# Velocity S-wave (km/s) = 3.29254 3.84609 3.58003
# Velocity P-wave (km/s) = 5.90302 6.45503 6.18518
#
# Compressibility (1/GPa) = 0.02149060
#
# Stress axis : x y z
#
# Youngs Moduli (GPa) = 82.32351 86.49145 85.02498
#
# Poissons Ratio (x) = 0.12016 0.23771
# Poissons Ratio (y) = 0.11437 0.23849
# Poissons Ratio (z) = 0.23015 0.24260
#
# Static dielectric constant tensor:
#      x y z
#    x 1.852270 0.000000 0.010450 
#    y 0.000000 1.879540 0.000000 
#    z 0.010450 0.000000 1.787510 
# 
# From -- ./inp_files/117380.got.cif
#   From: 2010.05.17/outbox.cif.g08.bks.cpg/sg12_59_cif.got.tgz:117380.got - 2010.06.03 13:09:07.
