data_PCOD9215804
_publ_section_title
;
Structure prediction by ZEFSAII (Michael W. Deem and Ramdas Pophale) SiO2 
 PCOD9215804
Probable space group: C 2/M
;
_chemical_formula_sum "Si O2"
_cell_formula_units_Z 26
_cell_length_a 7.544938
_cell_length_b 14.511645
_cell_length_c 14.476283
_cell_angle_alpha 90.000000
_cell_angle_beta 40.788402
_cell_angle_gamma 90.000000
_cell_volume 1035.429045
_symmetry_space_group_name_H-M "C 2/M"
_symmetry_group_IT_number 12
_symmetry_cell_setting 'monoclinic'
loop_
_space_group_symop_operation_xyz
x,y,z
-x,y,-z
-x,-y,-z
x,-y,z
1/2+x,1/2+y,z
1/2-x,1/2+y,-z
1/2-x,1/2-y,-z
1/2+x,1/2-y,z
loop_
_atom_site_type_symbol
_atom_site_label
_atom_site_fract_x
_atom_site_fract_y
_atom_site_fract_z
Si Si1 0.665243 0.790184 0.337946
Si Si2 0.299362 0.398041 0.900623
Si Si3 0.206330 0.397176 0.661889
Si Si4 0.500000 0.500000 0.000000
O O1 0.500000 0.791657 0.500000
O O2 0.734920 0.683667 0.288635
O O3 0.491654 0.848185 0.333309
O O4 0.949829 0.840231 0.233437
O O5 0.303974 0.500000 0.852448
O O6 0.372111 0.420586 0.979115
O O7 0.000000 0.360035 0.000000
O O8 0.500000 0.409816 0.500000
O O9 0.099360 0.500000 0.726743
#
# Coordination Sequence:
#
# PCOD9215804 Si02
#       4
#     8   8   8   2
#     4  11  22  43  70 109 140 182 247 304 363 432
#     4   9  20  42  70 104 145 196 244 297 366 447
#     4  10  22  42  66 102 148 193 227 290 376 443
#     4   8  18  44  66 104 144 202 250 280 372 464
#
# _framework density 25.110361999999999
#
# number of rings (size 3 to 8) (size 9 to 14) (size 15 to 20)
#    0.923    1.231    0.000    4.615    0.000    2.462 
#   11.077    4.615    0.000    1.846    0.000    1.077 
#    0.000    0.000    0.000    0.000    0.000    0.000 
#
# Total GULP energy -72419.347316 kJ/mol
# GULP energy per Si atom -5570.719024 kJ/mol
# Density = 2.505321 g / cm^3
# Si number density = 25.110362 Si / 1000 Ang^3
#
#
#
# Elastic Constant Matrix: (Units=GPa)
#
#
# Indices 1 2 3 4 5 6 
#
# 1 255.0825 84.6814 68.7447 -0.0004 -6.6715 0.0031
# 2 84.6814 195.2671 78.1269 0.0000 -20.9323 0.0000
# 3 68.7447 78.1269 120.4758 -0.0006 -21.5660 0.0047
# 4 -0.0004 0.0000 -0.0006 70.4986 0.0002 1.1824
# 5 -6.6715 -20.9323 -21.5660 0.0002 39.5729 -0.0031
# 6 0.0031 0.0000 0.0047 1.1824 -0.0031 37.8749
#
#
#
# Elastic Compliance Matrix: (Units=1/GPa)
#
#
# Indices 1 2 3 4 5 6 
#
# 1 0.004923 -0.001416 -0.002079 0.000000 -0.001052 0.000000
# 2 -0.001416 0.007388 -0.003686 0.000000 0.001661 0.000001
# 3 -0.002079 -0.003686 0.012705 0.000000 0.004624 -0.000001
# 4 0.000000 0.000000 0.000000 0.014192 0.000000 -0.000443
# 5 -0.001052 0.001661 0.004624 0.000000 0.028490 0.000002
# 6 0.000000 0.000001 -0.000001 -0.000443 0.000002 0.026417
#
#
# Mechanical properties :
#
#
# Convention : Reuss Voigt Hill
#
# Bulk Modulus (GPa) = 93.86361 114.88126 104.37244
# Shear Modulus (GPa) = 44.63154 52.20745 48.41950
#
# Velocity S-wave (km/s) = 4.22051 4.56468 4.39597
# Velocity P-wave (km/s) = 7.82380 8.58089 8.21108
#
# Compressibility (1/GPa) = 0.01065376
#
# Stress axis : x y z
#
# Youngs Moduli (GPa) = 203.11932 135.35615 78.71049
#
# Poissons Ratio (x) = 0.19165 0.16367
# Poissons Ratio (y) = 0.28759 0.29011
# Poissons Ratio (z) = 0.42237 0.49890
#
# Static dielectric constant tensor:
#      x y z
#    x 2.354390 -0.000010 0.053900 
#    y -0.000010 2.013350 0.000000 
#    z 0.053900 0.000000 2.025850 
# 
# From -- ./inp_files/194373.got.cif
#   From: 2010.05.17/outbox.cif.g08.bks.cpg/sg12_98_cif.got.tgz:194373.got - 2010.06.03 13:09:07.
