data_PCOD9215375
_publ_section_title
;
Structure prediction by ZEFSAII (Michael W. Deem and Ramdas Pophale) SiO2 
 PCOD9215375
Probable space group: C 2/M
;
_chemical_formula_sum "Si O2"
_cell_formula_units_Z 48
_cell_length_a 25.192587
_cell_length_b 22.050493
_cell_length_c 13.107707
_cell_angle_alpha 90.000000
_cell_angle_beta 159.903145
_cell_angle_gamma 90.000000
_cell_volume 2501.965102
_symmetry_space_group_name_H-M "C 2/M"
_symmetry_group_IT_number 12
_symmetry_cell_setting 'monoclinic'
loop_
_space_group_symop_operation_xyz
x,y,z
-x,y,-z
-x,-y,-z
x,-y,z
1/2+x,1/2+y,z
1/2-x,1/2+y,-z
1/2-x,1/2-y,-z
1/2+x,1/2-y,z
loop_
_atom_site_type_symbol
_atom_site_label
_atom_site_fract_x
_atom_site_fract_y
_atom_site_fract_z
Si Si1 0.950467 0.357358 0.209761
Si Si2 0.119034 0.572196 0.120902
Si Si3 0.096253 0.770832 0.776625
Si Si4 0.038902 0.927331 0.183116
Si Si5 0.209862 0.888750 0.100072
Si Si6 0.317599 0.567151 0.164779
O O1 0.955864 0.285707 0.246695
O O2 0.115728 0.380415 0.547688
O O3 0.929645 0.382645 0.057741
O O4 0.802552 0.386477 0.001406
O O5 0.118851 0.500000 0.089643
O O6 0.291597 0.589479 0.469357
O O7 0.000000 0.577113 0.000000
O O8 0.000000 0.783899 0.500000
O O9 0.250000 0.750000 0.000000
O O10 0.134819 0.827983 0.916363
O O11 0.042487 0.000000 0.182981
O O12 0.000000 0.903139 0.000000
O O13 0.903832 0.909712 0.016566
O O14 0.216405 0.933449 0.016298
O O15 0.500000 0.581561 0.500000
O O16 0.296047 0.500000 0.171793
#
# Coordination Sequence:
#
# PCOD9215375 Si02
#       6
#     8   8   8   8   8   8
#     4  12  24  39  61  91 121 160 207 252 309 368
#     4  10  22  41  65  92 125 164 204 252 308 366
#     4  12  24  43  63  89 124 167 211 254 307 368
#     4  10  22  41  65  93 125 163 204 250 309 369
#     4  12  24  38  62  90 122 161 205 254 308 367
#     4  11  23  37  56  86 122 158 200 251 308 368
#
# _framework density 19.184920000000002
#
# number of rings (size 3 to 8) (size 9 to 14) (size 15 to 20)
#    0.000    0.833    3.333    4.000    2.333    7.333 
#    0.000    0.833    0.000    4.000    0.000    0.000 
#    0.000    0.000    0.000    0.000    0.000    0.000 
#
# Total GULP energy -133931.533736 kJ/mol
# GULP energy per Si atom -5580.480572 kJ/mol
# Density = 1.914125 g / cm^3
# Si number density = 19.184920 Si / 1000 Ang^3
#
#
#
# Elastic Constant Matrix: (Units=GPa)
#
#
# Indices 1 2 3 4 5 6 
#
# 1 102.4763 12.1973 37.3619 0.0000 -14.1386 0.0000
# 2 12.1973 76.7186 36.0787 0.0000 -17.1926 0.0000
# 3 37.3619 36.0787 163.5462 0.0000 -11.7957 0.0000
# 4 0.0000 0.0000 0.0000 16.5749 0.0000 -7.2557
# 5 -14.1386 -17.1926 -11.7957 0.0000 39.7260 0.0000
# 6 0.0000 0.0000 0.0000 -7.2557 0.0000 20.9675
#
#
#
# Elastic Compliance Matrix: (Units=1/GPa)
#
#
# Indices 1 2 3 4 5 6 
#
# 1 0.011041 0.000059 -0.002299 0.000000 0.003272 0.000000
# 2 0.000059 0.015802 -0.003071 0.000000 0.005948 0.000000
# 3 -0.002299 -0.003071 0.007319 0.000000 0.000026 0.000000
# 4 0.000000 0.000000 0.000000 0.071103 0.000000 0.024605
# 5 0.003272 0.005948 0.000026 0.000000 0.028919 0.000000
# 6 0.000000 0.000000 0.000000 0.024605 0.000000 0.056207
#
#
# Mechanical properties :
#
#
# Convention : Reuss Voigt Hill
#
# Bulk Modulus (GPa) = 42.47887 57.11298 49.79592
# Shear Modulus (GPa) = 23.93947 32.59388 28.26668
#
# Velocity S-wave (km/s) = 3.53629 4.12628 3.84263
# Velocity P-wave (km/s) = 6.23407 7.24817 6.76016
#
# Compressibility (1/GPa) = 0.02354112
#
# Stress axis : x y z
#
# Youngs Moduli (GPa) = 90.57036 63.28233 136.63040
#
# Poissons Ratio (x) = -0.00375 0.31417
# Poissons Ratio (y) = -0.00537 0.41953
# Poissons Ratio (z) = 0.20826 0.19431
#
# Static dielectric constant tensor:
#      x y z
#    x 1.635700 0.000000 -0.001680 
#    y 0.000000 1.702330 0.000000 
#    z -0.001680 0.000000 1.658150 
# 
# From -- ./inp_files/178608.got.cif
#   From: 2010.05.17/outbox.cif.g08.bks.cpg/sg12_90_cif.got.tgz:178608.got - 2010.06.03 13:09:07.
