data_PCOD9215548
_publ_section_title
;
Structure prediction by ZEFSAII (Michael W. Deem and Ramdas Pophale) SiO2 
 PCOD9215548
Probable space group: C 2/M
;
_chemical_formula_sum "Si O2"
_cell_formula_units_Z 40
_cell_length_a 18.586401
_cell_length_b 16.373042
_cell_length_c 12.831782
_cell_angle_alpha 90.000000
_cell_angle_beta 152.678385
_cell_angle_gamma 90.000000
_cell_volume 1792.296730
_symmetry_space_group_name_H-M "C 2/M"
_symmetry_group_IT_number 12
_symmetry_cell_setting 'monoclinic'
loop_
_space_group_symop_operation_xyz
x,y,z
-x,y,-z
-x,-y,-z
x,-y,z
1/2+x,1/2+y,z
1/2-x,1/2+y,-z
1/2-x,1/2-y,-z
1/2+x,1/2-y,z
loop_
_atom_site_type_symbol
_atom_site_label
_atom_site_fract_x
_atom_site_fract_y
_atom_site_fract_z
Si Si1 0.714421 0.282560 0.625225
Si Si2 0.018035 0.908008 0.909580
Si Si3 0.167069 0.410314 0.055246
Si Si4 0.358365 0.330051 0.130754
Si Si5 0.824127 0.363216 0.560165
O O1 0.797901 0.331977 0.825738
O O2 0.535637 0.315039 0.396448
O O3 0.813135 0.306792 0.649228
O O4 0.683282 0.187181 0.557962
O O5 0.120777 0.857304 0.961703
O O6 0.838159 0.911718 0.639687
O O7 0.080584 0.000000 0.000868
O O8 0.000000 0.869283 0.000000
O O9 0.193122 0.500000 0.139025
O O10 0.280137 0.398224 0.102083
O O11 0.989355 0.406647 0.785201
O O12 0.250000 0.250000 0.000000
#
# Coordination Sequence:
#
# PCOD9215548 Si02
#       5
#     8   8   8   8   8
#     4  10  23  40  65  95 135 185 227 273 341 418
#     4  10  23  43  69  97 132 184 240 289 340 410
#     4  12  25  42  69 105 142 178 228 293 357 410
#     4  11  23  43  66  98 138 184 226 288 350 420
#     4  10  22  41  67  97 137 181 232 282 335 415
#
# _framework density 22.317733
#
# number of rings (size 3 to 8) (size 9 to 14) (size 15 to 20)
#    0.000    1.400    2.000    2.400    2.800    6.400 
#    0.000    1.000    0.000    3.600    0.000    0.000 
#    0.000    0.000    0.000    0.000    0.000    0.000 
#
# Total GULP energy -111521.960998 kJ/mol
# GULP energy per Si atom -5576.098050 kJ/mol
# Density = 2.226694 g / cm^3
# Si number density = 22.317733 Si / 1000 Ang^3
#
#
#
# Elastic Constant Matrix: (Units=GPa)
#
#
# Indices 1 2 3 4 5 6 
#
# 1 138.9890 44.1641 37.8284 0.0000 -1.0202 0.0000
# 2 44.1641 95.0369 27.7723 0.0000 -7.0194 0.0000
# 3 37.8284 27.7723 91.6895 0.0000 10.3381 0.0000
# 4 0.0000 0.0000 0.0000 17.4101 0.0000 -9.9552
# 5 -1.0202 -7.0194 10.3381 0.0000 45.8635 0.0000
# 6 0.0000 0.0000 0.0000 -9.9552 0.0000 7.9459
#
#
#
# Elastic Compliance Matrix: (Units=1/GPa)
#
#
# Indices 1 2 3 4 5 6 
#
# 1 0.009010 -0.003367 -0.002732 0.000000 0.000301 0.000000
# 2 -0.003367 0.013118 -0.002875 0.000000 0.002581 0.000000
# 3 -0.002732 -0.002875 0.013299 0.000000 -0.003498 0.000000
# 4 0.000000 0.000000 0.000000 0.202523 0.000000 0.253733
# 5 0.000301 0.002581 -0.003498 0.000000 0.022994 0.000000
# 6 0.000000 0.000000 0.000000 0.253733 0.000000 0.443743
#
#
# Mechanical properties :
#
#
# Convention : Reuss Voigt Hill
#
# Bulk Modulus (GPa) = 57.20957 60.58277 58.89617
# Shear Modulus (GPa) = 6.86379 28.64062 17.75221
#
# Velocity S-wave (km/s) = 1.75561 3.58622 2.82340
# Velocity P-wave (km/s) = 5.45888 6.65977 6.08900
#
# Compressibility (1/GPa) = 0.01747959
#
# Stress axis : x y z
#
# Youngs Moduli (GPa) = 110.98511 76.23355 75.19537
#
# Poissons Ratio (x) = 0.25665 0.20540
# Poissons Ratio (y) = 0.37365 0.21621
# Poissons Ratio (z) = 0.30316 0.21919
#
# Static dielectric constant tensor:
#      x y z
#    x 1.800980 0.000000 -0.049870 
#    y 0.000000 1.972660 0.000000 
#    z -0.049870 0.000000 1.850080 
# 
# From -- ./inp_files/158495.got.cif
#   From: 2010.05.17/outbox.cif.g08.bks.cpg/sg12_80_cif.got.tgz:158495.got - 2010.06.03 13:09:07.
