data_PCOD9215717
_publ_section_title
;
Structure prediction by ZEFSAII (Michael W. Deem and Ramdas Pophale) SiO2 
 PCOD9215717
Probable space group: C 2/M
;
_chemical_formula_sum "Si O2"
_cell_formula_units_Z 34
_cell_length_a 5.220141
_cell_length_b 13.797551
_cell_length_c 21.214261
_cell_angle_alpha 90.000000
_cell_angle_beta 89.264920
_cell_angle_gamma 90.000000
_cell_volume 1527.834831
_symmetry_space_group_name_H-M "C 2/M"
_symmetry_group_IT_number 12
_symmetry_cell_setting 'monoclinic'
loop_
_space_group_symop_operation_xyz
x,y,z
-x,y,-z
-x,-y,-z
x,-y,z
1/2+x,1/2+y,z
1/2-x,1/2+y,-z
1/2-x,1/2-y,-z
1/2+x,1/2-y,z
loop_
_atom_site_type_symbol
_atom_site_label
_atom_site_fract_x
_atom_site_fract_y
_atom_site_fract_z
Si Si1 0.664552 0.815155 0.417925
Si Si2 0.500000 0.000000 0.500000
Si Si3 0.929164 0.500000 0.813127
Si Si4 0.288170 0.709464 0.929324
Si Si5 0.314190 0.811681 0.731460
Si Si6 0.926754 0.000000 0.893041
O O1 0.422603 0.744578 0.430630
O O2 0.635558 0.913727 0.456518
O O3 0.664234 0.836594 0.342897
O O4 0.871389 0.405527 0.772246
O O5 0.720740 0.500000 0.870389
O O6 0.221472 0.500000 0.836456
O O7 0.517952 0.769724 0.897761
O O8 0.362771 0.598052 0.930014
O O9 0.250000 0.750000 0.000000
O O10 0.531910 0.731158 0.743732
#
# Coordination Sequence:
#
# PCOD9215717 Si02
#       6
#     8   2   4   8   8   4
#     4  10  23  40  60  90 122 162 212 254 306 370
#     4  12  22  38  64  88 128 164 204 266 312 352
#     4  12  25  40  63  95 124 158 204 254 311 356
#     4  10  23  42  65  89 121 162 198 238 297 356
#     4  10  22  42  64  87 124 166 204 252 309 369
#     4  12  26  40  63  98 126 152 204 256 291 364
#
# _framework density 22.253713999999999
#
# number of rings (size 3 to 8) (size 9 to 14) (size 15 to 20)
#    0.000    1.412    0.000    4.235    0.000   11.294 
#    0.000    7.059    0.000    0.000    0.000    0.000 
#    0.000    0.000    0.000    0.000    0.000    0.000 
#
# Total GULP energy -94907.058018 kJ/mol
# GULP energy per Si atom -5582.768119 kJ/mol
# Density = 2.220306 g / cm^3
# Si number density = 22.253714 Si / 1000 Ang^3
#
#
#
# Elastic Constant Matrix: (Units=GPa)
#
#
# Indices 1 2 3 4 5 6 
#
# 1 111.1189 -5.7598 -2.5498 0.0000 -9.6507 0.0000
# 2 -5.7598 145.5292 38.1557 0.0000 -20.1991 0.0000
# 3 -2.5498 38.1557 74.6974 0.0000 -3.1763 0.0000
# 4 0.0000 0.0000 0.0000 138.3538 0.0000 6.2980
# 5 -9.6507 -20.1991 -3.1763 0.0000 21.9490 0.0000
# 6 0.0000 0.0000 0.0000 6.2980 0.0000 24.8574
#
#
#
# Elastic Compliance Matrix: (Units=1/GPa)
#
#
# Indices 1 2 3 4 5 6 
#
# 1 0.009507 0.001101 -0.000017 0.000000 0.005191 0.000000
# 2 0.001101 0.009200 -0.004308 0.000000 0.008328 0.000000
# 3 -0.000017 -0.004308 0.015514 0.000000 -0.001727 0.000000
# 4 0.000000 0.000000 0.000000 0.007312 0.000000 -0.001853
# 5 0.005191 0.008328 -0.001727 0.000000 0.055257 0.000000
# 6 0.000000 0.000000 0.000000 -0.001853 0.000000 0.040699
#
#
# Mechanical properties :
#
#
# Convention : Reuss Voigt Hill
#
# Bulk Modulus (GPa) = 36.00570 43.44862 39.72716
# Shear Modulus (GPa) = 32.63829 57.13200 44.88514
#
# Velocity S-wave (km/s) = 3.83383 5.07235 4.49594
# Velocity P-wave (km/s) = 5.98435 7.33973 6.69642
#
# Compressibility (1/GPa) = 0.02777338
#
# Stress axis : x y z
#
# Youngs Moduli (GPa) = 105.18663 108.69090 64.45876
#
# Poissons Ratio (x) = -0.11970 0.00111
# Poissons Ratio (y) = -0.11584 0.27768
# Poissons Ratio (z) = 0.00182 0.46823
#
# Static dielectric constant tensor:
#      x y z
#    x 1.774830 0.000000 -0.274660 
#    y 0.000000 1.749730 0.000000 
#    z -0.274660 0.000000 0.964680 
# 
# From -- ./inp_files/297409.got.cif
#   From: 2010.05.17/outbox.cif.g08.bks.cpg/sg12_149_cif.got.tgz:297409.got - 2010.06.03 13:09:07.
