data_PCOD9215727
_publ_section_title
;
Structure prediction by ZEFSAII (Michael W. Deem and Ramdas Pophale) SiO2 
 PCOD9215727
Probable space group: C 2/M
;
_chemical_formula_sum "Si O2"
_cell_formula_units_Z 44
_cell_length_a 9.690391
_cell_length_b 9.615100
_cell_length_c 26.279402
_cell_angle_alpha 90.000000
_cell_angle_beta 123.979355
_cell_angle_gamma 90.000000
_cell_volume 2030.440692
_symmetry_space_group_name_H-M "C 2/M"
_symmetry_group_IT_number 12
_symmetry_cell_setting 'monoclinic'
loop_
_space_group_symop_operation_xyz
x,y,z
-x,y,-z
-x,-y,-z
x,-y,z
1/2+x,1/2+y,z
1/2-x,1/2+y,-z
1/2-x,1/2-y,-z
1/2+x,1/2-y,z
loop_
_atom_site_type_symbol
_atom_site_label
_atom_site_fract_x
_atom_site_fract_y
_atom_site_fract_z
Si Si1 0.898308 0.662813 0.055841
Si Si2 0.309391 0.162895 0.257366
Si Si3 0.204470 0.500000 0.505826
Si Si4 0.779750 0.159955 0.878552
Si Si5 0.675295 0.164915 0.317219
Si Si6 0.983133 0.218197 0.554801
O O1 0.892797 0.500000 0.040658
O O2 0.864761 0.673570 0.109588
O O3 0.072754 0.733769 0.078905
O O4 0.750000 0.750000 0.000000
O O5 0.280185 0.181745 0.191332
O O6 0.501465 0.201195 0.308164
O O7 0.191663 0.254831 0.267700
O O8 0.284957 0.000000 0.264050
O O9 0.074299 0.377342 0.460207
O O10 0.340491 0.622344 0.549499
O O11 0.842562 0.000000 0.895448
O O12 0.837994 0.200879 0.383012
O O13 0.670687 0.000000 0.307352
O O14 0.000000 0.165697 0.500000
#
# Coordination Sequence:
#
# PCOD9215727 Si02
#       6
#     8   8   4   8   8   8
#     4  11  23  39  65  98 131 167 208 255 305 362
#     4  10  24  44  65  90 121 168 209 255 309 363
#     4  10  24  40  62  88 118 154 202 240 322 372
#     4  10  22  42  64  89 129 167 210 256 305 362
#     4  11  25  41  64  92 124 158 211 258 308 375
#     4  11  24  40  63  87 120 157 197 254 314 375
#
# _framework density 21.670172000000001
#
# number of rings (size 3 to 8) (size 9 to 14) (size 15 to 20)
#    0.000    1.455    0.909    2.727    6.364    6.545 
#    0.000    0.000    0.000    0.000    0.000    0.000 
#    0.000    0.000    0.000    0.000    0.000    0.000 
#
# Total GULP energy -122599.248124 kJ/mol
# GULP energy per Si atom -5572.693097 kJ/mol
# Density = 2.162085 g / cm^3
# Si number density = 21.670172 Si / 1000 Ang^3
#
#
#
# Elastic Constant Matrix: (Units=GPa)
#
#
# Indices 1 2 3 4 5 6 
#
# 1 59.7890 32.5709 -0.5826 0.0000 8.9105 0.0000
# 2 32.5709 123.2189 20.2121 0.0000 10.7776 0.0000
# 3 -0.5826 20.2121 47.3937 0.0000 0.1670 0.0000
# 4 0.0000 0.0000 0.0000 31.7058 0.0000 2.3517
# 5 8.9105 10.7776 0.1670 0.0000 35.9030 0.0000
# 6 0.0000 0.0000 0.0000 2.3517 0.0000 19.2859
#
#
#
# Elastic Compliance Matrix: (Units=1/GPa)
#
#
# Indices 1 2 3 4 5 6 
#
# 1 0.020241 -0.005480 0.002598 0.000000 -0.003391 0.000000
# 2 -0.005480 0.010460 -0.004522 0.000000 -0.001759 0.000000
# 3 0.002598 -0.004522 0.023058 0.000000 0.000605 0.000000
# 4 0.000000 0.000000 0.000000 0.031828 0.000000 -0.003881
# 5 -0.003391 -0.001759 0.000605 0.000000 0.029219 0.000000
# 6 0.000000 0.000000 0.000000 -0.003881 0.000000 0.052324
#
#
# Mechanical properties :
#
#
# Convention : Reuss Voigt Hill
#
# Bulk Modulus (GPa) = 25.67324 37.20027 31.43675
# Shear Modulus (GPa) = 25.65112 29.25902 27.45507
#
# Velocity S-wave (km/s) = 3.44424 3.67849 3.56329
# Velocity P-wave (km/s) = 5.26213 5.93680 5.60962
#
# Compressibility (1/GPa) = 0.03895106
#
# Stress axis : x y z
#
# Youngs Moduli (GPa) = 49.40359 95.60415 43.36857
#
# Poissons Ratio (x) = 0.52392 -0.11267
# Poissons Ratio (y) = 0.27074 0.19611
# Poissons Ratio (z) = -0.12834 0.43232
#
# Static dielectric constant tensor:
#      x y z
#    x 1.820600 0.000000 -0.041080 
#    y 0.000000 1.738710 0.000000 
#    z -0.041080 0.000000 1.802880 
# 
# From -- ./inp_files/303678.got.cif
#   From: 2010.05.17/outbox.cif.g08.bks.cpg/sg12_152_cif.got.tgz:303678.got - 2010.06.03 13:09:07.
