data_PCOD9215805
_publ_section_title
;
Structure prediction by ZEFSAII (Michael W. Deem and Ramdas Pophale) SiO2 
 PCOD9215805
Probable space group: C 2/M
;
_chemical_formula_sum "Si O2"
_cell_formula_units_Z 44
_cell_length_a 20.450331
_cell_length_b 11.900095
_cell_length_c 9.206120
_cell_angle_alpha 90.000000
_cell_angle_beta 96.045368
_cell_angle_gamma 90.000000
_cell_volume 2227.950150
_symmetry_space_group_name_H-M "C 2/M"
_symmetry_group_IT_number 12
_symmetry_cell_setting 'monoclinic'
loop_
_space_group_symop_operation_xyz
x,y,z
-x,y,-z
-x,-y,-z
x,-y,z
1/2+x,1/2+y,z
1/2-x,1/2+y,-z
1/2-x,1/2-y,-z
1/2+x,1/2-y,z
loop_
_atom_site_type_symbol
_atom_site_label
_atom_site_fract_x
_atom_site_fract_y
_atom_site_fract_z
Si Si1 0.320684 0.267631 0.590341
Si Si2 0.559485 0.866053 0.908211
Si Si3 0.047693 0.000000 0.692865
Si Si4 0.895336 0.000000 0.659080
Si Si5 0.181348 0.759668 0.065833
Si Si6 0.431584 0.252932 0.399819
Si Si7 0.614908 0.500000 0.009993
O O1 0.250000 0.250000 0.500000
O O2 0.351384 0.392950 0.609102
O O3 0.314671 0.237846 0.759700
O O4 0.374201 0.210536 0.494688
O O5 0.559074 0.813258 0.747960
O O6 0.554953 0.000000 0.896825
O O7 0.500000 0.825881 0.000000
O O8 0.627602 0.826900 0.994059
O O9 0.079692 0.116354 0.646226
O O10 0.971098 0.000000 0.627107
O O11 0.062236 0.000000 0.869108
O O12 0.910889 0.000000 0.833401
O O13 0.156180 0.884733 0.018418
O O14 0.250000 0.750000 0.000000
O O15 0.500000 0.246872 0.500000
#
# Coordination Sequence:
#
# PCOD9215805 Si02
#       7
#     8   8   4   4   8   8   4
#     4  11  24  43  63 100 136 176 213 270 342 397
#     4  11  26  46  68  94 131 181 229 273 324 401
#     4  12  21  38  73 108 136 164 213 287 348 394
#     4  10  22  42  66 105 137 166 219 274 339 402
#     4  11  24  46  69  97 135 177 228 276 329 406
#     4  12  23  41  69 101 137 167 217 278 341 398
#     4  10  23  37  72 106 130 173 221 281 344 391
#
# _framework density 19.749095000000001
#
# number of rings (size 3 to 8) (size 9 to 14) (size 15 to 20)
#    0.000    0.909    3.636    3.273    3.818    0.364 
#    6.545    0.000    0.000    0.000    0.000    0.000 
#    0.000    0.000    0.000    0.000    0.000    0.000 
#
# Total GULP energy -122741.965009 kJ/mol
# GULP energy per Si atom -5579.180228 kJ/mol
# Density = 1.970415 g / cm^3
# Si number density = 19.749095 Si / 1000 Ang^3
#
#
#
# Elastic Constant Matrix: (Units=GPa)
#
#
# Indices 1 2 3 4 5 6 
#
# 1 164.6289 27.6135 94.9646 0.0000 -18.3753 0.0000
# 2 27.6135 58.5830 55.0255 0.0000 -9.5024 0.0000
# 3 94.9646 55.0255 205.7558 0.0000 -0.6123 0.0000
# 4 0.0000 0.0000 0.0000 22.7115 0.0000 -16.1750
# 5 -18.3753 -9.5024 -0.6123 0.0000 47.2055 0.0000
# 6 0.0000 0.0000 0.0000 -16.1750 0.0000 -39.8254
#
#
#
# Elastic Compliance Matrix: (Units=1/GPa)
#
#
# Indices 1 2 3 4 5 6 
#
# 1 0.008786 0.000285 -0.004121 0.000000 0.003424 0.000000
# 2 0.000285 0.023807 -0.006484 0.000000 0.004819 0.000000
# 3 -0.004121 -0.006484 0.008488 0.000000 -0.002799 0.000000
# 4 0.000000 0.000000 0.000000 0.034152 0.000000 -0.013871
# 5 0.003424 0.004819 -0.002799 0.000000 0.023451 0.000000
# 6 0.000000 0.000000 0.000000 -0.013871 0.000000 -0.019476
#
#
# Mechanical properties :
#
#
# Convention : Reuss Voigt Hill
#
# Bulk Modulus (GPa) = 48.92167 87.13055 68.02611
# Shear Modulus (GPa) = 46.87734 22.77593 34.82664
#
# Velocity S-wave (km/s) = 4.87729 3.39966 4.20391
# Velocity P-wave (km/s) = 7.51949 7.72171 7.62127
#
# Compressibility (1/GPa) = 0.02044084
#
# Stress axis : x y z
#
# Youngs Moduli (GPa) = 113.81994 42.00363 117.81576
#
# Poissons Ratio (x) = -0.01197 0.48552
# Poissons Ratio (y) = -0.03242 0.76392
# Poissons Ratio (z) = 0.46905 0.27235
#
# Static dielectric constant tensor:
#      x y z
#    x 1.686200 0.000000 -0.062770 
#    y 0.000000 1.683340 0.000000 
#    z -0.062770 0.000000 1.750100 
# 
# From -- ./inp_files/84193.got.cif
#   From: 2010.05.17/outbox.cif.g08.bks.cpg/sg12_43_cif.got.tgz:84193.got - 2010.06.03 13:09:07.
