data_PCOD9215933
_publ_section_title
;
Structure prediction by ZEFSAII (Michael W. Deem and Ramdas Pophale) SiO2 
 PCOD9215933
Probable space group: C 2/M
;
_chemical_formula_sum "Si O2"
_cell_formula_units_Z 56
_cell_length_a 9.155667
_cell_length_b 18.459044
_cell_length_c 23.899055
_cell_angle_alpha 90.000000
_cell_angle_beta 45.495621
_cell_angle_gamma 90.000000
_cell_volume 2880.642446
_symmetry_space_group_name_H-M "C 2/M"
_symmetry_group_IT_number 12
_symmetry_cell_setting 'monoclinic'
loop_
_space_group_symop_operation_xyz
x,y,z
-x,y,-z
-x,-y,-z
x,-y,z
1/2+x,1/2+y,z
1/2-x,1/2+y,-z
1/2-x,1/2-y,-z
1/2+x,1/2-y,z
loop_
_atom_site_type_symbol
_atom_site_label
_atom_site_fract_x
_atom_site_fract_y
_atom_site_fract_z
Si Si1 0.826922 0.331775 0.212967
Si Si2 0.315269 0.184055 0.792878
Si Si3 0.602196 0.681117 0.031521
Si Si4 0.530135 0.914821 0.057424
Si Si5 0.439876 0.913688 0.356546
Si Si6 0.662045 0.827797 0.506175
Si Si7 0.929576 0.915032 0.627520
O O1 0.692583 0.260671 0.236977
O O2 0.696382 0.386561 0.285479
O O3 0.030250 0.313688 0.195340
O O4 0.893126 0.367748 0.136540
O O5 0.397145 0.121505 0.729956
O O6 0.081432 0.173970 0.875212
O O7 0.500000 0.693478 0.000000
O O8 0.750000 0.750000 0.000000
O O9 0.738486 0.609332 0.992795
O O10 0.495252 0.000000 0.075677
O O11 0.500000 0.897755 0.000000
O O12 0.439127 0.869741 0.414341
O O13 0.218450 0.902469 0.386255
O O14 0.470085 0.000000 0.355659
O O15 0.500000 0.820043 0.500000
O O16 0.750000 0.750000 0.500000
O O17 0.857877 0.874249 0.435049
O O18 0.965602 0.000000 0.622110
#
# Coordination Sequence:
#
# PCOD9215933 Si02
#       7
#     8   8   8   8   8   8   8
#     4  11  23  41  63  94 126 165 216 262 318 375
#     4  11  23  39  65  93 124 167 213 266 314 380
#     4  12  22  40  64  93 124 168 213 264 321 380
#     4  11  25  42  61  88 125 166 212 264 322 384
#     4  10  23  43  66  96 133 170 211 262 322 383
#     4  12  25  43  67  98 131 168 217 263 314 377
#     4  10  22  42  68  94 130 172 208 257 321 381
#
# _framework density 19.440107000000001
#
# number of rings (size 3 to 8) (size 9 to 14) (size 15 to 20)
#    0.000    1.000    2.857    3.429    2.000    7.143 
#    0.000    0.000    0.000    0.000    0.000    0.000 
#    0.000    0.000    0.000    0.000    0.000    0.000 
#
# Total GULP energy -156534.447211 kJ/mol
# GULP energy per Si atom -5590.515972 kJ/mol
# Density = 1.939586 g / cm^3
# Si number density = 19.440107 Si / 1000 Ang^3
#
#
#
# Elastic Constant Matrix: (Units=GPa)
#
#
# Indices 1 2 3 4 5 6 
#
# 1 105.6503 63.4673 58.5543 0.0020 15.1672 -0.0011
# 2 63.4673 113.7147 48.0869 -0.0015 12.0674 0.0000
# 3 58.5543 48.0869 105.7382 -0.0061 3.2907 0.0004
# 4 0.0020 -0.0015 -0.0061 35.4563 -0.0001 -1.2109
# 5 15.1672 12.0674 3.2907 -0.0001 34.3239 0.0006
# 6 -0.0011 0.0000 0.0004 -1.2109 0.0006 29.1077
#
#
#
# Elastic Compliance Matrix: (Units=1/GPa)
#
#
# Indices 1 2 3 4 5 6 
#
# 1 0.017877 -0.006603 -0.006744 -0.000002 -0.004932 0.000001
# 2 -0.006603 0.013728 -0.002535 0.000000 -0.001666 0.000000
# 3 -0.006744 -0.002535 0.014267 0.000003 0.002503 0.000000
# 4 -0.000002 0.000000 0.000003 0.028244 0.000001 0.001175
# 5 -0.004932 -0.001666 0.002503 0.000001 0.031659 -0.000001
# 6 0.000001 0.000000 0.000000 0.001175 -0.000001 0.034404
#
#
# Mechanical properties :
#
#
# Convention : Reuss Voigt Hill
#
# Bulk Modulus (GPa) = 70.87532 73.92447 72.39990
# Shear Modulus (GPa) = 28.30560 30.11055 29.20807
#
# Velocity S-wave (km/s) = 3.81995 3.93986 3.88037
# Velocity P-wave (km/s) = 7.48288 7.66851 7.57626
#
# Compressibility (1/GPa) = 0.01410928
#
# Stress axis : x y z
#
# Youngs Moduli (GPa) = 55.93762 72.84514 70.09414
#
# Poissons Ratio (x) = 0.48097 0.47268
# Poissons Ratio (y) = 0.36934 0.17768
# Poissons Ratio (z) = 0.37722 0.18465
#
# Static dielectric constant tensor:
#      x y z
#    x 1.655660 0.000000 -0.010580 
#    y 0.000000 1.665100 0.000000 
#    z -0.010580 0.000000 1.581180 
# 
# From -- ./inp_files/333307.got.cif
#   From: 2010.05.17/outbox.cif.g08.bks.cpg/sg12_167_cif.got.tgz:333307.got - 2010.06.03 13:09:07.
