data_PCOD9215843
_publ_section_title
;
Structure prediction by ZEFSAII (Michael W. Deem and Ramdas Pophale) SiO2 
 PCOD9215843
Probable space group: C 2/M
;
_chemical_formula_sum "Si O2"
_cell_formula_units_Z 56
_cell_length_a 9.158730
_cell_length_b 18.321771
_cell_length_c 26.803705
_cell_angle_alpha 90.000000
_cell_angle_beta 39.561023
_cell_angle_gamma 90.000000
_cell_volume 2864.630205
_symmetry_space_group_name_H-M "C 2/M"
_symmetry_group_IT_number 12
_symmetry_cell_setting 'monoclinic'
loop_
_space_group_symop_operation_xyz
x,y,z
-x,y,-z
-x,-y,-z
x,-y,z
1/2+x,1/2+y,z
1/2-x,1/2+y,-z
1/2-x,1/2-y,-z
1/2+x,1/2-y,z
loop_
_atom_site_type_symbol
_atom_site_label
_atom_site_fract_x
_atom_site_fract_y
_atom_site_fract_z
Si Si1 0.752710 0.294697 0.947562
Si Si2 0.155395 0.586032 0.836132
Si Si3 0.797538 0.085770 0.683598
Si Si4 0.468772 0.687561 0.810169
Si Si5 0.312627 0.913407 0.510313
Si Si6 0.743291 0.198944 0.549734
Si Si7 0.474271 0.797520 0.716442
O O1 0.823151 0.236465 0.886715
O O2 0.937216 0.360204 0.899292
O O3 0.500000 0.322507 0.000000
O O4 0.750000 0.250000 0.000000
O O5 0.103200 0.500000 0.855395
O O6 0.256240 0.597256 0.753547
O O7 0.340818 0.613908 0.827645
O O8 0.623559 0.136099 0.698898
O O9 0.057231 0.102036 0.597897
O O10 0.757465 0.000000 0.684138
O O11 0.481741 0.735058 0.756089
O O12 0.716967 0.679661 0.769934
O O13 0.500000 0.884792 0.500000
O O14 0.351545 0.876878 0.446709
O O15 0.337362 0.000000 0.500147
O O16 0.750000 0.250000 0.500000
O O17 0.592330 0.228462 0.634328
O O18 0.000000 0.187387 0.500000
#
# Coordination Sequence:
#
# PCOD9215843 Si02
#       7
#     8   8   8   8   8   8   8
#     4  12  23  44  75 104 133 174 216 266 331 405
#     4  11  25  45  70 105 140 174 223 277 332 399
#     4  10  22  42  66  94 133 175 223 281 339 402
#     4  12  24  43  69  97 133 179 223 264 330 408
#     4  10  23  43  63  87 126 175 222 276 344 397
#     4  12  25  38  58  91 128 164 220 284 329 375
#     4  12  23  40  66  92 129 179 226 273 330 402
#
# _framework density 19.548770000000001
#
# number of rings (size 3 to 8) (size 9 to 14) (size 15 to 20)
#    0.000    0.714    5.714    1.286    4.000    1.714 
#    0.000    1.429    0.000    0.000    0.000    0.000 
#    0.000    0.000    0.000    0.000    0.000    0.000 
#
# Total GULP energy -156592.116364 kJ/mol
# GULP energy per Si atom -5592.575584 kJ/mol
# Density = 1.950428 g / cm^3
# Si number density = 19.548770 Si / 1000 Ang^3
#
#
#
# Elastic Constant Matrix: (Units=GPa)
#
#
# Indices 1 2 3 4 5 6 
#
# 1 119.2722 39.8376 21.5484 0.0004 -3.5749 0.0040
# 2 39.8376 90.4271 27.3154 0.0035 17.6596 -0.0015
# 3 21.5484 27.3154 78.5370 0.0005 22.1445 0.0046
# 4 0.0004 0.0035 0.0005 27.4278 0.0018 -5.8784
# 5 -3.5749 17.6596 22.1445 0.0018 36.8764 -0.0044
# 6 0.0040 -0.0015 0.0046 -5.8784 -0.0044 30.1383
#
#
#
# Elastic Compliance Matrix: (Units=1/GPa)
#
#
# Indices 1 2 3 4 5 6 
#
# 1 0.010625 -0.004852 -0.002616 0.000000 0.004925 -0.000001
# 2 -0.004852 0.015088 -0.002102 -0.000001 -0.006433 0.000001
# 3 -0.002616 -0.002102 0.016817 0.000000 -0.009346 -0.000004
# 4 0.000000 -0.000001 0.000000 0.038050 0.000000 0.007422
# 5 0.004925 -0.006433 -0.009346 0.000000 0.036288 0.000006
# 6 -0.000001 0.000001 -0.000004 0.007422 0.000006 0.034628
#
#
# Mechanical properties :
#
#
# Convention : Reuss Voigt Hill
#
# Bulk Modulus (GPa) = 42.75666 51.73767 47.24717
# Shear Modulus (GPa) = 28.02165 32.19082 30.10624
#
# Velocity S-wave (km/s) = 3.79016 4.06235 3.92861
# Velocity P-wave (km/s) = 6.40883 6.96613 6.69328
#
# Compressibility (1/GPa) = 0.02338817
#
# Stress axis : x y z
#
# Youngs Moduli (GPa) = 94.11599 66.27881 59.46393
#
# Poissons Ratio (x) = 0.32161 0.15557
# Poissons Ratio (y) = 0.45669 0.12501
# Poissons Ratio (z) = 0.24622 0.13933
#
# Static dielectric constant tensor:
#      x y z
#    x 1.702150 0.000000 -0.000930 
#    y 0.000000 1.696950 0.000000 
#    z -0.000930 0.000000 1.684910 
# 
# From -- ./inp_files/356671.got.cif
#   From: 2010.05.17/outbox.cif.g08.bks.cpg/sg12_179_cif.got.tgz:356671.got - 2010.06.03 13:09:07.
