data_PCOD9215110
_publ_section_title
;
Structure prediction by ZEFSAII (Michael W. Deem and Ramdas Pophale) SiO2 
 PCOD9215110
Probable space group: C 2/M
;
_chemical_formula_sum "Si O2"
_cell_formula_units_Z 58
_cell_length_a 13.579761
_cell_length_b 22.637328
_cell_length_c 16.484248
_cell_angle_alpha 90.000000
_cell_angle_beta 34.797014
_cell_angle_gamma 90.000000
_cell_volume 2891.825346
_symmetry_space_group_name_H-M "C 2/M"
_symmetry_group_IT_number 12
_symmetry_cell_setting 'monoclinic'
loop_
_space_group_symop_operation_xyz
x,y,z
-x,y,-z
-x,-y,-z
x,-y,z
1/2+x,1/2+y,z
1/2-x,1/2+y,-z
1/2-x,1/2-y,-z
1/2+x,1/2-y,z
loop_
_atom_site_type_symbol
_atom_site_label
_atom_site_fract_x
_atom_site_fract_y
_atom_site_fract_z
Si Si1 0.500000 0.000000 0.000000
Si Si2 0.355462 0.786446 0.030932
Si Si3 0.468807 0.301226 0.306983
Si Si4 0.977176 0.597031 0.868010
Si Si5 0.599914 0.137260 0.346449
Si Si6 0.976213 0.165789 0.133670
Si Si7 0.664150 0.826425 0.619496
Si Si8 0.220313 0.064562 0.901661
O O1 0.490766 0.947284 0.078815
O O2 0.163872 0.785264 0.195242
O O3 0.500000 0.795161 0.000000
O O4 0.371109 0.844505 0.965884
O O5 0.407932 0.724712 0.954300
O O6 0.463592 0.347563 0.237340
O O7 0.380441 0.241728 0.331052
O O8 0.357545 0.325030 0.455853
O O9 0.863140 0.567017 0.875758
O O10 0.135175 0.627803 0.711971
O O11 0.500000 0.131928 0.500000
O O12 0.465655 0.160012 0.368690
O O13 0.682027 0.079166 0.248677
O O14 0.778847 0.174359 0.236862
O O15 0.080748 0.114189 0.019012
O O16 0.143730 0.000000 0.954096
#
# Coordination Sequence:
#
# PCOD9215110 Si02
#       8
#     2   8   8   8   8   8   8   8
#     4  12  24  44  72 102 124 172 242 286 324 398
#     4  12  22  38  63 100 129 165 219 278 333 393
#     4  11  21  37  64  94 137 173 216 265 338 396
#     4  11  22  40  69  94 126 171 222 277 332 387
#     4  11  23  40  62  94 133 172 217 268 326 399
#     4  12  22  39  63  99 134 169 220 275 330 397
#     4  10  22  41  61  94 136 178 209 267 339 400
#     4  11  24  42  64  91 129 173 220 269 328 389
#
# _framework density 20.056536999999999
#
# number of rings (size 3 to 8) (size 9 to 14) (size 15 to 20)
#    0.000    0.828    5.517    4.138    0.000    1.379 
#    0.000    0.690    1.517    0.828    0.000    0.000 
#    0.000    0.000    0.000    0.000    0.000    0.000 
#
# Total GULP energy -161508.283624 kJ/mol
# GULP energy per Si atom -5569.251159 kJ/mol
# Density = 2.001089 g / cm^3
# Si number density = 20.056537 Si / 1000 Ang^3
#
#
#
# Elastic Constant Matrix: (Units=GPa)
#
#
# Indices 1 2 3 4 5 6 
#
# 1 68.1381 17.6443 49.8252 -0.0074 13.7223 0.0026
# 2 17.6443 134.0013 59.7045 -0.0175 17.7698 0.0044
# 3 49.8252 59.7045 177.9608 -0.0409 3.8975 0.0111
# 4 -0.0074 -0.0175 -0.0409 -4.7482 0.0123 16.9853
# 5 13.7223 17.7698 3.8975 0.0123 35.6635 -0.0033
# 6 0.0026 0.0044 0.0111 16.9853 -0.0033 22.9448
#
#
#
# Elastic Compliance Matrix: (Units=1/GPa)
#
#
# Indices 1 2 3 4 5 6 
#
# 1 0.020212 0.000934 -0.005806 -0.000002 -0.007608 0.000001
# 2 0.000934 0.009446 -0.003328 -0.000006 -0.004702 0.000004
# 3 -0.005806 -0.003328 0.008296 -0.000014 0.002985 0.000008
# 4 -0.000002 -0.000006 -0.000014 -0.057730 0.000029 0.042736
# 5 -0.007608 -0.004702 0.002985 0.000029 0.032984 -0.000017
# 6 0.000001 0.000004 0.000008 0.042736 -0.000017 0.011947
#
#
# Mechanical properties :
#
#
# Convention : Reuss Voigt Hill
#
# Bulk Modulus (GPa) = 46.39261 70.49424 58.44342
# Shear Modulus (GPa) = 102.59308 27.63378 65.11343
#
# Velocity S-wave (km/s) = 7.15982 3.71589 5.70398
# Velocity P-wave (km/s) = 9.56722 7.32356 8.51958
#
# Compressibility (1/GPa) = 0.02155516
#
# Stress axis : x y z
#
# Youngs Moduli (GPa) = 49.47651 105.86750 120.54499
#
# Poissons Ratio (x) = -0.09891 0.69984
# Poissons Ratio (y) = -0.04622 0.40112
# Poissons Ratio (z) = 0.28724 0.35228
#
# Static dielectric constant tensor:
#      x y z
#    x 1.803670 0.000000 0.034470 
#    y 0.000000 1.727040 0.000000 
#    z 0.034470 0.000000 1.746660 
# 
# From -- ./inp_files/272699.got.cif
#   From: 2010.05.17/outbox.cif.g08.bks.cpg/sg12_137_cif.got.tgz:272699.got - 2010.06.03 13:09:07.
