data_PCOD9215549
_publ_section_title
;
Structure prediction by ZEFSAII (Michael W. Deem and Ramdas Pophale) SiO2 
 PCOD9215549
Probable space group: C 2/M
;
_chemical_formula_sum "Si O2"
_cell_formula_units_Z 64
_cell_length_a 17.756564
_cell_length_b 22.206888
_cell_length_c 15.424354
_cell_angle_alpha 90.000000
_cell_angle_beta 23.372671
_cell_angle_gamma 90.000000
_cell_volume 2412.830801
_symmetry_space_group_name_H-M "C 2/M"
_symmetry_group_IT_number 12
_symmetry_cell_setting 'monoclinic'
loop_
_space_group_symop_operation_xyz
x,y,z
-x,y,-z
-x,-y,-z
x,-y,z
1/2+x,1/2+y,z
1/2-x,1/2+y,-z
1/2-x,1/2-y,-z
1/2+x,1/2-y,z
loop_
_atom_site_type_symbol
_atom_site_label
_atom_site_fract_x
_atom_site_fract_y
_atom_site_fract_z
Si Si1 0.787520 0.934374 0.188958
Si Si2 0.866310 0.359309 0.881202
Si Si3 0.276625 0.804349 0.745424
Si Si4 0.647651 0.821791 0.921196
Si Si5 0.319336 0.932715 0.504458
Si Si6 0.733466 0.066525 0.746108
Si Si7 0.581096 0.629164 0.610462
Si Si8 0.154002 0.263162 0.508335
O O1 0.778136 0.868670 0.156191
O O2 0.673094 0.926144 0.399574
O O3 0.740826 0.000000 0.198664
O O4 0.000000 0.938839 0.000000
O O5 0.966423 0.421127 0.750270
O O6 0.969665 0.306017 0.717415
O O7 0.945132 0.343233 0.893054
O O8 0.641852 0.367593 0.128382
O O9 0.500000 0.803894 0.500000
O O10 0.220803 0.745182 0.855913
O O11 0.220300 0.792165 0.702776
O O12 0.786644 0.876643 0.749674
O O13 0.500000 0.817029 0.000000
O O14 0.190629 0.886120 0.585662
O O15 0.249460 0.000000 0.560362
O O16 0.825982 0.081111 0.554835
O O17 0.791000 0.000000 0.714433
O O18 0.500000 0.065461 0.000000
O O19 0.608345 0.693878 0.534004
O O20 0.250000 0.250000 0.500000
#
# Coordination Sequence:
#
# PCOD9215549 Si02
#       8
#     8   8   8   8   8   8   8   8
#     4  10  23  46  72  98 132 182 237 291 363 441
#     4  12  26  43  72 107 144 186 241 305 369 444
#     4  12  24  41  70 101 142 180 234 297 360 430
#     4  11  23  41  67  99 139 185 235 294 349 424
#     4  11  24  46  71 100 143 189 239 299 368 441
#     4  10  22  41  67  97 139 191 240 286 353 428
#     4  12  24  43  71 101 145 184 242 297 369 436
#     4  12  23  45  71 103 141 194 236 298 378 438
#
# _framework density 26.524858999999999
#
# number of rings (size 3 to 8) (size 9 to 14) (size 15 to 20)
#    0.000    0.750    3.750    4.125    0.000    4.750 
#    0.000    0.625    0.000    0.000    0.000    0.000 
#    0.000    0.000    0.000    0.000    0.000    0.000 
#
# Total GULP energy -178869.499070 kJ/mol
# GULP energy per Si atom -5589.671846 kJ/mol
# Density = 2.646449 g / cm^3
# Si number density = 26.524859 Si / 1000 Ang^3
#
#
#
# Elastic Constant Matrix: (Units=GPa)
#
#
# Indices 1 2 3 4 5 6 
#
# 1 74.5474 16.9855 9.6449 -0.0975 12.1696 0.0097
# 2 16.9855 210.8667 27.7927 0.0418 -3.4433 0.0310
# 3 9.6449 27.7927 117.1693 -0.2169 0.4241 0.0854
# 4 -0.0975 0.0418 -0.2169 59.8062 0.1287 5.0644
# 5 12.1696 -3.4433 0.4241 0.1287 47.6594 -0.0220
# 6 0.0097 0.0310 0.0854 5.0644 -0.0220 22.0524
#
#
#
# Elastic Compliance Matrix: (Units=1/GPa)
#
#
# Indices 1 2 3 4 5 6 
#
# 1 0.014395 -0.001101 -0.000910 0.000030 -0.003747 -0.000012
# 2 -0.001101 0.004986 -0.001094 -0.000011 0.000651 0.000001
# 3 -0.000910 -0.001094 0.008869 0.000035 0.000074 -0.000040
# 4 0.000030 -0.000011 0.000035 0.017053 -0.000057 -0.003916
# 5 -0.003747 0.000651 0.000074 -0.000057 0.021986 0.000035
# 6 -0.000012 0.000001 -0.000040 -0.003916 0.000035 0.046246
#
#
# Mechanical properties :
#
#
# Convention : Reuss Voigt Hill
#
# Bulk Modulus (GPa) = 45.37450 56.82550 51.10000
# Shear Modulus (GPa) = 39.34199 49.11429 44.22814
#
# Velocity S-wave (km/s) = 3.85543 4.30773 4.08784
# Velocity P-wave (km/s) = 6.07969 6.79794 6.44882
#
# Compressibility (1/GPa) = 0.02203881
#
# Stress axis : x y z
#
# Youngs Moduli (GPa) = 69.47053 200.56648 112.75219
#
# Poissons Ratio (x) = 0.22077 0.10263
# Poissons Ratio (y) = 0.07647 0.12340
# Poissons Ratio (z) = 0.06323 0.21951
#
# Static dielectric constant tensor:
#      x y z
#    x 2.183670 -0.000060 -0.051700 
#    y -0.000060 2.123860 0.000120 
#    z -0.051700 0.000120 2.123400 
# 
# From -- ./inp_files/286430.got.cif
#   From: 2010.05.17/outbox.cif.g08.bks.cpg/sg12_144_cif.got.tgz:286430.got - 2010.06.03 13:09:07.
