data_PCOD9215444
_publ_section_title
;
Structure prediction by ZEFSAII (Michael W. Deem and Ramdas Pophale) SiO2 
 PCOD9215444
Probable space group: C 2/M
;
_chemical_formula_sum "Si O2"
_cell_formula_units_Z 56
_cell_length_a 9.211479
_cell_length_b 13.422856
_cell_length_c 20.512956
_cell_angle_alpha 90.000000
_cell_angle_beta 91.171735
_cell_angle_gamma 90.000000
_cell_volume 2535.780877
_symmetry_space_group_name_H-M "C 2/M"
_symmetry_group_IT_number 12
_symmetry_cell_setting 'monoclinic'
loop_
_space_group_symop_operation_xyz
x,y,z
-x,y,-z
-x,-y,-z
x,-y,z
1/2+x,1/2+y,z
1/2-x,1/2+y,-z
1/2-x,1/2-y,-z
1/2+x,1/2-y,z
loop_
_atom_site_type_symbol
_atom_site_label
_atom_site_fract_x
_atom_site_fract_y
_atom_site_fract_z
Si Si1 0.963466 0.379962 0.798765
Si Si2 0.883989 0.879922 0.897084
Si Si3 0.432940 0.205026 0.067914
Si Si4 0.956762 0.115487 0.634573
Si Si5 0.884480 0.284564 0.544800
Si Si6 0.223095 0.120320 0.246407
Si Si7 0.719784 0.116787 0.322221
O O1 0.960803 0.500000 0.802960
O O2 0.839879 0.345232 0.747791
O O3 0.973848 0.341847 0.872172
O O4 0.114200 0.346938 0.766822
O O5 0.734619 0.830115 0.924771
O O6 0.872595 0.861001 0.818862
O O7 0.026381 0.822627 0.924695
O O8 0.883326 0.000000 0.907745
O O9 0.500000 0.171832 0.000000
O O10 0.959551 0.184518 0.572314
O O11 0.834159 0.151350 0.683821
O O12 0.107790 0.125128 0.673522
O O13 0.934446 0.000000 0.617414
O O14 0.750000 0.250000 0.500000
O O15 0.841340 0.341318 0.610331
O O16 0.000000 0.340073 0.500000
O O17 0.226712 0.000000 0.250690
O O18 0.681001 0.000000 0.322522
#
# Coordination Sequence:
#
# PCOD9215444 Si02
#       7
#     8   8   8   8   8   8   8
#     4   9  20  39  65  97 129 168 219 275 331 392
#     4  10  23  43  65  97 140 178 228 289 341 408
#     4  11  23  42  68 101 138 184 233 278 348 416
#     4  10  22  41  66  91 124 165 210 261 322 388
#     4  12  26  43  61  92 128 164 207 256 322 391
#     4   8  17  36  61  89 120 162 208 260 325 380
#     4  10  23  43  65  93 126 163 217 272 319 386
#
# _framework density 22.083929000000001
#
# number of rings (size 3 to 8) (size 9 to 14) (size 15 to 20)
#    0.000    2.000    1.429    1.714    4.000    3.714 
#    0.000    2.857    0.000    0.000    0.000    0.000 
#    0.000    0.000    0.000    0.000    0.000    0.000 
#
# Total GULP energy -156382.419558 kJ/mol
# GULP energy per Si atom -5585.086413 kJ/mol
# Density = 2.203366 g / cm^3
# Si number density = 22.083929 Si / 1000 Ang^3
#
#
#
# Elastic Constant Matrix: (Units=GPa)
#
#
# Indices 1 2 3 4 5 6 
#
# 1 31.4500 25.9807 23.9517 0.0000 3.7960 0.0000
# 2 25.9807 90.8010 28.5614 0.0000 7.1378 0.0000
# 3 23.9517 28.5614 123.8436 0.0000 -10.2030 0.0000
# 4 0.0000 0.0000 0.0000 21.9669 0.0000 1.6606
# 5 3.7960 7.1378 -10.2030 0.0000 26.1977 0.0000
# 6 0.0000 0.0000 0.0000 1.6606 0.0000 26.0866
#
#
#
# Elastic Compliance Matrix: (Units=1/GPa)
#
#
# Indices 1 2 3 4 5 6 
#
# 1 0.046829 -0.010623 -0.007157 0.000000 -0.006679 0.000000
# 2 -0.010623 0.014807 -0.001618 0.000000 -0.003125 0.000000
# 3 -0.007157 -0.001618 0.010284 0.000000 0.005483 0.000000
# 4 0.000000 0.000000 0.000000 0.045743 0.000000 -0.002912
# 5 -0.006679 -0.003125 0.005483 0.000000 0.042126 0.000000
# 6 0.000000 0.000000 0.000000 -0.002912 0.000000 0.038519
#
#
# Mechanical properties :
#
#
# Convention : Reuss Voigt Hill
#
# Bulk Modulus (GPa) = 30.18955 44.78692 37.48824
# Shear Modulus (GPa) = 20.14952 26.02363 23.08658
#
# Velocity S-wave (km/s) = 3.02388 3.43650 3.23677
# Velocity P-wave (km/s) = 5.08841 6.00587 5.56607
#
# Compressibility (1/GPa) = 0.03312404
#
# Stress axis : x y z
#
# Youngs Moduli (GPa) = 21.35441 67.53505 97.24055
#
# Poissons Ratio (x) = 0.71741 0.69597
# Poissons Ratio (y) = 0.22684 0.15733
# Poissons Ratio (z) = 0.15284 0.10927
#
# Static dielectric constant tensor:
#      x y z
#    x 1.797900 0.000000 -0.007660 
#    y 0.000000 1.860740 0.000000 
#    z -0.007660 0.000000 1.779610 
# 
# From -- ./inp_files/300176.got.cif
#   From: 2010.05.17/outbox.cif.g08.bks.cpg/sg12_151_cif.got.tgz:300176.got - 2010.06.03 13:09:07.
