data_PCOD9215613
_publ_section_title
;
Structure prediction by ZEFSAII (Michael W. Deem and Ramdas Pophale) SiO2 
 PCOD9215613
Probable space group: C 2/M
;
_chemical_formula_sum "Si O2"
_cell_formula_units_Z 40
_cell_length_a 14.603969
_cell_length_b 14.417678
_cell_length_c 8.943837
_cell_angle_alpha 90.000000
_cell_angle_beta 87.918512
_cell_angle_gamma 90.000000
_cell_volume 1881.929932
_symmetry_space_group_name_H-M "C 2/M"
_symmetry_group_IT_number 12
_symmetry_cell_setting 'monoclinic'
loop_
_space_group_symop_operation_xyz
x,y,z
-x,y,-z
-x,-y,-z
x,-y,z
1/2+x,1/2+y,z
1/2-x,1/2+y,-z
1/2-x,1/2-y,-z
1/2+x,1/2-y,z
loop_
_atom_site_type_symbol
_atom_site_label
_atom_site_fract_x
_atom_site_fract_y
_atom_site_fract_z
Si Si1 0.024507 0.727896 0.824216
Si Si2 0.760183 0.746919 0.176374
Si Si3 0.266620 0.389721 0.566820
Si Si4 0.062763 0.897132 0.641580
Si Si5 0.129284 0.610485 0.326694
O O1 0.133663 0.721433 0.805176
O O2 0.013294 0.832208 0.763425
O O3 0.963312 0.660962 0.723152
O O4 0.000000 0.715823 0.000000
O O5 0.714720 0.669658 0.286717
O O6 0.709917 0.842491 0.224945
O O7 0.750000 0.750000 0.000000
O O8 0.276291 0.500000 0.593203
O O9 0.341947 0.362609 0.437059
O O10 0.167551 0.373973 0.493362
O O11 0.000000 0.902761 0.500000
O O12 0.079029 0.000000 0.702240
O O13 0.122221 0.500000 0.305621
#
# Coordination Sequence:
#
# PCOD9215613 Si02
#       5
#     8   8   8   8   8
#     4  12  26  42  69 105 146 185 237 287 357 422
#     4  12  25  44  69 100 143 187 229 288 358 418
#     4  10  23  45  73 102 135 183 242 295 353 416
#     4  10  22  41  69 100 134 179 234 296 352 412
#     4  11  25  47  71 102 142 188 236 291 352 420
#
# _framework density 21.254778000000002
#
# number of rings (size 3 to 8) (size 9 to 14) (size 15 to 20)
#    0.000    1.000    4.000    1.800    2.800    2.400 
#    0.000    2.000    0.000    0.000    0.000    0.000 
#    0.000    0.000    0.000    0.000    0.000    0.000 
#
# Total GULP energy -111474.710614 kJ/mol
# GULP energy per Si atom -5573.735531 kJ/mol
# Density = 2.120640 g / cm^3
# Si number density = 21.254778 Si / 1000 Ang^3
#
#
#
# Elastic Constant Matrix: (Units=GPa)
#
#
# Indices 1 2 3 4 5 6 
#
# 1 145.2014 39.8649 27.3842 0.0000 17.0583 0.0000
# 2 39.8649 129.7940 70.6158 0.0000 -0.3464 0.0000
# 3 27.3842 70.6158 103.2101 0.0000 17.6048 0.0000
# 4 0.0000 0.0000 0.0000 11.0698 0.0000 -4.2109
# 5 17.0583 -0.3464 17.6048 0.0000 26.2711 0.0000
# 6 0.0000 0.0000 0.0000 -4.2109 0.0000 11.1876
#
#
#
# Elastic Compliance Matrix: (Units=1/GPa)
#
#
# Indices 1 2 3 4 5 6 
#
# 1 0.008259 -0.003058 0.000929 0.000000 -0.006026 0.000000
# 2 -0.003058 0.014487 -0.010694 0.000000 0.009343 0.000000
# 3 0.000929 -0.010694 0.019066 0.000000 -0.013520 0.000000
# 4 0.000000 0.000000 0.000000 0.105432 0.000000 0.039684
# 5 -0.006026 0.009343 -0.013520 0.000000 0.051161 0.000000
# 6 0.000000 0.000000 0.000000 0.039684 0.000000 0.104321
#
#
# Mechanical properties :
#
#
# Convention : Reuss Voigt Hill
#
# Bulk Modulus (GPa) = 61.86266 72.65947 67.26107
# Shear Modulus (GPa) = 14.98075 25.72840 20.35457
#
# Velocity S-wave (km/s) = 2.65772 3.48296 3.09794
# Velocity P-wave (km/s) = 6.21180 7.10169 6.67160
#
# Compressibility (1/GPa) = 0.01616484
#
# Stress axis : x y z
#
# Youngs Moduli (GPa) = 121.07516 69.02719 52.45020
#
# Poissons Ratio (x) = 0.21110 -0.04871
# Poissons Ratio (y) = 0.37027 0.56092
# Poissons Ratio (z) = -0.11245 0.73819
#
# Static dielectric constant tensor:
#      x y z
#    x 1.864160 0.000000 0.044470 
#    y 0.000000 1.822360 0.000000 
#    z 0.044470 0.000000 1.749830 
# 
# From -- ./inp_files/59106.got.cif
#   From: 2010.05.17/outbox.cif.g08.bks.cpg/sg12_30_cif.got.tgz:59106.got - 2010.06.03 13:09:07.
