data_PCOD9215155
_publ_section_title
;
Structure prediction by ZEFSAII (Michael W. Deem and Ramdas Pophale) SiO2 
 PCOD9215155
Probable space group: C 2/M
;
_chemical_formula_sum "Si O2"
_cell_formula_units_Z 40
_cell_length_a 11.393404
_cell_length_b 18.905989
_cell_length_c 14.472444
_cell_angle_alpha 90.000000
_cell_angle_beta 37.986200
_cell_angle_gamma 90.000000
_cell_volume 1918.681273
_symmetry_space_group_name_H-M "C 2/M"
_symmetry_group_IT_number 12
_symmetry_cell_setting 'monoclinic'
loop_
_space_group_symop_operation_xyz
x,y,z
-x,y,-z
-x,-y,-z
x,-y,z
1/2+x,1/2+y,z
1/2-x,1/2+y,-z
1/2-x,1/2-y,-z
1/2+x,1/2-y,z
loop_
_atom_site_type_symbol
_atom_site_label
_atom_site_fract_x
_atom_site_fract_y
_atom_site_fract_z
Si Si1 0.091569 0.811769 0.182234
Si Si2 0.950229 0.919699 0.426660
Si Si3 0.291007 0.665546 0.087513
Si Si4 0.813115 0.280660 0.562623
Si Si5 0.957536 0.580252 0.389720
O O1 0.208945 0.745314 0.148328
O O2 0.035665 0.866248 0.297744
O O3 0.893085 0.780358 0.261696
O O4 0.198977 0.846449 0.029206
O O5 0.720322 0.920581 0.569702
O O6 0.000000 0.902432 0.500000
O O7 0.012616 0.000000 0.365524
O O8 0.144640 0.613593 0.229031
O O9 0.500000 0.657725 0.000000
O O10 0.750000 0.250000 0.500000
O O11 0.870196 0.362560 0.514080
O O12 0.000000 0.250631 0.500000
O O13 0.988280 0.500000 0.402607
#
# Coordination Sequence:
#
# PCOD9215155 Si02
#       5
#     8   8   8   8   8
#     4  10  23  38  61  93 127 169 215 272 317 392
#     4   9  20  40  66  94 125 163 216 275 330 389
#     4  11  23  41  58  89 131 169 217 262 320 388
#     4  11  22  40  67  97 125 168 217 273 328 382
#     4  10  22  41  62  93 129 165 212 266 323 389
#
# _framework density 20.847653000000001
#
# number of rings (size 3 to 8) (size 9 to 14) (size 15 to 20)
#    0.000    1.800    2.000    1.200    0.000    8.000 
#    0.000    4.000    0.000    4.200    0.000    0.000 
#    0.000    0.000    0.000    0.000    0.000    0.000 
#
# Total GULP energy -111488.045940 kJ/mol
# GULP energy per Si atom -5574.402297 kJ/mol
# Density = 2.080020 g / cm^3
# Si number density = 20.847653 Si / 1000 Ang^3
#
#
#
# Elastic Constant Matrix: (Units=GPa)
#
#
# Indices 1 2 3 4 5 6 
#
# 1 102.9956 22.8988 7.0504 0.0020 -6.8435 -0.0026
# 2 22.8988 119.5381 19.3272 -0.0016 -5.4012 -0.0009
# 3 7.0504 19.3272 74.9397 -0.0029 -8.0563 -0.0023
# 4 0.0020 -0.0016 -0.0029 25.8863 0.0016 1.3419
# 5 -6.8435 -5.4012 -8.0563 0.0016 23.1112 0.0010
# 6 -0.0026 -0.0009 -0.0023 1.3419 0.0010 12.5410
#
#
#
# Elastic Compliance Matrix: (Units=1/GPa)
#
#
# Indices 1 2 3 4 5 6 
#
# 1 0.010299 -0.001821 -0.000226 -0.000001 0.002545 0.000002
# 2 -0.001821 0.009090 -0.002080 0.000000 0.000860 0.000000
# 3 -0.000226 -0.002080 0.014381 0.000001 0.004460 0.000002
# 4 -0.000001 0.000000 0.000001 0.038846 -0.000002 -0.004157
# 5 0.002545 0.000860 0.004460 -0.000002 0.045779 -0.000002
# 6 0.000002 0.000000 0.000002 -0.004157 -0.000002 0.080183
#
#
# Mechanical properties :
#
#
# Convention : Reuss Voigt Hill
#
# Bulk Modulus (GPa) = 39.19279 44.00290 41.59785
# Shear Modulus (GPa) = 23.21939 28.85414 26.03677
#
# Velocity S-wave (km/s) = 3.34093 3.72431 3.53782
# Velocity P-wave (km/s) = 5.80714 6.29657 6.05680
#
# Compressibility (1/GPa) = 0.02551489
#
# Stress axis : x y z
#
# Youngs Moduli (GPa) = 97.10014 110.01517 69.53461
#
# Poissons Ratio (x) = 0.20038 0.01568
# Poissons Ratio (y) = 0.17685 0.14466
# Poissons Ratio (z) = 0.02190 0.22888
#
# Static dielectric constant tensor:
#      x y z
#    x 1.856780 0.000000 0.012560 
#    y 0.000000 1.794760 0.000000 
#    z 0.012560 0.000000 1.778410 
# 
# From -- ./inp_files/205922.got.cif
#   From: 2010.05.17/outbox.cif.g08.bks.cpg/sg12_103_cif.got.tgz:205922.got - 2010.06.03 13:09:07.
