data_PCOD9215720
_publ_section_title
;
Structure prediction by ZEFSAII (Michael W. Deem and Ramdas Pophale) SiO2 
 PCOD9215720
Probable space group: C 2/M
;
_chemical_formula_sum "Si O2"
_cell_formula_units_Z 48
_cell_length_a 18.228817
_cell_length_b 14.670035
_cell_length_c 17.990557
_cell_angle_alpha 90.000000
_cell_angle_beta 150.531879
_cell_angle_gamma 90.000000
_cell_volume 2366.713544
_symmetry_space_group_name_H-M "C 2/M"
_symmetry_group_IT_number 12
_symmetry_cell_setting 'monoclinic'
loop_
_space_group_symop_operation_xyz
x,y,z
-x,y,-z
-x,-y,-z
x,-y,z
1/2+x,1/2+y,z
1/2-x,1/2+y,-z
1/2-x,1/2-y,-z
1/2+x,1/2-y,z
loop_
_atom_site_type_symbol
_atom_site_label
_atom_site_fract_x
_atom_site_fract_y
_atom_site_fract_z
Si Si1 0.672312 0.825755 0.979520
Si Si2 0.134872 0.289646 0.670543
Si Si3 0.417062 0.603438 0.305042
Si Si4 0.009508 0.396075 0.698853
Si Si5 0.256574 0.108758 0.576925
Si Si6 0.088317 0.710758 0.149705
O O1 0.788114 0.880916 0.131310
O O2 0.750000 0.750000 0.000000
O O3 0.593110 0.892177 0.851521
O O4 0.553983 0.769731 0.924530
O O5 0.114457 0.181140 0.663140
O O6 0.099925 0.336787 0.718644
O O7 0.301435 0.290662 0.782775
O O8 0.000000 0.323591 0.500000
O O9 0.414873 0.500000 0.331420
O O10 0.580144 0.623442 0.415569
O O11 0.996925 0.500000 0.660567
O O12 0.847625 0.359172 0.583678
O O13 0.315005 0.151287 0.706142
O O14 0.281453 0.000000 0.602474
O O15 0.000000 0.668338 0.000000
#
# Coordination Sequence:
#
# PCOD9215720 Si02
#       6
#     8   8   8   8   8   8
#     4  11  21  39  65  89 118 162 203 250 302 358
#     4  12  24  40  60  90 123 167 200 246 311 359
#     4  11  22  38  60  91 125 155 197 247 310 367
#     4  10  22  42  64  89 122 161 210 255 295 356
#     4   9  21  38  60  90 121 158 204 253 302 360
#     4  11  21  36  56  89 123 157 201 245 299 367
#
# _framework density 20.281286999999999
#
# number of rings (size 3 to 8) (size 9 to 14) (size 15 to 20)
#    0.000    1.333    5.000    0.500    0.000    4.333 
#    0.000    0.000    0.000    5.500    0.000    0.000 
#    0.000    0.000    0.000    0.000    0.000    0.000 
#
# Total GULP energy -133680.417205 kJ/mol
# GULP energy per Si atom -5570.017384 kJ/mol
# Density = 2.023513 g / cm^3
# Si number density = 20.281287 Si / 1000 Ang^3
#
#
#
# Elastic Constant Matrix: (Units=GPa)
#
#
# Indices 1 2 3 4 5 6 
#
# 1 163.5110 33.0787 43.7906 -0.0003 26.3758 0.0003
# 2 33.0787 43.3873 -8.8974 -0.0003 14.4062 0.0004
# 3 43.7906 -8.8974 102.2558 -0.0010 13.2409 0.0001
# 4 -0.0003 -0.0003 -0.0010 21.0398 -0.0008 -9.2745
# 5 26.3758 14.4062 13.2409 -0.0008 37.8168 0.0004
# 6 0.0003 0.0004 0.0001 -9.2745 0.0004 36.2125
#
#
#
# Elastic Compliance Matrix: (Units=1/GPa)
#
#
# Indices 1 2 3 4 5 6 
#
# 1 0.009001 -0.007010 -0.004187 0.000000 -0.002141 0.000000
# 2 -0.007010 0.033308 0.007238 0.000000 -0.010334 0.000000
# 3 -0.004187 0.007238 0.012760 0.000001 -0.004305 0.000000
# 4 0.000000 0.000000 0.000001 0.053578 0.000001 0.013722
# 5 -0.002141 -0.010334 -0.004305 0.000001 0.033380 0.000000
# 6 0.000000 0.000000 0.000000 0.013722 0.000000 0.031129
#
#
# Mechanical properties :
#
#
# Convention : Reuss Voigt Hill
#
# Bulk Modulus (GPa) = 21.20851 49.45533 35.33192
# Shear Modulus (GPa) = 25.40772 35.09263 30.25018
#
# Velocity S-wave (km/s) = 3.54328 4.16420 3.86622
# Velocity P-wave (km/s) = 5.21725 6.89626 6.11466
#
# Compressibility (1/GPa) = 0.04715088
#
# Stress axis : x y z
#
# Youngs Moduli (GPa) = 111.10248 30.02269 78.37149
#
# Poissons Ratio (x) = 0.21046 0.32816
# Poissons Ratio (y) = 0.77882 -0.56727
# Poissons Ratio (z) = 0.46521 -0.21731
#
# Static dielectric constant tensor:
#      x y z
#    x 1.727130 0.000000 -0.085440 
#    y 0.000000 1.703680 0.000000 
#    z -0.085440 0.000000 1.399730 
# 
# From -- ./inp_files/278219.got.cif
#   From: 2010.05.17/outbox.cif.g08.bks.cpg/sg12_140_cif.got.tgz:278219.got - 2010.06.03 13:09:07.
