data_PCOD9215189
_publ_section_title
;
Structure prediction by ZEFSAII (Michael W. Deem and Ramdas Pophale) SiO2 
 PCOD9215189
Probable space group: C 2/M
;
_chemical_formula_sum "Si O2"
_cell_formula_units_Z 40
_cell_length_a 8.500345
_cell_length_b 14.012741
_cell_length_c 26.253793
_cell_angle_alpha 90.000000
_cell_angle_beta 144.628618
_cell_angle_gamma 90.000000
_cell_volume 1810.238174
_symmetry_space_group_name_H-M "C 2/M"
_symmetry_group_IT_number 12
_symmetry_cell_setting 'monoclinic'
loop_
_space_group_symop_operation_xyz
x,y,z
-x,y,-z
-x,-y,-z
x,-y,z
1/2+x,1/2+y,z
1/2-x,1/2+y,-z
1/2-x,1/2-y,-z
1/2+x,1/2-y,z
loop_
_atom_site_type_symbol
_atom_site_label
_atom_site_fract_x
_atom_site_fract_y
_atom_site_fract_z
Si Si1 0.450479 0.713864 0.934049
Si Si2 0.632079 0.602540 0.826168
Si Si3 0.889906 0.605148 0.240480
Si Si4 0.807942 0.703657 0.592115
Si Si5 0.738299 0.613904 0.363974
O O1 0.290375 0.813442 0.894726
O O2 0.262189 0.653870 0.846670
O O3 0.500000 0.660817 0.000000
O O4 0.750000 0.750000 0.000000
O O5 0.774981 0.500000 0.866446
O O6 0.350876 0.595301 0.782020
O O7 0.535837 0.622070 0.743082
O O8 0.994809 0.500000 0.254835
O O9 0.107271 0.665596 0.329379
O O10 0.500000 0.673903 0.500000
O O11 0.807994 0.818922 0.599183
O O12 0.014019 0.660345 0.604254
O O13 0.784321 0.500000 0.384414
#
# Coordination Sequence:
#
# PCOD9215189 Si02
#       5
#     8   8   8   8   8
#     4  12  23  37  62  89 119 158 203 259 315 377
#     4   9  19  39  63  84 116 165 208 246 310 383
#     4  10  22  41  63  88 126 165 206 261 316 374
#     4  11  22  41  70  97 130 172 216 265 322 386
#     4  10  22  41  66  95 131 172 215 265 321 383
#
# _framework density 22.096540000000001
#
# number of rings (size 3 to 8) (size 9 to 14) (size 15 to 20)
#    0.000    1.600    4.000    2.400    0.000    3.600 
#    0.000    2.000    0.000    0.000    0.000    0.000 
#    0.000    0.000    0.000    0.000    0.000    0.000 
#
# Total GULP energy -111526.383392 kJ/mol
# GULP energy per Si atom -5576.319170 kJ/mol
# Density = 2.204625 g / cm^3
# Si number density = 22.096540 Si / 1000 Ang^3
#
#
#
# Elastic Constant Matrix: (Units=GPa)
#
#
# Indices 1 2 3 4 5 6 
#
# 1 29.6004 21.0640 19.8017 0.0001 -8.3804 0.0000
# 2 21.0640 145.7081 47.1617 0.0001 -4.7852 0.0000
# 3 19.8017 47.1617 126.4010 0.0003 -19.1614 0.0001
# 4 0.0001 0.0001 0.0003 3.5022 0.0001 6.1241
# 5 -8.3804 -4.7852 -19.1614 0.0001 26.9297 0.0000
# 6 0.0000 0.0000 0.0001 6.1241 0.0000 21.7371
#
#
#
# Elastic Compliance Matrix: (Units=1/GPa)
#
#
# Indices 1 2 3 4 5 6 
#
# 1 0.042165 -0.004684 -0.003357 -0.000001 0.009901 0.000000
# 2 -0.004684 0.008340 -0.002661 0.000000 -0.001869 0.000000
# 3 -0.003357 -0.002661 0.010313 -0.000002 0.005820 0.000000
# 4 -0.000001 0.000000 -0.000002 0.562798 -0.000002 -0.158561
# 5 0.009901 -0.001869 0.005820 -0.000002 0.044024 0.000001
# 6 0.000000 0.000000 0.000000 -0.158561 0.000001 0.090677
#
#
# Mechanical properties :
#
#
# Convention : Reuss Voigt Hill
#
# Bulk Modulus (GPa) = 25.37216 53.08490 39.22853
# Shear Modulus (GPa) = 6.30629 24.67927 15.49278
#
# Velocity S-wave (km/s) = 1.69120 3.34561 2.65078
# Velocity P-wave (km/s) = 3.91419 6.24503 5.21159
#
# Compressibility (1/GPa) = 0.03941328
#
# Stress axis : x y z
#
# Youngs Moduli (GPa) = 23.71630 119.90148 96.96936
#
# Poissons Ratio (x) = 0.56159 0.32553
# Poissons Ratio (y) = 0.11108 0.25808
# Poissons Ratio (z) = 0.07962 0.31911
#
# Static dielectric constant tensor:
#      x y z
#    x 1.880460 0.000000 -0.029820 
#    y 0.000000 1.828570 0.000000 
#    z -0.029820 0.000000 1.840240 
# 
# From -- ./inp_files/194670.got.cif
#   From: 2010.05.17/outbox.cif.g08.bks.cpg/sg12_98_cif.got.tgz:194670.got - 2010.06.03 13:09:07.
