data_PCOD9215226
_publ_section_title
;
Structure prediction by ZEFSAII (Michael W. Deem and Ramdas Pophale) SiO2 
 PCOD9215226
Probable space group: C 2/M
;
_chemical_formula_sum "Si O2"
_cell_formula_units_Z 40
_cell_length_a 17.746748
_cell_length_b 21.673967
_cell_length_c 11.177932
_cell_angle_alpha 90.000000
_cell_angle_beta 148.806715
_cell_angle_gamma 90.000000
_cell_volume 2226.829687
_symmetry_space_group_name_H-M "C 2/M"
_symmetry_group_IT_number 12
_symmetry_cell_setting 'monoclinic'
loop_
_space_group_symop_operation_xyz
x,y,z
-x,y,-z
-x,-y,-z
x,-y,z
1/2+x,1/2+y,z
1/2-x,1/2+y,-z
1/2-x,1/2-y,-z
1/2+x,1/2-y,z
loop_
_atom_site_type_symbol
_atom_site_label
_atom_site_fract_x
_atom_site_fract_y
_atom_site_fract_z
Si Si1 0.000000 0.788796 0.000000
Si Si2 0.500000 0.778158 0.500000
Si Si3 0.545304 0.000000 0.423600
Si Si4 0.690820 0.366862 0.439780
Si Si5 0.002928 0.365187 0.736860
Si Si6 0.738556 0.804099 0.219664
Si Si7 0.645974 0.500000 0.276332
O O1 0.928270 0.830040 0.799145
O O2 0.872470 0.745938 0.876694
O O3 0.498950 0.821803 0.614849
O O4 0.639463 0.733837 0.684874
O O5 0.500000 0.000000 0.500000
O O6 0.489537 0.936708 0.289625
O O7 0.718380 0.000000 0.632117
O O8 0.692872 0.342693 0.577809
O O9 0.659268 0.438937 0.375206
O O10 0.852258 0.354813 0.604586
O O11 0.140412 0.346917 0.002943
O O12 0.500000 0.500000 0.000000
#
# Coordination Sequence:
#
# PCOD9215226 Si02
#       7
#     4   4   4   8   8   8   4
#     4  12  20  37  66  83 126 166 194 244 298 362
#     4  12  24  39  60  93 128 158 204 244 306 364
#     4  10  22  41  65  88 118 160 205 246 301 359
#     4  11  22  40  66  91 121 161 207 247 299 359
#     4  11  22  41  64  92 122 161 203 251 298 361
#     4  12  24  40  61  92 127 159 200 253 306 356
#     4  10  22  41  63  92 116 158 207 250 295 355
#
# _framework density 17.962757
#
# number of rings (size 3 to 8) (size 9 to 14) (size 15 to 20)
#    0.000    0.800    6.000    2.400    0.000    0.800 
#    3.600    3.000    0.000    1.200    0.000    0.000 
#    0.000    0.000    0.000    0.000    0.000    0.000 
#
# Total GULP energy -111788.651521 kJ/mol
# GULP energy per Si atom -5589.432576 kJ/mol
# Density = 1.792187 g / cm^3
# Si number density = 17.962757 Si / 1000 Ang^3
#
#
#
# Elastic Constant Matrix: (Units=GPa)
#
#
# Indices 1 2 3 4 5 6 
#
# 1 27.1781 33.4942 11.8343 0.0000 -3.7062 0.0000
# 2 33.4942 129.3540 65.6652 0.0000 -1.9436 0.0000
# 3 11.8343 65.6652 122.9112 0.0000 -15.5250 0.0000
# 4 0.0000 0.0000 0.0000 441.8312 0.0000 -769.4739
# 5 -3.7062 -1.9436 -15.5250 0.0000 34.7249 0.0000
# 6 0.0000 0.0000 0.0000 -769.4739 0.0000 1428.6284
#
#
#
# Elastic Compliance Matrix: (Units=1/GPa)
#
#
# Indices 1 2 3 4 5 6 
#
# 1 0.056491 -0.016758 0.004406 0.000000 0.007061 0.000000
# 2 -0.016758 0.015719 -0.007312 0.000000 -0.004178 0.000000
# 3 0.004406 -0.007312 0.012322 0.000000 0.005570 0.000000
# 4 0.000000 0.000000 0.000000 0.036517 0.000000 0.019668
# 5 0.007061 -0.004178 0.005570 0.000000 0.031808 0.000000
# 6 0.000000 0.000000 0.000000 0.019668 0.000000 0.011294
#
#
# Mechanical properties :
#
#
# Convention : Reuss Voigt Hill
#
# Bulk Modulus (GPa) = 22.12226 55.71451 38.91838
# Shear Modulus (GPa) = 22.87840 392.26687 207.57264
#
# Velocity S-wave (km/s) = 3.57271 14.79365 10.76142
# Velocity P-wave (km/s) = 5.41861 17.96905 13.27117
#
# Compressibility (1/GPa) = 0.04520335
#
# Stress axis : x y z
#
# Youngs Moduli (GPa) = 17.70186 63.61704 81.15710
#
# Poissons Ratio (x) = 1.06609 -0.35755
# Poissons Ratio (y) = 0.29665 0.59343
# Poissons Ratio (z) = -0.07799 0.46517
#
# Static dielectric constant tensor:
#      x y z
#    x 1.602070 0.000000 0.008540 
#    y 0.000000 1.605460 0.000000 
#    z 0.008540 0.000000 1.593430 
# 
# From -- ./inp_files/77823.got.cif
#   From: 2010.05.17/outbox.cif.g08.bks.cpg/sg12_39_cif.got.tgz:77823.got - 2010.06.03 13:09:07.
