data_PCOD9215218
_publ_section_title
;
Structure prediction by ZEFSAII (Michael W. Deem and Ramdas Pophale) SiO2 
 PCOD9215218
Probable space group: C 2/M
;
_chemical_formula_sum "Si O2"
_cell_formula_units_Z 40
_cell_length_a 11.012233
_cell_length_b 14.553326
_cell_length_c 23.012285
_cell_angle_alpha 90.000000
_cell_angle_beta 145.634534
_cell_angle_gamma 90.000000
_cell_volume 2081.794873
_symmetry_space_group_name_H-M "C 2/M"
_symmetry_group_IT_number 12
_symmetry_cell_setting 'monoclinic'
loop_
_space_group_symop_operation_xyz
x,y,z
-x,y,-z
-x,-y,-z
x,-y,z
1/2+x,1/2+y,z
1/2-x,1/2+y,-z
1/2-x,1/2-y,-z
1/2+x,1/2-y,z
loop_
_atom_site_type_symbol
_atom_site_label
_atom_site_fract_x
_atom_site_fract_y
_atom_site_fract_z
Si Si1 0.713729 0.646885 0.556851
Si Si2 0.372806 0.608512 0.776163
Si Si3 0.625686 0.107170 0.796655
Si Si4 0.545717 0.150160 0.457347
Si Si5 0.766580 0.263150 0.936888
O O1 0.500000 0.605702 0.500000
O O2 0.653786 0.752706 0.518069
O O3 0.800472 0.606625 0.530486
O O4 0.905180 0.638372 0.678537
O O5 0.368112 0.500000 0.760113
O O6 0.306179 0.617380 0.817607
O O7 0.600278 0.655638 0.855414
O O8 0.183842 0.658859 0.665460
O O9 0.681786 0.170545 0.872714
O O10 0.610532 0.000000 0.805849
O O11 0.500000 0.101464 0.500000
O O12 0.750000 0.250000 0.000000
O O13 0.000000 0.280955 0.000000
#
# Coordination Sequence:
#
# PCOD9215218 Si02
#       5
#     8   8   8   8   8
#     4   9  17  32  56  85 119 157 199 242 287 352
#     4  10  22  41  63  90 127 168 208 251 309 379
#     4  10  22  41  64  90 125 169 209 249 309 382
#     4   9  17  32  56  84 120 160 194 238 298 356
#     4  12  24  42  68  93 119 158 207 267 322 368
#
# _framework density 19.214188
#
# number of rings (size 3 to 8) (size 9 to 14) (size 15 to 20)
#    0.000    2.000    2.000    2.400    0.000    2.400 
#    3.600    0.000    0.000    0.000    0.000    0.000 
#    0.000    0.000    0.000    0.000    0.000    0.000 
#
# Total GULP energy -111512.609546 kJ/mol
# GULP energy per Si atom -5575.630477 kJ/mol
# Density = 1.917046 g / cm^3
# Si number density = 19.214188 Si / 1000 Ang^3
#
#
#
# Elastic Constant Matrix: (Units=GPa)
#
#
# Indices 1 2 3 4 5 6 
#
# 1 174.9351 31.9298 77.7950 0.0000 6.3561 0.0000
# 2 31.9298 120.6679 54.4999 0.0000 2.1684 0.0000
# 3 77.7950 54.4999 93.7879 0.0002 10.9523 0.0000
# 4 0.0000 0.0000 0.0002 -23.7651 0.0001 -4.1688
# 5 6.3561 2.1684 10.9523 0.0001 46.0565 0.0000
# 6 0.0000 0.0000 0.0000 -4.1688 0.0000 15.5015
#
#
#
# Elastic Compliance Matrix: (Units=1/GPa)
#
#
# Indices 1 2 3 4 5 6 
#
# 1 0.009244 0.001412 -0.008570 0.000000 0.000696 0.000000
# 2 0.001412 0.011502 -0.007991 0.000000 0.001164 0.000000
# 3 -0.008570 -0.007991 0.022867 0.000000 -0.003879 0.000000
# 4 0.000000 0.000000 0.000000 -0.040183 0.000000 -0.010806
# 5 0.000696 0.001164 -0.003879 0.000000 0.022484 0.000000
# 6 0.000000 0.000000 0.000000 -0.010806 0.000000 0.061604
#
#
# Mechanical properties :
#
#
# Convention : Reuss Voigt Hill
#
# Bulk Modulus (GPa) = 75.09636 79.76005 77.42821
# Shear Modulus (GPa) = 40.89853 22.56965 31.73409
#
# Velocity S-wave (km/s) = 4.61864 3.43101 4.06839
# Velocity P-wave (km/s) = 8.22259 7.56947 7.90278
#
# Compressibility (1/GPa) = 0.01331622
#
# Stress axis : x y z
#
# Youngs Moduli (GPa) = 108.17288 86.94389 43.73103
#
# Poissons Ratio (x) = -0.12275 0.37476
# Poissons Ratio (y) = -0.15273 0.34944
# Poissons Ratio (z) = 0.92701 0.69473
#
# Static dielectric constant tensor:
#      x y z
#    x 1.715750 0.000000 0.003060 
#    y 0.000000 1.755630 0.000000 
#    z 0.003060 0.000000 1.658560 
# 
# From -- ./inp_files/129131.got.cif
#   From: 2010.05.17/outbox.cif.g08.bks.cpg/sg12_65_cif.got.tgz:129131.got - 2010.06.03 13:09:07.
