data_PCOD9215027
_publ_section_title
;
Structure prediction by ZEFSAII (Michael W. Deem and Ramdas Pophale) SiO2 
 PCOD9215027
Probable space group: C 2/M
;
_chemical_formula_sum "Si O2"
_cell_formula_units_Z 40
_cell_length_a 19.549457
_cell_length_b 23.220509
_cell_length_c 5.064311
_cell_angle_alpha 90.000000
_cell_angle_beta 51.423872
_cell_angle_gamma 90.000000
_cell_volume 1797.262644
_symmetry_space_group_name_H-M "C 2/M"
_symmetry_group_IT_number 12
_symmetry_cell_setting 'monoclinic'
loop_
_space_group_symop_operation_xyz
x,y,z
-x,y,-z
-x,-y,-z
x,-y,z
1/2+x,1/2+y,z
1/2-x,1/2+y,-z
1/2-x,1/2-y,-z
1/2+x,1/2-y,z
loop_
_atom_site_type_symbol
_atom_site_label
_atom_site_fract_x
_atom_site_fract_y
_atom_site_fract_z
Si Si1 0.678245 0.653178 0.549851
Si Si2 0.332552 0.830669 0.813231
Si Si3 0.901951 0.267270 0.133858
Si Si4 0.764637 0.434691 0.727049
Si Si5 0.082913 0.062850 0.489764
O O1 0.644488 0.706029 0.803916
O O2 0.740646 0.606632 0.540882
O O3 0.595957 0.616275 0.649597
O O4 0.735550 0.677842 0.169870
O O5 0.351579 0.797250 0.498170
O O6 0.333449 0.898462 0.735699
O O7 0.395285 0.807041 0.891827
O O8 0.000000 0.258521 0.000000
O O9 0.789928 0.500000 0.599441
O O10 0.672509 0.437437 0.105532
O O11 0.000000 0.068352 0.500000
O O12 0.079251 0.000000 0.634104
#
# Coordination Sequence:
#
# PCOD9215027 Si02
#       5
#     8   8   8   8   8
#     4  11  23  38  68  94 135 171 223 262 324 387
#     4  11  24  47  66  96 135 172 217 271 322 389
#     4  12  27  42  68  99 133 173 217 269 331 385
#     4  10  22  40  68  97 127 173 222 267 323 388
#     4   9  20  35  55  91 140 180 217 263 317 381
#
# _framework density 22.256069
#
# number of rings (size 3 to 8) (size 9 to 14) (size 15 to 20)
#    0.000    1.400    2.000    2.400    8.400    0.800 
#    0.000    3.000    0.000    3.600    0.000    0.000 
#    0.000    0.000    0.000    0.000    0.000    0.000 
#
# Total GULP energy -111784.433705 kJ/mol
# GULP energy per Si atom -5589.221685 kJ/mol
# Density = 2.220541 g / cm^3
# Si number density = 22.256069 Si / 1000 Ang^3
#
#
#
# Elastic Constant Matrix: (Units=GPa)
#
#
# Indices 1 2 3 4 5 6 
#
# 1 98.2176 66.5857 7.7593 0.0000 15.0650 0.0000
# 2 66.5857 162.1246 34.9723 0.0000 10.4295 0.0000
# 3 7.7593 34.9723 57.6981 0.0000 13.4414 0.0000
# 4 0.0000 0.0000 0.0000 1.6787 0.0000 5.3020
# 5 15.0650 10.4295 13.4414 0.0000 29.9508 0.0000
# 6 0.0000 0.0000 0.0000 5.3020 0.0000 39.6046
#
#
#
# Elastic Compliance Matrix: (Units=1/GPa)
#
#
# Indices 1 2 3 4 5 6 
#
# 1 0.015530 -0.006704 0.003631 0.000000 -0.007106 0.000000
# 2 -0.006704 0.010000 -0.005733 0.000000 0.002463 0.000000
# 3 0.003631 -0.005733 0.022646 0.000000 -0.009993 0.000000
# 4 0.000000 0.000000 0.000000 1.032045 0.000000 -0.138162
# 5 -0.007106 0.002463 -0.009993 0.000000 0.040589 0.000000
# 6 0.000000 0.000000 0.000000 -0.138162 0.000000 0.043746
#
#
# Mechanical properties :
#
#
# Convention : Reuss Voigt Hill
#
# Bulk Modulus (GPa) = 32.72034 59.63055 46.17544
# Shear Modulus (GPa) = 4.19337 28.16169 16.17753
#
# Velocity S-wave (km/s) = 1.37413 3.56103 2.69900
# Velocity P-wave (km/s) = 4.15347 6.61506 5.52315
#
# Compressibility (1/GPa) = 0.03056203
#
# Stress axis : x y z
#
# Youngs Moduli (GPa) = 64.39304 100.00156 44.15696
#
# Poissons Ratio (x) = 0.67042 -0.16031
# Poissons Ratio (y) = 0.43170 0.25317
# Poissons Ratio (z) = -0.23378 0.57335
#
# Static dielectric constant tensor:
#      x y z
#    x 1.849310 0.000000 0.038310 
#    y 0.000000 1.860210 0.000000 
#    z 0.038310 0.000000 1.825240 
# 
# From -- ./inp_files/15831.got.cif
#   From: 2010.05.17/outbox.cif.g08.bks.cpg/sg12_8_cif.got.tgz:15831.got - 2010.06.03 13:09:07.
