data_PCOD9215558
_publ_section_title
;
Structure prediction by ZEFSAII (Michael W. Deem and Ramdas Pophale) SiO2 
 PCOD9215558
Probable space group: C 2/M
;
_chemical_formula_sum "Si O2"
_cell_formula_units_Z 38
_cell_length_a 5.224468
_cell_length_b 22.745152
_cell_length_c 14.235319
_cell_angle_alpha 90.000000
_cell_angle_beta 101.727952
_cell_angle_gamma 90.000000
_cell_volume 1656.287452
_symmetry_space_group_name_H-M "C 2/M"
_symmetry_group_IT_number 12
_symmetry_cell_setting 'monoclinic'
loop_
_space_group_symop_operation_xyz
x,y,z
-x,y,-z
-x,-y,-z
x,-y,z
1/2+x,1/2+y,z
1/2-x,1/2+y,-z
1/2-x,1/2-y,-z
1/2+x,1/2-y,z
loop_
_atom_site_type_symbol
_atom_site_label
_atom_site_fract_x
_atom_site_fract_y
_atom_site_fract_z
Si Si1 0.000000 0.000000 0.000000
Si Si2 0.426713 0.211921 0.628458
Si Si3 0.548701 0.785295 0.859069
Si Si4 0.370729 0.000000 0.740817
Si Si5 0.894985 0.582736 0.094391
Si Si6 0.000000 0.603874 0.500000
Si Si7 0.801690 0.000000 0.609333
O O1 0.882234 0.050914 0.920619
O O2 0.157142 0.247684 0.603072
O O3 0.492872 0.205691 0.743721
O O4 0.425600 0.148677 0.578296
O O5 0.286880 0.759835 0.884768
O O6 0.623224 0.848248 0.903709
O O7 0.419135 0.055985 0.812019
O O8 0.594794 0.000000 0.679174
O O9 0.092269 0.000000 0.670517
O O10 0.000000 0.562938 0.000000
O O11 0.769030 0.559062 0.453742
#
# Coordination Sequence:
#
# PCOD9215558 Si02
#       7
#     2   8   8   4   8   4   4
#     4  10  24  44  64 102 128 174 234 282 334 396
#     4  10  22  41  67  99 132 177 223 276 336 404
#     4  10  24  44  68 102 141 180 224 279 350 411
#     4  11  26  47  69  96 137 185 225 283 343 407
#     4  11  26  44  73 101 138 182 235 289 338 413
#     4  11  24  44  68 102 136 175 230 284 332 409
#     4  11  28  43  67 100 137 181 225 279 350 400
#
# _framework density 22.942879000000001
#
# number of rings (size 3 to 8) (size 9 to 14) (size 15 to 20)
#    0.000    1.474    0.000    3.158    8.842   10.947 
#    0.000    0.000    0.000    0.000    0.000    0.000 
#    0.000    0.000    0.000    0.000    0.000    0.000 
#
# Total GULP energy -106172.444534 kJ/mol
# GULP energy per Si atom -5588.023397 kJ/mol
# Density = 2.289066 g / cm^3
# Si number density = 22.942879 Si / 1000 Ang^3
#
#
#
# Elastic Constant Matrix: (Units=GPa)
#
#
# Indices 1 2 3 4 5 6 
#
# 1 105.4603 18.8939 47.9640 0.0000 13.6129 0.0000
# 2 18.8939 176.7343 59.0702 0.0000 17.2072 0.0000
# 3 47.9640 59.0702 89.2220 0.0000 18.9929 0.0000
# 4 0.0000 0.0000 0.0000 51.6949 0.0000 -10.7168
# 5 13.6129 17.2072 18.9929 0.0000 46.1352 0.0000
# 6 0.0000 0.0000 0.0000 -10.7168 0.0000 -8.8359
#
#
#
# Elastic Compliance Matrix: (Units=1/GPa)
#
#
# Indices 1 2 3 4 5 6 
#
# 1 0.012800 0.001236 -0.007450 0.000000 -0.001171 0.000000
# 2 0.001236 0.007412 -0.005377 0.000000 -0.000916 0.000000
# 3 -0.007450 -0.005377 0.019595 0.000000 -0.003863 0.000000
# 4 0.000000 0.000000 0.000000 0.015458 0.000000 -0.018748
# 5 -0.001171 -0.000916 -0.003863 0.000000 0.023953 0.000000
# 6 0.000000 0.000000 0.000000 -0.018748 0.000000 -0.090436
#
#
# Mechanical properties :
#
#
# Convention : Reuss Voigt Hill
#
# Bulk Modulus (GPa) = 60.14868 69.25251 64.70060
# Shear Modulus (GPa) = 285.60604 34.16473 159.88539
#
# Velocity S-wave (km/s) = 11.16942 3.86310 8.35702
# Velocity P-wave (km/s) = 13.87858 7.08155 11.01733
#
# Compressibility (1/GPa) = 0.01662547
#
# Stress axis : x y z
#
# Youngs Moduli (GPa) = 78.12304 134.91012 51.03327
#
# Poissons Ratio (x) = -0.16669 0.38020
# Poissons Ratio (y) = -0.09653 0.27439
# Poissons Ratio (z) = 0.58202 0.72537
#
# Static dielectric constant tensor:
#      x y z
#    x 1.968740 0.000000 -0.045720 
#    y 0.000000 1.787700 0.000000 
#    z -0.045720 0.000000 1.904800 
# 
# From -- ./inp_files/252623.got.cif
#   From: 2010.05.17/outbox.cif.g08.bks.cpg/sg12_127_cif.got.tgz:252623.got - 2010.06.03 13:09:07.
