data_PCOD9215635
_publ_section_title
;
Structure prediction by ZEFSAII (Michael W. Deem and Ramdas Pophale) SiO2 
 PCOD9215635
Probable space group: C 2/M
;
_chemical_formula_sum "Si O2"
_cell_formula_units_Z 36
_cell_length_a 5.077267
_cell_length_b 27.103551
_cell_length_c 10.818269
_cell_angle_alpha 90.000000
_cell_angle_beta 85.264248
_cell_angle_gamma 90.000000
_cell_volume 1483.640850
_symmetry_space_group_name_H-M "C 2/M"
_symmetry_group_IT_number 12
_symmetry_cell_setting 'monoclinic'
loop_
_space_group_symop_operation_xyz
x,y,z
-x,y,-z
-x,-y,-z
x,-y,z
1/2+x,1/2+y,z
1/2-x,1/2+y,-z
1/2-x,1/2-y,-z
1/2+x,1/2-y,z
loop_
_atom_site_type_symbol
_atom_site_label
_atom_site_fract_x
_atom_site_fract_y
_atom_site_fract_z
Si Si1 0.000000 0.356397 0.000000
Si Si2 0.481991 0.053285 0.353044
Si Si3 0.763336 0.654692 0.411375
Si Si4 0.776419 0.055776 0.114798
Si Si5 0.682902 0.718304 0.175006
O O1 0.785963 0.322130 0.074639
O O2 0.115837 0.394939 0.093032
O O3 0.500000 0.052184 0.500000
O O4 0.323616 0.103414 0.338690
O O5 0.758963 0.056557 0.266097
O O6 0.359811 0.000000 0.321479
O O7 0.500000 0.648796 0.500000
O O8 0.720373 0.696237 0.310308
O O9 0.000000 0.665069 0.500000
O O10 0.672469 0.000000 0.095382
O O11 0.000000 0.059335 0.000000
O O12 0.386456 0.735815 0.160510
#
# Coordination Sequence:
#
# PCOD9215635 Si02
#       5
#     4   8   8   8   8
#     4  12  25  42  68  94 138 184 233 294 352 432
#     4   9  19  40  67 102 141 181 230 284 349 428
#     4  11  24  44  73 103 137 183 230 287 357 424
#     4  10  22  41  70 104 142 185 231 284 351 430
#     4  12  28  47  70 101 136 182 241 301 356 411
#
# _framework density 24.264633
#
# number of rings (size 3 to 8) (size 9 to 14) (size 15 to 20)
#    0.000    1.333    2.222    2.333    3.111    6.667 
#    0.000    0.000    0.000    0.000    0.000    0.000 
#    0.000    0.000    0.000    0.000    0.000    0.000 
#
# Total GULP energy -100386.135773 kJ/mol
# GULP energy per Si atom -5577.007543 kJ/mol
# Density = 2.420941 g / cm^3
# Si number density = 24.264633 Si / 1000 Ang^3
#
#
#
# Elastic Constant Matrix: (Units=GPa)
#
#
# Indices 1 2 3 4 5 6 
#
# 1 66.0116 3.2467 50.2741 0.0000 -11.4835 0.0000
# 2 3.2467 108.8804 42.1463 0.0000 -4.2086 0.0000
# 3 50.2741 42.1463 216.8022 0.0000 -45.2251 0.0000
# 4 0.0000 0.0000 0.0000 22.6293 0.0000 9.8862
# 5 -11.4835 -4.2086 -45.2251 0.0000 33.3376 0.0000
# 6 0.0000 0.0000 0.0000 9.8862 0.0000 5.2567
#
#
#
# Elastic Compliance Matrix: (Units=1/GPa)
#
#
# Indices 1 2 3 4 5 6 
#
# 1 0.018549 0.001177 -0.004416 0.000000 0.000547 0.000000
# 2 0.001177 0.010094 -0.002629 0.000000 -0.001886 0.000000
# 3 -0.004416 -0.002629 0.008035 0.000000 0.009047 0.000000
# 4 0.000000 0.000000 0.000000 0.247760 0.000000 -0.465965
# 5 0.000547 -0.001886 0.009047 0.000000 0.042219 0.000000
# 6 0.000000 0.000000 0.000000 -0.465965 0.000000 1.066581
#
#
# Mechanical properties :
#
#
# Convention : Reuss Voigt Hill
#
# Bulk Modulus (GPa) = 40.09108 64.78096 52.43602
# Shear Modulus (GPa) = 3.53785 31.97986 17.75885
#
# Velocity S-wave (km/s) = 1.20880 3.63431 2.70827
# Velocity P-wave (km/s) = 4.30193 6.66083 5.60683
#
# Compressibility (1/GPa) = 0.02494321
#
# Stress axis : x y z
#
# Youngs Moduli (GPa) = 53.90995 99.06937 124.45950
#
# Poissons Ratio (x) = -0.11665 0.54963
# Poissons Ratio (y) = -0.06348 0.32718
# Poissons Ratio (z) = 0.23807 0.26043
#
# Static dielectric constant tensor:
#      x y z
#    x 1.965490 0.000000 0.038280 
#    y 0.000000 1.918820 0.000000 
#    z 0.038280 0.000000 1.889390 
# 
# From -- ./inp_files/115381.got.cif
#   From: 2010.05.17/outbox.cif.g08.bks.cpg/sg12_58_cif.got.tgz:115381.got - 2010.06.03 13:09:07.
