data_PCOD9215888
_publ_section_title
;
Structure prediction by ZEFSAII (Michael W. Deem and Ramdas Pophale) SiO2 
 PCOD9215888
Probable space group: C 2/M
;
_chemical_formula_sum "Si O2"
_cell_formula_units_Z 64
_cell_length_a 20.303158
_cell_length_b 25.127326
_cell_length_c 11.391117
_cell_angle_alpha 90.000000
_cell_angle_beta 148.639861
_cell_angle_gamma 90.000000
_cell_volume 3024.311767
_symmetry_space_group_name_H-M "C 2/M"
_symmetry_group_IT_number 12
_symmetry_cell_setting 'monoclinic'
loop_
_space_group_symop_operation_xyz
x,y,z
-x,y,-z
-x,-y,-z
x,-y,z
1/2+x,1/2+y,z
1/2-x,1/2+y,-z
1/2-x,1/2-y,-z
1/2+x,1/2-y,z
loop_
_atom_site_type_symbol
_atom_site_label
_atom_site_fract_x
_atom_site_fract_y
_atom_site_fract_z
Si Si1 0.816392 0.669046 0.632065
Si Si2 0.100446 0.875597 0.423565
Si Si3 0.032104 0.340873 0.796423
Si Si4 0.935217 0.222133 0.200361
Si Si5 0.356631 0.437797 0.037205
Si Si6 0.354537 0.721247 0.819119
Si Si7 0.821613 0.138353 0.202619
Si Si8 0.414409 0.940921 0.486989
O O1 0.736908 0.622175 0.571733
O O2 0.959253 0.661511 0.808121
O O3 0.738717 0.682835 0.394196
O O4 0.818241 0.720275 0.718599
O O5 0.106980 0.882977 0.573739
O O6 0.053516 0.814516 0.343881
O O7 0.989057 0.911189 0.199286
O O8 0.967771 0.390396 0.635081
O O9 0.022694 0.282887 0.720104
O O10 0.180298 0.350762 0.029388
O O11 0.874229 0.192256 0.219530
O O12 0.847635 0.218942 0.950031
O O13 0.375724 0.500000 0.088866
O O14 0.321823 0.405533 0.101510
O O15 0.233847 0.432696 0.767940
O O16 0.500000 0.711122 0.000000
O O17 0.500000 0.943014 0.500000
O O18 0.427675 0.000000 0.563119
#
# Coordination Sequence:
#
# PCOD9215888 Si02
#       8
#     8   8   8   8   8   8   8   8
#     4  11  24  37  60  91 128 179 221 265 308 402
#     4  11  24  42  61  94 135 169 220 268 316 381
#     4  12  24  37  62  95 128 180 208 260 338 378
#     4  11  22  40  62  92 130 172 218 270 315 384
#     4  10  22  45  70  92 121 165 216 271 331 386
#     4  11  20  40  60  86 124 182 230 250 313 382
#     4  11  25  40  60  99 135 166 217 277 319 382
#     4  10  22  42  67  95 127 161 217 272 322 397
#
# _framework density 21.161839000000001
#
# number of rings (size 3 to 8) (size 9 to 14) (size 15 to 20)
#    0.000    1.125    3.750    3.375    3.500    2.000 
#    0.000    0.625    0.000    1.500    0.000    4.375 
#    0.000    0.000    0.000    0.000    0.000    0.000 
#
# Total GULP energy -178748.528618 kJ/mol
# GULP energy per Si atom -5585.891519 kJ/mol
# Density = 2.111367 g / cm^3
# Si number density = 21.161839 Si / 1000 Ang^3
#
#
#
# Elastic Constant Matrix: (Units=GPa)
#
#
# Indices 1 2 3 4 5 6 
#
# 1 91.4386 18.6499 32.9326 0.0000 24.9742 0.0000
# 2 18.6499 113.8779 32.6479 0.0000 1.3807 0.0000
# 3 32.9326 32.6479 72.0441 0.0000 14.4204 0.0000
# 4 0.0000 0.0000 0.0000 24.5156 0.0000 -9.3646
# 5 24.9742 1.3807 14.4204 0.0000 44.9915 0.0000
# 6 0.0000 0.0000 0.0000 -9.3646 0.0000 5.4321
#
#
#
# Elastic Compliance Matrix: (Units=1/GPa)
#
#
# Indices 1 2 3 4 5 6 
#
# 1 0.014707 -0.000893 -0.005011 0.000000 -0.006530 0.000000
# 2 -0.000893 0.010211 -0.004548 0.000000 0.001640 0.000000
# 3 -0.005011 -0.004548 0.018857 0.000000 -0.003123 0.000000
# 4 0.000000 0.000000 0.000000 0.119452 0.000000 0.205929
# 5 -0.006530 0.001640 -0.003123 0.000000 0.026802 0.000000
# 6 0.000000 0.000000 0.000000 0.205929 0.000000 0.539103
#
#
# Mechanical properties :
#
#
# Convention : Reuss Voigt Hill
#
# Bulk Modulus (GPa) = 43.72117 49.53571 46.62844
# Shear Modulus (GPa) = 6.59927 27.86318 17.23123
#
# Velocity S-wave (km/s) = 1.76784 3.63253 2.85662
# Velocity P-wave (km/s) = 4.98721 6.40723 5.74129
#
# Compressibility (1/GPa) = 0.02287222
#
# Stress axis : x y z
#
# Youngs Moduli (GPa) = 67.99638 97.92957 53.03093
#
# Poissons Ratio (x) = 0.08742 0.26574
# Poissons Ratio (y) = 0.06070 0.24116
# Poissons Ratio (z) = 0.34073 0.44535
#
# Static dielectric constant tensor:
#      x y z
#    x 1.803930 0.000000 0.008380 
#    y 0.000000 1.752910 0.000000 
#    z 0.008380 0.000000 1.824540 
# 
# From -- ./inp_files/170610.got.cif
#   From: 2010.05.17/outbox.cif.g08.bks.cpg/sg12_86_cif.got.tgz:170610.got - 2010.06.03 13:09:07.
