data_PCOD9215078
_publ_section_title
;
Structure prediction by ZEFSAII (Michael W. Deem and Ramdas Pophale) SiO2 
 PCOD9215078
Probable space group: C 2/M
;
_chemical_formula_sum "Si O2"
_cell_formula_units_Z 48
_cell_length_a 16.623283
_cell_length_b 17.225121
_cell_length_c 19.682097
_cell_angle_alpha 90.000000
_cell_angle_beta 28.108713
_cell_angle_gamma 90.000000
_cell_volume 2655.253412
_symmetry_space_group_name_H-M "C 2/M"
_symmetry_group_IT_number 12
_symmetry_cell_setting 'monoclinic'
loop_
_space_group_symop_operation_xyz
x,y,z
-x,y,-z
-x,-y,-z
x,-y,z
1/2+x,1/2+y,z
1/2-x,1/2+y,-z
1/2-x,1/2-y,-z
1/2+x,1/2-y,z
loop_
_atom_site_type_symbol
_atom_site_label
_atom_site_fract_x
_atom_site_fract_y
_atom_site_fract_z
Si Si1 0.200058 0.278730 0.110998
Si Si2 0.202752 0.088413 0.358377
Si Si3 0.192301 0.284639 0.614682
Si Si4 0.968963 0.914723 0.942623
Si Si5 0.800867 0.296022 0.166193
Si Si6 0.299320 0.834239 0.653030
O O1 0.211578 0.210851 0.159366
O O2 0.005744 0.303666 0.248640
O O3 0.250000 0.250000 0.000000
O O4 0.333090 0.347069 0.029375
O O5 0.233452 0.139022 0.403431
O O6 0.275844 0.132657 0.236995
O O7 0.000000 0.086547 0.500000
O O8 0.267055 0.000000 0.315467
O O9 0.250000 0.250000 0.500000
O O10 0.240460 0.217262 0.632739
O O11 0.153420 0.898642 0.771173
O O12 0.905160 0.000000 0.969656
O O13 0.000000 0.914545 0.000000
O O14 0.726727 0.222971 0.263221
O O15 0.000000 0.287672 0.000000
O O16 0.500000 0.856423 0.500000
#
# Coordination Sequence:
#
# PCOD9215078 Si02
#       6
#     8   8   8   8   8   8
#     4  12  20  37  61  88 122 152 194 252 302 352
#     4  10  22  41  60  84 122 161 200 250 301 356
#     4  11  22  35  62  93 118 156 202 247 302 363
#     4  11  23  41  62  87 120 162 204 248 305 364
#     4  11  19  37  62  89 114 154 210 244 286 367
#     4  11  20  38  62  88 119 158 211 250 289 367
#
# _framework density 18.077370999999999
#
# number of rings (size 3 to 8) (size 9 to 14) (size 15 to 20)
#    0.000    1.000    5.000    5.000    0.000    1.333 
#    0.000    1.667    0.000    0.000    0.000    0.000 
#    0.000    0.000    0.000    0.000    0.000    0.000 
#
# Total GULP energy -133755.209392 kJ/mol
# GULP energy per Si atom -5573.133725 kJ/mol
# Density = 1.803623 g / cm^3
# Si number density = 18.077371 Si / 1000 Ang^3
#
#
#
# Elastic Constant Matrix: (Units=GPa)
#
#
# Indices 1 2 3 4 5 6 
#
# 1 115.3253 45.1491 37.5229 0.0098 12.0039 0.0211
# 2 45.1491 111.4314 36.9906 0.0532 7.4478 0.0926
# 3 37.5229 36.9906 119.0137 0.0333 -6.0446 0.0621
# 4 0.0098 0.0532 0.0333 6.9379 -0.0142 -24.9953
# 5 12.0039 7.4478 -6.0446 -0.0142 47.3165 -0.0223
# 6 0.0211 0.0926 0.0621 -24.9953 -0.0223 -29.5037
#
#
#
# Elastic Compliance Matrix: (Units=1/GPa)
#
#
# Indices 1 2 3 4 5 6 
#
# 1 0.011142 -0.003490 -0.002560 -0.000001 -0.002604 -0.000005
# 2 -0.003490 0.011289 -0.002470 0.000008 -0.001207 0.000022
# 3 -0.002560 -0.002470 0.010095 0.000004 0.002328 0.000007
# 4 -0.000001 0.000008 0.000004 0.035570 -0.000004 -0.030134
# 5 -0.002604 -0.001207 0.002328 -0.000004 0.022282 -0.000014
# 6 -0.000005 0.000022 0.000007 -0.030134 -0.000014 -0.008364
#
#
# Mechanical properties :
#
#
# Convention : Reuss Voigt Hill
#
# Bulk Modulus (GPa) = 64.57603 65.01062 64.79333
# Shear Modulus (GPa) = 47.97755 20.02400 34.00078
#
# Velocity S-wave (km/s) = 5.15730 3.33180 4.34158
# Velocity P-wave (km/s) = 8.44175 7.13034 7.81361
#
# Compressibility (1/GPa) = 0.01548562
#
# Stress axis : x y z
#
# Youngs Moduli (GPa) = 89.75340 88.58368 99.05553
#
# Poissons Ratio (x) = 0.30919 0.25360
# Poissons Ratio (y) = 0.31327 0.24462
# Poissons Ratio (z) = 0.22979 0.21876
#
# Static dielectric constant tensor:
#      x y z
#    x 1.638560 0.000000 0.011100 
#    y 0.000000 1.627380 0.000000 
#    z 0.011100 0.000000 1.620220 
# 
# From -- ./inp_files/271576.got.cif
#   From: 2010.05.17/outbox.cif.g08.bks.cpg/sg12_136_cif.got.tgz:271576.got - 2010.06.03 13:09:07.
