data_PCOD9215959
_publ_section_title
;
Structure prediction by ZEFSAII (Michael W. Deem and Ramdas Pophale) SiO2 
 PCOD9215959
Probable space group: C 2/M
;
_chemical_formula_sum "Si O2"
_cell_formula_units_Z 46
_cell_length_a 9.902277
_cell_length_b 21.559397
_cell_length_c 13.454828
_cell_angle_alpha 90.000000
_cell_angle_beta 137.384417
_cell_angle_gamma 90.000000
_cell_volume 1944.855518
_symmetry_space_group_name_H-M "C 2/M"
_symmetry_group_IT_number 12
_symmetry_cell_setting 'monoclinic'
loop_
_space_group_symop_operation_xyz
x,y,z
-x,y,-z
-x,-y,-z
x,-y,z
1/2+x,1/2+y,z
1/2-x,1/2+y,-z
1/2-x,1/2-y,-z
1/2+x,1/2-y,z
loop_
_atom_site_type_symbol
_atom_site_label
_atom_site_fract_x
_atom_site_fract_y
_atom_site_fract_z
Si Si1 0.000000 0.327420 0.500000
Si Si2 0.941569 0.775456 0.305716
Si Si3 0.810852 0.929852 0.679172
Si Si4 0.832960 0.892788 0.479125
Si Si5 0.045516 0.689999 0.191183
Si Si6 0.362623 0.378365 0.009535
Si Si7 0.500000 0.500000 0.000000
O O1 0.019708 0.279881 0.419792
O O2 0.838706 0.375853 0.371180
O O3 0.707631 0.790077 0.196356
O O4 0.057377 0.834919 0.407971
O O5 0.002920 0.752369 0.230995
O O6 0.775309 0.933199 0.542031
O O7 0.020058 0.902718 0.829815
O O8 0.797276 0.000000 0.713732
O O9 0.661988 0.861918 0.320401
O O10 0.000000 0.922894 0.500000
O O11 0.670010 0.840945 0.939452
O O12 0.500000 0.343366 0.000000
O O13 0.336588 0.443878 0.937537
#
# Coordination Sequence:
#
# PCOD9215959 Si02
#       7
#     4   8   8   8   8   8   2
#     4  12  21  38  68  98 129 168 222 278 336 396
#     4  11  21  40  71  98 136 177 219 281 345 408
#     4  12  24  41  66  98 135 174 227 280 333 395
#     4  10  22  42  68  98 136 177 226 274 340 408
#     4  11  21  41  67 100 134 180 217 275 349 405
#     4  10  22  43  64  93 134 173 224 281 331 393
#     4   8  20  44  64  78 134 176 228 266 334 378
#
# _framework density 23.652144
#
# number of rings (size 3 to 8) (size 9 to 14) (size 15 to 20)
#    0.522    0.696    5.217    2.870    0.000    0.348 
#    4.696   13.043    1.913    4.174    0.000    0.000 
#    0.000    0.000    0.000    0.000    0.000    0.000 
#
# Total GULP energy -128113.063832 kJ/mol
# GULP energy per Si atom -5570.133210 kJ/mol
# Density = 2.359831 g / cm^3
# Si number density = 23.652144 Si / 1000 Ang^3
#
#
#
# Elastic Constant Matrix: (Units=GPa)
#
#
# Indices 1 2 3 4 5 6 
#
# 1 84.6033 14.4103 13.0923 0.0000 11.3954 0.0000
# 2 14.4103 111.3394 26.0510 0.0000 23.0803 0.0000
# 3 13.0923 26.0510 64.0824 0.0000 11.2907 0.0000
# 4 0.0000 0.0000 0.0000 21.1587 0.0000 35.5445
# 5 11.3954 23.0803 11.2907 0.0000 32.7315 0.0000
# 6 0.0000 0.0000 0.0000 35.5445 0.0000 -84.9979
#
#
#
# Elastic Compliance Matrix: (Units=1/GPa)
#
#
# Indices 1 2 3 4 5 6 
#
# 1 0.012643 -0.000511 -0.001771 0.000000 -0.003431 0.000000
# 2 -0.000511 0.011178 -0.003282 0.000000 -0.006572 0.000000
# 3 -0.001771 -0.003282 0.017871 0.000000 -0.003234 0.000000
# 4 0.000000 0.000000 0.000000 0.027760 0.000000 0.011609
# 5 -0.003431 -0.006572 -0.003234 0.000000 0.037496 0.000000
# 6 0.000000 0.000000 0.000000 0.011609 0.000000 -0.006910
#
#
# Mechanical properties :
#
#
# Convention : Reuss Voigt Hill
#
# Bulk Modulus (GPa) = 32.71779 40.79250 36.75515
# Shear Modulus (GPa) = 41.20238 7.54322 24.37280
#
# Velocity S-wave (km/s) = 4.17827 1.78778 3.21357
# Velocity P-wave (km/s) = 6.09428 4.64175 5.41692
#
# Compressibility (1/GPa) = 0.03056441
#
# Stress axis : x y z
#
# Youngs Moduli (GPa) = 79.09513 89.46228 55.95787
#
# Poissons Ratio (x) = 0.04570 0.09910
# Poissons Ratio (y) = 0.04041 0.18364
# Poissons Ratio (z) = 0.14007 0.29359
#
# Static dielectric constant tensor:
#      x y z
#    x 2.009670 0.000000 -0.013700 
#    y 0.000000 1.882510 0.000000 
#    z -0.013700 0.000000 1.941540 
# 
# From -- ./inp_files/207378.got.cif
#   From: 2010.05.17/outbox.cif.g08.bks.cpg/sg12_104_cif.got.tgz:207378.got - 2010.06.03 13:09:07.
