data_PCOD9215223
_publ_section_title
;
Structure prediction by ZEFSAII (Michael W. Deem and Ramdas Pophale) SiO2 
 PCOD9215223
Probable space group: C 2/M
;
_chemical_formula_sum "Si O2"
_cell_formula_units_Z 48
_cell_length_a 15.673369
_cell_length_b 27.841876
_cell_length_c 7.546854
_cell_angle_alpha 90.000000
_cell_angle_beta 37.119399
_cell_angle_gamma 90.000000
_cell_volume 1987.413526
_symmetry_space_group_name_H-M "C 2/M"
_symmetry_group_IT_number 12
_symmetry_cell_setting 'monoclinic'
loop_
_space_group_symop_operation_xyz
x,y,z
-x,y,-z
-x,-y,-z
x,-y,z
1/2+x,1/2+y,z
1/2-x,1/2+y,-z
1/2-x,1/2-y,-z
1/2+x,1/2-y,z
loop_
_atom_site_type_symbol
_atom_site_label
_atom_site_fract_x
_atom_site_fract_y
_atom_site_fract_z
Si Si1 0.819126 0.384372 0.476950
Si Si2 0.916703 0.055112 0.950122
Si Si3 0.544772 0.210100 0.631353
Si Si4 0.264755 0.712912 0.810170
Si Si5 0.432841 0.945784 0.806504
Si Si6 0.333487 0.392194 0.649518
O O1 0.846593 0.330441 0.492089
O O2 0.743937 0.384860 0.412639
O O3 0.000000 0.444605 0.500000
O O4 0.970003 0.410521 0.240091
O O5 0.017743 0.084199 0.649761
O O6 0.887819 0.000000 0.942322
O O7 0.780206 0.085780 0.226100
O O8 0.000000 0.051803 0.000000
O O9 0.500000 0.199419 0.500000
O O10 0.623857 0.260990 0.502109
O O11 0.397858 0.208122 0.981698
O O12 0.325475 0.660309 0.752113
O O13 0.250000 0.750000 0.000000
O O14 0.440828 0.000000 0.861908
O O15 0.271713 0.928261 0.076314
#
# Coordination Sequence:
#
# PCOD9215223 Si02
#       6
#     8   8   8   8   8   8
#     4  11  22  39  68  96 132 170 214 274 324 391
#     4   9  20  39  63  96 136 173 211 263 329 392
#     4  10  22  41  63  91 128 171 214 268 330 394
#     4  10  23  40  62  92 125 170 218 269 334 390
#     4  11  24  41  65  96 132 174 216 266 327 394
#     4  11  23  41  66  98 128 171 222 270 327 388
#
# _framework density 24.151994999999999
#
# number of rings (size 3 to 8) (size 9 to 14) (size 15 to 20)
#    0.000    1.667    1.667    2.000    4.667    3.333 
#    0.000    0.833    0.000    3.000    0.000    0.000 
#    0.000    0.000    0.000    0.000    0.000    0.000 
#
# Total GULP energy -134380.690991 kJ/mol
# GULP energy per Si atom -5599.195458 kJ/mol
# Density = 2.409702 g / cm^3
# Si number density = 24.151995 Si / 1000 Ang^3
#
#
#
# Elastic Constant Matrix: (Units=GPa)
#
#
# Indices 1 2 3 4 5 6 
#
# 1 64.7624 -5.6030 -3.4345 0.0000 11.3657 0.0000
# 2 -5.6030 127.6424 40.4193 0.0000 6.0838 0.0000
# 3 -3.4345 40.4193 164.5473 0.0000 -13.2121 0.0000
# 4 0.0000 0.0000 0.0000 46.0146 0.0000 -7.9439
# 5 11.3657 6.0838 -13.2121 0.0000 32.6385 0.0000
# 6 0.0000 0.0000 0.0000 -7.9439 0.0000 30.9292
#
#
#
# Elastic Compliance Matrix: (Units=1/GPa)
#
#
# Indices 1 2 3 4 5 6 
#
# 1 0.016602 0.001160 -0.000434 0.000000 -0.006173 0.000000
# 2 0.001160 0.008780 -0.002373 0.000000 -0.003001 0.000000
# 3 -0.000434 -0.002373 0.006924 0.000000 0.003396 0.000000
# 4 0.000000 0.000000 0.000000 0.022741 0.000000 0.005841
# 5 -0.006173 -0.003001 0.003396 0.000000 0.034723 0.000000
# 6 0.000000 0.000000 0.000000 0.005841 0.000000 0.033832
#
#
# Mechanical properties :
#
#
# Convention : Reuss Voigt Hill
#
# Bulk Modulus (GPa) = 34.46928 46.63509 40.55218
# Shear Modulus (GPa) = 36.61232 43.62115 40.11674
#
# Velocity S-wave (km/s) = 3.89770 4.25445 4.07997
# Velocity P-wave (km/s) = 5.87868 6.59429 6.24674
#
# Compressibility (1/GPa) = 0.02901134
#
# Stress axis : x y z
#
# Youngs Moduli (GPa) = 60.23427 113.89553 144.42621
#
# Poissons Ratio (x) = -0.13218 0.06271
# Poissons Ratio (y) = -0.06990 0.34279
# Poissons Ratio (z) = 0.02616 0.27033
#
# Static dielectric constant tensor:
#      x y z
#    x 2.037080 0.000000 0.015590 
#    y 0.000000 1.848980 0.000000 
#    z 0.015590 0.000000 1.932130 
# 
# From -- ./inp_files/67300.got.cif
#   From: 2010.05.17/outbox.cif.g08.bks.cpg/sg12_34_cif.got.tgz:67300.got - 2010.06.03 13:09:07.
