data_PCOD9215436
_publ_section_title
;
Structure prediction by ZEFSAII (Michael W. Deem and Ramdas Pophale) SiO2 
 PCOD9215436
Probable space group: C 2/M
;
_chemical_formula_sum "Si O2"
_cell_formula_units_Z 36
_cell_length_a 12.532299
_cell_length_b 21.218006
_cell_length_c 15.821737
_cell_angle_alpha 90.000000
_cell_angle_beta 157.117333
_cell_angle_gamma 90.000000
_cell_volume 1635.935901
_symmetry_space_group_name_H-M "C 2/M"
_symmetry_group_IT_number 12
_symmetry_cell_setting 'monoclinic'
loop_
_space_group_symop_operation_xyz
x,y,z
-x,y,-z
-x,-y,-z
x,-y,z
1/2+x,1/2+y,z
1/2-x,1/2+y,-z
1/2-x,1/2-y,-z
1/2+x,1/2-y,z
loop_
_atom_site_type_symbol
_atom_site_label
_atom_site_fract_x
_atom_site_fract_y
_atom_site_fract_z
Si Si1 0.887926 0.570402 0.540152
Si Si2 0.500000 0.612271 0.000000
Si Si3 0.970422 0.309197 0.078050
Si Si4 0.792513 0.431361 0.667283
Si Si5 0.078113 0.815105 0.227122
O O1 0.807486 0.500000 0.449503
O O2 0.775753 0.576103 0.554096
O O3 0.778852 0.631443 0.410199
O O4 0.218188 0.574354 0.783482
O O5 0.459832 0.654632 0.054349
O O6 0.040431 0.375685 0.169876
O O7 0.162106 0.254650 0.258127
O O8 0.654076 0.299898 0.873189
O O9 0.000000 0.309581 0.000000
O O10 0.500000 0.430910 0.500000
O O11 0.923375 0.500000 0.777739
#
# Coordination Sequence:
#
# PCOD9215436 Si02
#       5
#     8   4   8   8   8
#     4  11  25  44  69 101 139 182 225 279 341 403
#     4  12  23  46  66 100 139 180 226 286 323 416
#     4  11  23  44  69  99 134 180 224 280 343 397
#     4  10  22  41  66 100 135 173 225 280 338 405
#     4  11  25  43  68 101 136 176 232 274 338 405
#
# _framework density 22.005751
#
# number of rings (size 3 to 8) (size 9 to 14) (size 15 to 20)
#    0.000    1.111    3.333    2.333    0.000    6.667 
#    0.000    0.000    0.000    0.000    0.000    0.000 
#    0.000    0.000    0.000    0.000    0.000    0.000 
#
# Total GULP energy -100553.926702 kJ/mol
# GULP energy per Si atom -5586.329261 kJ/mol
# Density = 2.195567 g / cm^3
# Si number density = 22.005751 Si / 1000 Ang^3
#
#
#
# Elastic Constant Matrix: (Units=GPa)
#
#
# Indices 1 2 3 4 5 6 
#
# 1 150.7201 27.8651 20.1722 0.0013 -18.4814 -0.0013
# 2 27.8651 182.2360 50.2294 0.0008 -31.5925 -0.0007
# 3 20.1722 50.2294 61.0851 0.0032 -5.6555 -0.0015
# 4 0.0013 0.0008 0.0032 41.2586 0.0016 -3.5046
# 5 -18.4814 -31.5925 -5.6555 0.0016 23.6950 -0.0013
# 6 -0.0013 -0.0007 -0.0015 -3.5046 -0.0013 39.1354
#
#
#
# Elastic Compliance Matrix: (Units=1/GPa)
#
#
# Indices 1 2 3 4 5 6 
#
# 1 0.007601 0.000558 -0.002404 0.000000 0.006098 0.000000
# 2 0.000558 0.009164 -0.006696 0.000000 0.011055 0.000000
# 3 -0.002404 -0.006696 0.022160 -0.000001 -0.005514 0.000000
# 4 0.000000 0.000000 -0.000001 0.024423 -0.000002 0.002187
# 5 0.006098 0.011055 -0.005514 -0.000002 0.060384 0.000002
# 6 0.000000 0.000000 0.000000 0.002187 0.000002 0.025748
#
#
# Mechanical properties :
#
#
# Convention : Reuss Voigt Hill
#
# Bulk Modulus (GPa) = 45.78685 65.61939 55.70312
# Shear Modulus (GPa) = 28.76101 40.53611 34.64856
#
# Velocity S-wave (km/s) = 3.61914 4.29659 3.97233
# Velocity P-wave (km/s) = 6.19000 7.38229 6.81228
#
# Compressibility (1/GPa) = 0.02184033
#
# Stress axis : x y z
#
# Youngs Moduli (GPa) = 131.55698 109.11771 45.12587
#
# Poissons Ratio (x) = -0.06084 0.10848
# Poissons Ratio (y) = -0.07335 0.30218
# Poissons Ratio (z) = 0.31627 0.73069
#
# Static dielectric constant tensor:
#      x y z
#    x 1.815900 0.000000 0.041230 
#    y 0.000000 1.846320 0.000000 
#    z 0.041230 0.000000 1.807290 
# 
# From -- ./inp_files/207865.got.cif
#   From: 2010.05.17/outbox.cif.g08.bks.cpg/sg12_104_cif.got.tgz:207865.got - 2010.06.03 13:09:07.
