data_PCOD9215243
_publ_section_title
;
Structure prediction by ZEFSAII (Michael W. Deem and Ramdas Pophale) SiO2 
 PCOD9215243
Probable space group: C 2/M
;
_chemical_formula_sum "Si O2"
_cell_formula_units_Z 36
_cell_length_a 9.022400
_cell_length_b 16.626087
_cell_length_c 11.268478
_cell_angle_alpha 90.000000
_cell_angle_beta 111.631586
_cell_angle_gamma 90.000000
_cell_volume 1571.307116
_symmetry_space_group_name_H-M "C 2/M"
_symmetry_group_IT_number 12
_symmetry_cell_setting 'monoclinic'
loop_
_space_group_symop_operation_xyz
x,y,z
-x,y,-z
-x,-y,-z
x,-y,z
1/2+x,1/2+y,z
1/2-x,1/2+y,-z
1/2-x,1/2-y,-z
1/2+x,1/2-y,z
loop_
_atom_site_type_symbol
_atom_site_label
_atom_site_fract_x
_atom_site_fract_y
_atom_site_fract_z
Si Si1 0.425782 0.000000 0.844720
Si Si2 0.807031 0.500000 0.459900
Si Si3 0.552983 0.263017 0.713456
Si Si4 0.370148 0.674683 0.874565
Si Si5 0.283825 0.133731 0.642271
Si Si6 0.265179 0.500000 0.830165
O O1 0.328199 0.078890 0.771784
O O2 0.579377 0.000000 0.805850
O O3 0.500000 0.000000 0.000000
O O4 0.758016 0.575835 0.524397
O O5 0.725403 0.500000 0.308820
O O6 0.000000 0.500000 0.500000
O O7 0.452010 0.320150 0.770067
O O8 0.706118 0.223329 0.823727
O O9 0.433063 0.190184 0.652362
O O10 0.634697 0.311363 0.631823
O O11 0.335755 0.582856 0.898915
O O12 0.500000 0.712057 0.000000
#
# Coordination Sequence:
#
# PCOD9215243 Si02
#       6
#     4   4   8   8   8   4
#     4  11  23  38  66  92 130 168 218 246 319 383
#     4  11  20  44  69  87 128 173 217 255 319 378
#     4  10  22  41  63  98 127 162 216 259 325 373
#     4  11  23  40  63  91 131 167 209 261 322 377
#     4  10  22  42  68  95 126 172 210 265 317 376
#     4  12  24  43  63  95 125 174 210 265 309 373
#
# _framework density 22.910862999999999
#
# number of rings (size 3 to 8) (size 9 to 14) (size 15 to 20)
#    0.000    1.333    4.444    1.000    3.111    5.333 
#    0.000   14.444    0.000    0.000    0.000    0.000 
#    0.000    0.000    0.000    0.000    0.000    0.000 
#
# Total GULP energy -100701.263671 kJ/mol
# GULP energy per Si atom -5594.514648 kJ/mol
# Density = 2.285872 g / cm^3
# Si number density = 22.910863 Si / 1000 Ang^3
#
#
#
# Elastic Constant Matrix: (Units=GPa)
#
#
# Indices 1 2 3 4 5 6 
#
# 1 83.2128 39.3276 -5.5177 0.0000 3.4097 0.0000
# 2 39.3276 100.8333 3.3228 0.0000 -1.0210 0.0000
# 3 -5.5177 3.3228 75.0968 0.0000 -3.2444 0.0000
# 4 0.0000 0.0000 0.0000 4.8709 0.0000 -3.6202
# 5 3.4097 -1.0210 -3.2444 0.0000 28.5632 0.0000
# 6 0.0000 0.0000 0.0000 -3.6202 0.0000 17.2373
#
#
#
# Elastic Compliance Matrix: (Units=1/GPa)
#
#
# Indices 1 2 3 4 5 6 
#
# 1 0.014966 -0.005898 0.001281 0.000000 -0.001852 0.000000
# 2 -0.005898 0.012259 -0.000931 0.000000 0.001036 0.000000
# 3 0.001281 -0.000931 0.013510 0.000000 0.001348 0.000000
# 4 0.000000 0.000000 0.000000 0.243277 0.000000 0.051094
# 5 -0.001852 0.001036 0.001348 0.000000 0.035421 0.000000
# 6 0.000000 0.000000 0.000000 0.051094 0.000000 0.068745
#
#
# Mechanical properties :
#
#
# Convention : Reuss Voigt Hill
#
# Bulk Modulus (GPa) = 33.74110 37.04538 35.39324
# Shear Modulus (GPa) = 12.22037 24.93493 18.57765
#
# Velocity S-wave (km/s) = 2.31202 3.30259 2.85066
# Velocity P-wave (km/s) = 4.67829 5.54502 5.12999
#
# Compressibility (1/GPa) = 0.02963744
#
# Stress axis : x y z
#
# Youngs Moduli (GPa) = 66.81979 81.57349 74.02096
#
# Poissons Ratio (x) = 0.48112 -0.09479
# Poissons Ratio (y) = 0.39410 0.06891
# Poissons Ratio (z) = -0.08557 0.07594
#
# Static dielectric constant tensor:
#      x y z
#    x 1.796410 0.000000 0.017010 
#    y 0.000000 1.872310 0.000000 
#    z 0.017010 0.000000 1.912450 
# 
# From -- ./inp_files/118560.got.cif
#   From: 2010.05.17/outbox.cif.g08.bks.cpg/sg12_60_cif.got.tgz:118560.got - 2010.06.03 13:09:07.
