data_PCOD9215664
_publ_section_title
;
Structure prediction by ZEFSAII (Michael W. Deem and Ramdas Pophale) SiO2 
 PCOD9215664
Probable space group: C 2/M
;
_chemical_formula_sum "Si O2"
_cell_formula_units_Z 52
_cell_length_a 11.282915
_cell_length_b 26.058431
_cell_length_c 8.191536
_cell_angle_alpha 90.000000
_cell_angle_beta 94.519307
_cell_angle_gamma 90.000000
_cell_volume 2400.946752
_symmetry_space_group_name_H-M "C 2/M"
_symmetry_group_IT_number 12
_symmetry_cell_setting 'monoclinic'
loop_
_space_group_symop_operation_xyz
x,y,z
-x,y,-z
-x,-y,-z
x,-y,z
1/2+x,1/2+y,z
1/2-x,1/2+y,-z
1/2-x,1/2-y,-z
1/2+x,1/2-y,z
loop_
_atom_site_type_symbol
_atom_site_label
_atom_site_fract_x
_atom_site_fract_y
_atom_site_fract_z
Si Si1 0.071113 0.612699 0.861364
Si Si2 0.000000 0.140461 0.000000
Si Si3 0.863689 0.558035 0.631615
Si Si4 0.497489 0.719129 0.698443
Si Si5 0.235299 0.100247 0.892150
Si Si6 0.635225 0.158375 0.566153
Si Si7 0.266654 0.210176 0.715640
O O1 0.136414 0.654096 0.758068
O O2 0.976396 0.579834 0.747956
O O3 0.169890 0.580773 0.965230
O O4 0.000000 0.639005 0.000000
O O5 0.980745 0.174120 0.832116
O O6 0.112101 0.106238 0.967029
O O7 0.880811 0.500000 0.582665
O O8 0.750729 0.564426 0.737680
O O9 0.849188 0.599432 0.488699
O O10 0.500000 0.707443 0.500000
O O11 0.388913 0.757356 0.736353
O O12 0.637746 0.734914 0.736865
O O13 0.268529 0.157738 0.824394
O O14 0.500000 0.173665 0.500000
O O15 0.727455 0.190680 0.472696
#
# Coordination Sequence:
#
# PCOD9215664 Si02
#       7
#     8   4   8   8   8   8   8
#     4   9  18  31  52  86 108 152 180 229 289 339
#     4  10  24  44  57  84 118 148 211 240 298 348
#     4   9  18  35  56  86 118 147 186 233 289 351
#     4  11  24  41  60  88 115 162 199 260 295 350
#     4   9  20  38  58  81 114 153 187 240 289 350
#     4   9  18  33  55  81 115 152 188 231 290 354
#     4  10  22  42  56  84 118 153 205 240 303 349
#
# _framework density 21.658123
#
# number of rings (size 3 to 8) (size 9 to 14) (size 15 to 20)
#    0.000    2.462    0.000    1.846    2.154    8.000 
#   23.538    0.385    0.000    0.000    0.000    1.077 
#    0.000    0.000    0.000    0.000    0.000    0.000 
#
# Total GULP energy -144818.005098 kJ/mol
# GULP energy per Si atom -5569.923273 kJ/mol
# Density = 2.160883 g / cm^3
# Si number density = 21.658123 Si / 1000 Ang^3
#
#
#
# Elastic Constant Matrix: (Units=GPa)
#
#
# Indices 1 2 3 4 5 6 
#
# 1 131.3797 30.5800 18.7165 0.0000 -42.0997 0.0000
# 2 30.5800 79.0233 14.2298 0.0000 -7.3177 0.0000
# 3 18.7165 14.2298 65.5968 0.0000 -27.7878 0.0000
# 4 0.0000 0.0000 0.0000 9.8891 0.0000 -1.1422
# 5 -42.0997 -7.3177 -27.7878 0.0000 38.5180 0.0000
# 6 0.0000 0.0000 0.0000 -1.1422 0.0000 15.5336
#
#
#
# Elastic Compliance Matrix: (Units=1/GPa)
#
#
# Indices 1 2 3 4 5 6 
#
# 1 0.013472 -0.004416 0.004315 0.000000 0.016998 0.000000
# 2 -0.004416 0.014627 -0.004004 0.000000 -0.004937 0.000000
# 3 0.004315 -0.004004 0.023845 0.000000 0.021158 0.000000
# 4 0.000000 0.000000 0.000000 0.101987 0.000000 0.007499
# 5 0.016998 -0.004937 0.021158 0.000000 0.058866 0.000000
# 6 0.000000 0.000000 0.000000 0.007499 0.000000 0.064928
#
#
# Mechanical properties :
#
#
# Convention : Reuss Voigt Hill
#
# Bulk Modulus (GPa) = 22.86618 44.78360 33.82489
# Shear Modulus (GPa) = 16.63817 26.95305 21.79561
#
# Velocity S-wave (km/s) = 2.77468 3.53154 3.17574
# Velocity P-wave (km/s) = 4.56573 6.11158 5.39432
#
# Compressibility (1/GPa) = 0.04373271
#
# Stress axis : x y z
#
# Youngs Moduli (GPa) = 74.22986 68.36515 41.93788
#
# Poissons Ratio (x) = 0.30191 -0.18096
# Poissons Ratio (y) = 0.32781 0.16793
# Poissons Ratio (z) = -0.32029 0.27375
#
# Static dielectric constant tensor:
#      x y z
#    x 1.838340 0.000000 0.026130 
#    y 0.000000 1.809120 0.000000 
#    z 0.026130 0.000000 1.883050 
# 
# From -- ./inp_files/52618.got.cif
#   From: 2010.05.17/outbox.cif.g08.bks.cpg/sg12_27_cif.got.tgz:52618.got - 2010.06.03 13:09:07.
