data_PCOD9215501
_publ_section_title
;
Structure prediction by ZEFSAII (Michael W. Deem and Ramdas Pophale) SiO2 
 PCOD9215501
Probable space group: C 2/M
;
_chemical_formula_sum "Si O2"
_cell_formula_units_Z 32
_cell_length_a 8.340922
_cell_length_b 15.808183
_cell_length_c 12.584543
_cell_angle_alpha 90.000000
_cell_angle_beta 130.123775
_cell_angle_gamma 90.000000
_cell_volume 1268.815454
_symmetry_space_group_name_H-M "C 2/M"
_symmetry_group_IT_number 12
_symmetry_cell_setting 'monoclinic'
loop_
_space_group_symop_operation_xyz
x,y,z
-x,y,-z
-x,-y,-z
x,-y,z
1/2+x,1/2+y,z
1/2-x,1/2+y,-z
1/2-x,1/2-y,-z
1/2+x,1/2-y,z
loop_
_atom_site_type_symbol
_atom_site_label
_atom_site_fract_x
_atom_site_fract_y
_atom_site_fract_z
Si Si1 0.416701 0.129598 0.578508
Si Si2 0.044823 0.406194 0.174481
Si Si3 0.583857 0.398041 0.919143
Si Si4 0.986005 0.824217 0.330359
O O1 0.500000 0.101071 0.500000
O O2 0.508056 0.088589 0.722828
O O3 0.164395 0.122262 0.466925
O O4 0.473404 0.228382 0.618591
O O5 0.104245 0.500000 0.162496
O O6 0.166807 0.379224 0.974024
O O7 0.248025 0.348694 0.252172
O O8 0.556594 0.500000 0.892601
O O9 0.481925 0.345082 0.780643
O O10 0.500000 0.376139 0.000000
#
# Coordination Sequence:
#
# PCOD9215501 Si02
#       4
#     8   8   8   8
#     4  11  24  42  63  92 131 173 217 267 323 385
#     4  11  24  42  68 101 132 169 220 271 323 388
#     4  10  22  41  66  98 134 171 216 270 327 390
#     4  11  22  40  65  92 131 174 215 267 323 382
#
# _framework density 25.220374
#
# number of rings (size 3 to 8) (size 9 to 14) (size 15 to 20)
#    0.000    1.250    0.000    6.750    0.000    6.500 
#    0.000    2.500    0.000    0.000    0.000    0.000 
#    0.000    0.000    0.000    0.000    0.000    0.000 
#
# Total GULP energy -89678.948873 kJ/mol
# GULP energy per Si atom -5604.934305 kJ/mol
# Density = 2.516297 g / cm^3
# Si number density = 25.220374 Si / 1000 Ang^3
#
#
#
# Elastic Constant Matrix: (Units=GPa)
#
#
# Indices 1 2 3 4 5 6 
#
# 1 100.2852 22.6919 17.8448 0.0000 0.2716 0.0000
# 2 22.6919 48.5977 17.5993 0.0000 8.9440 0.0000
# 3 17.8448 17.5993 146.3471 0.0000 -10.5441 0.0000
# 4 0.0000 0.0000 0.0000 23.0639 0.0000 -2.7870
# 5 0.2716 8.9440 -10.5441 0.0000 68.6191 0.0000
# 6 0.0000 0.0000 0.0000 -2.7870 0.0000 28.9642
#
#
#
# Elastic Compliance Matrix: (Units=1/GPa)
#
#
# Indices 1 2 3 4 5 6 
#
# 1 0.011249 -0.005084 -0.000724 0.000000 0.000507 0.000000
# 2 -0.005084 0.024547 -0.002590 0.000000 -0.003577 0.000000
# 3 -0.000724 -0.002590 0.007339 0.000000 0.001468 0.000000
# 4 0.000000 0.000000 0.000000 0.043868 0.000000 0.004221
# 5 0.000507 -0.003577 0.001468 0.000000 0.015263 0.000000
# 6 0.000000 0.000000 0.000000 0.004221 0.000000 0.034932
#
#
# Mechanical properties :
#
#
# Convention : Reuss Voigt Hill
#
# Bulk Modulus (GPa) = 37.96492 45.72246 41.84369
# Shear Modulus (GPa) = 30.71771 39.93570 35.32670
#
# Velocity S-wave (km/s) = 3.49373 3.98360 3.74668
# Velocity P-wave (km/s) = 5.60007 6.27115 5.94509
#
# Compressibility (1/GPa) = 0.02634010
#
# Stress axis : x y z
#
# Youngs Moduli (GPa) = 88.89421 40.73787 136.26687
#
# Poissons Ratio (x) = 0.20711 0.09863
# Poissons Ratio (y) = 0.45193 0.35291
# Poissons Ratio (z) = 0.06434 0.10550
#
# Static dielectric constant tensor:
#      x y z
#    x 2.047270 0.000000 -0.056690 
#    y 0.000000 1.939790 0.000000 
#    z -0.056690 0.000000 1.917710 
# 
# From -- ./inp_files/118686.got.cif
#   From: 2010.05.17/outbox.cif.g08.bks.cpg/sg12_60_cif.got.tgz:118686.got - 2010.06.03 13:09:07.
