data_PCOD9215079
_publ_section_title
;
Structure prediction by ZEFSAII (Michael W. Deem and Ramdas Pophale) SiO2 
 PCOD9215079
Probable space group: C 2/M
;
_chemical_formula_sum "Si O2"
_cell_formula_units_Z 40
_cell_length_a 17.262653
_cell_length_b 10.029437
_cell_length_c 24.263772
_cell_angle_alpha 90.000000
_cell_angle_beta 29.889475
_cell_angle_gamma 90.000000
_cell_volume 2093.428466
_symmetry_space_group_name_H-M "C 2/M"
_symmetry_group_IT_number 12
_symmetry_cell_setting 'monoclinic'
loop_
_space_group_symop_operation_xyz
x,y,z
-x,y,-z
-x,-y,-z
x,-y,z
1/2+x,1/2+y,z
1/2-x,1/2+y,-z
1/2-x,1/2-y,-z
1/2+x,1/2-y,z
loop_
_atom_site_type_symbol
_atom_site_label
_atom_site_fract_x
_atom_site_fract_y
_atom_site_fract_z
Si Si1 0.125025 0.277275 0.782040
Si Si2 0.219966 0.500000 0.566079
Si Si3 0.672898 0.500000 0.377697
Si Si4 0.734404 0.500000 0.892324
Si Si5 0.589899 0.000000 0.887195
Si Si6 0.953029 0.000000 0.702533
Si Si7 0.403270 0.500000 0.145181
Si Si8 0.504453 0.219542 0.262803
O O1 0.282156 0.362779 0.678850
O O2 0.043198 0.371759 0.878441
O O3 0.050161 0.270150 0.767438
O O4 0.146409 0.131930 0.792476
O O5 0.234330 0.500000 0.622995
O O6 0.391281 0.500000 0.433065
O O7 0.116279 0.634604 0.623599
O O8 0.500000 0.500000 0.500000
O O9 0.668465 0.500000 0.871271
O O10 0.841185 0.629640 0.833507
O O11 0.589538 0.500000 0.022931
O O12 0.776978 0.000000 0.785584
O O13 0.500000 0.000000 0.000000
O O14 0.968580 0.134875 0.728702
#
# Coordination Sequence:
#
# PCOD9215079 Si02
#       8
#     8   4   4   4   4   4   4   8
#     4  10  22  41  60  86 123 155 200 249 298 358
#     4   9  19  37  62  87 124 156 191 250 308 360
#     4   9  18  37  63  87 117 162 198 244 305 357
#     4  10  23  39  56  81 119 166 192 241 309 358
#     4  11  25  40  62  89 121 158 214 250 288 361
#     4  12  22  37  66  95 116 156 209 251 293 356
#     4  11  23  38  60  82 123 160 199 245 307 349
#     4  10  22  41  60  90 122 155 202 245 306 358
#
# _framework density 19.107410999999999
#
# number of rings (size 3 to 8) (size 9 to 14) (size 15 to 20)
#    0.000    1.800    0.000    5.400    5.600    0.800 
#    3.600    2.500    0.000    0.000    0.000    0.000 
#    0.000    0.000    0.000    0.000    0.000    0.000 
#
# Total GULP energy -111405.803354 kJ/mol
# GULP energy per Si atom -5570.290168 kJ/mol
# Density = 1.906392 g / cm^3
# Si number density = 19.107411 Si / 1000 Ang^3
#
#
#
# Elastic Constant Matrix: (Units=GPa)
#
#
# Indices 1 2 3 4 5 6 
#
# 1 72.1148 50.6334 26.8623 0.0003 11.6805 -0.0002
# 2 50.6334 202.0915 55.9138 0.0016 10.8411 -0.0005
# 3 26.8623 55.9138 103.8582 0.0035 3.6827 -0.0013
# 4 0.0003 0.0016 0.0035 -10.5563 -0.0003 18.2346
# 5 11.6805 10.8411 3.6827 -0.0003 28.8698 0.0000
# 6 -0.0002 -0.0005 -0.0013 18.2346 0.0000 48.7240
#
#
#
# Elastic Compliance Matrix: (Units=1/GPa)
#
#
# Indices 1 2 3 4 5 6 
#
# 1 0.018255 -0.003544 -0.002610 0.000000 -0.005722 0.000000
# 2 -0.003544 0.006596 -0.002609 0.000000 -0.000710 0.000000
# 3 -0.002610 -0.002609 0.011689 0.000002 0.000545 -0.000001
# 4 0.000000 0.000000 0.000002 -0.057536 -0.000001 0.021532
# 5 -0.005722 -0.000710 0.000545 -0.000001 0.037150 0.000000
# 6 0.000000 0.000000 -0.000001 0.021532 0.000000 0.012465
#
#
# Mechanical properties :
#
#
# Convention : Reuss Voigt Hill
#
# Bulk Modulus (GPa) = 52.59905 71.65374 62.12639
# Shear Modulus (GPa) = 95.26464 29.71782 62.49123
#
# Velocity S-wave (km/s) = 7.06864 3.94801 5.72505
# Velocity P-wave (km/s) = 9.70612 7.63965 8.73422
#
# Compressibility (1/GPa) = 0.01901175
#
# Stress axis : x y z
#
# Youngs Moduli (GPa) = 54.78100 151.59922 85.54978
#
# Poissons Ratio (x) = 0.53734 0.22331
# Poissons Ratio (y) = 0.19417 0.22323
# Poissons Ratio (z) = 0.14300 0.39557
#
# Static dielectric constant tensor:
#      x y z
#    x 1.658950 0.000000 0.019410 
#    y 0.000000 1.638660 0.000000 
#    z 0.019410 0.000000 1.679230 
# 
# From -- ./inp_files/342753.got.cif
#   From: 2010.05.17/outbox.cif.g08.bks.cpg/sg12_172_cif.got.tgz:342753.got - 2010.06.03 13:09:07.
