data_PCOD9215321
_publ_section_title
;
Structure prediction by ZEFSAII (Michael W. Deem and Ramdas Pophale) SiO2 
 PCOD9215321
Probable space group: C 2/M
;
_chemical_formula_sum "Si O2"
_cell_formula_units_Z 44
_cell_length_a 8.724772
_cell_length_b 19.894518
_cell_length_c 13.231852
_cell_angle_alpha 90.000000
_cell_angle_beta 106.977951
_cell_angle_gamma 90.000000
_cell_volume 2196.622964
_symmetry_space_group_name_H-M "C 2/M"
_symmetry_group_IT_number 12
_symmetry_cell_setting 'monoclinic'
loop_
_space_group_symop_operation_xyz
x,y,z
-x,y,-z
-x,-y,-z
x,-y,z
1/2+x,1/2+y,z
1/2-x,1/2+y,-z
1/2-x,1/2-y,-z
1/2+x,1/2-y,z
loop_
_atom_site_type_symbol
_atom_site_label
_atom_site_fract_x
_atom_site_fract_y
_atom_site_fract_z
Si Si1 0.189034 0.425944 0.334472
Si Si2 0.500000 0.374392 0.500000
Si Si3 0.902329 0.179177 0.694298
Si Si4 0.827091 0.675601 0.021859
Si Si5 0.574559 0.817920 0.735954
Si Si6 0.869515 0.921952 0.157327
O O1 0.120313 0.500000 0.338069
O O2 0.348791 0.416610 0.431454
O O3 0.247926 0.420372 0.229709
O O4 0.062116 0.367792 0.328882
O O5 0.560536 0.332049 0.416108
O O6 0.717400 0.188490 0.684084
O O7 0.997180 0.245786 0.744472
O O8 0.973970 0.116300 0.770447
O O9 0.854034 0.657354 0.143865
O O10 0.750000 0.750000 0.000000
O O11 0.711391 0.622015 0.945644
O O12 0.000000 0.675998 0.000000
O O13 0.897500 0.000000 0.136599
#
# Coordination Sequence:
#
# PCOD9215321 Si02
#       6
#     8   4   8   8   8   8
#     4  10  22  42  66  96 128 167 216 267 320 383
#     4  10  23  44  70  90 125 172 214 264 333 382
#     4  11  24  42  65  95 127 168 216 269 320 377
#     4  12  23  39  66  94 127 175 213 254 316 382
#     4  12  24  40  66  96 130 166 215 269 318 375
#     4  10  22  41  64  93 131 172 213 259 317 383
#
# _framework density 20.030749
#
# number of rings (size 3 to 8) (size 9 to 14) (size 15 to 20)
#    0.000    1.091    3.636    3.545    0.000    6.182 
#    0.000    1.818    0.000    0.000    0.000    0.000 
#    0.000    0.000    0.000    0.000    0.000    0.000 
#
# Total GULP energy -123009.940885 kJ/mol
# GULP energy per Si atom -5591.360949 kJ/mol
# Density = 1.998516 g / cm^3
# Si number density = 20.030749 Si / 1000 Ang^3
#
#
#
# Elastic Constant Matrix: (Units=GPa)
#
#
# Indices 1 2 3 4 5 6 
#
# 1 95.2242 44.4285 13.2808 0.0000 3.1011 0.0000
# 2 44.4285 139.2181 37.0582 0.0000 20.9452 0.0000
# 3 13.2808 37.0582 107.8728 0.0000 10.3874 0.0000
# 4 0.0000 0.0000 0.0000 -4.3342 0.0000 -3.0071
# 5 3.1011 20.9452 10.3874 0.0000 21.8121 0.0000
# 6 0.0000 0.0000 0.0000 -3.0071 0.0000 22.5368
#
#
#
# Elastic Compliance Matrix: (Units=1/GPa)
#
#
# Indices 1 2 3 4 5 6 
#
# 1 0.012453 -0.004264 -0.000306 0.000000 0.002470 0.000000
# 2 -0.004264 0.010391 -0.002245 0.000000 -0.008302 0.000000
# 3 -0.000306 -0.002245 0.010342 0.000000 -0.002726 0.000000
# 4 0.000000 0.000000 0.000000 -0.211175 0.000000 -0.028177
# 5 0.002470 -0.008302 -0.002726 0.000000 0.054765 0.000000
# 6 0.000000 0.000000 0.000000 -0.028177 0.000000 0.040612
#
#
# Mechanical properties :
#
#
# Convention : Reuss Voigt Hill
#
# Bulk Modulus (GPa) = 51.13940 59.09447 55.11693
# Shear Modulus (GPa) = -80.04822 24.50610 -27.77106
#
# Velocity S-wave (km/s) = -6.32846 3.50154 -3.72751
# Velocity P-wave (km/s) = 5.27384 6.77596 3.00835
#
# Compressibility (1/GPa) = 0.01955439
#
# Stress axis : x y z
#
# Youngs Moduli (GPa) = 80.29927 96.24156 96.69709
#
# Poissons Ratio (x) = 0.41041 0.02960
# Poissons Ratio (y) = 0.34243 0.21709
# Poissons Ratio (z) = 0.02458 0.21607
#
# Static dielectric constant tensor:
#      x y z
#    x 1.687510 0.000000 -0.000790 
#    y 0.000000 1.695850 0.000000 
#    z -0.000790 0.000000 1.715100 
# 
# From -- ./inp_files/120610.got.cif
#   From: 2010.05.17/outbox.cif.g08.bks.cpg/sg12_61_cif.got.tgz:120610.got - 2010.06.03 13:09:07.
