data_PCOD9215922
_publ_section_title
;
Structure prediction by ZEFSAII (Michael W. Deem and Ramdas Pophale) SiO2 
 PCOD9215922
Probable space group: C 2/M
;
_chemical_formula_sum "Si O2"
_cell_formula_units_Z 44
_cell_length_a 7.328050
_cell_length_b 17.110120
_cell_length_c 16.389142
_cell_angle_alpha 90.000000
_cell_angle_beta 60.732537
_cell_angle_gamma 90.000000
_cell_volume 1792.614850
_symmetry_space_group_name_H-M "C 2/M"
_symmetry_group_IT_number 12
_symmetry_cell_setting 'monoclinic'
loop_
_space_group_symop_operation_xyz
x,y,z
-x,y,-z
-x,-y,-z
x,-y,z
1/2+x,1/2+y,z
1/2-x,1/2+y,-z
1/2-x,1/2-y,-z
1/2+x,1/2-y,z
loop_
_atom_site_type_symbol
_atom_site_label
_atom_site_fract_x
_atom_site_fract_y
_atom_site_fract_z
Si Si1 0.852176 0.834230 0.284172
Si Si2 0.500000 0.675397 0.000000
Si Si3 0.079565 0.590355 0.669333
Si Si4 0.251101 0.910212 0.533013
Si Si5 0.238673 0.584367 0.820969
Si Si6 0.942680 0.290309 0.872059
O O1 0.625049 0.857018 0.300000
O O2 0.843327 0.847258 0.383981
O O3 0.018571 0.899904 0.220889
O O4 0.944481 0.752580 0.230136
O O5 0.265176 0.655371 0.088186
O O6 0.581136 0.717597 0.062921
O O7 0.016352 0.500000 0.666301
O O8 0.250231 0.609642 0.562512
O O9 0.174707 0.589726 0.738958
O O10 0.500000 0.912271 0.500000
O O11 0.170671 0.000000 0.563320
O O12 0.177992 0.500000 0.866094
O O13 0.110931 0.656702 0.882178
#
# Coordination Sequence:
#
# PCOD9215922 Si02
#       6
#     8   4   8   8   8   8
#     4  11  20  36  64  91 121 161 209 249 299 355
#     4  10  22  42  68  82 116 156 198 248 322 384
#     4   9  19  35  59  90 130 172 207 245 296 355
#     4   8  15  31  56  88 124 168 209 243 291 353
#     4  11  23  39  62  96 126 159 206 255 298 358
#     4  11  22  41  64  91 115 158 206 248 311 382
#
# _framework density 24.545148000000001
#
# number of rings (size 3 to 8) (size 9 to 14) (size 15 to 20)
#    0.000    2.000    1.818    3.818    0.000    0.727 
#    0.000    4.545    4.000    0.000    0.000    0.000 
#    0.000    0.000    0.000    0.000    0.000    0.000 
#
# Total GULP energy -122500.959786 kJ/mol
# GULP energy per Si atom -5568.225445 kJ/mol
# Density = 2.448928 g / cm^3
# Si number density = 24.545148 Si / 1000 Ang^3
#
#
#
# Elastic Constant Matrix: (Units=GPa)
#
#
# Indices 1 2 3 4 5 6 
#
# 1 94.6063 22.6091 19.0239 0.0000 -15.1113 0.0000
# 2 22.6091 81.4940 39.4241 0.0000 -6.3038 0.0000
# 3 19.0239 39.4241 104.7680 0.0000 -3.4790 0.0000
# 4 0.0000 0.0000 0.0000 -159.5453 0.0000 -27.1112
# 5 -15.1113 -6.3038 -3.4790 0.0000 42.2006 0.0000
# 6 0.0000 0.0000 0.0000 -27.1112 0.0000 19.9596
#
#
#
# Elastic Compliance Matrix: (Units=1/GPa)
#
#
# Indices 1 2 3 4 5 6 
#
# 1 0.012003 -0.002495 -0.001113 0.000000 0.003833 0.000000
# 2 -0.002495 0.015655 -0.005405 0.000000 0.001000 0.000000
# 3 -0.001113 -0.005405 0.011773 0.000000 -0.000235 0.000000
# 4 0.000000 0.000000 0.000000 -0.005092 0.000000 -0.006917
# 5 0.003833 0.001000 -0.000235 0.000000 0.025199 0.000000
# 6 0.000000 0.000000 0.000000 -0.006917 0.000000 0.040706
#
#
# Mechanical properties :
#
#
# Convention : Reuss Voigt Hill
#
# Bulk Modulus (GPa) = 46.71854 49.22026 47.96940
# Shear Modulus (GPa) = 39.87134 -6.15627 16.85754
#
# Velocity S-wave (km/s) = 4.03477 -1.58543 2.62352
# Velocity P-wave (km/s) = 6.38599 4.09207 5.36311
#
# Compressibility (1/GPa) = 0.02140478
#
# Stress axis : x y z
#
# Youngs Moduli (GPa) = 83.31593 63.87768 84.93985
#
# Poissons Ratio (x) = 0.15936 0.09457
# Poissons Ratio (y) = 0.20785 0.45908
# Poissons Ratio (z) = 0.09276 0.34524
#
# Static dielectric constant tensor:
#      x y z
#    x 1.987120 0.000000 -0.046430 
#    y 0.000000 2.068470 0.000000 
#    z -0.046430 0.000000 2.182630 
# 
# From -- ./inp_files/256864.got.cif
#   From: 2010.05.17/outbox.cif.g08.bks.cpg/sg12_129_cif.got.tgz:256864.got - 2010.06.03 13:09:07.
