data_PCOD9215145
_publ_section_title
;
Structure prediction by ZEFSAII (Michael W. Deem and Ramdas Pophale) SiO2 
 PCOD9215145
Probable space group: C 2/M
;
_chemical_formula_sum "Si O2"
_cell_formula_units_Z 38
_cell_length_a 14.518752
_cell_length_b 23.045851
_cell_length_c 11.548439
_cell_angle_alpha 90.000000
_cell_angle_beta 152.270488
_cell_angle_gamma 90.000000
_cell_volume 1797.945565
_symmetry_space_group_name_H-M "C 2/M"
_symmetry_group_IT_number 12
_symmetry_cell_setting 'monoclinic'
loop_
_space_group_symop_operation_xyz
x,y,z
-x,y,-z
-x,-y,-z
x,-y,z
1/2+x,1/2+y,z
1/2-x,1/2+y,-z
1/2-x,1/2-y,-z
1/2+x,1/2-y,z
loop_
_atom_site_type_symbol
_atom_site_label
_atom_site_fract_x
_atom_site_fract_y
_atom_site_fract_z
Si Si1 0.000000 0.500000 0.500000
Si Si2 0.500000 0.807935 0.000000
Si Si3 0.411481 0.110682 0.239491
Si Si4 0.396887 0.303490 0.000786
Si Si5 0.277684 0.359420 0.501037
Si Si6 0.579242 0.431522 0.712479
O O1 0.920583 0.551798 0.323169
O O2 0.625107 0.763595 0.057395
O O3 0.352424 0.842548 0.754288
O O4 0.627542 0.128879 0.438073
O O5 0.278905 0.098373 0.977917
O O6 0.296861 0.161411 0.180205
O O7 0.562358 0.310850 0.284642
O O8 0.500000 0.329962 0.000000
O O9 0.411172 0.415005 0.618703
O O10 0.500000 0.411143 0.500000
O O11 0.610226 0.500000 0.740731
#
# Coordination Sequence:
#
# PCOD9215145 Si02
#       6
#     2   4   8   8   8   8
#     4  12  24  40  64  94 126 160 204 244 312 374
#     4  10  22  42  63  91 122 166 210 256 312 358
#     4  11  23  41  63  96 124 162 209 251 306 377
#     4   9  22  42  60  89 128 158 204 259 305 361
#     4  11  22  40  65  93 123 163 212 253 307 371
#     4  10  22  41  62  90 128 164 204 258 310 362
#
# _framework density 21.135235000000002
#
# number of rings (size 3 to 8) (size 9 to 14) (size 15 to 20)
#    0.632    1.053    1.053    3.158    1.474    0.842 
#    0.000   11.579    0.000    0.000    0.000    0.000 
#    0.000    0.000    0.000    0.000    0.000    0.000 
#
# Total GULP energy -105819.294158 kJ/mol
# GULP energy per Si atom -5569.436535 kJ/mol
# Density = 2.108713 g / cm^3
# Si number density = 21.135235 Si / 1000 Ang^3
#
#
#
# Elastic Constant Matrix: (Units=GPa)
#
#
# Indices 1 2 3 4 5 6 
#
# 1 38.1562 -15.6745 24.2835 0.0000 2.8496 0.0000
# 2 -15.6745 42.4393 9.9222 0.0000 6.2405 0.0000
# 3 24.2835 9.9222 88.9325 0.0000 -5.1909 0.0000
# 4 0.0000 0.0000 0.0000 29.7052 0.0000 -10.7117
# 5 2.8496 6.2405 -5.1909 0.0000 54.2416 0.0000
# 6 0.0000 0.0000 0.0000 -10.7117 0.0000 22.7319
#
#
#
# Elastic Compliance Matrix: (Units=1/GPa)
#
#
# Indices 1 2 3 4 5 6 
#
# 1 0.044764 0.020931 -0.014919 0.000000 -0.006188 0.000000
# 2 0.020931 0.034497 -0.009915 0.000000 -0.006017 0.000000
# 3 -0.014919 -0.009915 0.016630 0.000000 0.003516 0.000000
# 4 0.000000 0.000000 0.000000 0.040555 0.000000 0.019111
# 5 -0.006188 -0.006017 0.003516 0.000000 0.019790 0.000000
# 6 0.000000 0.000000 0.000000 0.019111 0.000000 0.052996
#
#
# Mechanical properties :
#
#
# Convention : Reuss Voigt Hill
#
# Bulk Modulus (GPa) = 11.35297 22.95449 17.15373
# Shear Modulus (GPa) = 20.29220 31.40220 25.84720
#
# Velocity S-wave (km/s) = 3.10193 3.85876 3.50085
# Velocity P-wave (km/s) = 4.26762 5.54416 4.94723
#
# Compressibility (1/GPa) = 0.08808265
#
# Stress axis : x y z
#
# Youngs Moduli (GPa) = 22.33957 28.98825 60.13312
#
# Poissons Ratio (x) = -0.60675 0.89715
# Poissons Ratio (y) = -0.46759 0.59624
# Poissons Ratio (z) = 0.33329 0.28743
#
# Static dielectric constant tensor:
#      x y z
#    x 1.807080 0.000000 -0.026450 
#    y 0.000000 1.729810 0.000000 
#    z -0.026450 0.000000 1.743200 
# 
# From -- ./inp_files/137180.got.cif
#   From: 2010.05.17/outbox.cif.g08.bks.cpg/sg12_69_cif.got.tgz:137180.got - 2010.06.03 13:09:07.
