data_PCOD9215761
_publ_section_title
;
Structure prediction by ZEFSAII (Michael W. Deem and Ramdas Pophale) SiO2 
 PCOD9215761
Probable space group: C 2/M
;
_chemical_formula_sum "Si O2"
_cell_formula_units_Z 56
_cell_length_a 16.553656
_cell_length_b 29.145300
_cell_length_c 8.752786
_cell_angle_alpha 90.000000
_cell_angle_beta 42.728704
_cell_angle_gamma 90.000000
_cell_volume 2865.341485
_symmetry_space_group_name_H-M "C 2/M"
_symmetry_group_IT_number 12
_symmetry_cell_setting 'monoclinic'
loop_
_space_group_symop_operation_xyz
x,y,z
-x,y,-z
-x,-y,-z
x,-y,z
1/2+x,1/2+y,z
1/2-x,1/2+y,-z
1/2-x,1/2-y,-z
1/2+x,1/2-y,z
loop_
_atom_site_type_symbol
_atom_site_label
_atom_site_fract_x
_atom_site_fract_y
_atom_site_fract_z
Si Si1 0.394685 0.147076 0.261769
Si Si2 0.334125 0.290710 0.495700
Si Si3 0.035037 0.447364 0.713545
Si Si4 0.820829 0.448354 0.804563
Si Si5 0.125461 0.698993 0.400571
Si Si6 0.670484 0.638016 0.001806
Si Si7 0.000000 0.157500 0.500000
Si Si8 0.000000 0.187744 0.000000
O O1 0.273954 0.173517 0.378827
O O2 0.404402 0.091502 0.265254
O O3 0.410115 0.164218 0.414360
O O4 0.500000 0.160859 0.000000
O O5 0.309110 0.241708 0.608108
O O6 0.424362 0.313243 0.487838
O O7 0.413459 0.284226 0.232568
O O8 0.034933 0.500000 0.773149
O O9 0.102838 0.449179 0.457060
O O10 0.901973 0.434375 0.838573
O O11 0.778907 0.500000 0.891921
O O12 0.721339 0.411914 0.905297
O O13 0.217270 0.673454 0.159257
O O14 0.000000 0.713050 0.500000
O O15 0.597722 0.633747 0.259062
O O16 0.584017 0.656358 0.989275
#
# Coordination Sequence:
#
# PCOD9215761 Si02
#       8
#     8   8   8   8   8   8   4   4
#     4  12  26  38  63  98 130 161 207 262 318 370
#     4  11  24  45  59  93 124 172 207 262 309 368
#     4   9  18  36  60  95 130 160 198 254 325 376
#     4   9  17  34  65  94 123 159 208 257 308 374
#     4  12  25  42  66  92 125 166 216 259 309 374
#     4  11  22  41  65  89 125 169 211 255 313 372
#     4  10  26  42  63  84 124 172 215 248 306 370
#     4  10  22  42  65  80 128 168 209 256 318 366
#
# _framework density 19.54392
#
# number of rings (size 3 to 8) (size 9 to 14) (size 15 to 20)
#    0.000    1.429    3.571    2.143    5.000    2.000 
#    0.000    0.714    0.000    3.429    0.000    0.000 
#    0.000    0.000    0.000    0.000    0.000    0.000 
#
# Total GULP energy -156073.891821 kJ/mol
# GULP energy per Si atom -5574.067565 kJ/mol
# Density = 1.949944 g / cm^3
# Si number density = 19.543920 Si / 1000 Ang^3
#
#
#
# Elastic Constant Matrix: (Units=GPa)
#
#
# Indices 1 2 3 4 5 6 
#
# 1 92.9734 31.1301 20.5329 0.0000 -16.4329 0.0000
# 2 31.1301 83.9676 9.8383 0.0000 -12.7710 0.0000
# 3 20.5329 9.8383 99.2211 0.0000 -1.3803 0.0000
# 4 0.0000 0.0000 0.0000 -1.2388 0.0000 -7.2612
# 5 -16.4329 -12.7710 -1.3803 0.0000 25.1619 0.0000
# 6 0.0000 0.0000 0.0000 -7.2612 0.0000 27.5216
#
#
#
# Elastic Compliance Matrix: (Units=1/GPa)
#
#
# Indices 1 2 3 4 5 6 
#
# 1 0.013772 -0.003770 -0.002380 0.000000 0.006950 0.000000
# 2 -0.003770 0.014079 -0.000551 0.000000 0.004654 0.000000
# 3 -0.002380 -0.000551 0.010608 0.000000 -0.001252 0.000000
# 4 0.000000 0.000000 0.000000 -0.316999 0.000000 -0.083636
# 5 0.006950 0.004654 -0.001252 0.000000 0.046575 0.000000
# 6 0.000000 0.000000 0.000000 -0.083636 0.000000 0.014269
#
#
# Mechanical properties :
#
#
# Convention : Reuss Voigt Hill
#
# Bulk Modulus (GPa) = 39.90676 44.35165 42.12921
# Shear Modulus (GPa) = -25.51785 24.59965 -0.45910
#
# Velocity S-wave (km/s) = -3.61732 3.55164 -0.48520
# Velocity P-wave (km/s) = 1.73685 6.28979 4.61401
#
# Compressibility (1/GPa) = 0.02505841
#
# Stress axis : x y z
#
# Youngs Moduli (GPa) = 72.61104 71.02573 94.26708
#
# Poissons Ratio (x) = 0.26776 0.22431
# Poissons Ratio (y) = 0.27374 0.05196
# Poissons Ratio (z) = 0.17278 0.03915
#
# Static dielectric constant tensor:
#      x y z
#    x 1.705350 0.000000 0.001470 
#    y 0.000000 1.695230 0.000000 
#    z 0.001470 0.000000 1.676000 
# 
# From -- ./inp_files/80458.got.cif
#   From: 2010.05.17/outbox.cif.g08.bks.cpg/sg12_41_cif.got.tgz:80458.got - 2010.06.03 13:09:07.
