data_PCOD9215137
_publ_section_title
;
Structure prediction by ZEFSAII (Michael W. Deem and Ramdas Pophale) SiO2 
 PCOD9215137
Probable space group: C 2/M
;
_chemical_formula_sum "Si O2"
_cell_formula_units_Z 32
_cell_length_a 15.919242
_cell_length_b 11.207765
_cell_length_c 19.309660
_cell_angle_alpha 90.000000
_cell_angle_beta 22.375483
_cell_angle_gamma 90.000000
_cell_volume 1311.505366
_symmetry_space_group_name_H-M "C 2/M"
_symmetry_group_IT_number 12
_symmetry_cell_setting 'monoclinic'
loop_
_space_group_symop_operation_xyz
x,y,z
-x,y,-z
-x,-y,-z
x,-y,z
1/2+x,1/2+y,z
1/2-x,1/2+y,-z
1/2-x,1/2-y,-z
1/2+x,1/2-y,z
loop_
_atom_site_type_symbol
_atom_site_label
_atom_site_fract_x
_atom_site_fract_y
_atom_site_fract_z
Si Si1 0.000000 0.686642 0.000000
Si Si2 0.529981 0.244387 0.326461
Si Si3 0.421506 0.000000 0.787882
Si Si4 0.988619 0.000000 0.291638
Si Si5 0.482021 0.000000 0.125800
Si Si6 0.500000 0.183970 0.500000
Si Si7 0.383453 0.500000 0.213627
O O1 0.795712 0.753350 0.124534
O O2 0.902641 0.609818 0.138862
O O3 0.496267 0.119136 0.313204
O O4 0.453253 0.368778 0.351385
O O5 0.446627 0.246907 0.468752
O O6 0.531138 0.000000 0.781483
O O7 0.147969 0.000000 0.996321
O O8 0.880929 0.000000 0.298657
O O9 0.254369 0.000000 0.084350
O O10 0.723950 0.108646 0.312349
#
# Coordination Sequence:
#
# PCOD9215137 Si02
#       7
#     4   8   4   4   4   4   4
#     4   9  18  37  62  88 120 154 194 246 302 356
#     4  11  23  40  62  91 122 159 202 248 300 358
#     4  11  22  38  66  93 118 156 202 249 304 356
#     4   9  22  41  61  88 123 156 198 251 304 357
#     4   8  18  36  61  92 120 150 196 252 301 354
#     4  11  24  39  58  88 126 162 204 248 294 354
#     4  10  22  41  62  89 123 158 198 252 303 355
#
# _framework density 24.399443000000002
#
# number of rings (size 3 to 8) (size 9 to 14) (size 15 to 20)
#    0.000    2.000    0.000    3.750    0.000   14.000 
#    0.000    2.500    0.000    1.500    0.000    0.000 
#    0.000    0.000    0.000    0.000    0.000    0.000 
#
# Total GULP energy -89239.896066 kJ/mol
# GULP energy per Si atom -5577.493504 kJ/mol
# Density = 2.434391 g / cm^3
# Si number density = 24.399443 Si / 1000 Ang^3
#
#
#
# Elastic Constant Matrix: (Units=GPa)
#
#
# Indices 1 2 3 4 5 6 
#
# 1 154.9746 97.0490 28.2933 0.0043 17.3616 -0.0059
# 2 97.0490 194.0235 34.8122 0.0080 32.2087 -0.0096
# 3 28.2933 34.8122 98.3808 0.0174 -12.1714 -0.0222
# 4 0.0043 0.0080 0.0174 87.5801 -0.0043 -48.6975
# 5 17.3616 32.2087 -12.1714 -0.0043 63.9834 0.0091
# 6 -0.0059 -0.0096 -0.0222 -48.6975 0.0091 83.3516
#
#
#
# Elastic Compliance Matrix: (Units=1/GPa)
#
#
# Indices 1 2 3 4 5 6 
#
# 1 0.009529 -0.004447 -0.001239 0.000000 -0.000583 0.000000
# 2 -0.004447 0.008312 -0.002079 0.000000 -0.003373 0.000000
# 3 -0.001239 -0.002079 0.011703 -0.000001 0.003609 0.000002
# 4 0.000000 0.000000 -0.000001 0.016912 0.000000 0.009881
# 5 -0.000583 -0.003373 0.003609 0.000000 0.018171 -0.000002
# 6 0.000000 0.000000 0.000002 0.009881 -0.000002 0.017770
#
#
# Mechanical properties :
#
#
# Convention : Reuss Voigt Hill
#
# Bulk Modulus (GPa) = 71.36354 85.29863 78.33108
# Shear Modulus (GPa) = 48.73309 66.13132 57.43220
#
# Velocity S-wave (km/s) = 4.47397 5.21176 4.85689
# Velocity P-wave (km/s) = 7.48332 8.44108 7.97658
#
# Compressibility (1/GPa) = 0.01401276
#
# Stress axis : x y z
#
# Youngs Moduli (GPa) = 104.94046 120.31456 85.44731
#
# Poissons Ratio (x) = 0.53509 0.10586
# Poissons Ratio (y) = 0.46672 0.17767
# Poissons Ratio (z) = 0.13000 0.25017
#
# Static dielectric constant tensor:
#      x y z
#    x 1.897820 0.000000 0.029660 
#    y 0.000000 1.977020 0.000010 
#    z 0.029660 0.000010 1.944760 
# 
# From -- ./inp_files/269170.got.cif
#   From: 2010.05.17/outbox.cif.g08.bks.cpg/sg12_135_cif.got.tgz:269170.got - 2010.06.03 13:09:07.
