data_PCOD9215802
_publ_section_title
;
Structure prediction by ZEFSAII (Michael W. Deem and Ramdas Pophale) SiO2 
 PCOD9215802
Probable space group: C 2/M
;
_chemical_formula_sum "Si O2"
_cell_formula_units_Z 52
_cell_length_a 24.984864
_cell_length_b 12.135525
_cell_length_c 10.949954
_cell_angle_alpha 90.000000
_cell_angle_beta 52.573789
_cell_angle_gamma 90.000000
_cell_volume 2636.593098
_symmetry_space_group_name_H-M "C 2/M"
_symmetry_group_IT_number 12
_symmetry_cell_setting 'monoclinic'
loop_
_space_group_symop_operation_xyz
x,y,z
-x,y,-z
-x,-y,-z
x,-y,z
1/2+x,1/2+y,z
1/2-x,1/2+y,-z
1/2-x,1/2-y,-z
1/2+x,1/2-y,z
loop_
_atom_site_type_symbol
_atom_site_label
_atom_site_fract_x
_atom_site_fract_y
_atom_site_fract_z
Si Si1 0.954203 0.000000 0.898039
Si Si2 0.287701 0.285248 0.825212
Si Si3 0.342024 0.128292 0.102454
Si Si4 0.590079 0.290426 0.186740
Si Si5 0.500000 0.181152 0.500000
Si Si6 0.330816 0.260590 0.367941
Si Si7 0.635303 0.124260 0.445873
Si Si8 0.395221 0.500000 0.252698
O O1 0.925459 0.108832 0.877273
O O2 0.034966 0.000000 0.768985
O O3 0.925890 0.000000 0.074096
O O4 0.237451 0.362524 0.821014
O O5 0.357761 0.329123 0.780394
O O6 0.306972 0.179368 0.717758
O O7 0.250000 0.250000 0.000000
O O8 0.350632 0.196978 0.215521
O O9 0.361486 0.000000 0.085826
O O10 0.380574 0.191164 0.938281
O O11 0.525612 0.250119 0.349495
O O12 0.566863 0.122409 0.460063
O O13 0.250000 0.250000 0.500000
O O14 0.367421 0.200282 0.430569
O O15 0.352952 0.388322 0.331479
O O16 0.652624 0.000000 0.457222
#
# Coordination Sequence:
#
# PCOD9215802 Si02
#       8
#     4   8   8   8   4   8   8   4
#     4  11  22  45  72  94 134 179 227 273 329 404
#     4   9  21  38  58  93 127 170 215 262 322 389
#     4  11  23  41  61  94 136 170 215 276 330 390
#     4  10  22  42  65  98 125 174 221 268 328 393
#     4  10  23  43  66  94 134 167 219 268 324 396
#     4  12  25  42  67 100 131 173 224 274 335 397
#     4  11  23  41  66  96 129 169 216 266 330 390
#     4  11  26  44  70  96 136 180 220 278 335 397
#
# _framework density 19.72242
#
# number of rings (size 3 to 8) (size 9 to 14) (size 15 to 20)
#    0.000    1.385    3.077    1.615    3.231    6.462 
#    4.154    0.769    0.000    2.769    0.000    0.000 
#    0.000    0.000    0.000    0.000    0.000    0.000 
#
# Total GULP energy -145048.666548 kJ/mol
# GULP energy per Si atom -5578.794867 kJ/mol
# Density = 1.967753 g / cm^3
# Si number density = 19.722420 Si / 1000 Ang^3
#
#
#
# Elastic Constant Matrix: (Units=GPa)
#
#
# Indices 1 2 3 4 5 6 
#
# 1 58.4696 50.3025 8.0022 0.0000 10.1416 0.0000
# 2 50.3025 167.1056 49.5428 0.0000 3.4028 0.0000
# 3 8.0022 49.5428 93.4807 0.0000 7.0900 0.0000
# 4 0.0000 0.0000 0.0000 31.8491 0.0000 14.0534
# 5 10.1416 3.4028 7.0900 0.0000 35.5509 0.0000
# 6 0.0000 0.0000 0.0000 14.0534 0.0000 6.8016
#
#
#
# Elastic Compliance Matrix: (Units=1/GPa)
#
#
# Indices 1 2 3 4 5 6 
#
# 1 0.024962 -0.008181 0.002721 0.000000 -0.006880 0.000000
# 2 -0.008181 0.009781 -0.004660 0.000000 0.002327 0.000000
# 3 0.002721 -0.004660 0.013158 0.000000 -0.002954 0.000000
# 4 0.000000 0.000000 0.000000 0.355611 0.000000 -0.734764
# 5 -0.006880 0.002327 -0.002954 0.000000 0.030458 0.000000
# 6 0.000000 0.000000 0.000000 -0.734764 0.000000 1.665193
#
#
# Mechanical properties :
#
#
# Convention : Reuss Voigt Hill
#
# Bulk Modulus (GPa) = 36.15167 59.41679 47.78423
# Shear Modulus (GPa) = 2.34894 28.92088 15.63491
#
# Velocity S-wave (km/s) = 1.09251 3.83351 2.81863
# Velocity P-wave (km/s) = 4.46783 7.05594 5.90541
#
# Compressibility (1/GPa) = 0.02766124
#
# Stress axis : x y z
#
# Youngs Moduli (GPa) = 40.06110 102.23966 75.99818
#
# Poissons Ratio (x) = 0.83638 -0.20676
# Poissons Ratio (y) = 0.32772 0.35414
# Poissons Ratio (z) = -0.10899 0.47643
#
# Static dielectric constant tensor:
#      x y z
#    x 1.754280 0.000000 -0.026710 
#    y 0.000000 1.718580 0.000000 
#    z -0.026710 0.000000 1.689070 
# 
# From -- ./inp_files/175224.got.cif
#   From: 2010.05.17/outbox.cif.g08.bks.cpg/sg12_88_cif.got.tgz:175224.got - 2010.06.03 13:09:07.
