data_PCOD9215637
_publ_section_title
;
Structure prediction by ZEFSAII (Michael W. Deem and Ramdas Pophale) SiO2 
 PCOD9215637
Probable space group: C 2/M
;
_chemical_formula_sum "Si O2"
_cell_formula_units_Z 46
_cell_length_a 14.746451
_cell_length_b 14.658275
_cell_length_c 11.765697
_cell_angle_alpha 90.000000
_cell_angle_beta 123.828897
_cell_angle_gamma 90.000000
_cell_volume 2112.682489
_symmetry_space_group_name_H-M "C 2/M"
_symmetry_group_IT_number 12
_symmetry_cell_setting 'monoclinic'
loop_
_space_group_symop_operation_xyz
x,y,z
-x,y,-z
-x,-y,-z
x,-y,z
1/2+x,1/2+y,z
1/2-x,1/2+y,-z
1/2-x,1/2-y,-z
1/2+x,1/2-y,z
loop_
_atom_site_type_symbol
_atom_site_label
_atom_site_fract_x
_atom_site_fract_y
_atom_site_fract_z
Si Si1 0.203970 0.893623 0.267631
Si Si2 0.321940 0.000000 0.673413
Si Si3 0.000000 0.500000 0.000000
Si Si4 0.150077 0.680761 0.458741
Si Si5 0.206461 0.500000 0.991056
Si Si6 0.117720 0.000000 0.681167
Si Si7 0.989072 0.156342 0.705204
Si Si8 0.815908 0.172535 0.982215
O O1 0.319587 0.858019 0.395968
O O2 0.118161 0.886737 0.311632
O O3 0.164632 0.826495 0.139052
O O4 0.205524 0.000000 0.236590
O O5 0.396403 0.000000 0.837395
O O6 0.346532 0.907521 0.620607
O O7 0.194546 0.000000 0.624445
O O8 0.086149 0.500000 0.954364
O O9 0.250000 0.750000 0.500000
O O10 0.044872 0.744932 0.367525
O O11 0.235292 0.587665 0.939251
O O12 0.295983 0.500000 0.154514
O O13 0.044231 0.910672 0.652031
O O14 0.073863 0.162440 0.869305
O O15 0.750000 0.250000 0.000000
#
# Coordination Sequence:
#
# PCOD9215637 Si02
#       8
#     8   4   2   8   4   4   8   8
#     4  11  21  43  72  96 137 187 221 284 357 421
#     4  11  23  46  73  98 144 188 240 288 350 419
#     4  10  24  40  76  90 132 184 228 272 354 408
#     4  10  24  43  67 102 141 186 231 280 351 429
#     4   9  21  40  61  96 133 168 216 289 345 399
#     4   9  20  41  70 104 134 177 235 302 338 397
#     4  10  22  41  70 106 135 179 237 286 351 411
#     4  11  24  41  67 101 136 169 235 291 339 415
#
# _framework density 21.773268000000002
#
# number of rings (size 3 to 8) (size 9 to 14) (size 15 to 20)
#    0.000    1.739    2.609    0.522    2.435    9.043 
#    0.000   11.304    0.000    3.130    0.000    0.000 
#    0.000    0.000    0.000    0.000    0.000    0.000 
#
# Total GULP energy -128093.462351 kJ/mol
# GULP energy per Si atom -5569.280972 kJ/mol
# Density = 2.172371 g / cm^3
# Si number density = 21.773268 Si / 1000 Ang^3
#
#
#
# Elastic Constant Matrix: (Units=GPa)
#
#
# Indices 1 2 3 4 5 6 
#
# 1 107.2685 49.7666 24.6121 0.0000 12.6612 0.0000
# 2 49.7666 149.3127 32.8791 0.0000 -1.0913 0.0000
# 3 24.6121 32.8791 127.3905 0.0000 3.5068 0.0000
# 4 0.0000 0.0000 0.0000 25.2054 0.0000 12.5817
# 5 12.6612 -1.0913 3.5068 0.0000 11.3929 0.0000
# 6 0.0000 0.0000 0.0000 12.5817 0.0000 178.6443
#
#
#
# Elastic Compliance Matrix: (Units=1/GPa)
#
#
# Indices 1 2 3 4 5 6 
#
# 1 0.013326 -0.004319 -0.001050 0.000000 -0.014900 0.000000
# 2 -0.004319 0.008519 -0.001532 0.000000 0.006088 0.000000
# 3 -0.001050 -0.001532 0.008492 0.000000 -0.001594 0.000000
# 4 0.000000 0.000000 0.000000 0.041120 0.000000 -0.002896
# 5 -0.014900 0.006088 -0.001594 0.000000 0.105407 0.000000
# 6 0.000000 0.000000 0.000000 -0.002896 0.000000 0.005802
#
#
# Mechanical properties :
#
#
# Convention : Reuss Voigt Hill
#
# Bulk Modulus (GPa) = 60.47724 66.49859 63.48792
# Shear Modulus (GPa) = 24.75515 61.49609 43.12562
#
# Velocity S-wave (km/s) = 3.37553 5.32026 4.45530
# Velocity P-wave (km/s) = 6.55961 8.26728 7.46245
#
# Compressibility (1/GPa) = 0.01653514
#
# Stress axis : x y z
#
# Youngs Moduli (GPa) = 75.04197 117.38725 117.75940
#
# Poissons Ratio (x) = 0.50704 0.12360
# Poissons Ratio (y) = 0.32413 0.18038
# Poissons Ratio (z) = 0.07876 0.17981
#
# Static dielectric constant tensor:
#      x y z
#    x 1.900330 0.000000 0.014440 
#    y 0.000000 1.766450 0.000000 
#    z 0.014440 0.000000 1.857640 
# 
# From -- ./inp_files/143947.got.cif
#   From: 2010.05.17/outbox.cif.g08.bks.cpg/sg12_72_cif.got.tgz:143947.got - 2010.06.03 13:09:07.
