data_PCOD9215059
_publ_section_title
;
Structure prediction by ZEFSAII (Michael W. Deem and Ramdas Pophale) SiO2 
 PCOD9215059
Probable space group: C 2/M
;
_chemical_formula_sum "Si O2"
_cell_formula_units_Z 56
_cell_length_a 14.868572
_cell_length_b 8.647752
_cell_length_c 25.437217
_cell_angle_alpha 90.000000
_cell_angle_beta 116.487279
_cell_angle_gamma 90.000000
_cell_volume 2927.394999
_symmetry_space_group_name_H-M "C 2/M"
_symmetry_group_IT_number 12
_symmetry_cell_setting 'monoclinic'
loop_
_space_group_symop_operation_xyz
x,y,z
-x,y,-z
-x,-y,-z
x,-y,z
1/2+x,1/2+y,z
1/2-x,1/2+y,-z
1/2-x,1/2-y,-z
1/2+x,1/2-y,z
loop_
_atom_site_type_symbol
_atom_site_label
_atom_site_fract_x
_atom_site_fract_y
_atom_site_fract_z
Si Si1 0.838701 0.314442 0.772424
Si Si2 0.124335 0.316458 0.687319
Si Si3 0.850171 0.313138 0.999184
Si Si4 0.314046 0.327920 0.562107
Si Si5 0.070485 0.688000 0.092757
Si Si6 0.468880 0.675926 0.435588
Si Si7 0.576372 0.687073 0.311862
O O1 0.846574 0.500000 0.771433
O O2 0.723832 0.264103 0.734772
O O3 0.881483 0.262055 0.839934
O O4 0.899555 0.239598 0.740328
O O5 0.133407 0.500000 0.693524
O O6 0.104425 0.269027 0.621378
O O7 0.028011 0.257103 0.694851
O O8 0.845828 0.500000 0.999040
O O9 0.867054 0.264066 0.942771
O O10 0.750000 0.250000 0.000000
O O11 0.953960 0.265387 0.055209
O O12 0.272572 0.500000 0.558626
O O13 0.250000 0.250000 0.500000
O O14 0.426641 0.336182 0.568441
O O15 0.334690 0.257371 0.624965
O O16 0.070797 0.500000 0.092321
O O17 0.500000 0.744000 0.500000
O O18 0.430277 0.500000 0.434349
O O19 0.572736 0.500000 0.314688
#
# Coordination Sequence:
#
# PCOD9215059 Si02
#       7
#     8   8   8   8   8   8   8
#     4  11  22  38  61  86 115 157 197 239 292 345
#     4  11  23  39  57  82 113 150 193 239 290 349
#     4   9  17  35  60  86 118 154 190 233 279 331
#     4   9  19  33  51  75 103 133 172 224 283 343
#     4   8  18  36  57  83 117 154 193 230 278 341
#     4   9  19  36  55  77 104 139 181 231 289 349
#     4  10  22  41  58  80 112 149 191 241 292 349
#
# _framework density 19.129636000000001
#
# number of rings (size 3 to 8) (size 9 to 14) (size 15 to 20)
#    0.000    2.429    0.000    3.857    2.000    4.286 
#    0.000    7.143    0.000    0.000    0.000    0.000 
#    0.000    0.000    0.000    0.000    0.000    0.000 
#
# Total GULP energy -156179.178172 kJ/mol
# GULP energy per Si atom -5577.827792 kJ/mol
# Density = 1.908610 g / cm^3
# Si number density = 19.129636 Si / 1000 Ang^3
#
#
#
# Elastic Constant Matrix: (Units=GPa)
#
#
# Indices 1 2 3 4 5 6 
#
# 1 105.0743 8.5644 64.9454 0.0000 -8.0702 0.0000
# 2 8.5644 36.1415 23.7312 0.0000 -4.0463 0.0000
# 3 64.9454 23.7312 184.4611 0.0000 -16.3849 0.0000
# 4 0.0000 0.0000 0.0000 16.9418 0.0000 -2.1534
# 5 -8.0702 -4.0463 -16.3849 0.0000 20.1897 0.0000
# 6 0.0000 0.0000 0.0000 -2.1534 0.0000 29.5934
#
#
#
# Elastic Compliance Matrix: (Units=1/GPa)
#
#
# Indices 1 2 3 4 5 6 
#
# 1 0.012206 0.000011 -0.004166 0.000000 0.001501 0.000000
# 2 0.000011 0.030406 -0.003636 0.000000 0.003147 0.000000
# 3 -0.004166 -0.003636 0.007698 0.000000 0.003853 0.000000
# 4 0.000000 0.000000 0.000000 0.059577 0.000000 0.004335
# 5 0.001501 0.003147 0.003853 0.000000 0.053888 0.000000
# 6 0.000000 0.000000 0.000000 0.004335 0.000000 0.034107
#
#
# Mechanical properties :
#
#
# Convention : Reuss Voigt Hill
#
# Bulk Modulus (GPa) = 28.79470 57.79543 43.29507
# Shear Modulus (GPa) = 22.21825 28.57403 25.39614
#
# Velocity S-wave (km/s) = 3.41171 3.86904 3.64755
# Velocity P-wave (km/s) = 5.53216 7.08783 6.35776
#
# Compressibility (1/GPa) = 0.03472861
#
# Stress axis : x y z
#
# Youngs Moduli (GPa) = 81.92546 32.88784 129.90507
#
# Poissons Ratio (x) = -0.00035 0.54114
# Poissons Ratio (y) = -0.00088 0.47234
# Poissons Ratio (z) = 0.34128 0.11958
#
# Static dielectric constant tensor:
#      x y z
#    x 1.666220 0.000000 -0.015780 
#    y 0.000000 1.665450 0.000000 
#    z -0.015780 0.000000 1.682680 
# 
# From -- ./inp_files/360025.got.cif
#   From: 2010.05.17/outbox.cif.g08.bks.cpg/sg12_181_cif.got.tgz:360025.got - 2010.06.03 13:09:07.
