data_PCOD9215972
_publ_section_title
;
Structure prediction by ZEFSAII (Michael W. Deem and Ramdas Pophale) SiO2 
 PCOD9215972
Probable space group: C 2/M
;
_chemical_formula_sum "Si O2"
_cell_formula_units_Z 48
_cell_length_a 24.813079
_cell_length_b 22.059243
_cell_length_c 8.695118
_cell_angle_alpha 90.000000
_cell_angle_beta 28.145018
_cell_angle_gamma 90.000000
_cell_volume 2245.003745
_symmetry_space_group_name_H-M "C 2/M"
_symmetry_group_IT_number 12
_symmetry_cell_setting 'monoclinic'
loop_
_space_group_symop_operation_xyz
x,y,z
-x,y,-z
-x,-y,-z
x,-y,z
1/2+x,1/2+y,z
1/2-x,1/2+y,-z
1/2-x,1/2-y,-z
1/2+x,1/2-y,z
loop_
_atom_site_type_symbol
_atom_site_label
_atom_site_fract_x
_atom_site_fract_y
_atom_site_fract_z
Si Si1 0.544466 0.371508 0.168408
Si Si2 0.298486 0.430260 0.476855
Si Si3 0.666621 0.810734 0.713284
Si Si4 0.462904 0.245361 0.414024
Si Si5 0.278390 0.164273 0.756288
Si Si6 0.320580 0.567028 0.788374
O O1 0.471148 0.311548 0.315672
O O2 0.450514 0.412486 0.486043
O O3 0.595700 0.409194 0.897233
O O4 0.651399 0.343737 0.997505
O O5 0.266416 0.500000 0.510796
O O6 0.217506 0.372264 0.655722
O O7 0.313351 0.432499 0.622133
O O8 0.750000 0.750000 0.500000
O O9 0.647178 0.830552 0.586063
O O10 0.557941 0.792906 0.085716
O O11 0.500000 0.247926 0.500000
O O12 0.337842 0.217854 0.702869
O O13 0.269920 0.109807 0.898702
O O14 0.302597 0.500000 0.894379
#
# Coordination Sequence:
#
# PCOD9215972 Si02
#       6
#     8   8   8   8   8   8
#     4  11  24  40  65  99 136 181 227 282 346 410
#     4  10  22  42  69 100 137 183 232 283 341 413
#     4  11  23  44  68 101 136 185 226 282 343 410
#     4  12  25  43  69  99 137 179 225 285 348 409
#     4  11  25  42  64  99 131 178 226 282 342 406
#     4  11  24  42  67 100 140 184 228 284 349 409
#
# _framework density 21.380811000000001
#
# number of rings (size 3 to 8) (size 9 to 14) (size 15 to 20)
#    0.000    1.000    3.333    4.000    2.333    9.333 
#    0.000    0.833    0.000    8.000    0.000    0.000 
#    0.000    0.000    0.000    0.000    0.000    0.000 
#
# Total GULP energy -133621.604464 kJ/mol
# GULP energy per Si atom -5567.566853 kJ/mol
# Density = 2.133215 g / cm^3
# Si number density = 21.380811 Si / 1000 Ang^3
#
#
#
# Elastic Constant Matrix: (Units=GPa)
#
#
# Indices 1 2 3 4 5 6 
#
# 1 66.9057 39.5791 23.0595 0.0000 11.5604 0.0000
# 2 39.5791 179.8248 65.8894 0.0000 0.3461 0.0000
# 3 23.0595 65.8894 120.1152 0.0000 29.3403 0.0000
# 4 0.0000 0.0000 0.0000 29.3714 0.0000 17.1915
# 5 11.5604 0.3461 29.3403 0.0000 29.9468 0.0000
# 6 0.0000 0.0000 0.0000 17.1915 0.0000 -162.4071
#
#
#
# Elastic Compliance Matrix: (Units=1/GPa)
#
#
# Indices 1 2 3 4 5 6 
#
# 1 0.018627 -0.004352 0.000730 0.000000 -0.007856 0.000000
# 2 -0.004352 0.008547 -0.005573 0.000000 0.007042 0.000000
# 3 0.000730 -0.005573 0.014849 0.000000 -0.014766 0.000000
# 4 0.000000 0.000000 0.000000 0.032060 0.000000 0.003394
# 5 -0.007856 0.007042 -0.014766 0.000000 0.050811 0.000000
# 6 0.000000 0.000000 0.000000 0.003394 0.000000 -0.005798
#
#
# Mechanical properties :
#
#
# Convention : Reuss Voigt Hill
#
# Bulk Modulus (GPa) = 42.31332 69.32241 55.81786
# Shear Modulus (GPa) = 34.39645 -4.72994 14.83325
#
# Velocity S-wave (km/s) = 4.01528 -1.48897 2.63680
# Velocity P-wave (km/s) = 6.42883 5.43480 5.95260
#
# Compressibility (1/GPa) = 0.02363322
#
# Stress axis : x y z
#
# Youngs Moduli (GPa) = 53.68651 116.99466 67.34381
#
# Poissons Ratio (x) = 0.50918 -0.04919
# Poissons Ratio (y) = 0.23365 0.37532
# Poissons Ratio (z) = -0.03921 0.65204
#
# Static dielectric constant tensor:
#      x y z
#    x 1.932010 0.000000 0.015940 
#    y 0.000000 1.804330 0.000000 
#    z 0.015940 0.000000 1.785050 
# 
# From -- ./inp_files/106516.got.cif
#   From: 2010.05.17/outbox.cif.g08.bks.cpg/sg12_54_cif.got.tgz:106516.got - 2010.06.03 13:09:07.
