data_PCOD9215338
_publ_section_title
;
Structure prediction by ZEFSAII (Michael W. Deem and Ramdas Pophale) SiO2 
 PCOD9215338
Probable space group: C 2/M
;
_chemical_formula_sum "Si O2"
_cell_formula_units_Z 40
_cell_length_a 9.345032
_cell_length_b 20.050932
_cell_length_c 8.947937
_cell_angle_alpha 90.000000
_cell_angle_beta 75.543909
_cell_angle_gamma 90.000000
_cell_volume 1623.550509
_symmetry_space_group_name_H-M "C 2/M"
_symmetry_group_IT_number 12
_symmetry_cell_setting 'monoclinic'
loop_
_space_group_symop_operation_xyz
x,y,z
-x,y,-z
-x,-y,-z
x,-y,z
1/2+x,1/2+y,z
1/2-x,1/2+y,-z
1/2-x,1/2-y,-z
1/2+x,1/2-y,z
loop_
_atom_site_type_symbol
_atom_site_label
_atom_site_fract_x
_atom_site_fract_y
_atom_site_fract_z
Si Si1 0.912817 0.077783 0.730405
Si Si2 0.226258 0.320536 0.594495
Si Si3 0.753451 0.390363 0.693422
Si Si4 0.348054 0.924660 0.981594
Si Si5 0.850693 0.239899 0.116448
O O1 0.863312 0.137524 0.631088
O O2 0.088238 0.080464 0.713788
O O3 0.882592 0.000000 0.689706
O O4 0.809543 0.094712 0.902330
O O5 0.250000 0.250000 0.500000
O O6 0.171928 0.373730 0.484906
O O7 0.133225 0.297836 0.763062
O O8 0.840091 0.425076 0.804572
O O9 0.722827 0.318983 0.773863
O O10 0.357043 0.000000 0.034263
O O11 0.500000 0.891530 0.000000
O O12 0.750000 0.250000 0.000000
O O13 0.000000 0.219831 0.000000
#
# Coordination Sequence:
#
# PCOD9215338 Si02
#       5
#     8   8   8   8   8
#     4  11  23  42  70 102 137 180 235 293 349 420
#     4  10  24  42  63 101 143 178 221 283 353 419
#     4  11  22  40  67 100 135 175 233 297 357 412
#     4  10  22  41  64  95 138 186 234 284 348 428
#     4  11  23  41  66  93 133 182 231 285 343 415
#
# _framework density 24.637360000000001
#
# number of rings (size 3 to 8) (size 9 to 14) (size 15 to 20)
#    0.000    1.400    0.000    5.400    0.000    8.800 
#    0.000   14.000    0.000    3.600    0.000    0.000 
#    0.000    0.000    0.000    0.000    0.000    0.000 
#
# Total GULP energy -111433.503352 kJ/mol
# GULP energy per Si atom -5571.675168 kJ/mol
# Density = 2.458128 g / cm^3
# Si number density = 24.637360 Si / 1000 Ang^3
#
#
#
# Elastic Constant Matrix: (Units=GPa)
#
#
# Indices 1 2 3 4 5 6 
#
# 1 74.1413 14.2126 23.2717 0.0000 32.3549 0.0000
# 2 14.2126 105.3204 27.5747 0.0000 6.7734 0.0000
# 3 23.2717 27.5747 134.2327 0.0000 6.5305 0.0000
# 4 0.0000 0.0000 0.0000 4.8669 0.0000 11.2698
# 5 32.3549 6.7734 6.5305 0.0000 25.7057 0.0000
# 6 0.0000 0.0000 0.0000 11.2698 0.0000 26.1812
#
#
#
# Elastic Compliance Matrix: (Units=1/GPa)
#
#
# Indices 1 2 3 4 5 6 
#
# 1 0.031614 -0.000883 -0.003417 0.000000 -0.038691 0.000000
# 2 -0.000883 0.010178 -0.001885 0.000000 -0.001091 0.000000
# 3 -0.003417 -0.001885 0.008298 0.000000 0.002689 0.000000
# 4 0.000000 0.000000 0.000000 63.581534 0.000000-27.368961
# 5 -0.038691 -0.001091 0.002689 0.000000 0.087205 0.000000
# 6 0.000000 0.000000 0.000000-27.368961 0.000000 11.819290
#
#
# Mechanical properties :
#
#
# Convention : Reuss Voigt Hill
#
# Bulk Modulus (GPa) = 26.51080 49.31248 37.91164
# Shear Modulus (GPa) = 0.06617 27.92645 13.99631
#
# Velocity S-wave (km/s) = 0.16406 3.37040 2.38606
# Velocity P-wave (km/s) = 3.28932 5.93337 4.79711
#
# Compressibility (1/GPa) = 0.03772047
#
# Stress axis : x y z
#
# Youngs Moduli (GPa) = 31.63143 98.25490 120.50435
#
# Poissons Ratio (x) = 0.08678 0.41178
# Poissons Ratio (y) = 0.02794 0.22709
# Poissons Ratio (z) = 0.10809 0.18516
#
# Static dielectric constant tensor:
#      x y z
#    x 1.999070 0.000000 0.089800 
#    y 0.000000 2.036790 0.000000 
#    z 0.089800 0.000000 2.060300 
# 
# From -- ./inp_files/39339.got.cif
#   From: 2010.05.17/outbox.cif.g08.bks.cpg/sg12_20_cif.got.tgz:39339.got - 2010.06.03 13:09:07.
