data_PCOD9215378
_publ_section_title
;
Structure prediction by ZEFSAII (Michael W. Deem and Ramdas Pophale) SiO2 
 PCOD9215378
Probable space group: C 2/M
;
_chemical_formula_sum "Si O2"
_cell_formula_units_Z 36
_cell_length_a 5.325409
_cell_length_b 13.865150
_cell_length_c 24.883170
_cell_angle_alpha 90.000000
_cell_angle_beta 121.842565
_cell_angle_gamma 90.000000
_cell_volume 1560.799556
_symmetry_space_group_name_H-M "C 2/M"
_symmetry_group_IT_number 12
_symmetry_cell_setting 'monoclinic'
loop_
_space_group_symop_operation_xyz
x,y,z
-x,y,-z
-x,-y,-z
x,-y,z
1/2+x,1/2+y,z
1/2-x,1/2+y,-z
1/2-x,1/2-y,-z
1/2+x,1/2-y,z
loop_
_atom_site_type_symbol
_atom_site_label
_atom_site_fract_x
_atom_site_fract_y
_atom_site_fract_z
Si Si1 0.114103 0.000000 0.341622
Si Si2 0.301735 0.810507 0.425212
Si Si3 0.410349 0.000000 0.259130
Si Si4 0.576642 0.214115 0.767677
Si Si5 0.576246 0.205887 0.090961
Si Si6 0.853576 0.500000 0.042228
O O1 0.243477 0.094659 0.384182
O O2 0.210561 0.000000 0.289972
O O3 0.760755 0.000000 0.309920
O O4 0.500000 0.834926 0.500000
O O5 0.498643 0.735363 0.413337
O O6 0.357454 0.899321 0.222564
O O7 0.732753 0.261318 0.734082
O O8 0.718398 0.267872 0.835031
O O9 0.288785 0.273952 0.064450
O O10 0.466366 0.097265 0.082637
O O11 0.500000 0.500000 0.000000
O O12 0.000000 0.500000 0.000000
#
# Coordination Sequence:
#
# PCOD9215378 Si02
#       6
#     4   8   4   8   8   4
#     4  12  25  40  63  94 132 166 208 266 327 372
#     4  10  22  41  65  92 126 170 215 258 314 387
#     4  12  26  40  62  96 126 165 212 267 319 368
#     4  10  23  42  65  90 123 165 214 259 306 373
#     4  10  23  42  67  93 125 167 206 252 309 377
#     4  12  26  42  66 100 132 161 204 261 319 374
#
# _framework density 23.065100000000001
#
# number of rings (size 3 to 8) (size 9 to 14) (size 15 to 20)
#    0.000    1.333    0.000    4.333    0.000   15.111 
#    0.000    4.444    0.000    0.000    0.000    0.000 
#    0.000    0.000    0.000    0.000    0.000    0.000 
#
# Total GULP energy -100789.482839 kJ/mol
# GULP energy per Si atom -5599.415713 kJ/mol
# Density = 2.301260 g / cm^3
# Si number density = 23.065100 Si / 1000 Ang^3
#
#
#
# Elastic Constant Matrix: (Units=GPa)
#
#
# Indices 1 2 3 4 5 6 
#
# 1 158.6303 2.7967 -4.5560 0.0000 -6.2137 -0.0001
# 2 2.7967 162.5420 21.7684 0.0000 -5.3322 0.0000
# 3 -4.5560 21.7684 68.7290 0.0000 -10.8791 0.0000
# 4 0.0000 0.0000 0.0000 36.1797 0.0000 -8.3162
# 5 -6.2137 -5.3322 -10.8791 0.0000 16.1263 0.0000
# 6 -0.0001 0.0000 0.0000 -8.3162 0.0000 33.4008
#
#
#
# Elastic Compliance Matrix: (Units=1/GPa)
#
#
# Indices 1 2 3 4 5 6 
#
# 1 0.006455 -0.000138 0.000961 0.000000 0.003090 0.000000
# 2 -0.000138 0.006438 -0.001925 0.000000 0.000777 0.000000
# 3 0.000961 -0.001925 0.016996 0.000000 0.011200 0.000000
# 4 0.000000 0.000000 0.000000 0.029318 0.000000 0.007300
# 5 0.003090 0.000777 0.011200 0.000000 0.071013 0.000000
# 6 0.000000 0.000000 0.000000 0.007300 0.000000 0.031757
#
#
# Mechanical properties :
#
#
# Convention : Reuss Voigt Hill
#
# Bulk Modulus (GPa) = 36.12288 47.76885 41.94587
# Shear Modulus (GPa) = 28.83331 41.80084 35.31707
#
# Velocity S-wave (km/s) = 3.53949 4.26173 3.91729
# Velocity P-wave (km/s) = 5.69203 6.70610 6.21977
#
# Compressibility (1/GPa) = 0.02768328
#
# Stress axis : x y z
#
# Youngs Moduli (GPa) = 154.91808 155.32869 58.83675
#
# Poissons Ratio (x) = 0.02150 -0.05653
# Poissons Ratio (y) = 0.02144 0.11328
# Poissons Ratio (z) = -0.14884 0.29906
#
# Static dielectric constant tensor:
#      x y z
#    x 1.964670 0.000000 -0.038990 
#    y 0.000000 1.818420 0.000000 
#    z -0.038990 0.000000 1.969760 
# 
# From -- ./inp_files/371343.got.cif
#   From: 2010.05.17/outbox.cif.g08.bks.cpg/sg12_186_cif.got.tgz:371343.got - 2010.06.03 13:09:07.
