data_PCOD9215387
_publ_section_title
;
Structure prediction by ZEFSAII (Michael W. Deem and Ramdas Pophale) SiO2 
 PCOD9215387
Probable space group: C 2/M
;
_chemical_formula_sum "Si O2"
_cell_formula_units_Z 40
_cell_length_a 18.071280
_cell_length_b 8.726899
_cell_length_c 13.895264
_cell_angle_alpha 90.000000
_cell_angle_beta 109.103303
_cell_angle_gamma 90.000000
_cell_volume 2070.691144
_symmetry_space_group_name_H-M "C 2/M"
_symmetry_group_IT_number 12
_symmetry_cell_setting 'monoclinic'
loop_
_space_group_symop_operation_xyz
x,y,z
-x,y,-z
-x,-y,-z
x,-y,z
1/2+x,1/2+y,z
1/2-x,1/2+y,-z
1/2-x,1/2-y,-z
1/2+x,1/2-y,z
loop_
_atom_site_type_symbol
_atom_site_label
_atom_site_fract_x
_atom_site_fract_y
_atom_site_fract_z
Si Si1 0.023132 0.183397 0.900409
Si Si2 0.784433 0.183120 0.299403
Si Si3 0.412482 0.183468 0.500083
Si Si4 0.620803 0.683372 0.303660
Si Si5 0.686204 0.817549 0.899674
O O1 0.100387 0.270905 0.900120
O O2 0.950839 0.217065 0.798970
O O3 0.038537 0.000000 0.902626
O O4 0.000000 0.221209 0.000000
O O5 0.849702 0.248330 0.399461
O O6 0.699846 0.239496 0.299229
O O7 0.800197 0.247212 0.199778
O O8 0.787576 0.000000 0.299977
O O9 0.500000 0.216688 0.500000
O O10 0.399156 0.255180 0.599130
O O11 0.402920 0.000000 0.501262
O O12 0.631671 0.500000 0.311148
O O13 0.694119 0.000000 0.898277
O O14 0.750000 0.750000 0.000000
#
# Coordination Sequence:
#
# PCOD9215387 Si02
#       5
#     8   8   8   8   8
#     4  10  22  41  65  93 126 164 206 254 308 365
#     4  12  25  42  65  92 125 163 207 257 310 368
#     4  11  24  42  64  91 125 164 208 257 309 368
#     4  11  23  40  64  93 127 165 207 256 310 369
#     4  12  25  42  65  93 127 164 206 254 306 366
#
# _framework density 19.317222000000001
#
# number of rings (size 3 to 8) (size 9 to 14) (size 15 to 20)
#    0.000    0.800    0.000    7.800    0.000    8.400 
#    0.000    0.000    0.000    0.000    0.000    0.000 
#    0.000    0.000    0.000    0.000    0.000    0.000 
#
# Total GULP energy -112005.620337 kJ/mol
# GULP energy per Si atom -5600.281017 kJ/mol
# Density = 1.927326 g / cm^3
# Si number density = 19.317222 Si / 1000 Ang^3
#
#
#
# Elastic Constant Matrix: (Units=GPa)
#
#
# Indices 1 2 3 4 5 6 
#
# 1 136.1262 70.5607 84.4796 0.0000 8.7357 0.0000
# 2 70.5607 99.1660 71.1036 0.0000 14.2139 0.0000
# 3 84.4796 71.1036 206.7278 0.0000 4.0455 0.0000
# 4 0.0000 0.0000 0.0000 41.3242 0.0000 -16.5266
# 5 8.7357 14.2139 4.0455 0.0000 37.7135 0.0000
# 6 0.0000 0.0000 0.0000 -16.5266 0.0000 56.5983
#
#
#
# Elastic Compliance Matrix: (Units=1/GPa)
#
#
# Indices 1 2 3 4 5 6 
#
# 1 0.012731 -0.007075 -0.002769 0.000000 0.000015 0.000000
# 2 -0.007075 0.018148 -0.003256 0.000000 -0.004852 0.000000
# 3 -0.002769 -0.003256 0.007067 0.000000 0.001111 0.000000
# 4 0.000000 0.000000 0.000000 0.027398 0.000000 0.008000
# 5 0.000015 -0.004852 0.001111 0.000000 0.028222 0.000000
# 6 0.000000 0.000000 0.000000 0.008000 0.000000 0.020004
#
#
# Mechanical properties :
#
#
# Convention : Reuss Voigt Hill
#
# Bulk Modulus (GPa) = 85.13709 99.36754 92.25232
# Shear Modulus (GPa) = 34.79769 41.51893 38.15831
#
# Velocity S-wave (km/s) = 4.24887 4.64111 4.44931
# Velocity P-wave (km/s) = 8.26071 8.95943 8.61716
#
# Compressibility (1/GPa) = 0.01174576
#
# Stress axis : x y z
#
# Youngs Moduli (GPa) = 78.54646 55.10151 141.50019
#
# Poissons Ratio (x) = 0.38985 0.39188
# Poissons Ratio (y) = 0.55573 0.46070
# Poissons Ratio (z) = 0.21753 0.17940
#
# Static dielectric constant tensor:
#      x y z
#    x 1.632420 0.000000 0.002540 
#    y 0.000000 1.648980 0.000000 
#    z 0.002540 0.000000 1.631520 
# 
# From -- ./inp_files/151953.got.cif
#   From: 2010.05.17/outbox.cif.g08.bks.cpg/sg12_76_cif.got.tgz:151953.got - 2010.06.03 13:09:07.
