data_PCOD9215657
_publ_section_title
;
Structure prediction by ZEFSAII (Michael W. Deem and Ramdas Pophale) SiO2 
 PCOD9215657
Probable space group: C 2/M
;
_chemical_formula_sum "Si O2"
_cell_formula_units_Z 26
_cell_length_a 10.126725
_cell_length_b 21.115181
_cell_length_c 5.110080
_cell_angle_alpha 90.000000
_cell_angle_beta 76.935997
_cell_angle_gamma 90.000000
_cell_volume 1064.395843
_symmetry_space_group_name_H-M "C 2/M"
_symmetry_group_IT_number 12
_symmetry_cell_setting 'monoclinic'
loop_
_space_group_symop_operation_xyz
x,y,z
-x,y,-z
-x,-y,-z
x,-y,z
1/2+x,1/2+y,z
1/2-x,1/2+y,-z
1/2-x,1/2-y,-z
1/2+x,1/2-y,z
loop_
_atom_site_type_symbol
_atom_site_label
_atom_site_fract_x
_atom_site_fract_y
_atom_site_fract_z
Si Si1 0.841561 0.388591 0.343131
Si Si2 0.152999 0.126493 0.934108
Si Si3 0.899470 0.751500 0.322350
Si Si4 0.000000 0.500000 0.000000
O O1 0.755256 0.392810 0.652460
O O2 0.925612 0.322869 0.279080
O O3 0.727403 0.387653 0.168570
O O4 0.940353 0.445063 0.226244
O O5 0.126746 0.202039 0.909289
O O6 0.000000 0.098330 0.000000
O O7 0.750000 0.750000 0.500000
O O8 0.000000 0.778151 0.500000
#
# Coordination Sequence:
#
# PCOD9215657 Si02
#       4
#     8   8   8   2
#     4  11  27  45  71 106 147 202 240 297 358 440
#     4  11  23  46  75 108 145 184 245 310 375 430
#     4  10  22  41  72 112 148 187 237 308 381 433
#     4  12  32  50  74  98 160 194 264 274 358 444
#
# _framework density 24.427001000000001
#
# number of rings (size 3 to 8) (size 9 to 14) (size 15 to 20)
#    0.000    1.231    0.000    5.538   10.769    2.462 
#    0.000    4.615    0.000    0.000    0.000    0.000 
#    0.000    0.000    0.000    0.000    0.000    0.000 
#
# Total GULP energy -72383.328494 kJ/mol
# GULP energy per Si atom -5567.948346 kJ/mol
# Density = 2.437140 g / cm^3
# Si number density = 24.427001 Si / 1000 Ang^3
#
#
#
# Elastic Constant Matrix: (Units=GPa)
#
#
# Indices 1 2 3 4 5 6 
#
# 1 104.2559 -12.8832 45.6418 0.0000 22.3316 0.0000
# 2 -12.8832 143.2289 16.6963 0.0000 -17.3637 0.0000
# 3 45.6418 16.6963 152.4661 0.0000 -10.3240 0.0000
# 4 0.0000 0.0000 0.0000 51.7854 0.0000 -12.5667
# 5 22.3316 -17.3637 -10.3240 0.0000 55.4604 0.0000
# 6 0.0000 0.0000 0.0000 -12.5667 0.0000 -12.6323
#
#
#
# Elastic Compliance Matrix: (Units=1/GPa)
#
#
# Indices 1 2 3 4 5 6 
#
# 1 0.012819 0.000971 -0.004327 0.000000 -0.005663 0.000000
# 2 0.000971 0.007395 -0.000983 0.000000 0.001741 0.000000
# 3 -0.004327 -0.000983 0.008162 0.000000 0.002954 0.000000
# 4 0.000000 0.000000 0.000000 0.015555 0.000000 -0.015474
# 5 -0.005663 0.001741 0.002954 0.000000 0.021406 0.000000
# 6 0.000000 0.000000 0.000000 -0.015474 0.000000 -0.063768
#
#
# Mechanical properties :
#
#
# Convention : Reuss Voigt Hill
#
# Bulk Modulus (GPa) = 50.76630 55.42896 53.09763
# Shear Modulus (GPa) = 297.37690 42.28908 169.83299
#
# Velocity S-wave (km/s) = 11.04560 4.16534 8.34732
# Velocity P-wave (km/s) = 13.54628 6.77306 10.70925
#
# Compressibility (1/GPa) = 0.01969811
#
# Stress axis : x y z
#
# Youngs Moduli (GPa) = 78.00721 135.23007 122.52050
#
# Poissons Ratio (x) = -0.13130 0.53019
# Poissons Ratio (y) = -0.07574 0.12038
# Poissons Ratio (z) = 0.33757 0.13287
#
# Static dielectric constant tensor:
#      x y z
#    x 1.833560 0.000000 0.052180 
#    y 0.000000 1.945000 0.000000 
#    z 0.052180 0.000000 2.159730 
# 
# From -- ./inp_files/5607.got.cif
#   From: 2010.05.17/outbox.cif.g08.bks.cpg/sg12_3_cif.got.tgz:5607.got - 2010.06.03 13:09:07.
