data_PCOD9215594
_publ_section_title
;
Structure prediction by ZEFSAII (Michael W. Deem and Ramdas Pophale) SiO2 
 PCOD9215594
Probable space group: C 2/M
;
_chemical_formula_sum "Si O2"
_cell_formula_units_Z 44
_cell_length_a 23.545228
_cell_length_b 14.562242
_cell_length_c 14.498201
_cell_angle_alpha 90.000000
_cell_angle_beta 158.121035
_cell_angle_gamma 90.000000
_cell_volume 1852.435226
_symmetry_space_group_name_H-M "C 2/M"
_symmetry_group_IT_number 12
_symmetry_cell_setting 'monoclinic'
loop_
_space_group_symop_operation_xyz
x,y,z
-x,y,-z
-x,-y,-z
x,-y,z
1/2+x,1/2+y,z
1/2-x,1/2+y,-z
1/2-x,1/2-y,-z
1/2+x,1/2-y,z
loop_
_atom_site_type_symbol
_atom_site_label
_atom_site_fract_x
_atom_site_fract_y
_atom_site_fract_z
Si Si1 0.834660 0.000000 0.870689
Si Si2 0.860122 0.605461 0.726817
Si Si3 0.554472 0.137231 0.480832
Si Si4 0.084896 0.858557 0.533882
Si Si5 0.025754 0.151027 0.244399
Si Si6 0.917767 0.643684 0.089510
O O1 0.966448 0.079988 0.080616
O O2 0.702208 0.080145 0.676629
O O3 0.826126 0.500000 0.702763
O O4 0.707153 0.663043 0.505403
O O5 0.933347 0.604332 0.736085
O O6 0.000000 0.640830 0.000000
O O7 0.500000 0.110490 0.500000
O O8 0.583615 0.246989 0.526565
O O9 0.426014 0.121447 0.209748
O O10 0.008764 0.888801 0.323177
O O11 0.000000 0.885144 0.500000
O O12 0.260872 0.887558 0.807423
O O13 0.937869 0.246790 0.108960
#
# Coordination Sequence:
#
# PCOD9215594 Si02
#       6
#     4   8   8   8   8   8
#     4  12  23  42  63  96 134 170 213 265 332 383
#     4  11  23  42  66  93 127 167 218 275 327 375
#     4  10  24  41  66  95 133 177 210 263 328 385
#     4  10  22  41  68  97 125 173 223 264 317 385
#     4  11  23  42  67  96 132 174 210 274 325 384
#     4  11  23  43  69  95 130 170 228 258 320 399
#
# _framework density 23.752517000000001
#
# number of rings (size 3 to 8) (size 9 to 14) (size 15 to 20)
#    0.000    1.273    4.545    0.818    3.818    2.182 
#    0.000    2.273    0.000    0.000    0.000    0.000 
#    0.000    0.000    0.000    0.000    0.000    0.000 
#
# Total GULP energy -122562.980671 kJ/mol
# GULP energy per Si atom -5571.044576 kJ/mol
# Density = 2.369846 g / cm^3
# Si number density = 23.752517 Si / 1000 Ang^3
#
#
#
# Elastic Constant Matrix: (Units=GPa)
#
#
# Indices 1 2 3 4 5 6 
#
# 1 70.6807 -9.1270 -16.0022 0.0000 -2.8736 0.0000
# 2 -9.1270 85.6190 0.0642 0.0000 -5.0082 0.0000
# 3 -16.0022 0.0642 62.9219 0.0000 9.1254 0.0000
# 4 0.0000 0.0000 0.0000 4.4469 0.0000 15.8917
# 5 -2.8736 -5.0082 9.1254 0.0000 25.7469 0.0000
# 6 0.0000 0.0000 0.0000 15.8917 0.0000 -14.8063
#
#
#
# Elastic Compliance Matrix: (Units=1/GPa)
#
#
# Indices 1 2 3 4 5 6 
#
# 1 0.015246 0.001663 0.003776 0.000000 0.000687 0.000000
# 2 0.001663 0.012003 0.000047 0.000000 0.002504 0.000000
# 3 0.003776 0.000047 0.017700 0.000000 -0.005843 0.000000
# 4 0.000000 0.000000 0.000000 0.046504 0.000000 0.049913
# 5 0.000687 0.002504 -0.005843 0.000000 0.041474 0.000000
# 6 0.000000 0.000000 0.000000 0.049913 0.000000 -0.013967
#
#
# Mechanical properties :
#
#
# Convention : Reuss Voigt Hill
#
# Bulk Modulus (GPa) = 17.88232 18.78795 18.33514
# Shear Modulus (GPa) = 39.48544 19.36327 29.42435
#
# Velocity S-wave (km/s) = 4.08164 2.85828 3.52346
# Velocity P-wave (km/s) = 5.45509 4.33821 4.92839
#
# Compressibility (1/GPa) = 0.05592116
#
# Stress axis : x y z
#
# Youngs Moduli (GPa) = 65.59265 83.31057 56.49614
#
# Poissons Ratio (x) = -0.13851 -0.21333
# Poissons Ratio (y) = -0.10905 -0.00268
# Poissons Ratio (z) = -0.24768 -0.00396
#
# Static dielectric constant tensor:
#      x y z
#    x 1.963960 0.000000 -0.052960 
#    y 0.000000 1.920890 0.000000 
#    z -0.052960 0.000000 1.874120 
# 
# From -- ./inp_files/241570.got.cif
#   From: 2010.05.17/outbox.cif.g08.bks.cpg/sg12_121_cif.got.tgz:241570.got - 2010.06.03 13:09:07.
