data_PCOD9215886
_publ_section_title
;
Structure prediction by ZEFSAII (Michael W. Deem and Ramdas Pophale) SiO2 
 PCOD9215886
Probable space group: C 2/M
;
_chemical_formula_sum "Si O2"
_cell_formula_units_Z 60
_cell_length_a 11.718998
_cell_length_b 23.214323
_cell_length_c 19.324558
_cell_angle_alpha 90.000000
_cell_angle_beta 30.730108
_cell_angle_gamma 90.000000
_cell_volume 2686.410993
_symmetry_space_group_name_H-M "C 2/M"
_symmetry_group_IT_number 12
_symmetry_cell_setting 'monoclinic'
loop_
_space_group_symop_operation_xyz
x,y,z
-x,y,-z
-x,-y,-z
x,-y,z
1/2+x,1/2+y,z
1/2-x,1/2+y,-z
1/2-x,1/2-y,-z
1/2+x,1/2-y,z
loop_
_atom_site_type_symbol
_atom_site_label
_atom_site_fract_x
_atom_site_fract_y
_atom_site_fract_z
Si Si1 0.353928 0.124516 0.298999
Si Si2 0.895388 0.101123 0.708794
Si Si3 0.226628 0.659042 0.287709
Si Si4 0.249805 0.936541 0.841357
Si Si5 0.000000 0.635447 0.000000
Si Si6 0.740285 0.318039 0.505173
Si Si7 0.230890 0.938017 0.634402
Si Si8 0.504688 0.224753 0.124580
O O1 0.198773 0.095855 0.320079
O O2 0.558901 0.081228 0.204426
O O3 0.257061 0.146656 0.423441
O O4 0.442982 0.184196 0.220772
O O5 0.996299 0.165571 0.659561
O O6 0.114089 0.066141 0.619927
O O7 0.703916 0.095860 0.866547
O O8 0.248290 0.615629 0.212754
O O9 0.335279 0.620562 0.291526
O O10 0.338578 0.720254 0.212698
O O11 0.959435 0.665868 0.435340
O O12 0.305708 0.000000 0.783372
O O13 0.000000 0.938950 0.000000
O O14 0.018299 0.679626 0.054331
O O15 0.750000 0.250000 0.500000
O O16 0.500000 0.939647 0.500000
O O17 0.153884 0.000000 0.704201
O O18 0.750000 0.250000 0.000000
#
# Coordination Sequence:
#
# PCOD9215886 Si02
#       8
#     8   8   8   8   4   8   8   8
#     4  10  24  40  63 102 134 176 226 277 343 410
#     4  11  23  45  63  95 139 174 222 281 345 407
#     4  11  23  39  65  97 129 176 225 281 334 400
#     4  10  22  42  67  94 132 177 229 280 328 404
#     4  10  24  40  61  98 133 174 212 262 340 422
#     4  11  23  39  66  94 136 178 222 275 335 414
#     4  11  24  44  69  96 128 173 232 285 339 398
#     4  11  23  36  64  95 139 176 214 274 338 410
#
# _framework density 22.334631000000002
#
# number of rings (size 3 to 8) (size 9 to 14) (size 15 to 20)
#    0.000    1.333    1.333    4.000    8.400    1.600 
#    0.000    0.333    0.000    2.400    0.000    0.000 
#    0.000    0.000    0.000    0.000    0.000    0.000 
#
# Total GULP energy -167203.052635 kJ/mol
# GULP energy per Si atom -5573.435088 kJ/mol
# Density = 2.228380 g / cm^3
# Si number density = 22.334631 Si / 1000 Ang^3
#
#
#
# Elastic Constant Matrix: (Units=GPa)
#
#
# Indices 1 2 3 4 5 6 
#
# 1 139.9987 22.1814 32.5140 0.0020 -18.0102 -0.0159
# 2 22.1814 82.9345 3.5399 -0.1057 0.1872 0.0584
# 3 32.5140 3.5399 81.7779 -0.2337 -13.5543 0.0963
# 4 0.0020 -0.1057 -0.2337 -31.9190 -0.0262 48.2470
# 5 -18.0102 0.1872 -13.5543 -0.0262 27.4152 0.0452
# 6 -0.0159 0.0584 0.0963 48.2470 0.0452 -16.4176
#
#
#
# Elastic Compliance Matrix: (Units=1/GPa)
#
#
# Indices 1 2 3 4 5 6 
#
# 1 0.008671 -0.002217 -0.002619 0.000002 0.004416 -0.000014
# 2 -0.002217 0.012650 0.000085 -0.000007 -0.001501 0.000023
# 3 -0.002619 0.000085 0.014139 -0.000013 0.005269 0.000063
# 4 0.000002 -0.000007 -0.000013 0.009102 -0.000040 0.026748
# 5 0.004416 -0.001501 0.005269 -0.000040 0.041993 0.000018
# 6 -0.000014 0.000023 0.000063 0.026748 0.000018 0.017696
#
#
# Mechanical properties :
#
#
# Convention : Reuss Voigt Hill
#
# Bulk Modulus (GPa) = 38.52467 46.79797 42.66132
# Shear Modulus (GPa) = 40.84742 12.24743 26.54743
#
# Velocity S-wave (km/s) = 4.28118 2.34425 3.45138
# Velocity P-wave (km/s) = 6.45944 5.32221 5.91820
#
# Compressibility (1/GPa) = 0.02595739
#
# Stress axis : x y z
#
# Youngs Moduli (GPa) = 115.33113 79.04861 70.72530
#
# Poissons Ratio (x) = 0.17527 0.18526
# Poissons Ratio (y) = 0.25571 -0.00602
# Poissons Ratio (z) = 0.30210 -0.00673
#
# Static dielectric constant tensor:
#      x y z
#    x 1.874990 -0.000030 0.082340 
#    y -0.000030 1.841240 0.000020 
#    z 0.082340 0.000020 1.871510 
# 
# From -- ./inp_files/307305.got.cif
#   From: 2010.05.17/outbox.cif.g08.bks.cpg/sg12_154_cif.got.tgz:307305.got - 2010.06.03 13:09:07.
