data_PCOD9215612
_publ_section_title
;
Structure prediction by ZEFSAII (Michael W. Deem and Ramdas Pophale) SiO2 
 PCOD9215612
Probable space group: C 2/M
;
_chemical_formula_sum "Si O2"
_cell_formula_units_Z 40
_cell_length_a 14.498730
_cell_length_b 10.943675
_cell_length_c 20.945150
_cell_angle_alpha 90.000000
_cell_angle_beta 147.692008
_cell_angle_gamma 90.000000
_cell_volume 1776.233915
_symmetry_space_group_name_H-M "C 2/M"
_symmetry_group_IT_number 12
_symmetry_cell_setting 'monoclinic'
loop_
_space_group_symop_operation_xyz
x,y,z
-x,y,-z
-x,-y,-z
x,-y,z
1/2+x,1/2+y,z
1/2-x,1/2+y,-z
1/2-x,1/2-y,-z
1/2+x,1/2-y,z
loop_
_atom_site_type_symbol
_atom_site_label
_atom_site_fract_x
_atom_site_fract_y
_atom_site_fract_z
Si Si1 0.654884 0.635033 0.863073
Si Si2 0.219594 0.365942 0.742929
Si Si3 0.901459 0.718043 0.637799
Si Si4 0.604228 0.364851 0.985792
Si Si5 0.697267 0.632797 0.639116
O O1 0.726096 0.500000 0.891854
O O2 0.494523 0.663815 0.723094
O O3 0.787930 0.746020 0.932673
O O4 0.599308 0.639264 0.904726
O O5 0.213180 0.500000 0.706920
O O6 0.402855 0.361976 0.886397
O O7 0.219863 0.249070 0.697297
O O8 0.052559 0.352914 0.689549
O O9 0.750000 0.750000 0.500000
O O10 0.820502 0.646964 0.650152
O O11 0.679455 0.500000 0.044513
O O12 0.500000 0.634806 0.500000
O O13 0.729810 0.500000 0.689172
#
# Coordination Sequence:
#
# PCOD9215612 Si02
#       5
#     8   8   8   8   8
#     4  10  22  41  69 100 134 177 229 281 335 402
#     4  11  24  44  70 101 133 179 230 278 336 404
#     4  12  25  43  67 104 140 180 224 279 338 407
#     4   9  20  42  69  97 131 175 228 280 339 401
#     4  11  24  44  65  96 138 182 225 277 339 401
#
# _framework density 22.519556000000001
#
# number of rings (size 3 to 8) (size 9 to 14) (size 15 to 20)
#    0.000    1.400    4.000    0.600    0.000    6.000 
#    0.000    3.000    0.000    0.000    0.000    0.000 
#    0.000    0.000    0.000    0.000    0.000    0.000 
#
# Total GULP energy -111838.242520 kJ/mol
# GULP energy per Si atom -5591.912126 kJ/mol
# Density = 2.246830 g / cm^3
# Si number density = 22.519556 Si / 1000 Ang^3
#
#
#
# Elastic Constant Matrix: (Units=GPa)
#
#
# Indices 1 2 3 4 5 6 
#
# 1 131.9038 69.3041 19.7185 -0.0005 17.8922 -0.0001
# 2 69.3041 242.0461 82.1636 -0.0011 4.4182 -0.0004
# 3 19.7185 82.1636 115.3554 -0.0014 12.0977 -0.0004
# 4 -0.0005 -0.0011 -0.0014 27.6453 -0.0004 -2.4100
# 5 17.8922 4.4182 12.0977 -0.0004 35.8876 -0.0001
# 6 -0.0001 -0.0004 -0.0004 -2.4100 -0.0001 32.1690
#
#
#
# Elastic Compliance Matrix: (Units=1/GPa)
#
#
# Indices 1 2 3 4 5 6 
#
# 1 0.009668 -0.003020 0.001001 0.000000 -0.004785 0.000000
# 2 -0.003020 0.006408 -0.004274 0.000000 0.002158 0.000000
# 3 0.001001 -0.004274 0.011962 0.000000 -0.004005 0.000000
# 4 0.000000 0.000000 0.000000 0.036410 0.000000 0.002728
# 5 -0.004785 0.002158 -0.004005 0.000000 0.031335 0.000000
# 6 0.000000 0.000000 0.000000 0.002728 0.000000 0.031290
#
#
# Mechanical properties :
#
#
# Convention : Reuss Voigt Hill
#
# Bulk Modulus (GPa) = 64.72488 92.40863 78.56676
# Shear Modulus (GPa) = 34.52781 40.34832 37.43807
#
# Velocity S-wave (km/s) = 3.91990 4.23744 4.08176
# Velocity P-wave (km/s) = 7.02080 8.06630 7.56164
#
# Compressibility (1/GPa) = 0.01545001
#
# Stress axis : x y z
#
# Youngs Moduli (GPa) = 103.43596 156.06176 83.59768
#
# Poissons Ratio (x) = 0.47138 -0.08365
# Poissons Ratio (y) = 0.31243 0.35729
# Poissons Ratio (z) = -0.10350 0.66701
#
# Static dielectric constant tensor:
#      x y z
#    x 1.881980 0.000000 -0.060020 
#    y 0.000000 1.814370 0.000000 
#    z -0.060020 0.000000 1.862680 
# 
# From -- ./inp_files/269046.got.cif
#   From: 2010.05.17/outbox.cif.g08.bks.cpg/sg12_135_cif.got.tgz:269046.got - 2010.06.03 13:09:07.
