data_PCOD9215491
_publ_section_title
;
Structure prediction by ZEFSAII (Michael W. Deem and Ramdas Pophale) SiO2 
 PCOD9215491
Probable space group: C 2/M
;
_chemical_formula_sum "Si O2"
_cell_formula_units_Z 56
_cell_length_a 10.987153
_cell_length_b 16.068009
_cell_length_c 15.936652
_cell_angle_alpha 90.000000
_cell_angle_beta 112.486183
_cell_angle_gamma 90.000000
_cell_volume 2599.579120
_symmetry_space_group_name_H-M "C 2/M"
_symmetry_group_IT_number 12
_symmetry_cell_setting 'monoclinic'
loop_
_space_group_symop_operation_xyz
x,y,z
-x,y,-z
-x,-y,-z
x,-y,z
1/2+x,1/2+y,z
1/2-x,1/2+y,-z
1/2-x,1/2-y,-z
1/2+x,1/2-y,z
loop_
_atom_site_type_symbol
_atom_site_label
_atom_site_fract_x
_atom_site_fract_y
_atom_site_fract_z
Si Si1 0.943260 0.171480 0.277697
Si Si2 0.243243 0.407964 0.346809
Si Si3 0.127369 0.186690 0.477593
Si Si4 0.675339 0.405665 0.905197
Si Si5 0.184048 0.091800 0.106857
Si Si6 0.972467 0.644275 0.219601
Si Si7 0.890630 0.724539 0.901606
O O1 0.814083 0.152194 0.299218
O O2 0.936975 0.114075 0.193373
O O3 0.067449 0.161145 0.372185
O O4 0.937498 0.267641 0.251494
O O5 0.276410 0.500000 0.326952
O O6 0.310631 0.388450 0.452974
O O7 0.086416 0.397182 0.305499
O O8 0.250000 0.250000 0.500000
O O9 0.000000 0.217305 0.500000
O O10 0.726057 0.500000 0.902787
O O11 0.773977 0.329529 0.911502
O O12 0.649143 0.402264 0.997953
O O13 0.342092 0.093661 0.162913
O O14 0.143848 0.181288 0.134278
O O15 0.134750 0.000000 0.122165
O O16 0.045563 0.669276 0.153579
O O17 0.000000 0.734827 0.000000
#
# Coordination Sequence:
#
# PCOD9215491 Si02
#       7
#     8   8   8   8   8   8   8
#     4  11  22  38  63  92 125 160 209 259 321 379
#     4  11  23  39  64  97 125 159 211 269 319 379
#     4  10  22  41  66  97 129 172 213 266 331 398
#     4  11  22  37  59  89 124 162 208 266 315 370
#     4  11  24  41  59  87 124 165 209 258 313 379
#     4  12  21  38  65  89 120 168 205 259 318 380
#     4  12  23  38  62  87 124 165 214 254 316 380
#
# _framework density 21.541948999999999
#
# number of rings (size 3 to 8) (size 9 to 14) (size 15 to 20)
#    0.000    0.857    5.714    2.143    0.000    4.286 
#    0.000    1.429    0.000    0.429    0.000    0.000 
#    0.000    0.000    0.000    0.000    0.000    0.000 
#
# Total GULP energy -156326.103834 kJ/mol
# GULP energy per Si atom -5583.075137 kJ/mol
# Density = 2.149292 g / cm^3
# Si number density = 21.541949 Si / 1000 Ang^3
#
#
#
# Elastic Constant Matrix: (Units=GPa)
#
#
# Indices 1 2 3 4 5 6 
#
# 1 59.1253 15.7182 17.5619 0.0000 20.9442 0.0000
# 2 15.7182 76.2205 -15.1761 0.0000 3.3853 0.0000
# 3 17.5619 -15.1761 99.2445 0.0000 36.9826 0.0000
# 4 0.0000 0.0000 0.0000 -55.3547 0.0000 -35.3556
# 5 20.9442 3.3853 36.9826 0.0000 29.8777 0.0000
# 6 0.0000 0.0000 0.0000 -35.3556 0.0000 -0.3928
#
#
#
# Elastic Compliance Matrix: (Units=1/GPa)
#
#
# Indices 1 2 3 4 5 6 
#
# 1 0.024045 -0.003604 0.002455 0.000000 -0.019486 0.000000
# 2 -0.003604 0.015070 0.004895 0.000000 -0.005240 0.000000
# 3 0.002455 0.004895 0.020860 0.000000 -0.028096 0.000000
# 4 0.000000 0.000000 0.000000 0.000320 0.000000 -0.028785
# 5 -0.019486 -0.005240 -0.028096 0.000000 0.082501 0.000000
# 6 0.000000 0.000000 0.000000 -0.028785 0.000000 0.045067
#
#
# Mechanical properties :
#
#
# Convention : Reuss Voigt Hill
#
# Bulk Modulus (GPa) = 14.82192 30.08870 22.45531
# Shear Modulus (GPa) = 24.64751 9.25845 16.95298
#
# Velocity S-wave (km/s) = 3.38622 2.07538 2.80835
# Velocity P-wave (km/s) = 4.71000 4.44306 4.57847
#
# Compressibility (1/GPa) = 0.06746766
#
# Stress axis : x y z
#
# Youngs Moduli (GPa) = 41.58911 66.35506 47.93848
#
# Poissons Ratio (x) = 0.23915 -0.11771
# Poissons Ratio (y) = 0.14989 -0.23466
# Poissons Ratio (z) = -0.10212 -0.32480
#
# Static dielectric constant tensor:
#      x y z
#    x 1.858230 0.000000 0.016370 
#    y 0.000000 1.748880 0.000000 
#    z 0.016370 0.000000 1.820980 
# 
# From -- ./inp_files/263394.got.cif
#   From: 2010.05.17/outbox.cif.g08.bks.cpg/sg12_132_cif.got.tgz:263394.got - 2010.06.03 13:09:07.
