data_PCOD9215809
_publ_section_title
;
Structure prediction by ZEFSAII (Michael W. Deem and Ramdas Pophale) SiO2 
 PCOD9215809
Probable space group: C 2/M
;
_chemical_formula_sum "Si O2"
_cell_formula_units_Z 48
_cell_length_a 8.634536
_cell_length_b 30.714260
_cell_length_c 9.286301
_cell_angle_alpha 90.000000
_cell_angle_beta 91.819586
_cell_angle_gamma 90.000000
_cell_volume 2461.516637
_symmetry_space_group_name_H-M "C 2/M"
_symmetry_group_IT_number 12
_symmetry_cell_setting 'monoclinic'
loop_
_space_group_symop_operation_xyz
x,y,z
-x,y,-z
-x,-y,-z
x,-y,z
1/2+x,1/2+y,z
1/2-x,1/2+y,-z
1/2-x,1/2-y,-z
1/2+x,1/2-y,z
loop_
_atom_site_type_symbol
_atom_site_label
_atom_site_fract_x
_atom_site_fract_y
_atom_site_fract_z
Si Si1 0.137389 0.885647 0.607476
Si Si2 0.573186 0.120127 0.842608
Si Si3 0.120316 0.744803 0.114854
Si Si4 0.423256 0.948721 0.654880
Si Si5 0.425252 0.346003 0.846975
Si Si6 0.614612 0.183459 0.377140
O O1 0.259553 0.923134 0.650889
O O2 0.243783 0.845017 0.554573
O O3 0.000000 0.901170 0.500000
O O4 0.041241 0.865947 0.735622
O O5 0.536834 0.072488 0.776590
O O6 0.751381 0.135089 0.839755
O O7 0.481985 0.150805 0.727510
O O8 0.500000 0.122852 0.000000
O O9 0.073289 0.793372 0.161228
O O10 0.163422 0.719521 0.261364
O O11 0.250000 0.750000 0.000000
O O12 0.000000 0.722134 0.000000
O O13 0.500000 0.941344 0.500000
O O14 0.402652 0.000000 0.675504
O O15 0.500000 0.357625 0.000000
O O16 0.500000 0.199422 0.500000
#
# Coordination Sequence:
#
# PCOD9215809 Si02
#       6
#     8   8   8   8   8   8
#     4  11  22  38  59  87 121 152 193 249 307 358
#     4  11  21  39  64  87 118 159 199 241 296 365
#     4  11  22  38  58  83 118 161 211 254 299 353
#     4  10  22  42  66  90 117 153 196 241 298 373
#     4  11  22  37  58  87 119 156 199 250 304 347
#     4  11  22  38  59  85 119 163 210 250 296 357
#
# _framework density 19.500174000000001
#
# number of rings (size 3 to 8) (size 9 to 14) (size 15 to 20)
#    0.000    1.167    0.000   10.500    0.000    1.333 
#    0.000    5.833    0.000    3.000    0.000    0.000 
#    0.000    0.000    0.000    0.000    0.000    0.000 
#
# Total GULP energy -133900.057610 kJ/mol
# GULP energy per Si atom -5579.169067 kJ/mol
# Density = 1.945579 g / cm^3
# Si number density = 19.500174 Si / 1000 Ang^3
#
#
#
# Elastic Constant Matrix: (Units=GPa)
#
#
# Indices 1 2 3 4 5 6 
#
# 1 98.7979 37.4894 9.1322 0.0000 2.2178 0.0000
# 2 37.4894 106.1288 39.4728 0.0000 -7.5494 0.0000
# 3 9.1322 39.4728 68.1871 0.0000 -15.5325 0.0000
# 4 0.0000 0.0000 0.0000 20.6363 0.0000 2.5712
# 5 2.2178 -7.5494 -15.5325 0.0000 44.3633 0.0000
# 6 0.0000 0.0000 0.0000 2.5712 0.0000 19.9861
#
#
#
# Elastic Compliance Matrix: (Units=1/GPa)
#
#
# Indices 1 2 3 4 5 6 
#
# 1 0.011795 -0.004542 0.000803 0.000000 -0.001081 0.000000
# 2 -0.004542 0.013765 -0.007362 0.000000 -0.000008 0.000000
# 3 0.000803 -0.007362 0.020130 0.000000 0.005755 0.000000
# 4 0.000000 0.000000 0.000000 0.049248 0.000000 -0.006336
# 5 -0.001081 -0.000008 0.005755 0.000000 0.024609 0.000000
# 6 0.000000 0.000000 0.000000 -0.006336 0.000000 0.050850
#
#
# Mechanical properties :
#
#
# Convention : Reuss Voigt Hill
#
# Bulk Modulus (GPa) = 42.57263 49.47809 46.02536
# Shear Modulus (GPa) = 24.94667 29.46509 27.20588
#
# Velocity S-wave (km/s) = 3.58062 3.89140 3.73924
# Velocity P-wave (km/s) = 6.24290 6.75417 6.50356
#
# Compressibility (1/GPa) = 0.02348927
#
# Stress axis : x y z
#
# Youngs Moduli (GPa) = 84.77945 72.65037 49.67590
#
# Poissons Ratio (x) = 0.33001 -0.03991
# Poissons Ratio (y) = 0.38510 0.36570
# Poissons Ratio (z) = -0.06812 0.53483
#
# Static dielectric constant tensor:
#      x y z
#    x 1.674390 0.000000 0.028590 
#    y 0.000000 1.719190 0.000000 
#    z 0.028590 0.000000 1.627500 
# 
# From -- ./inp_files/42236.got.cif
#   From: 2010.05.17/outbox.cif.g08.bks.cpg/sg12_22_cif.got.tgz:42236.got - 2010.06.03 13:09:07.
