data_PCOD9215351
_publ_section_title
;
Structure prediction by ZEFSAII (Michael W. Deem and Ramdas Pophale) SiO2 
 PCOD9215351
Probable space group: C 2/M
;
_chemical_formula_sum "Si O2"
_cell_formula_units_Z 56
_cell_length_a 27.331121
_cell_length_b 8.636156
_cell_length_c 12.154151
_cell_angle_alpha 90.000000
_cell_angle_beta 103.436634
_cell_angle_gamma 90.000000
_cell_volume 2790.288424
_symmetry_space_group_name_H-M "C 2/M"
_symmetry_group_IT_number 12
_symmetry_cell_setting 'monoclinic'
loop_
_space_group_symop_operation_xyz
x,y,z
-x,y,-z
-x,-y,-z
x,-y,z
1/2+x,1/2+y,z
1/2-x,1/2+y,-z
1/2-x,1/2-y,-z
1/2+x,1/2-y,z
loop_
_atom_site_type_symbol
_atom_site_label
_atom_site_fract_x
_atom_site_fract_y
_atom_site_fract_z
Si Si1 0.898169 0.812691 0.713210
Si Si2 0.112820 0.684237 0.057009
Si Si3 0.493714 0.688458 0.621590
Si Si4 0.231462 0.685076 0.107144
Si Si5 0.680381 0.816080 0.708350
Si Si6 0.408352 0.685407 0.188470
Si Si7 0.693814 0.685208 0.480400
O O1 0.907852 0.745924 0.838654
O O2 0.941925 0.763636 0.651999
O O3 0.844209 0.762979 0.635645
O O4 0.898242 0.000000 0.719394
O O5 0.106630 0.500000 0.045746
O O6 0.172620 0.719220 0.088606
O O7 0.090126 0.762799 0.937050
O O8 0.500000 0.744005 0.500000
O O9 0.492989 0.500000 0.617808
O O10 0.541420 0.732752 0.720361
O O11 0.238600 0.500000 0.113857
O O12 0.265419 0.762275 0.218430
O O13 0.250000 0.750000 0.000000
O O14 0.639300 0.760961 0.775408
O O15 0.671517 0.738504 0.585742
O O16 0.679282 0.000000 0.697387
O O17 0.403114 0.500000 0.191896
O O18 0.696224 0.500000 0.479178
O O19 0.750000 0.750000 0.500000
#
# Coordination Sequence:
#
# PCOD9215351 Si02
#       7
#     8   8   8   8   8   8   8
#     4  10  22  41  65  90 120 160 206 253 304 364
#     4  11  24  40  59  88 127 163 199 248 307 371
#     4   9  19  39  66  93 118 150 201 259 307 360
#     4  11  22  37  59  86 121 164 207 252 302 358
#     4  12  24  38  59  89 126 163 204 254 306 367
#     4  11  22  38  64  91 118 156 204 257 307 360
#     4  11  23  40  63  91 123 161 204 252 307 367
#
# _framework density 20.069610000000001
#
# number of rings (size 3 to 8) (size 9 to 14) (size 15 to 20)
#    0.000    1.286    1.429    4.714    0.000    8.000 
#    0.000    4.286    0.000    3.000    0.000    0.000 
#    0.000    0.000    0.000    0.000    0.000    0.000 
#
# Total GULP energy -156631.335295 kJ/mol
# GULP energy per Si atom -5593.976261 kJ/mol
# Density = 2.002393 g / cm^3
# Si number density = 20.069610 Si / 1000 Ang^3
#
#
#
# Elastic Constant Matrix: (Units=GPa)
#
#
# Indices 1 2 3 4 5 6 
#
# 1 94.9494 29.0353 50.9724 0.0000 -1.3461 0.0000
# 2 29.0353 42.2882 27.0766 0.0000 7.7855 0.0000
# 3 50.9724 27.0766 153.7209 0.0000 -1.9075 0.0000
# 4 0.0000 0.0000 0.0000 27.9280 0.0000 -5.3381
# 5 -1.3461 7.7855 -1.9075 0.0000 40.3408 0.0000
# 6 0.0000 0.0000 0.0000 -5.3381 0.0000 22.6452
#
#
#
# Elastic Compliance Matrix: (Units=1/GPa)
#
#
# Indices 1 2 3 4 5 6 
#
# 1 0.015001 -0.008445 -0.003462 0.000000 0.001967 0.000000
# 2 -0.008445 0.032623 -0.003029 0.000000 -0.006721 0.000000
# 3 -0.003462 -0.003029 0.008198 0.000000 0.000857 0.000000
# 4 0.000000 0.000000 0.000000 0.037496 0.000000 0.008839
# 5 0.001967 -0.006721 0.000857 0.000000 0.026192 0.000000
# 6 0.000000 0.000000 0.000000 0.008839 0.000000 0.046243
#
#
# Mechanical properties :
#
#
# Convention : Reuss Voigt Hill
#
# Bulk Modulus (GPa) = 38.53855 56.12524 47.33190
# Shear Modulus (GPa) = 24.47688 30.44108 27.45898
#
# Velocity S-wave (km/s) = 3.49606 3.89880 3.70291
# Velocity P-wave (km/s) = 5.96161 6.94936 6.47435
#
# Compressibility (1/GPa) = 0.02594804
#
# Stress axis : x y z
#
# Youngs Moduli (GPa) = 66.66257 30.65357 121.98747
#
# Poissons Ratio (x) = 0.25887 0.42235
# Poissons Ratio (y) = 0.56296 0.36954
# Poissons Ratio (z) = 0.23080 0.09286
#
# Static dielectric constant tensor:
#      x y z
#    x 1.698420 0.000000 0.003180 
#    y 0.000000 1.679800 0.000000 
#    z 0.003180 0.000000 1.687460 
# 
# From -- ./inp_files/181093.got.cif
#   From: 2010.05.17/outbox.cif.g08.bks.cpg/sg12_91_cif.got.tgz:181093.got - 2010.06.03 13:09:07.
