data_PCOD9215732
_publ_section_title
;
Structure prediction by ZEFSAII (Michael W. Deem and Ramdas Pophale) SiO2 
 PCOD9215732
Probable space group: C 2/M
;
_chemical_formula_sum "Si O2"
_cell_formula_units_Z 64
_cell_length_a 16.090892
_cell_length_b 15.521230
_cell_length_c 16.447100
_cell_angle_alpha 90.000000
_cell_angle_beta 47.449173
_cell_angle_gamma 90.000000
_cell_volume 3026.029306
_symmetry_space_group_name_H-M "C 2/M"
_symmetry_group_IT_number 12
_symmetry_cell_setting 'monoclinic'
loop_
_space_group_symop_operation_xyz
x,y,z
-x,y,-z
-x,-y,-z
x,-y,z
1/2+x,1/2+y,z
1/2-x,1/2+y,-z
1/2-x,1/2-y,-z
1/2+x,1/2-y,z
loop_
_atom_site_type_symbol
_atom_site_label
_atom_site_fract_x
_atom_site_fract_y
_atom_site_fract_z
Si Si1 0.543363 0.777035 0.137720
Si Si2 0.497677 0.268120 0.668668
Si Si3 0.193667 0.098874 0.562017
Si Si4 0.073523 0.403875 0.532210
Si Si5 0.846752 0.094465 0.718064
Si Si6 0.459835 0.404048 0.932422
Si Si7 0.739649 0.095629 0.968945
Si Si8 0.665863 0.901808 0.697448
O O1 0.582278 0.750908 0.202201
O O2 0.500331 0.689420 0.124394
O O3 0.645283 0.830233 0.030740
O O4 0.437443 0.838482 0.222875
O O5 0.599952 0.328446 0.631507
O O6 0.535478 0.177513 0.608933
O O7 0.432871 0.328133 0.648402
O O8 0.291353 0.105088 0.565494
O O9 0.258995 0.113474 0.433016
O O10 0.150416 0.000000 0.590704
O O11 0.056928 0.500000 0.580108
O O12 0.000000 0.402281 0.500000
O O13 0.744557 0.104923 0.724065
O O14 0.898456 0.000000 0.668507
O O15 0.804382 0.094945 0.839509
O O16 0.496389 0.500000 0.875649
O O17 0.500000 0.406425 0.000000
O O18 0.329565 0.397856 0.984518
O O19 0.686191 0.000000 0.012012
O O20 0.625027 0.000000 0.719418
#
# Coordination Sequence:
#
# PCOD9215732 Si02
#       8
#     8   8   8   8   8   8   8   8
#     4  12  24  37  67  93 122 162 210 254 314 368
#     4  12  24  37  67  93 122 162 210 254 314 368
#     4  10  22  42  64  90 127 162 203 258 316 370
#     4  10  23  42  63  87 124 169 209 255 303 362
#     4  10  23  41  62  93 128 160 200 255 315 375
#     4  10  23  42  63  87 124 169 209 255 303 362
#     4  10  22  42  64  90 127 162 203 258 316 370
#     4  10  23  41  62  93 128 160 200 255 315 375
#
# _framework density 21.149829
#
# number of rings (size 3 to 8) (size 9 to 14) (size 15 to 20)
#    0.000    1.500    2.500    1.500    3.500    1.000 
#    0.000    3.750    0.000    5.250    0.000    0.000 
#    0.000    0.000    0.000    0.000    0.000    0.000 
#
# Total GULP energy -178417.606689 kJ/mol
# GULP energy per Si atom -5575.550209 kJ/mol
# Density = 2.110169 g / cm^3
# Si number density = 21.149829 Si / 1000 Ang^3
#
#
#
# Elastic Constant Matrix: (Units=GPa)
#
#
# Indices 1 2 3 4 5 6 
#
# 1 108.6203 33.3072 8.4992 0.0000 9.1704 0.0000
# 2 33.3072 158.5526 33.6837 0.0000 -6.1314 0.0000
# 3 8.4992 33.6837 28.2776 0.0000 -2.6573 0.0000
# 4 0.0000 0.0000 0.0000 3.9934 0.0000 -29.2285
# 5 9.1704 -6.1314 -2.6573 0.0000 14.1744 0.0000
# 6 0.0000 0.0000 0.0000 -29.2285 0.0000 4.6324
#
#
#
# Elastic Compliance Matrix: (Units=1/GPa)
#
#
# Indices 1 2 3 4 5 6 
#
# 1 0.010696 -0.002298 -0.001243 0.000000 -0.008147 0.000000
# 2 -0.002298 0.008983 -0.009675 0.000000 0.003559 0.000000
# 3 -0.001243 -0.009675 0.047786 0.000000 0.005578 0.000000
# 4 0.000000 0.000000 0.000000 -0.005542 0.000000 -0.034970
# 5 -0.008147 0.003559 0.005578 0.000000 0.078406 0.000000
# 6 0.000000 0.000000 0.000000 -0.034970 0.000000 -0.004778
#
#
# Mechanical properties :
#
#
# Convention : Reuss Voigt Hill
#
# Bulk Modulus (GPa) = 24.37079 49.60342 36.98711
# Shear Modulus (GPa) = 28.46401 19.22408 23.84405
#
# Velocity S-wave (km/s) = 3.67253 3.01815 3.36130
# Velocity P-wave (km/s) = 5.43427 5.97075 5.70881
#
# Compressibility (1/GPa) = 0.04103273
#
# Stress axis : x y z
#
# Youngs Moduli (GPa) = 93.49197 111.32382 20.92652
#
# Poissons Ratio (x) = 0.25581 0.02602
# Poissons Ratio (y) = 0.21483 0.20247
# Poissons Ratio (z) = 0.11624 1.07707
#
# Static dielectric constant tensor:
#      x y z
#    x 1.770190 0.000000 0.018280 
#    y 0.000000 1.807990 0.000000 
#    z 0.018280 0.000000 1.749640 
# 
# From -- ./inp_files/270657.got.cif
#   From: 2010.05.17/outbox.cif.g08.bks.cpg/sg12_136_cif.got.tgz:270657.got - 2010.06.03 13:09:07.
