data_PCOD9215402
_publ_section_title
;
Structure prediction by ZEFSAII (Michael W. Deem and Ramdas Pophale) SiO2 
 PCOD9215402
Probable space group: C 2/M
;
_chemical_formula_sum "Si O2"
_cell_formula_units_Z 64
_cell_length_a 9.397851
_cell_length_b 14.775216
_cell_length_c 23.888541
_cell_angle_alpha 90.000000
_cell_angle_beta 85.769039
_cell_angle_gamma 90.000000
_cell_volume 3308.010241
_symmetry_space_group_name_H-M "C 2/M"
_symmetry_group_IT_number 12
_symmetry_cell_setting 'monoclinic'
loop_
_space_group_symop_operation_xyz
x,y,z
-x,y,-z
-x,-y,-z
x,-y,z
1/2+x,1/2+y,z
1/2-x,1/2+y,-z
1/2-x,1/2-y,-z
1/2+x,1/2-y,z
loop_
_atom_site_type_symbol
_atom_site_label
_atom_site_fract_x
_atom_site_fract_y
_atom_site_fract_z
Si Si1 0.672456 0.153412 0.496466
Si Si2 0.828303 0.606492 0.869844
Si Si3 0.858805 0.103457 0.386464
Si Si4 0.814246 0.898280 0.605970
Si Si5 0.164319 0.263337 0.695863
Si Si6 0.901199 0.745037 0.773510
Si Si7 0.012943 0.892421 0.138675
Si Si8 0.883598 0.242586 0.956281
O O1 0.500000 0.157368 0.500000
O O2 0.750000 0.250000 0.500000
O O3 0.740413 0.113326 0.438071
O O4 0.731654 0.103240 0.549572
O O5 0.862622 0.500000 0.871082
O O6 0.889441 0.658622 0.814041
O O7 0.655289 0.615359 0.872054
O O8 0.888164 0.665681 0.919513
O O9 0.825077 0.167891 0.335857
O O10 0.018134 0.128506 0.404966
O O11 0.864273 0.000000 0.368257
O O12 0.732327 0.833978 0.651063
O O13 0.813414 0.000000 0.628349
O O14 0.248328 0.266392 0.751648
O O15 0.001121 0.276481 0.717757
O O16 0.956984 0.832040 0.806801
O O17 0.103264 0.840954 0.087668
O O18 0.044985 0.000000 0.143490
O O19 0.750000 0.250000 0.000000
O O20 0.000000 0.231737 0.000000
#
# Coordination Sequence:
#
# PCOD9215402 Si02
#       8
#     8   8   8   8   8   8   8   8
#     4  12  25  42  67  94 129 168 206 256 324 390
#     4  10  22  41  65  94 127 171 216 258 313 374
#     4  11  25  44  67  95 126 166 211 259 321 390
#     4  11  25  44  66  95 128 165 210 261 321 388
#     4  12  24  42  65  94 125 164 210 265 324 371
#     4  11  24  42  65  92 127 164 211 271 316 366
#     4  10  22  41  67  93 124 174 220 252 310 383
#     4  11  22  39  63  98 136 167 207 263 313 363
#
# _framework density 19.346978
#
# number of rings (size 3 to 8) (size 9 to 14) (size 15 to 20)
#    0.000    1.000    5.000    1.500    1.750    5.000 
#    0.000    1.250    0.000    0.000    0.000    0.000 
#    0.000    0.000    0.000    0.000    0.000    0.000 
#
# Total GULP energy -178588.076267 kJ/mol
# GULP energy per Si atom -5580.877383 kJ/mol
# Density = 1.930294 g / cm^3
# Si number density = 19.346978 Si / 1000 Ang^3
#
#
#
# Elastic Constant Matrix: (Units=GPa)
#
#
# Indices 1 2 3 4 5 6 
#
# 1 74.9838 14.8311 8.4282 0.0000 -17.8574 0.0000
# 2 14.8311 126.9346 33.4237 0.0000 -23.9305 0.0000
# 3 8.4282 33.4237 82.5611 0.0000 -19.4029 0.0000
# 4 0.0000 0.0000 0.0000 62.4602 0.0000 -7.8169
# 5 -17.8574 -23.9305 -19.4029 0.0000 35.5891 0.0000
# 6 0.0000 0.0000 0.0000 -7.8169 0.0000 28.8181
#
#
#
# Elastic Compliance Matrix: (Units=1/GPa)
#
#
# Indices 1 2 3 4 5 6 
#
# 1 0.015174 -0.000461 0.000406 0.000000 0.007525 0.000000
# 2 -0.000461 0.009531 -0.002706 0.000000 0.004702 0.000000
# 3 0.000406 -0.002706 0.014666 0.000000 0.006380 0.000000
# 4 0.000000 0.000000 0.000000 0.016573 0.000000 0.004495
# 5 0.007525 0.004702 0.006380 0.000000 0.038514 0.000000
# 6 0.000000 0.000000 0.000000 0.004495 0.000000 0.035920
#
#
# Mechanical properties :
#
#
# Convention : Reuss Voigt Hill
#
# Bulk Modulus (GPa) = 29.54411 44.20507 36.87459
# Shear Modulus (GPa) = 33.97138 40.55990 37.26564
#
# Velocity S-wave (km/s) = 4.19489 4.58366 4.39358
# Velocity P-wave (km/s) = 6.22629 7.13523 6.69620
#
# Compressibility (1/GPa) = 0.03384769
#
# Stress axis : x y z
#
# Youngs Moduli (GPa) = 65.90268 104.92055 68.18619
#
# Poissons Ratio (x) = 0.04839 -0.02770
# Poissons Ratio (y) = 0.03039 0.18454
# Poissons Ratio (z) = -0.02677 0.28396
#
# Static dielectric constant tensor:
#      x y z
#    x 1.667010 0.000000 -0.016100 
#    y 0.000000 1.669300 0.000000 
#    z -0.016100 0.000000 1.831740 
# 
# From -- ./inp_files/332942.got.cif
#   From: 2010.05.17/outbox.cif.g08.bks.cpg/sg12_167_cif.got.tgz:332942.got - 2010.06.03 13:09:07.
