data_PCOD9215739
_publ_section_title
;
Structure prediction by ZEFSAII (Michael W. Deem and Ramdas Pophale) SiO2 
 PCOD9215739
Probable space group: C 2/M
;
_chemical_formula_sum "Si O2"
_cell_formula_units_Z 56
_cell_length_a 14.032807
_cell_length_b 19.617182
_cell_length_c 16.412209
_cell_angle_alpha 90.000000
_cell_angle_beta 143.245845
_cell_angle_gamma 90.000000
_cell_volume 2703.505421
_symmetry_space_group_name_H-M "C 2/M"
_symmetry_group_IT_number 12
_symmetry_cell_setting 'monoclinic'
loop_
_space_group_symop_operation_xyz
x,y,z
-x,y,-z
-x,-y,-z
x,-y,z
1/2+x,1/2+y,z
1/2-x,1/2+y,-z
1/2-x,1/2-y,-z
1/2+x,1/2-y,z
loop_
_atom_site_type_symbol
_atom_site_label
_atom_site_fract_x
_atom_site_fract_y
_atom_site_fract_z
Si Si1 0.723351 0.172849 0.850278
Si Si2 0.629707 0.343932 0.532277
Si Si3 0.901319 0.077271 0.098734
Si Si4 0.460950 0.692448 0.246001
Si Si5 0.718933 0.928956 0.632138
Si Si6 0.770627 0.211198 0.707817
Si Si7 0.910559 0.422369 0.637908
O O1 0.657083 0.243980 0.839741
O O2 0.813157 0.199754 0.830889
O O3 0.564042 0.125852 0.730907
O O4 0.832410 0.125142 0.980873
O O5 0.500000 0.381871 0.500000
O O6 0.549925 0.315604 0.393725
O O7 0.683166 0.280484 0.625242
O O8 0.783891 0.387474 0.612197
O O9 0.878115 0.120995 0.165369
O O10 0.092265 0.070773 0.221667
O O11 0.837292 0.000000 0.055007
O O12 0.591425 0.706062 0.265032
O O13 0.663631 0.856258 0.624045
O O14 0.682028 0.928310 0.511439
O O15 0.658582 0.000000 0.628749
O O16 0.953814 0.500000 0.691805
#
# Coordination Sequence:
#
# PCOD9215739 Si02
#       7
#     8   8   8   8   8   8   8
#     4  12  24  39  65  99 129 168 220 273 333 392
#     4  12  22  39  68  95 128 175 221 274 320 387
#     4  10  22  42  64  91 131 176 216 265 331 397
#     4  11  22  40  65  92 131 172 224 268 323 393
#     4   9  20  37  59  87 127 170 212 262 322 390
#     4  11  22  37  64  96 128 173 214 271 332 388
#     4  11  23  41  64  96 131 167 216 275 328 380
#
# _framework density 20.713847999999999
#
# number of rings (size 3 to 8) (size 9 to 14) (size 15 to 20)
#    0.000    1.143    5.714    2.143    0.000    3.714 
#    0.000    5.000    0.000    0.857    0.000    3.000 
#    0.000    0.000    0.000    0.000    0.000    0.000 
#
# Total GULP energy -156075.330932 kJ/mol
# GULP energy per Si atom -5574.118962 kJ/mol
# Density = 2.066670 g / cm^3
# Si number density = 20.713848 Si / 1000 Ang^3
#
#
#
# Elastic Constant Matrix: (Units=GPa)
#
#
# Indices 1 2 3 4 5 6 
#
# 1 95.5312 20.0962 29.9032 -0.0008 3.7659 0.0006
# 2 20.0962 128.5384 37.5851 -0.0057 -7.5761 0.0017
# 3 29.9032 37.5851 106.6244 -0.0074 5.8799 0.0024
# 4 -0.0008 -0.0057 -0.0074 -0.8288 -0.0046 0.8617
# 5 3.7659 -7.5761 5.8799 -0.0046 13.6016 0.0015
# 6 0.0006 0.0017 0.0024 0.8617 0.0015 -37.6101
#
#
#
# Elastic Compliance Matrix: (Units=1/GPa)
#
#
# Indices 1 2 3 4 5 6 
#
# 1 0.011673 -0.001196 -0.002701 0.000037 -0.002730 0.000001
# 2 -0.001196 0.009358 -0.003349 -0.000074 0.006991 -0.000001
# 3 -0.002701 -0.003349 0.011656 -0.000045 -0.006156 -0.000001
# 4 0.000037 -0.000074 -0.000045 -1.236019 -0.000447 -0.028318
# 5 -0.002730 0.006991 -0.006156 -0.000447 0.080832 -0.000007
# 6 0.000001 -0.000001 -0.000001 -0.028318 -0.000007 -0.027237
#
#
# Mechanical properties :
#
#
# Convention : Reuss Voigt Hill
#
# Bulk Modulus (GPa) = 54.96193 56.20700 55.58446
# Shear Modulus (GPa) = -4.42799 11.23986 3.40594
#
# Velocity S-wave (km/s) = -1.46367 2.33196 1.28369
# Velocity P-wave (km/s) = 4.87186 5.86895 5.39350
#
# Compressibility (1/GPa) = 0.01819441
#
# Stress axis : x y z
#
# Youngs Moduli (GPa) = 85.67066 106.86016 85.79042
#
# Poissons Ratio (x) = 0.12780 0.23176
# Poissons Ratio (y) = 0.10246 0.28730
# Poissons Ratio (z) = 0.23144 0.35786
#
# Static dielectric constant tensor:
#      x y z
#    x 1.795010 0.000000 -0.002880 
#    y 0.000000 1.800290 0.000000 
#    z -0.002880 0.000000 1.790130 
# 
# From -- ./inp_files/217718.got.cif
#   From: 2010.05.17/outbox.cif.g08.bks.cpg/sg12_109_cif.got.tgz:217718.got - 2010.06.03 13:09:07.
