data_PCOD9215170
_publ_section_title
;
Structure prediction by ZEFSAII (Michael W. Deem and Ramdas Pophale) SiO2 
 PCOD9215170
Probable space group: C 2/M
;
_chemical_formula_sum "Si O2"
_cell_formula_units_Z 40
_cell_length_a 20.668340
_cell_length_b 18.845239
_cell_length_c 6.844879
_cell_angle_alpha 90.000000
_cell_angle_beta 143.269448
_cell_angle_gamma 90.000000
_cell_volume 1594.455495
_symmetry_space_group_name_H-M "C 2/M"
_symmetry_group_IT_number 12
_symmetry_cell_setting 'monoclinic'
loop_
_space_group_symop_operation_xyz
x,y,z
-x,y,-z
-x,-y,-z
x,-y,z
1/2+x,1/2+y,z
1/2-x,1/2+y,-z
1/2-x,1/2-y,-z
1/2+x,1/2-y,z
loop_
_atom_site_type_symbol
_atom_site_label
_atom_site_fract_x
_atom_site_fract_y
_atom_site_fract_z
Si Si1 0.882718 0.420330 0.986855
Si Si2 0.964832 0.077641 0.643231
Si Si3 0.251678 0.358688 0.043008
Si Si4 0.183642 0.138664 0.251450
Si Si5 0.414711 0.772127 0.137791
O O1 0.919439 0.500000 0.026458
O O2 0.829739 0.419766 0.075397
O O3 0.782609 0.392072 0.613443
O O4 0.957852 0.349187 0.166716
O O5 0.000000 0.078247 0.500000
O O6 0.868123 0.133027 0.428431
O O7 0.920056 0.000000 0.576940
O O8 0.077338 0.091025 0.022190
O O9 0.273981 0.363755 0.869496
O O10 0.188188 0.292451 0.978357
O O11 0.130721 0.218094 0.133248
O O12 0.500000 0.741410 0.500000
#
# Coordination Sequence:
#
# PCOD9215170 Si02
#       5
#     8   8   8   8   8
#     4  10  23  38  60  90 121 159 201 250 303 358
#     4   9  17  31  55  88 120 151 187 237 303 361
#     4   9  21  36  62  86 123 161 199 244 299 363
#     4  11  20  38  62  90 121 157 200 254 306 359
#     4  10  22  41  63  86 121 165 208 248 296 354
#
# _framework density 25.086933999999999
#
# number of rings (size 3 to 8) (size 9 to 14) (size 15 to 20)
#    1.200    1.000    0.000    4.200    0.000    3.600 
#    0.000    3.000    0.000    1.200    0.000    0.000 
#    0.000    0.000    0.000    0.000    0.000    0.000 
#
# Total GULP energy -111492.521233 kJ/mol
# GULP energy per Si atom -5574.626062 kJ/mol
# Density = 2.502983 g / cm^3
# Si number density = 25.086934 Si / 1000 Ang^3
#
#
#
# Elastic Constant Matrix: (Units=GPa)
#
#
# Indices 1 2 3 4 5 6 
#
# 1 50.3431 4.1471 -4.4952 0.0000 -2.8674 0.0000
# 2 4.1471 154.4288 12.0472 0.0000 -3.9646 0.0000
# 3 -4.4952 12.0472 81.1298 0.0000 -6.2078 0.0000
# 4 0.0000 0.0000 0.0000 22.4712 0.0000 -3.8174
# 5 -2.8674 -3.9646 -6.2078 0.0000 26.7900 0.0000
# 6 0.0000 0.0000 0.0000 -3.8174 0.0000 21.3582
#
#
#
# Elastic Compliance Matrix: (Units=1/GPa)
#
#
# Indices 1 2 3 4 5 6 
#
# 1 0.020172 -0.000589 0.001388 0.000000 0.002394 0.000000
# 2 -0.000589 0.006584 -0.000957 0.000000 0.000689 0.000000
# 3 0.001388 -0.000957 0.012772 0.000000 0.002966 0.000000
# 4 0.000000 0.000000 0.000000 0.045895 0.000000 0.008203
# 5 0.002394 0.000689 0.002966 0.000000 0.038373 0.000000
# 6 0.000000 0.000000 0.000000 0.008203 0.000000 0.048286
#
#
# Mechanical properties :
#
#
# Convention : Reuss Voigt Hill
#
# Bulk Modulus (GPa) = 25.50201 34.36664 29.93433
# Shear Modulus (GPa) = 26.95869 32.40405 29.68137
#
# Velocity S-wave (km/s) = 3.28168 3.59788 3.44341
# Velocity P-wave (km/s) = 4.95447 5.56672 5.26950
#
# Compressibility (1/GPa) = 0.03921259
#
# Stress axis : x y z
#
# Youngs Moduli (GPa) = 49.57247 151.89077 78.29619
#
# Poissons Ratio (x) = 0.08940 -0.10870
# Poissons Ratio (y) = 0.02918 0.07497
# Poissons Ratio (z) = -0.06882 0.14543
#
# Static dielectric constant tensor:
#      x y z
#    x 1.995850 0.000000 -0.079520 
#    y 0.000000 2.078470 0.000000 
#    z -0.079520 0.000000 2.011070 
# 
# From -- ./inp_files/113131.got.cif
#   From: 2010.05.17/outbox.cif.g08.bks.cpg/sg12_57_cif.got.tgz:113131.got - 2010.06.03 13:09:07.
