data_PCOD9215830
_publ_section_title
;
Structure prediction by ZEFSAII (Michael W. Deem and Ramdas Pophale) SiO2 
 PCOD9215830
Probable space group: C 2/M
;
_chemical_formula_sum "Si O2"
_cell_formula_units_Z 56
_cell_length_a 17.030556
_cell_length_b 19.231453
_cell_length_c 13.549132
_cell_angle_alpha 90.000000
_cell_angle_beta 34.908871
_cell_angle_gamma 90.000000
_cell_volume 2539.542821
_symmetry_space_group_name_H-M "C 2/M"
_symmetry_group_IT_number 12
_symmetry_cell_setting 'monoclinic'
loop_
_space_group_symop_operation_xyz
x,y,z
-x,y,-z
-x,-y,-z
x,-y,z
1/2+x,1/2+y,z
1/2-x,1/2+y,-z
1/2-x,1/2-y,-z
1/2+x,1/2-y,z
loop_
_atom_site_type_symbol
_atom_site_label
_atom_site_fract_x
_atom_site_fract_y
_atom_site_fract_z
Si Si1 0.186614 0.848345 0.395565
Si Si2 0.365333 0.077379 0.572490
Si Si3 0.337251 0.919010 0.059054
Si Si4 0.048730 0.919036 0.249769
Si Si5 0.012994 0.789785 0.152033
Si Si6 0.079411 0.652629 0.689271
Si Si7 0.220099 0.212756 0.776415
O O1 0.283946 0.886749 0.216081
O O2 0.274813 0.844602 0.405556
O O3 0.170714 0.771026 0.367600
O O4 0.049995 0.890590 0.561371
O O5 0.500000 0.072762 0.500000
O O6 0.404479 0.108346 0.425680
O O7 0.271289 0.134412 0.721147
O O8 0.305298 0.000000 0.624674
O O9 0.206455 0.913670 0.120902
O O10 0.369532 0.000000 0.039708
O O11 0.467542 0.881254 0.877519
O O12 0.022691 0.866071 0.187245
O O13 0.017619 0.000000 0.261506
O O14 0.973733 0.731311 0.272243
O O15 0.896703 0.783868 0.187861
O O16 0.153122 0.771156 0.950817
#
# Coordination Sequence:
#
# PCOD9215830 Si02
#       7
#     8   8   8   8   8   8   8
#     4  11  22  42  67  96 128 161 212 265 317 382
#     4  11  26  43  62  92 131 171 215 261 308 371
#     4  11  24  40  63  96 132 167 205 259 323 381
#     4  11  25  40  61  94 133 169 206 257 318 378
#     4  10  22  42  67  94 125 163 214 264 312 378
#     4  11  23  43  68  93 125 167 215 264 314 374
#     4  10  22  42  66  93 125 165 212 266 317 366
#
# _framework density 22.051214000000002
#
# number of rings (size 3 to 8) (size 9 to 14) (size 15 to 20)
#    0.000    1.286    1.429    3.429    2.000   11.429 
#    0.000    1.429    0.000    0.000    0.000    0.000 
#    0.000    0.000    0.000    0.000    0.000    0.000 
#
# Total GULP energy -156659.427209 kJ/mol
# GULP energy per Si atom -5594.979543 kJ/mol
# Density = 2.200102 g / cm^3
# Si number density = 22.051214 Si / 1000 Ang^3
#
#
#
# Elastic Constant Matrix: (Units=GPa)
#
#
# Indices 1 2 3 4 5 6 
#
# 1 33.4849 13.7352 -4.7652 0.0000 2.7953 0.0003
# 2 13.7352 157.0845 9.1905 0.0009 -6.4983 -0.0005
# 3 -4.7652 9.1905 40.6562 0.0014 -18.2186 -0.0009
# 4 0.0000 0.0009 0.0014 47.3919 -0.0003 0.6990
# 5 2.7953 -6.4983 -18.2186 -0.0003 19.8901 -0.0003
# 6 0.0003 -0.0005 -0.0009 0.6990 -0.0003 29.0950
#
#
#
# Elastic Compliance Matrix: (Units=1/GPa)
#
#
# Indices 1 2 3 4 5 6 
#
# 1 0.031803 -0.003076 0.003341 0.000000 -0.002414 0.000000
# 2 -0.003076 0.006769 -0.001198 0.000000 0.001547 0.000000
# 3 0.003341 -0.001198 0.042190 -0.000001 0.037784 0.000002
# 4 0.000000 0.000000 -0.000001 0.021108 -0.000001 -0.000507
# 5 -0.002414 0.001547 0.037784 -0.000001 0.085730 0.000002
# 6 0.000000 0.000000 0.000002 -0.000507 0.000002 0.034382
#
#
# Mechanical properties :
#
#
# Convention : Reuss Voigt Hill
#
# Bulk Modulus (GPa) = 12.67472 29.72741 21.20107
# Shear Modulus (GPa) = 19.98821 33.47973 26.73397
#
# Velocity S-wave (km/s) = 3.01399 3.90073 3.48567
# Velocity P-wave (km/s) = 4.22759 5.81360 5.08283
#
# Compressibility (1/GPa) = 0.07889721
#
# Stress axis : x y z
#
# Youngs Moduli (GPa) = 31.44352 147.73166 23.70208
#
# Poissons Ratio (x) = 0.45445 -0.07919
# Poissons Ratio (y) = 0.09673 0.02838
# Poissons Ratio (z) = -0.10505 0.17691
#
# Static dielectric constant tensor:
#      x y z
#    x 1.795690 0.000000 0.002690 
#    y 0.000000 1.811440 0.000000 
#    z 0.002690 0.000000 1.791830 
# 
# From -- ./inp_files/234641.got.cif
#   From: 2010.05.17/outbox.cif.g08.bks.cpg/sg12_118_cif.got.tgz:234641.got - 2010.06.03 13:09:07.
