data_PCOD9215660
_publ_section_title
;
Structure prediction by ZEFSAII (Michael W. Deem and Ramdas Pophale) SiO2 
 PCOD9215660
Probable space group: C 2/M
;
_chemical_formula_sum "Si O2"
_cell_formula_units_Z 34
_cell_length_a 7.146756
_cell_length_b 16.759813
_cell_length_c 15.290049
_cell_angle_alpha 90.000000
_cell_angle_beta 47.091601
_cell_angle_gamma 90.000000
_cell_volume 1341.408009
_symmetry_space_group_name_H-M "C 2/M"
_symmetry_group_IT_number 12
_symmetry_cell_setting 'monoclinic'
loop_
_space_group_symop_operation_xyz
x,y,z
-x,y,-z
-x,-y,-z
x,-y,z
1/2+x,1/2+y,z
1/2-x,1/2+y,-z
1/2-x,1/2-y,-z
1/2+x,1/2-y,z
loop_
_atom_site_type_symbol
_atom_site_label
_atom_site_fract_x
_atom_site_fract_y
_atom_site_fract_z
Si Si1 0.000000 0.500000 0.500000
Si Si2 0.984668 0.205083 0.595690
Si Si3 0.315091 0.655268 0.977020
Si Si4 0.773038 0.629416 0.712604
Si Si5 0.382040 0.907406 0.223814
O O1 0.881248 0.569634 0.605020
O O2 0.796297 0.279944 0.669555
O O3 0.881566 0.140839 0.694951
O O4 0.000000 0.156808 0.500000
O O5 0.250000 0.250000 0.500000
O O6 0.487630 0.622767 0.843060
O O7 0.500000 0.641252 0.000000
O O8 0.250000 0.750000 0.000000
O O9 0.054771 0.611464 0.085060
O O10 0.961021 0.621173 0.738745
O O11 0.333641 0.000000 0.248090
#
# Coordination Sequence:
#
# PCOD9215660 Si02
#       5
#     2   8   8   8   8
#     4  12  24  40  66 106 164 180 238 300 366 432
#     4  12  24  42  67  97 139 188 239 286 355 436
#     4  10  22  41  73 104 142 187 242 290 355 439
#     4  11  23  41  68 107 143 196 234 289 365 432
#     4  11  24  44  72 106 141 185 246 304 355 427
#
# _framework density 25.346502999999998
#
# number of rings (size 3 to 8) (size 9 to 14) (size 15 to 20)
#    0.000    0.941    7.059    0.000    1.647    1.882 
#    2.118    0.000    0.000    0.706    0.000    0.000 
#    0.000    0.000    0.000    0.000    0.000    0.000 
#
# Total GULP energy -94743.430607 kJ/mol
# GULP energy per Si atom -5573.142977 kJ/mol
# Density = 2.528881 g / cm^3
# Si number density = 25.346503 Si / 1000 Ang^3
#
#
#
# Elastic Constant Matrix: (Units=GPa)
#
#
# Indices 1 2 3 4 5 6 
#
# 1 70.0292 11.6021 74.8482 0.0000 4.6294 0.0000
# 2 11.6021 167.9670 82.7823 0.0000 5.1591 0.0000
# 3 74.8482 82.7823 290.4747 0.0000 5.7447 0.0000
# 4 0.0000 0.0000 0.0000 51.9957 0.0000 5.5765
# 5 4.6294 5.1591 5.7447 0.0000 52.3410 0.0000
# 6 0.0000 0.0000 0.0000 5.5765 0.0000 0.6455
#
#
#
# Elastic Compliance Matrix: (Units=1/GPa)
#
#
# Indices 1 2 3 4 5 6 
#
# 1 0.020053 0.001383 -0.005536 0.000001 -0.001302 -0.000006
# 2 0.001383 0.007033 -0.002350 0.000000 -0.000558 0.000000
# 3 -0.005536 -0.002350 0.005536 0.000000 0.000114 0.000000
# 4 0.000001 0.000000 0.000000 0.261565 0.000000 -2.259526
# 5 -0.001302 -0.000558 0.000114 0.000000 0.019263 0.000004
# 6 -0.000006 0.000000 0.000000 -2.259526 0.000004 21.067966
#
#
# Mechanical properties :
#
#
# Convention : Reuss Voigt Hill
#
# Bulk Modulus (GPa) = 50.97272 96.32623 73.64947
# Shear Modulus (GPa) = 0.23363 44.94567 22.58965
#
# Velocity S-wave (km/s) = 0.30393 4.21556 2.98859
# Velocity P-wave (km/s) = 4.50302 7.86008 6.40539
#
# Compressibility (1/GPa) = 0.01961834
#
# Stress axis : x y z
#
# Youngs Moduli (GPa) = 49.86711 142.18246 180.62111
#
# Poissons Ratio (x) = -0.19665 0.99986
# Poissons Ratio (y) = -0.06897 0.42442
# Poissons Ratio (z) = 0.27605 0.33409
#
# Static dielectric constant tensor:
#      x y z
#    x 1.751360 0.000000 -0.373880 
#    y 0.000000 -8.554160 -0.000010 
#    z -0.373880 -0.000010 1.299050 
# 
# From -- ./inp_files/256342.got.cif
#   From: 2010.05.17/outbox.cif.g08.bks.cpg/sg12_129_cif.got.tgz:256342.got - 2010.06.03 13:09:07.
