data_PCOD9215685
_publ_section_title
;
Structure prediction by ZEFSAII (Michael W. Deem and Ramdas Pophale) SiO2 
 PCOD9215685
Probable space group: C 2/M
;
_chemical_formula_sum "Si O2"
_cell_formula_units_Z 34
_cell_length_a 17.303685
_cell_length_b 14.006805
_cell_length_c 17.598266
_cell_angle_alpha 90.000000
_cell_angle_beta 157.039801
_cell_angle_gamma 90.000000
_cell_volume 1663.849946
_symmetry_space_group_name_H-M "C 2/M"
_symmetry_group_IT_number 12
_symmetry_cell_setting 'monoclinic'
loop_
_space_group_symop_operation_xyz
x,y,z
-x,y,-z
-x,-y,-z
x,-y,z
1/2+x,1/2+y,z
1/2-x,1/2+y,-z
1/2-x,1/2-y,-z
1/2+x,1/2-y,z
loop_
_atom_site_type_symbol
_atom_site_label
_atom_site_fract_x
_atom_site_fract_y
_atom_site_fract_z
Si Si1 0.771167 0.163403 0.077422
Si Si2 0.483999 0.000000 0.779979
Si Si3 0.531985 0.000000 0.407182
Si Si4 0.500000 0.500000 0.500000
Si Si5 0.089683 0.000000 0.342420
Si Si6 0.000000 0.339352 0.500000
Si Si7 0.265941 0.181063 0.784738
O O1 0.577018 0.094535 0.900615
O O2 0.750000 0.250000 0.000000
O O3 0.804928 0.199489 0.192988
O O4 0.951696 0.092402 0.220770
O O5 0.558742 0.000000 0.759369
O O6 0.245392 0.000000 0.554871
O O7 0.766501 0.000000 0.599789
O O8 0.479995 0.908159 0.409560
O O9 0.665438 0.583890 0.667184
O O10 0.812978 0.268996 0.336653
O O11 0.500000 0.175466 0.000000
#
# Coordination Sequence:
#
# PCOD9215685 Si02
#       7
#     8   4   4   2   4   4   8
#     4  11  23  39  62  94 125 153 210 255 296 371
#     4   9  21  39  61  88 121 159 203 247 306 352
#     4   9  20  44  65  88 124 165 199 256 311 360
#     4  10  22  44  60  82 132 158 214 250 280 384
#     4   9  23  40  62  92 118 167 198 249 320 343
#     4  10  22  42  62  92 128 156 210 250 300 386
#     4  11  25  39  64  92 124 168 202 249 317 354
#
# _framework density 20.434535
#
# number of rings (size 3 to 8) (size 9 to 14) (size 15 to 20)
#    0.706    1.176    0.000    3.176    3.294    6.588 
#    0.000    1.176    0.000    0.000    0.000    0.000 
#    0.000    0.000    0.000    0.000    0.000    0.000 
#
# Total GULP energy -94682.592701 kJ/mol
# GULP energy per Si atom -5569.564277 kJ/mol
# Density = 2.038803 g / cm^3
# Si number density = 20.434535 Si / 1000 Ang^3
#
#
#
# Elastic Constant Matrix: (Units=GPa)
#
#
# Indices 1 2 3 4 5 6 
#
# 1 30.2511 8.7260 -19.2219 -0.0013 -5.9207 0.0003
# 2 8.7260 147.3097 52.9357 0.0023 -3.3434 0.0026
# 3 -19.2219 52.9357 127.1657 -0.0018 17.3844 0.0039
# 4 -0.0013 0.0023 -0.0018 10.8235 0.0000 -14.2522
# 5 -5.9207 -3.3434 17.3844 0.0000 34.4749 0.0016
# 6 0.0003 0.0026 0.0039 -14.2522 0.0016 4.2614
#
#
#
# Elastic Compliance Matrix: (Units=1/GPa)
#
#
# Indices 1 2 3 4 5 6 
#
# 1 0.040002 -0.005138 0.007856 0.000001 0.002410 -0.000005
# 2 -0.005138 0.008871 -0.004797 0.000002 0.002397 0.000004
# 3 0.007856 -0.004797 0.011736 0.000001 -0.005034 -0.000002
# 4 0.000001 0.000002 0.000001 -0.027142 0.000004 -0.090777
# 5 0.002410 0.002397 -0.005034 0.000004 0.032192 0.000004
# 6 -0.000005 0.000004 -0.000002 -0.090777 0.000004 -0.068938
#
#
# Mechanical properties :
#
#
# Convention : Reuss Voigt Hill
#
# Bulk Modulus (GPa) = 17.71437 43.28957 30.50197
# Shear Modulus (GPa) = 253.85132 27.39773 140.62453
#
# Velocity S-wave (km/s) = 11.15779 3.66561 8.30461
# Velocity P-wave (km/s) = 13.21676 6.25668 10.33994
#
# Compressibility (1/GPa) = 0.05645134
#
# Stress axis : x y z
#
# Youngs Moduli (GPa) = 24.99865 112.72707 85.20557
#
# Poissons Ratio (x) = 0.57918 -0.66936
# Poissons Ratio (y) = 0.12844 0.40874
# Poissons Ratio (z) = -0.19639 0.54076
#
# Static dielectric constant tensor:
#      x y z
#    x 1.695930 0.000000 -0.006220 
#    y 0.000000 1.665390 0.000000 
#    z -0.006220 0.000000 1.710930 
# 
# From -- ./inp_files/321424.got.cif
#   From: 2010.05.17/outbox.cif.g08.bks.cpg/sg12_161_cif.got.tgz:321424.got - 2010.06.03 13:09:07.
