data_PCOD9215985
_publ_section_title
;
Structure prediction by ZEFSAII (Michael W. Deem and Ramdas Pophale) SiO2 
 PCOD9215985
Probable space group: C 2/M
;
_chemical_formula_sum "Si O2"
_cell_formula_units_Z 48
_cell_length_a 19.197258
_cell_length_b 26.896777
_cell_length_c 9.372587
_cell_angle_alpha 90.000000
_cell_angle_beta 30.417736
_cell_angle_gamma 90.000000
_cell_volume 2450.233537
_symmetry_space_group_name_H-M "C 2/M"
_symmetry_group_IT_number 12
_symmetry_cell_setting 'monoclinic'
loop_
_space_group_symop_operation_xyz
x,y,z
-x,y,-z
-x,-y,-z
x,-y,z
1/2+x,1/2+y,z
1/2-x,1/2+y,-z
1/2-x,1/2-y,-z
1/2+x,1/2-y,z
loop_
_atom_site_type_symbol
_atom_site_label
_atom_site_fract_x
_atom_site_fract_y
_atom_site_fract_z
Si Si1 0.182204 0.799321 0.563153
Si Si2 0.055827 0.775363 0.242275
Si Si3 0.141826 0.389806 0.834548
Si Si4 0.036905 0.338840 0.270598
Si Si5 0.273418 0.347128 0.233808
Si Si6 0.835612 0.057363 0.270963
O O1 0.250000 0.750000 0.500000
O O2 0.067401 0.787089 0.650275
O O3 0.299671 0.834674 0.293838
O O4 0.142191 0.827256 0.779300
O O5 0.099412 0.717236 0.151909
O O6 0.000000 0.781995 0.500000
O O7 0.172112 0.815708 0.996235
O O8 0.254897 0.424585 0.557288
O O9 0.000000 0.398587 0.000000
O O10 0.112695 0.384163 0.055237
O O11 0.886592 0.335028 0.463020
O O12 0.000000 0.349779 0.500000
O O13 0.292079 0.406139 0.217979
O O14 0.801088 0.000000 0.304799
O O15 0.000000 0.061344 0.000000
#
# Coordination Sequence:
#
# PCOD9215985 Si02
#       6
#     8   8   8   8   8   8
#     4  11  19  34  57  82 118 160 205 254 291 356
#     4  11  24  36  56  88 128 175 212 245 299 364
#     4  11  20  38  62  90 116 159 207 248 308 367
#     4  11  24  37  55  89 135 168 201 249 299 364
#     4  11  21  40  59  88 121 165 207 255 308 359
#     4  10  22  42  69  95 117 146 204 272 318 362
#
# _framework density 19.589970999999998
#
# number of rings (size 3 to 8) (size 9 to 14) (size 15 to 20)
#    0.000    1.167    5.000    3.500    2.333    1.667 
#    0.000    0.000    0.000    2.500    0.000    0.000 
#    0.000    0.000    0.000    0.000    0.000    0.000 
#
# Total GULP energy -133772.736666 kJ/mol
# GULP energy per Si atom -5573.864028 kJ/mol
# Density = 1.954538 g / cm^3
# Si number density = 19.589971 Si / 1000 Ang^3
#
#
#
# Elastic Constant Matrix: (Units=GPa)
#
#
# Indices 1 2 3 4 5 6 
#
# 1 63.6058 10.2896 19.0265 -0.0001 14.1392 0.0001
# 2 10.2896 125.8342 44.2892 0.0000 7.6051 0.0000
# 3 19.0265 44.2892 107.9202 -0.0001 16.8624 0.0001
# 4 -0.0001 0.0000 -0.0001 22.4827 0.0000 2.0338
# 5 14.1392 7.6051 16.8624 0.0000 36.3468 -0.0001
# 6 0.0001 0.0000 0.0001 2.0338 -0.0001 14.6074
#
#
#
# Elastic Compliance Matrix: (Units=1/GPa)
#
#
# Indices 1 2 3 4 5 6 
#
# 1 0.017697 -0.000371 -0.002053 0.000000 -0.005854 0.000000
# 2 -0.000371 0.009298 -0.003740 0.000000 -0.000066 0.000000
# 3 -0.002053 -0.003740 0.011769 0.000000 -0.003879 0.000000
# 4 0.000000 0.000000 0.000000 0.045046 0.000000 -0.006272
# 5 -0.005854 -0.000066 -0.003879 0.000000 0.031603 0.000000
# 6 0.000000 0.000000 0.000000 -0.006272 0.000000 0.069332
#
#
# Mechanical properties :
#
#
# Convention : Reuss Voigt Hill
#
# Bulk Modulus (GPa) = 37.82682 49.39676 43.61179
# Shear Modulus (GPa) = 24.28543 29.60438 26.94491
#
# Velocity S-wave (km/s) = 3.52474 3.89163 3.71272
# Velocity P-wave (km/s) = 5.99302 6.74264 6.37885
#
# Compressibility (1/GPa) = 0.02643627
#
# Stress axis : x y z
#
# Youngs Moduli (GPa) = 56.50560 107.55466 84.96919
#
# Poissons Ratio (x) = 0.03986 0.17446
# Poissons Ratio (y) = 0.02094 0.31778
# Poissons Ratio (z) = 0.11602 0.40225
#
# Static dielectric constant tensor:
#      x y z
#    x 1.725410 0.000000 0.012580 
#    y 0.000000 2.681160 0.000000 
#    z 0.012580 0.000000 1.807650 
# 
# From -- ./inp_files/91188.got.cif
#   From: 2010.05.17/outbox.cif.g08.bks.cpg/sg12_46_cif.got.tgz:91188.got - 2010.06.03 13:09:07.
