data_PCOD9215069
_publ_section_title
;
Structure prediction by ZEFSAII (Michael W. Deem and Ramdas Pophale) SiO2 
 PCOD9215069
Probable space group: C 2/M
;
_chemical_formula_sum "Si O2"
_cell_formula_units_Z 48
_cell_length_a 8.726166
_cell_length_b 29.563221
_cell_length_c 16.651600
_cell_angle_alpha 90.000000
_cell_angle_beta 30.891845
_cell_angle_gamma 90.000000
_cell_volume 2205.480518
_symmetry_space_group_name_H-M "C 2/M"
_symmetry_group_IT_number 12
_symmetry_cell_setting 'monoclinic'
loop_
_space_group_symop_operation_xyz
x,y,z
-x,y,-z
-x,-y,-z
x,-y,z
1/2+x,1/2+y,z
1/2-x,1/2+y,-z
1/2-x,1/2-y,-z
1/2+x,1/2-y,z
loop_
_atom_site_type_symbol
_atom_site_label
_atom_site_fract_x
_atom_site_fract_y
_atom_site_fract_z
Si Si1 0.303118 0.299021 0.791549
Si Si2 0.612407 0.129594 0.089580
Si Si3 0.450648 0.294940 0.139642
Si Si4 0.040552 0.950598 0.885152
Si Si5 0.319770 0.084431 0.379615
Si Si6 0.864795 0.665907 0.471121
O O1 0.424336 0.295542 0.826250
O O2 0.097003 0.256180 0.866182
O O3 0.589295 0.300066 0.604726
O O4 0.137510 0.346662 0.852428
O O5 0.455661 0.108964 0.238920
O O6 0.830814 0.172233 0.007512
O O7 0.827479 0.090886 0.954930
O O8 0.122430 0.315970 0.297190
O O9 0.395019 0.943114 0.715029
O O10 0.951088 0.000000 0.893646
O O11 0.000000 0.951325 0.000000
O O12 0.250626 0.120832 0.479688
O O13 0.000000 0.062514 0.500000
O O14 0.000000 0.658173 0.500000
#
# Coordination Sequence:
#
# PCOD9215069 Si02
#       6
#     8   8   8   8   8   8
#     4  11  24  39  61  90 126 168 209 255 297 364
#     4  11  22  38  63  89 124 161 205 253 306 359
#     4  11  24  39  61  89 127 167 213 251 303 357
#     4   9  20  38  63  96 124 152 195 252 315 368
#     4  11  21  38  67  90 120 161 202 255 307 365
#     4  10  22  41  59  87 124 168 204 253 302 363
#
# _framework density 21.763963
#
# number of rings (size 3 to 8) (size 9 to 14) (size 15 to 20)
#    0.000    1.500    3.333    1.500    2.333    0.333 
#    0.000    0.000    0.000    2.500    0.000    0.000 
#    0.000    0.000    0.000    0.000    0.000    0.000 
#
# Total GULP energy -133992.631878 kJ/mol
# GULP energy per Si atom -5583.026328 kJ/mol
# Density = 2.171443 g / cm^3
# Si number density = 21.763963 Si / 1000 Ang^3
#
#
#
# Elastic Constant Matrix: (Units=GPa)
#
#
# Indices 1 2 3 4 5 6 
#
# 1 54.5637 36.2784 13.4569 0.0000 -19.7246 0.0000
# 2 36.2784 91.7046 7.7016 0.0000 -26.5801 0.0000
# 3 13.4569 7.7016 121.3929 0.0000 -20.7086 0.0000
# 4 0.0000 0.0000 0.0000 13.5165 0.0000 -6.7113
# 5 -19.7246 -26.5801 -20.7086 0.0000 32.6025 0.0000
# 6 0.0000 0.0000 0.0000 -6.7113 0.0000 17.9948
#
#
#
# Elastic Compliance Matrix: (Units=1/GPa)
#
#
# Indices 1 2 3 4 5 6 
#
# 1 0.027258 -0.007980 -0.000911 0.000000 0.009407 0.000000
# 2 -0.007980 0.016776 0.001491 0.000000 0.009796 0.000000
# 3 -0.000911 0.001491 0.009373 0.000000 0.006619 0.000000
# 4 0.000000 0.000000 0.000000 0.090798 0.000000 0.033864
# 5 0.009407 0.009796 0.006619 0.000000 0.048554 0.000000
# 6 0.000000 0.000000 0.000000 0.033864 0.000000 0.068202
#
#
# Mechanical properties :
#
#
# Convention : Reuss Voigt Hill
#
# Bulk Modulus (GPa) = 25.90146 42.50387 34.20267
# Shear Modulus (GPa) = 17.32322 26.83771 22.08046
#
# Velocity S-wave (km/s) = 2.82433 3.51540 3.18864
# Velocity P-wave (km/s) = 4.75003 6.00410 5.41350
#
# Compressibility (1/GPa) = 0.03860786
#
# Stress axis : x y z
#
# Youngs Moduli (GPa) = 36.68603 59.60995 106.68786
#
# Poissons Ratio (x) = 0.47571 0.09716
# Poissons Ratio (y) = 0.29277 -0.15912
# Poissons Ratio (z) = 0.03341 -0.08891
#
# Static dielectric constant tensor:
#      x y z
#    x 1.801720 0.000000 -0.041910 
#    y 0.000000 1.796810 0.000000 
#    z -0.041910 0.000000 1.866490 
# 
# From -- ./inp_files/200781.got.cif
#   From: 2010.05.17/outbox.cif.g08.bks.cpg/sg12_101_cif.got.tgz:200781.got - 2010.06.03 13:09:07.
