data_PCOD9215733
_publ_section_title
;
Structure prediction by ZEFSAII (Michael W. Deem and Ramdas Pophale) SiO2 
 PCOD9215733
Probable space group: C 2/M
;
_chemical_formula_sum "Si O2"
_cell_formula_units_Z 40
_cell_length_a 15.856453
_cell_length_b 12.544630
_cell_length_c 18.604209
_cell_angle_alpha 90.000000
_cell_angle_beta 146.240555
_cell_angle_gamma 90.000000
_cell_volume 2056.464444
_symmetry_space_group_name_H-M "C 2/M"
_symmetry_group_IT_number 12
_symmetry_cell_setting 'monoclinic'
loop_
_space_group_symop_operation_xyz
x,y,z
-x,y,-z
-x,-y,-z
x,-y,z
1/2+x,1/2+y,z
1/2-x,1/2+y,-z
1/2-x,1/2-y,-z
1/2+x,1/2-y,z
loop_
_atom_site_type_symbol
_atom_site_label
_atom_site_fract_x
_atom_site_fract_y
_atom_site_fract_z
Si Si1 0.574696 0.125922 0.748992
Si Si2 0.870424 0.226521 0.521971
Si Si3 0.014135 0.000000 0.597648
Si Si4 0.605841 0.200953 0.237791
Si Si5 0.634320 0.000000 0.153329
Si Si6 0.423455 0.376642 0.023964
O O1 0.507304 0.193300 0.635257
O O2 0.477051 0.154002 0.750490
O O3 0.565537 0.000000 0.728115
O O4 0.748117 0.153869 0.889382
O O5 0.750000 0.250000 0.500000
O O6 0.931627 0.106094 0.566993
O O7 0.773831 0.237616 0.380780
O O8 0.000000 0.000000 0.500000
O O9 0.189810 0.000000 0.746498
O O10 0.616256 0.105742 0.188425
O O11 0.509869 0.298044 0.138306
O O12 0.500000 0.000000 0.000000
O O13 0.430286 0.500000 0.053204
O O14 0.500000 0.370242 0.000000
#
# Coordination Sequence:
#
# PCOD9215733 Si02
#       6
#     8   8   4   8   4   8
#     4  10  22  42  64  90 128 172 218 271 332 392
#     4  10  24  40  67  95 130 174 212 270 334 396
#     4  12  24  46  70  98 141 174 223 284 335 381
#     4  11  21  42  63  92 130 165 218 269 329 401
#     4  12  26  40  70 102 133 172 218 279 337 393
#     4  10  23  41  61  87 127 170 217 274 327 388
#
# _framework density 19.450859999999999
#
# number of rings (size 3 to 8) (size 9 to 14) (size 15 to 20)
#    0.000    1.400    3.000    1.200    9.800    0.800 
#    5.400    0.000    0.000    4.200    0.000    0.000 
#    0.000    0.000    0.000    0.000    0.000    0.000 
#
# Total GULP energy -111742.628760 kJ/mol
# GULP energy per Si atom -5587.131438 kJ/mol
# Density = 1.940659 g / cm^3
# Si number density = 19.450860 Si / 1000 Ang^3
#
#
#
# Elastic Constant Matrix: (Units=GPa)
#
#
# Indices 1 2 3 4 5 6 
#
# 1 47.9853 26.8072 33.4398 0.0000 7.2985 0.0000
# 2 26.8072 134.1750 119.7676 0.0000 -0.6706 -0.0001
# 3 33.4398 119.7676 212.3658 0.0000 -1.2105 0.0002
# 4 0.0000 0.0000 0.0000 33.1173 0.0000 16.6490
# 5 7.2985 -0.6706 -1.2105 0.0000 30.3437 0.0001
# 6 0.0000 -0.0001 0.0002 16.6490 0.0001 13.5730
#
#
#
# Elastic Compliance Matrix: (Units=1/GPa)
#
#
# Indices 1 2 3 4 5 6 
#
# 1 0.025048 -0.002987 -0.002295 0.000000 -0.006182 0.000000
# 2 -0.002987 0.015364 -0.008191 0.000000 0.000731 0.000001
# 3 -0.002295 -0.008191 0.009694 0.000000 0.000758 0.000000
# 4 0.000000 0.000000 0.000000 0.078770 0.000000 -0.096622
# 5 -0.006182 0.000731 0.000758 0.000000 0.034489 0.000000
# 6 0.000000 0.000001 0.000000 -0.096622 0.000000 0.192196
#
#
# Mechanical properties :
#
#
# Convention : Reuss Voigt Hill
#
# Bulk Modulus (GPa) = 43.17505 83.83949 63.50727
# Shear Modulus (GPa) = 12.81308 29.70755 21.26031
#
# Velocity S-wave (km/s) = 2.56938 3.91233 3.30968
# Velocity P-wave (km/s) = 5.57202 7.97529 6.87941
#
# Compressibility (1/GPa) = 0.02316152
#
# Stress axis : x y z
#
# Youngs Moduli (GPa) = 39.92351 65.08526 103.15904
#
# Poissons Ratio (x) = 0.19440 0.23674
# Poissons Ratio (y) = 0.11924 0.84493
# Poissons Ratio (z) = 0.09162 0.53309
#
# Static dielectric constant tensor:
#      x y z
#    x 1.708300 0.000000 0.040610 
#    y 0.000000 1.649380 0.000000 
#    z 0.040610 0.000000 1.714290 
# 
# From -- ./inp_files/315861.got.cif
#   From: 2010.05.17/outbox.cif.g08.bks.cpg/sg12_158_cif.got.tgz:315861.got - 2010.06.03 13:09:07.
