data_PCOD9215161
_publ_section_title
;
Structure prediction by ZEFSAII (Michael W. Deem and Ramdas Pophale) SiO2 
 PCOD9215161
Probable space group: C 2/M
;
_chemical_formula_sum "Si O2"
_cell_formula_units_Z 64
_cell_length_a 21.182676
_cell_length_b 19.479761
_cell_length_c 15.919927
_cell_angle_alpha 90.000000
_cell_angle_beta 155.845517
_cell_angle_gamma 90.000000
_cell_volume 2688.062343
_symmetry_space_group_name_H-M "C 2/M"
_symmetry_group_IT_number 12
_symmetry_cell_setting 'monoclinic'
loop_
_space_group_symop_operation_xyz
x,y,z
-x,y,-z
-x,-y,-z
x,-y,z
1/2+x,1/2+y,z
1/2-x,1/2+y,-z
1/2-x,1/2-y,-z
1/2+x,1/2-y,z
loop_
_atom_site_type_symbol
_atom_site_label
_atom_site_fract_x
_atom_site_fract_y
_atom_site_fract_z
Si Si1 0.241600 0.922479 0.293574
Si Si2 0.419322 0.889840 0.278072
Si Si3 0.454460 0.689619 0.048941
Si Si4 0.436127 0.573677 0.154382
Si Si5 0.469595 0.377981 0.552579
Si Si6 0.627696 0.154636 0.400199
Si Si7 0.698994 0.746580 0.841026
Si Si8 0.265491 0.211285 0.638646
O O1 0.424804 0.921490 0.493888
O O2 0.139673 0.868225 0.118501
O O3 0.254679 0.893447 0.404085
O O4 0.185454 0.000000 0.218579
O O5 0.466738 0.876750 0.237433
O O6 0.400057 0.815011 0.293965
O O7 0.251832 0.923410 0.079478
O O8 0.339043 0.745905 0.946943
O O9 0.405935 0.734259 0.820275
O O10 0.493170 0.642414 0.177458
O O11 0.485064 0.500000 0.177537
O O12 0.492573 0.578673 0.318549
O O13 0.500000 0.413938 0.500000
O O14 0.599132 0.319368 0.706498
O O15 0.312366 0.335025 0.384052
O O16 0.670472 0.160930 0.355899
O O17 0.640961 0.233146 0.451395
O O18 0.750000 0.750000 0.000000
#
# Coordination Sequence:
#
# PCOD9215161 Si02
#       8
#     8   8   8   8   8   8   8   8
#     4  10  22  41  63 103 147 187 232 274 339 434
#     4   9  19  37  63 100 132 186 225 278 344 412
#     4  11  24  39  69 104 144 186 223 288 349 425
#     4  11  23  42  69 100 140 190 237 286 349 416
#     4  12  26  43  69 103 131 178 235 299 351 414
#     4   9  20  37  64  92 131 184 225 278 338 412
#     4  11  20  39  61  98 136 168 234 289 340 413
#     4  11  22  44  65  96 140 176 232 291 365 400
#
# _framework density 23.808971
#
# number of rings (size 3 to 8) (size 9 to 14) (size 15 to 20)
#    0.750    0.750    3.750    3.000    3.500    2.250 
#    0.000    6.875    0.000    0.000    0.000    0.875 
#    0.000    0.000    0.000    0.000    0.000    0.000 
#
# Total GULP energy -178590.157742 kJ/mol
# GULP energy per Si atom -5580.942429 kJ/mol
# Density = 2.375478 g / cm^3
# Si number density = 23.808971 Si / 1000 Ang^3
#
#
#
# Elastic Constant Matrix: (Units=GPa)
#
#
# Indices 1 2 3 4 5 6 
#
# 1 140.1647 25.1842 33.4095 0.0000 13.4854 0.0000
# 2 25.1842 109.0308 37.1598 0.0000 4.2263 0.0000
# 3 33.4095 37.1598 100.9327 0.0000 -3.1540 0.0000
# 4 0.0000 0.0000 0.0000 -1.0088 0.0000 2.2842
# 5 13.4854 4.2263 -3.1540 0.0000 38.3052 0.0000
# 6 0.0000 0.0000 0.0000 2.2842 0.0000 16.9034
#
#
#
# Elastic Compliance Matrix: (Units=1/GPa)
#
#
# Indices 1 2 3 4 5 6 
#
# 1 0.008174 -0.000936 -0.002454 0.000000 -0.002976 0.000000
# 2 -0.000936 0.010679 -0.003658 0.000000 -0.001150 0.000000
# 3 -0.002454 -0.003658 0.012137 0.000000 0.002267 0.000000
# 4 0.000000 0.000000 0.000000 -0.759027 0.000000 0.102570
# 5 -0.002976 -0.001150 0.002267 0.000000 0.027467 0.000000
# 6 0.000000 0.000000 0.000000 0.102570 0.000000 0.045299
#
#
# Mechanical properties :
#
#
# Convention : Reuss Voigt Hill
#
# Bulk Modulus (GPa) = 59.19056 60.18168 59.68612
# Shear Modulus (GPa) = -7.86729 27.79827 9.96549
#
# Velocity S-wave (km/s) = -1.81976 3.42066 2.04809
# Velocity P-wave (km/s) = 4.52761 6.39789 5.54221
#
# Compressibility (1/GPa) = 0.01689459
#
# Stress axis : x y z
#
# Youngs Moduli (GPa) = 122.33945 93.64022 82.39046
#
# Poissons Ratio (x) = 0.08768 0.20218
# Poissons Ratio (y) = 0.11455 0.30136
# Poissons Ratio (z) = 0.30021 0.34251
#
# Static dielectric constant tensor:
#      x y z
#    x 2.062210 0.000000 -0.039700 
#    y 0.000000 1.857760 0.000000 
#    z -0.039700 0.000000 2.069420 
# 
# From -- ./inp_files/170185.got.cif
#   From: 2010.05.17/outbox.cif.g08.bks.cpg/sg12_86_cif.got.tgz:170185.got - 2010.06.03 13:09:07.
